MODEL 1
REMARK minimizedAffinity -8.00621605
REMARK CNNscore 0.365301847
REMARK CNNaffinity 6.68848801
REMARK  14 active torsions:
REMARK  status: ('A' for Active; 'I' for Inactive)
REMARK    1  A    between atoms: C2_2  and  C4_4 
REMARK    2  A    between atoms: C7_7  and  C8_8 
REMARK    3  A    between atoms: C8_8  and  O2_10 
REMARK    4  A    between atoms: C21_23  and  O3_24 
REMARK    5  A    between atoms: O3_24  and  C22_25 
REMARK    6  A    between atoms: C22_25  and  C23_27 
REMARK    7  A    between atoms: C23_27  and  N1_28 
REMARK    8  A    between atoms: N1_28  and  O5_29 
REMARK    9  A    between atoms: N1_28  and  C25_31 
REMARK   10  A    between atoms: C26_33  and  C27_34 
REMARK   11  A    between atoms: C27_34  and  O7_35 
REMARK   12  A    between atoms: C28_36  and  O8_37 
REMARK   13  A    between atoms: C29_38  and  O9_39 
REMARK   14  A    between atoms: C30_40  and  O10_41 
ROOT
HETATM    1  C4  UNL     1     -17.696  43.212 -22.833  1.00  0.00     0.019 C 
HETATM    2  C5  UNL     1     -19.184  43.288 -22.432  1.00  0.00     0.011 C 
HETATM    3  C6  UNL     1     -19.927  43.653 -23.714  1.00  0.00     0.021 C 
HETATM    4  C7  UNL     1     -18.988  44.608 -24.489  1.00  0.00     0.050 C 
HETATM    5  C9  UNL     1     -19.085  44.314 -25.999  1.00  0.00     0.022 C 
HETATM    6  C10 UNL     1     -17.830  44.674 -26.805  1.00  0.00     0.011 C 
HETATM    7  C11 UNL     1     -16.510  44.025 -26.273  1.00  0.00    -0.032 C 
HETATM    8  C12 UNL     1     -16.732  42.495 -26.311  1.00  0.00     0.016 C 
HETATM    9  C13 UNL     1     -16.351  44.545 -24.798  1.00  0.00     0.000 C 
HETATM   10  C14 UNL     1     -15.970  46.066 -24.773  1.00  0.00     0.006 C 
HETATM   11  C15 UNL     1     -15.032  46.549 -25.875  1.00  0.00     0.006 C 
HETATM   12  C16 UNL     1     -14.216  45.380 -26.411  1.00  0.00     0.003 C 
HETATM   13  C17 UNL     1     -12.830  45.773 -27.078  1.00  0.00    -0.035 C 
HETATM   14  C18 UNL     1     -13.035  46.696 -28.299  1.00  0.00     0.016 C 
HETATM   15  C19 UNL     1     -11.973  46.560 -26.024  1.00  0.00     0.012 C 
HETATM   16  C20 UNL     1     -10.489  46.183 -25.957  1.00  0.00     0.034 C 
HETATM   17  C21 UNL     1      -9.870  45.828 -27.309  1.00  0.00     0.140 C 
HETATM   18  C31 UNL     1     -10.605  44.618 -27.985  1.00  0.00    -0.017 C 
HETATM   19  C32 UNL     1     -10.559  44.705 -29.526  1.00  0.00     0.018 C 
HETATM   20  C33 UNL     1      -9.802  43.336 -27.611  1.00  0.00     0.018 C 
HETATM   21  C34 UNL     1     -12.072  44.445 -27.419  1.00  0.00     0.004 C 
HETATM   22  C35 UNL     1     -12.947  43.459 -28.214  1.00  0.00     0.007 C 
HETATM   23  C36 UNL     1     -14.268  43.144 -27.496  1.00  0.00     0.011 C 
HETATM   24  C37 UNL     1     -15.165  44.390 -27.193  1.00  0.00    -0.032 C 
HETATM   25  C38 UNL     1     -15.643  44.926 -28.567  1.00  0.00     0.016 C 
HETATM   26  C39 UNL     1     -17.582  44.396 -23.849  1.00  0.00     0.017 C 
ENDROOT
BRANCH  17  27
HETATM   27  O3  UNL     1      -9.903  47.021 -28.117  1.00  0.00    -0.314 OA
BRANCH  27  28
HETATM   28  C22 UNL     1      -8.707  47.475 -28.614  1.00  0.00     0.274 C 
HETATM   29  O4  UNL     1      -8.536  48.589 -29.086  1.00  0.00    -0.264 OA
BRANCH  28  30
HETATM   30  C23 UNL     1      -7.644  46.400 -28.351  1.00  0.00     0.234 C 
BRANCH  30  31
HETATM   31  N1  UNL     1      -6.243  46.778 -28.649  1.00  0.00    -0.156 NA
BRANCH  31  32
HETATM   32  O5  UNL     1      -6.068  48.157 -28.220  1.00  0.00    -0.305 OA
HETATM   33  C24 UNL     1      -5.189  48.180 -27.095  1.00  0.00     0.230 C 
ENDBRANCH  31  32
BRANCH  31  34
HETATM   34  C25 UNL     1      -5.899  46.621 -30.082  1.00  0.00     0.253 C 
HETATM   35  O6  UNL     1      -6.977  46.066 -30.839  1.00  0.00    -0.356 OA
HETATM   36  C26 UNL     1      -6.640  45.719 -32.197  1.00  0.00     0.178 C 
HETATM   37  C28 UNL     1      -6.056  46.916 -32.980  1.00  0.00     0.180 C 
HETATM   38  C29 UNL     1      -4.955  47.648 -32.189  1.00  0.00     0.182 C 
HETATM   39  C30 UNL     1      -5.423  47.939 -30.755  1.00  0.00     0.195 C 
BRANCH  36  40
HETATM   40  C27 UNL     1      -5.759  44.456 -32.246  1.00  0.00     0.198 C 
BRANCH  40  41
HETATM   41  O7  UNL     1      -4.822  44.520 -33.313  1.00  0.00    -0.398 OA
HETATM   42  H42 UNL     1      -4.277  43.714 -33.266  1.00  0.00     0.209 HD
ENDBRANCH  40  41
ENDBRANCH  36  40
BRANCH  37  43
HETATM   43  O8  UNL     1      -7.111  47.841 -33.289  1.00  0.00    -0.390 OA
HETATM   44  H44 UNL     1      -7.321  48.322 -32.461  1.00  0.00     0.210 HD
ENDBRANCH  37  43
BRANCH  38  45
HETATM   45  O9  UNL     1      -3.746  46.886 -32.165  1.00  0.00    -0.390 OA
HETATM   46  H46 UNL     1      -3.420  46.848 -33.084  1.00  0.00     0.210 HD
ENDBRANCH  38  45
BRANCH  39  47
HETATM   47  O10 UNL     1      -6.502  48.899 -30.834  1.00  0.00    -0.389 OA
HETATM   48  H48 UNL     1      -7.152  48.604 -30.158  1.00  0.00     0.210 HD
ENDBRANCH  39  47
ENDBRANCH  31  34
ENDBRANCH  30  31
ENDBRANCH  28  30
ENDBRANCH  27  28
ENDBRANCH  17  27
BRANCH   1  49
HETATM   49  C2  UNL     1     -17.177  41.817 -23.161  1.00  0.00    -0.088 C 
HETATM   50  C1  UNL     1     -15.883  41.451 -23.142  1.00  0.00     0.014 C 
HETATM   51  C3  UNL     1     -18.199  40.837 -23.690  1.00  0.00     0.043 C 
ENDBRANCH   1  49
BRANCH   4  52
HETATM   52  C8  UNL     1     -19.447  46.058 -24.260  1.00  0.00     0.149 C 
HETATM   53  O1  UNL     1     -19.970  46.799 -25.077  1.00  0.00    -0.649 OA
BRANCH  52  54
HETATM   54  O2  UNL     1     -19.184  46.528 -23.025  1.00  0.00    -0.776 OA
HETATM   55  H11 UNL     1     -19.507  47.451 -23.054  1.00  0.00     0.167 HD
ENDBRANCH  52  54
ENDBRANCH   4  52
TORSDOF 14
ENDMDL
MODEL 2
REMARK minimizedAffinity -7.86783028
REMARK CNNscore 0.321750224
REMARK CNNaffinity 6.14677
REMARK  14 active torsions:
REMARK  status: ('A' for Active; 'I' for Inactive)
REMARK    1  A    between atoms: C2_2  and  C4_4 
REMARK    2  A    between atoms: C7_7  and  C8_8 
REMARK    3  A    between atoms: C8_8  and  O2_10 
REMARK    4  A    between atoms: C21_23  and  O3_24 
REMARK    5  A    between atoms: O3_24  and  C22_25 
REMARK    6  A    between atoms: C22_25  and  C23_27 
REMARK    7  A    between atoms: C23_27  and  N1_28 
REMARK    8  A    between atoms: N1_28  and  O5_29 
REMARK    9  A    between atoms: N1_28  and  C25_31 
REMARK   10  A    between atoms: C26_33  and  C27_34 
REMARK   11  A    between atoms: C27_34  and  O7_35 
REMARK   12  A    between atoms: C28_36  and  O8_37 
REMARK   13  A    between atoms: C29_38  and  O9_39 
REMARK   14  A    between atoms: C30_40  and  O10_41 
ROOT
HETATM    1  C4  UNL     1     -18.938  43.186 -23.088  1.00  0.00     0.019 C 
HETATM    2  C5  UNL     1     -20.249  43.913 -22.721  1.00  0.00     0.011 C 
HETATM    3  C6  UNL     1     -20.591  44.764 -23.940  1.00  0.00     0.021 C 
HETATM    4  C7  UNL     1     -19.236  45.244 -24.513  1.00  0.00     0.050 C 
HETATM    5  C9  UNL     1     -19.298  45.245 -26.053  1.00  0.00     0.022 C 
HETATM    6  C10 UNL     1     -17.944  45.063 -26.750  1.00  0.00     0.011 C 
HETATM    7  C11 UNL     1     -17.150  43.792 -26.302  1.00  0.00    -0.032 C 
HETATM    8  C12 UNL     1     -18.061  42.580 -26.609  1.00  0.00     0.016 C 
HETATM    9  C13 UNL     1     -16.924  43.962 -24.756  1.00  0.00     0.000 C 
HETATM   10  C14 UNL     1     -15.876  45.091 -24.459  1.00  0.00     0.006 C 
HETATM   11  C15 UNL     1     -14.710  45.209 -25.435  1.00  0.00     0.006 C 
HETATM   12  C16 UNL     1     -14.488  43.878 -26.142  1.00  0.00     0.003 C 
HETATM   13  C17 UNL     1     -13.018  43.642 -26.692  1.00  0.00    -0.035 C 
HETATM   14  C18 UNL     1     -12.633  44.708 -27.741  1.00  0.00     0.016 C 
HETATM   15  C19 UNL     1     -12.010  43.765 -25.495  1.00  0.00     0.012 C 
HETATM   16  C20 UNL     1     -10.895  42.714 -25.453  1.00  0.00     0.034 C 
HETATM   17  C21 UNL     1     -10.375  42.295 -26.828  1.00  0.00     0.140 C 
HETATM   18  C31 UNL     1     -11.516  41.696 -27.723  1.00  0.00    -0.017 C 
HETATM   19  C32 UNL     1     -11.270  41.961 -29.224  1.00  0.00     0.018 C 
HETATM   20  C33 UNL     1     -11.456  40.147 -27.553  1.00  0.00     0.018 C 
HETATM   21  C34 UNL     1     -12.943  42.174 -27.235  1.00  0.00     0.004 C 
HETATM   22  C35 UNL     1     -14.088  41.853 -28.213  1.00  0.00     0.007 C 
HETATM   23  C36 UNL     1     -15.471  42.118 -27.596  1.00  0.00     0.011 C 
HETATM   24  C37 UNL     1     -15.702  43.586 -27.108  1.00  0.00    -0.032 C 
HETATM   25  C38 UNL     1     -15.721  44.470 -28.382  1.00  0.00     0.016 C 
HETATM   26  C39 UNL     1     -18.173  44.295 -23.881  1.00  0.00     0.017 C 
ENDROOT
BRANCH  17  27
HETATM   27  O3  UNL     1      -9.757  43.455 -27.419  1.00  0.00    -0.314 OA
BRANCH  27  28
HETATM   28  C22 UNL     1      -8.456  43.718 -27.070  1.00  0.00     0.274 C 
HETATM   29  O4  UNL     1      -7.951  43.399 -26.003  1.00  0.00    -0.264 OA
BRANCH  28  30
HETATM   30  C23 UNL     1      -7.755  44.347 -28.282  1.00  0.00     0.234 C 
BRANCH  30  31
HETATM   31  N1  UNL     1      -7.384  45.775 -28.155  1.00  0.00    -0.156 NA
BRANCH  31  32
HETATM   32  O5  UNL     1      -8.490  46.451 -27.497  1.00  0.00    -0.305 OA
HETATM   33  C24 UNL     1      -8.062  46.882 -26.205  1.00  0.00     0.230 C 
ENDBRANCH  31  32
BRANCH  31  34
HETATM   34  C25 UNL     1      -7.080  46.406 -29.462  1.00  0.00     0.253 C 
HETATM   35  O6  UNL     1      -8.193  46.360 -30.357  1.00  0.00    -0.356 OA
HETATM   36  C26 UNL     1      -7.901  46.791 -31.701  1.00  0.00     0.178 C 
HETATM   37  C28 UNL     1      -7.295  48.212 -31.743  1.00  0.00     0.180 C 
HETATM   38  C29 UNL     1      -6.152  48.388 -30.725  1.00  0.00     0.182 C 
HETATM   39  C30 UNL     1      -6.576  47.872 -29.342  1.00  0.00     0.195 C 
BRANCH  36  40
HETATM   40  C27 UNL     1      -7.064  45.737 -32.452  1.00  0.00     0.198 C 
BRANCH  40  41
HETATM   41  O7  UNL     1      -6.292  46.332 -33.487  1.00  0.00    -0.398 OA
HETATM   42  H42 UNL     1      -5.764  45.622 -33.895  1.00  0.00     0.209 HD
ENDBRANCH  40  41
ENDBRANCH  36  40
BRANCH  37  43
HETATM   43  O8  UNL     1      -8.326  49.175 -31.468  1.00  0.00    -0.390 OA
HETATM   44  H44 UNL     1      -8.499  49.140 -30.504  1.00  0.00     0.210 HD
ENDBRANCH  37  43
BRANCH  38  45
HETATM   45  O9  UNL     1      -4.969  47.713 -31.160  1.00  0.00    -0.390 OA
HETATM   46  H46 UNL     1      -4.667  48.168 -31.968  1.00  0.00     0.210 HD
ENDBRANCH  38  45
BRANCH  39  47
HETATM   47  O10 UNL     1      -7.623  48.741 -28.853  1.00  0.00    -0.389 OA
HETATM   48  H48 UNL     1      -8.267  48.140 -28.416  1.00  0.00     0.210 HD
ENDBRANCH  39  47
ENDBRANCH  31  34
ENDBRANCH  30  31
ENDBRANCH  28  30
ENDBRANCH  27  28
ENDBRANCH  17  27
BRANCH   1  49
HETATM   49  C2  UNL     1     -19.106  41.774 -23.636  1.00  0.00    -0.088 C 
HETATM   50  C1  UNL     1     -18.148  40.829 -23.641  1.00  0.00     0.014 C 
HETATM   51  C3  UNL     1     -20.403  41.493 -24.359  1.00  0.00     0.043 C 
ENDBRANCH   1  49
BRANCH   4  52
HETATM   52  C8  UNL     1     -18.980  46.689 -24.051  1.00  0.00     0.149 C 
HETATM   53  O1  UNL     1     -19.083  47.703 -24.723  1.00  0.00    -0.649 OA
BRANCH  52  54
HETATM   54  O2  UNL     1     -18.561  46.789 -22.774  1.00  0.00    -0.776 OA
HETATM   55  H11 UNL     1     -18.421  47.751 -22.651  1.00  0.00     0.167 HD
ENDBRANCH  52  54
ENDBRANCH   4  52
TORSDOF 14
ENDMDL
MODEL 3
REMARK minimizedAffinity -7.46607018
REMARK CNNscore 0.222275242
REMARK CNNaffinity 6.12625265
REMARK  14 active torsions:
REMARK  status: ('A' for Active; 'I' for Inactive)
REMARK    1  A    between atoms: C2_2  and  C4_4 
REMARK    2  A    between atoms: C7_7  and  C8_8 
REMARK    3  A    between atoms: C8_8  and  O2_10 
REMARK    4  A    between atoms: C21_23  and  O3_24 
REMARK    5  A    between atoms: O3_24  and  C22_25 
REMARK    6  A    between atoms: C22_25  and  C23_27 
REMARK    7  A    between atoms: C23_27  and  N1_28 
REMARK    8  A    between atoms: N1_28  and  O5_29 
REMARK    9  A    between atoms: N1_28  and  C25_31 
REMARK   10  A    between atoms: C26_33  and  C27_34 
REMARK   11  A    between atoms: C27_34  and  O7_35 
REMARK   12  A    between atoms: C28_36  and  O8_37 
REMARK   13  A    between atoms: C29_38  and  O9_39 
REMARK   14  A    between atoms: C30_40  and  O10_41 
ROOT
HETATM    1  C4  UNL     1     -16.689  41.994 -24.891  1.00  0.00     0.019 C 
HETATM    2  C5  UNL     1     -18.228  41.919 -24.818  1.00  0.00     0.011 C 
HETATM    3  C6  UNL     1     -18.728  42.824 -25.940  1.00  0.00     0.021 C 
HETATM    4  C7  UNL     1     -17.725  44.001 -26.012  1.00  0.00     0.050 C 
HETATM    5  C9  UNL     1     -17.500  44.399 -27.483  1.00  0.00     0.022 C 
HETATM    6  C10 UNL     1     -16.140  45.047 -27.773  1.00  0.00     0.011 C 
HETATM    7  C11 UNL     1     -14.908  44.202 -27.310  1.00  0.00    -0.032 C 
HETATM    8  C12 UNL     1     -15.007  42.847 -28.050  1.00  0.00     0.016 C 
HETATM    9  C13 UNL     1     -15.082  44.021 -25.758  1.00  0.00     0.000 C 
HETATM   10  C14 UNL     1     -14.824  45.370 -25.000  1.00  0.00     0.006 C 
HETATM   11  C15 UNL     1     -13.724  46.265 -25.562  1.00  0.00     0.006 C 
HETATM   12  C16 UNL     1     -12.735  45.430 -26.366  1.00  0.00     0.003 C 
HETATM   13  C17 UNL     1     -11.277  46.044 -26.492  1.00  0.00    -0.035 C 
HETATM   14  C18 UNL     1     -11.303  47.413 -27.208  1.00  0.00     0.016 C 
HETATM   15  C19 UNL     1     -10.705  46.272 -25.048  1.00  0.00     0.012 C 
HETATM   16  C20 UNL     1      -9.240  45.871 -24.840  1.00  0.00     0.034 C 
HETATM   17  C21 UNL     1      -8.342  46.130 -26.050  1.00  0.00     0.140 C 
HETATM   18  C31 UNL     1      -8.839  45.354 -27.320  1.00  0.00    -0.017 C 
HETATM   19  C32 UNL     1      -8.496  46.104 -28.625  1.00  0.00     0.018 C 
HETATM   20  C33 UNL     1      -8.035  44.019 -27.377  1.00  0.00     0.018 C 
HETATM   21  C34 UNL     1     -10.373  44.982 -27.205  1.00  0.00     0.004 C 
HETATM   22  C35 UNL     1     -11.000  44.463 -28.511  1.00  0.00     0.007 C 
HETATM   23  C36 UNL     1     -12.411  43.895 -28.293  1.00  0.00     0.011 C 
HETATM   24  C37 UNL     1     -13.438  44.902 -27.678  1.00  0.00    -0.032 C 
HETATM   25  C38 UNL     1     -13.671  45.995 -28.752  1.00  0.00     0.016 C 
HETATM   26  C39 UNL     1     -16.462  43.500 -25.247  1.00  0.00     0.017 C 
ENDROOT
BRANCH  17  27
HETATM   27  O3  UNL     1      -8.301  47.556 -26.251  1.00  0.00    -0.314 OA
BRANCH  27  28
HETATM   28  C22 UNL     1      -7.823  48.321 -25.217  1.00  0.00     0.274 C 
HETATM   29  O4  UNL     1      -8.478  49.169 -24.627  1.00  0.00    -0.264 OA
BRANCH  28  30
HETATM   30  C23 UNL     1      -6.409  47.831 -24.876  1.00  0.00     0.234 C 
BRANCH  30  31
HETATM   31  N1  UNL     1      -5.372  48.878 -24.725  1.00  0.00    -0.156 NA
BRANCH  31  32
HETATM   32  O5  UNL     1      -4.182  48.411 -25.419  1.00  0.00    -0.305 OA
HETATM   33  C24 UNL     1      -4.461  48.345 -26.817  1.00  0.00     0.230 C 
ENDBRANCH  31  32
BRANCH  31  34
HETATM   34  C25 UNL     1      -5.072  49.187 -23.307  1.00  0.00     0.253 C 
HETATM   35  O6  UNL     1      -3.932  50.039 -23.169  1.00  0.00    -0.356 OA
HETATM   36  C26 UNL     1      -3.481  50.223 -21.812  1.00  0.00     0.178 C 
HETATM   37  C28 UNL     1      -4.603  50.750 -20.889  1.00  0.00     0.180 C 
HETATM   38  C29 UNL     1      -5.913  49.956 -21.051  1.00  0.00     0.182 C 
HETATM   39  C30 UNL     1      -6.273  49.806 -22.537  1.00  0.00     0.195 C 
BRANCH  36  40
HETATM   40  C27 UNL     1      -2.784  48.956 -21.281  1.00  0.00     0.198 C 
BRANCH  40  41
HETATM   41  O7  UNL     1      -2.819  48.904 -19.861  1.00  0.00    -0.398 OA
HETATM   42  H42 UNL     1      -2.396  48.068 -19.594  1.00  0.00     0.209 HD
ENDBRANCH  40  41
ENDBRANCH  36  40
BRANCH  37  43
HETATM   43  O8  UNL     1      -4.849  52.135 -21.184  1.00  0.00    -0.390 OA
HETATM   44  H44 UNL     1      -5.354  52.162 -22.024  1.00  0.00     0.210 HD
ENDBRANCH  37  43
BRANCH  38  45
HETATM   45  O9  UNL     1      -5.812  48.669 -20.438  1.00  0.00    -0.390 OA
HETATM   46  H46 UNL     1      -5.722  48.821 -19.479  1.00  0.00     0.210 HD
ENDBRANCH  38  45
BRANCH  39  47
HETATM   47  O10 UNL     1      -6.590  51.122 -23.045  1.00  0.00    -0.389 OA
HETATM   48  H48 UNL     1      -6.191  51.149 -23.944  1.00  0.00     0.210 HD
ENDBRANCH  39  47
ENDBRANCH  31  34
ENDBRANCH  30  31
ENDBRANCH  28  30
ENDBRANCH  27  28
ENDBRANCH  17  27
BRANCH   1  49
HETATM   49  C2  UNL     1     -16.016  40.871 -25.672  1.00  0.00    -0.088 C 
HETATM   50  C1  UNL     1     -16.621  40.109 -26.601  1.00  0.00     0.014 C 
HETATM   51  C3  UNL     1     -14.613  40.511 -25.240  1.00  0.00     0.043 C 
ENDBRANCH   1  49
BRANCH   4  52
HETATM   52  C8  UNL     1     -18.324  45.215 -25.281  1.00  0.00     0.149 C 
HETATM   53  O1  UNL     1     -18.132  45.539 -24.120  1.00  0.00    -0.649 OA
BRANCH  52  54
HETATM   54  O2  UNL     1     -19.175  45.941 -26.031  1.00  0.00    -0.776 OA
HETATM   55  H11 UNL     1     -19.480  46.644 -25.422  1.00  0.00     0.167 HD
ENDBRANCH  52  54
ENDBRANCH   4  52
TORSDOF 14
ENDMDL
MODEL 4
REMARK minimizedAffinity -8.47978973
REMARK CNNscore 0.206510171
REMARK CNNaffinity 7.18984413
REMARK  14 active torsions:
REMARK  status: ('A' for Active; 'I' for Inactive)
REMARK    1  A    between atoms: C2_2  and  C4_4 
REMARK    2  A    between atoms: C7_7  and  C8_8 
REMARK    3  A    between atoms: C8_8  and  O2_10 
REMARK    4  A    between atoms: C21_23  and  O3_24 
REMARK    5  A    between atoms: O3_24  and  C22_25 
REMARK    6  A    between atoms: C22_25  and  C23_27 
REMARK    7  A    between atoms: C23_27  and  N1_28 
REMARK    8  A    between atoms: N1_28  and  O5_29 
REMARK    9  A    between atoms: N1_28  and  C25_31 
REMARK   10  A    between atoms: C26_33  and  C27_34 
REMARK   11  A    between atoms: C27_34  and  O7_35 
REMARK   12  A    between atoms: C28_36  and  O8_37 
REMARK   13  A    between atoms: C29_38  and  O9_39 
REMARK   14  A    between atoms: C30_40  and  O10_41 
ROOT
HETATM    1  C4  UNL     1       3.484  57.148  -8.130  1.00  0.00     0.019 C 
HETATM    2  C5  UNL     1       3.153  58.060  -6.930  1.00  0.00     0.011 C 
HETATM    3  C6  UNL     1       2.380  57.177  -5.956  1.00  0.00     0.021 C 
HETATM    4  C7  UNL     1       1.529  56.226  -6.832  1.00  0.00     0.050 C 
HETATM    5  C9  UNL     1       1.485  54.829  -6.184  1.00  0.00     0.022 C 
HETATM    6  C10 UNL     1       1.267  53.672  -7.168  1.00  0.00     0.011 C 
HETATM    7  C11 UNL     1       2.292  53.623  -8.348  1.00  0.00    -0.032 C 
HETATM    8  C12 UNL     1       3.693  53.500  -7.702  1.00  0.00     0.016 C 
HETATM    9  C13 UNL     1       2.128  54.991  -9.105  1.00  0.00     0.000 C 
HETATM   10  C14 UNL     1       0.770  55.043  -9.888  1.00  0.00     0.006 C 
HETATM   11  C15 UNL     1       0.303  53.739 -10.525  1.00  0.00     0.006 C 
HETATM   12  C16 UNL     1       1.496  52.822 -10.765  1.00  0.00     0.003 C 
HETATM   13  C17 UNL     1       1.304  51.751 -11.921  1.00  0.00    -0.035 C 
HETATM   14  C18 UNL     1       0.133  50.793 -11.610  1.00  0.00     0.016 C 
HETATM   15  C19 UNL     1       0.960  52.508 -13.252  1.00  0.00     0.012 C 
HETATM   16  C20 UNL     1       1.670  51.999 -14.511  1.00  0.00     0.034 C 
HETATM   17  C21 UNL     1       1.879  50.485 -14.545  1.00  0.00     0.140 C 
HETATM   18  C31 UNL     1       2.729  49.989 -13.324  1.00  0.00    -0.017 C 
HETATM   19  C32 UNL     1       2.349  48.552 -12.903  1.00  0.00     0.018 C 
HETATM   20  C33 UNL     1       4.209  49.909 -13.807  1.00  0.00     0.018 C 
HETATM   21  C34 UNL     1       2.674  51.019 -12.125  1.00  0.00     0.004 C 
HETATM   22  C35 UNL     1       3.255  50.487 -10.802  1.00  0.00     0.007 C 
HETATM   23  C36 UNL     1       3.398  51.591  -9.743  1.00  0.00     0.011 C 
HETATM   24  C37 UNL     1       2.067  52.328  -9.379  1.00  0.00    -0.032 C 
HETATM   25  C38 UNL     1       1.173  51.283  -8.664  1.00  0.00     0.016 C 
HETATM   26  C39 UNL     1       2.179  56.295  -8.248  1.00  0.00     0.017 C 
ENDROOT
BRANCH  17  27
HETATM   27  O3  UNL     1       0.573  49.878 -14.596  1.00  0.00    -0.314 OA
BRANCH  27  28
HETATM   28  C22 UNL     1       0.216  49.258 -15.768  1.00  0.00     0.274 C 
HETATM   29  O4  UNL     1       0.466  48.091 -16.034  1.00  0.00    -0.264 OA
BRANCH  28  30
HETATM   30  C23 UNL     1      -0.634  50.240 -16.586  1.00  0.00     0.234 C 
BRANCH  30  31
HETATM   31  N1  UNL     1      -0.028  50.742 -17.841  1.00  0.00    -0.156 NA
BRANCH  31  32
HETATM   32  O5  UNL     1       0.010  52.193 -17.751  1.00  0.00    -0.305 OA
HETATM   33  C24 UNL     1       1.358  52.629 -17.929  1.00  0.00     0.230 C 
ENDBRANCH  31  32
BRANCH  31  34
HETATM   34  C25 UNL     1      -0.768  50.305 -19.050  1.00  0.00     0.253 C 
HETATM   35  O6  UNL     1      -1.534  49.121 -18.816  1.00  0.00    -0.356 OA
HETATM   36  C26 UNL     1      -2.125  48.546 -19.998  1.00  0.00     0.178 C 
HETATM   37  C28 UNL     1      -3.006  49.558 -20.765  1.00  0.00     0.180 C 
HETATM   38  C29 UNL     1      -2.297  50.911 -20.968  1.00  0.00     0.182 C 
HETATM   39  C30 UNL     1      -1.689  51.405 -19.646  1.00  0.00     0.195 C 
BRANCH  36  40
HETATM   40  C27 UNL     1      -1.060  47.861 -20.875  1.00  0.00     0.198 C 
BRANCH  40  41
HETATM   41  O7  UNL     1      -1.657  47.007 -21.842  1.00  0.00    -0.398 OA
HETATM   42  H42 UNL     1      -0.935  46.636 -22.382  1.00  0.00     0.209 HD
ENDBRANCH  40  41
ENDBRANCH  36  40
BRANCH  37  43
HETATM   43  O8  UNL     1      -4.228  49.768 -20.039  1.00  0.00    -0.390 OA
HETATM   44  H44 UNL     1      -4.011  50.343 -19.275  1.00  0.00     0.210 HD
ENDBRANCH  37  43
BRANCH  38  45
HETATM   45  O9  UNL     1      -1.281  50.813 -21.969  1.00  0.00    -0.390 OA
HETATM   46  H46 UNL     1      -1.736  50.632 -22.813  1.00  0.00     0.210 HD
ENDBRANCH  38  45
BRANCH  39  47
HETATM   47  O10 UNL     1      -2.782  51.708 -18.749  1.00  0.00    -0.389 OA
HETATM   48  H48 UNL     1      -2.482  51.389 -17.869  1.00  0.00     0.210 HD
ENDBRANCH  39  47
ENDBRANCH  31  34
ENDBRANCH  30  31
ENDBRANCH  28  30
ENDBRANCH  27  28
ENDBRANCH  17  27
BRANCH   1  49
HETATM   49  C2  UNL     1       4.866  56.507  -8.102  1.00  0.00    -0.088 C 
HETATM   50  C1  UNL     1       5.414  55.810  -9.115  1.00  0.00     0.014 C 
HETATM   51  C3  UNL     1       5.587  56.542  -6.774  1.00  0.00     0.043 C 
ENDBRANCH   1  49
BRANCH   4  52
HETATM   52  C8  UNL     1       0.088  56.761  -6.898  1.00  0.00     0.149 C 
HETATM   53  O1  UNL     1      -0.567  56.979  -7.905  1.00  0.00    -0.649 OA
BRANCH  52  54
HETATM   54  O2  UNL     1      -0.448  57.043  -5.695  1.00  0.00    -0.776 OA
HETATM   55  H11 UNL     1      -1.337  57.391  -5.912  1.00  0.00     0.167 HD
ENDBRANCH  52  54
ENDBRANCH   4  52
TORSDOF 14
ENDMDL
MODEL 5
REMARK minimizedAffinity -7.74441671
REMARK CNNscore 0.198615849
REMARK CNNaffinity 6.03633499
REMARK  14 active torsions:
REMARK  status: ('A' for Active; 'I' for Inactive)
REMARK    1  A    between atoms: C2_2  and  C4_4 
REMARK    2  A    between atoms: C7_7  and  C8_8 
REMARK    3  A    between atoms: C8_8  and  O2_10 
REMARK    4  A    between atoms: C21_23  and  O3_24 
REMARK    5  A    between atoms: O3_24  and  C22_25 
REMARK    6  A    between atoms: C22_25  and  C23_27 
REMARK    7  A    between atoms: C23_27  and  N1_28 
REMARK    8  A    between atoms: N1_28  and  O5_29 
REMARK    9  A    between atoms: N1_28  and  C25_31 
REMARK   10  A    between atoms: C26_33  and  C27_34 
REMARK   11  A    between atoms: C27_34  and  O7_35 
REMARK   12  A    between atoms: C28_36  and  O8_37 
REMARK   13  A    between atoms: C29_38  and  O9_39 
REMARK   14  A    between atoms: C30_40  and  O10_41 
ROOT
HETATM    1  C4  UNL     1      -5.867  46.358 -30.855  1.00  0.00     0.019 C 
HETATM    2  C5  UNL     1      -5.159  46.479 -32.220  1.00  0.00     0.011 C 
HETATM    3  C6  UNL     1      -6.211  47.046 -33.169  1.00  0.00     0.021 C 
HETATM    4  C7  UNL     1      -7.558  46.430 -32.723  1.00  0.00     0.050 C 
HETATM    5  C9  UNL     1      -8.676  47.481 -32.856  1.00  0.00     0.022 C 
HETATM    6  C10 UNL     1      -9.863  47.281 -31.905  1.00  0.00     0.011 C 
HETATM    7  C11 UNL     1      -9.473  47.182 -30.394  1.00  0.00    -0.032 C 
HETATM    8  C12 UNL     1      -8.745  48.503 -30.046  1.00  0.00     0.016 C 
HETATM    9  C13 UNL     1      -8.504  45.949 -30.289  1.00  0.00     0.000 C 
HETATM   10  C14 UNL     1      -9.282  44.601 -30.487  1.00  0.00     0.006 C 
HETATM   11  C15 UNL     1     -10.690  44.539 -29.903  1.00  0.00     0.006 C 
HETATM   12  C16 UNL     1     -10.831  45.553 -28.775  1.00  0.00     0.003 C 
HETATM   13  C17 UNL     1     -11.950  45.218 -27.701  1.00  0.00    -0.035 C 
HETATM   14  C18 UNL     1     -13.351  45.160 -28.348  1.00  0.00     0.016 C 
HETATM   15  C19 UNL     1     -11.649  43.804 -27.089  1.00  0.00     0.012 C 
HETATM   16  C20 UNL     1     -11.821  43.685 -25.570  1.00  0.00     0.034 C 
HETATM   17  C21 UNL     1     -12.971  44.516 -25.002  1.00  0.00     0.140 C 
HETATM   18  C31 UNL     1     -12.792  46.044 -25.310  1.00  0.00    -0.017 C 
HETATM   19  C32 UNL     1     -14.149  46.766 -25.452  1.00  0.00     0.018 C 
HETATM   20  C33 UNL     1     -12.106  46.678 -24.063  1.00  0.00     0.018 C 
HETATM   21  C34 UNL     1     -11.836  46.274 -26.549  1.00  0.00     0.004 C 
HETATM   22  C35 UNL     1     -11.823  47.719 -27.081  1.00  0.00     0.007 C 
HETATM   23  C36 UNL     1     -10.712  47.947 -28.118  1.00  0.00     0.011 C 
HETATM   24  C37 UNL     1     -10.783  47.014 -29.372  1.00  0.00    -0.032 C 
HETATM   25  C38 UNL     1     -12.063  47.421 -30.146  1.00  0.00     0.016 C 
HETATM   26  C39 UNL     1      -7.299  45.898 -31.281  1.00  0.00     0.017 C 
ENDROOT
BRANCH  17  27
HETATM   27  O3  UNL     1     -14.192  43.978 -25.547  1.00  0.00    -0.314 OA
BRANCH  27  28
HETATM   28  C22 UNL     1     -14.865  43.055 -24.787  1.00  0.00     0.274 C 
HETATM   29  O4  UNL     1     -15.133  41.921 -25.157  1.00  0.00    -0.264 OA
BRANCH  28  30
HETATM   30  C23 UNL     1     -15.089  43.659 -23.393  1.00  0.00     0.234 C 
BRANCH  30  31
HETATM   31  N1  UNL     1     -15.871  44.915 -23.342  1.00  0.00    -0.156 NA
BRANCH  31  32
HETATM   32  O5  UNL     1     -15.631  45.520 -22.041  1.00  0.00    -0.305 OA
HETATM   33  C24 UNL     1     -15.242  44.498 -21.123  1.00  0.00     0.230 C 
ENDBRANCH  31  32
BRANCH  31  34
HETATM   34  C25 UNL     1     -17.321  44.698 -23.566  1.00  0.00     0.253 C 
HETATM   35  O6  UNL     1     -18.122  45.689 -22.919  1.00  0.00    -0.356 OA
HETATM   36  C26 UNL     1     -19.539  45.426 -22.946  1.00  0.00     0.178 C 
HETATM   37  C28 UNL     1     -20.070  45.226 -24.383  1.00  0.00     0.180 C 
HETATM   38  C29 UNL     1     -19.198  44.250 -25.196  1.00  0.00     0.182 C 
HETATM   39  C30 UNL     1     -17.712  44.619 -25.068  1.00  0.00     0.195 C 
BRANCH  36  40
HETATM   40  C27 UNL     1     -19.911  44.283 -21.982  1.00  0.00     0.198 C 
BRANCH  40  41
HETATM   41  O7  UNL     1     -21.139  43.673 -22.354  1.00  0.00    -0.398 OA
HETATM   42  H42 UNL     1     -21.297  42.942 -21.730  1.00  0.00     0.209 HD
ENDBRANCH  40  41
ENDBRANCH  36  40
BRANCH  37  43
HETATM   43  O8  UNL     1     -20.112  46.496 -25.055  1.00  0.00    -0.390 OA
HETATM   44  H44 UNL     1     -19.188  46.724 -25.292  1.00  0.00     0.210 HD
ENDBRANCH  37  43
BRANCH  38  45
HETATM   45  O9  UNL     1     -19.408  42.901 -24.774  1.00  0.00    -0.390 OA
HETATM   46  H46 UNL     1     -20.328  42.675 -25.004  1.00  0.00     0.210 HD
ENDBRANCH  38  45
BRANCH  39  47
HETATM   47  O10 UNL     1     -17.521  45.895 -25.721  1.00  0.00    -0.389 OA
HETATM   48  H48 UNL     1     -16.892  46.383 -25.143  1.00  0.00     0.210 HD
ENDBRANCH  39  47
ENDBRANCH  31  34
ENDBRANCH  30  31
ENDBRANCH  28  30
ENDBRANCH  27  28
ENDBRANCH  17  27
BRANCH   1  49
HETATM   49  C2  UNL     1      -5.646  47.525 -29.899  1.00  0.00    -0.088 C 
HETATM   50  C1  UNL     1      -5.845  47.482 -28.569  1.00  0.00     0.014 C 
HETATM   51  C3  UNL     1      -5.330  48.857 -30.541  1.00  0.00     0.043 C 
ENDBRANCH   1  49
BRANCH   4  52
HETATM   52  C8  UNL     1      -7.903  45.254 -33.653  1.00  0.00     0.149 C 
HETATM   53  O1  UNL     1      -7.772  44.064 -33.411  1.00  0.00    -0.649 OA
BRANCH  52  54
HETATM   54  O2  UNL     1      -8.354  45.628 -34.866  1.00  0.00    -0.776 OA
HETATM   55  H11 UNL     1      -8.498  44.780 -35.333  1.00  0.00     0.167 HD
ENDBRANCH  52  54
ENDBRANCH   4  52
TORSDOF 14
ENDMDL
MODEL 6
REMARK minimizedAffinity -8.98828316
REMARK CNNscore 0.188050538
REMARK CNNaffinity 6.33083963
REMARK  14 active torsions:
REMARK  status: ('A' for Active; 'I' for Inactive)
REMARK    1  A    between atoms: C2_2  and  C4_4 
REMARK    2  A    between atoms: C7_7  and  C8_8 
REMARK    3  A    between atoms: C8_8  and  O2_10 
REMARK    4  A    between atoms: C21_23  and  O3_24 
REMARK    5  A    between atoms: O3_24  and  C22_25 
REMARK    6  A    between atoms: C22_25  and  C23_27 
REMARK    7  A    between atoms: C23_27  and  N1_28 
REMARK    8  A    between atoms: N1_28  and  O5_29 
REMARK    9  A    between atoms: N1_28  and  C25_31 
REMARK   10  A    between atoms: C26_33  and  C27_34 
REMARK   11  A    between atoms: C27_34  and  O7_35 
REMARK   12  A    between atoms: C28_36  and  O8_37 
REMARK   13  A    between atoms: C29_38  and  O9_39 
REMARK   14  A    between atoms: C30_40  and  O10_41 
ROOT
HETATM    1  C4  UNL     1      -0.065  51.320 -25.362  1.00  0.00     0.019 C 
HETATM    2  C5  UNL     1       0.085  51.936 -26.769  1.00  0.00     0.011 C 
HETATM    3  C6  UNL     1      -1.302  52.458 -27.129  1.00  0.00     0.021 C 
HETATM    4  C7  UNL     1      -2.304  51.453 -26.512  1.00  0.00     0.050 C 
HETATM    5  C9  UNL     1      -3.529  52.214 -25.967  1.00  0.00     0.022 C 
HETATM    6  C10 UNL     1      -4.259  51.512 -24.814  1.00  0.00     0.011 C 
HETATM    7  C11 UNL     1      -3.345  51.138 -23.601  1.00  0.00    -0.032 C 
HETATM    8  C12 UNL     1      -2.728  52.464 -23.096  1.00  0.00     0.016 C 
HETATM    9  C13 UNL     1      -2.245  50.179 -24.184  1.00  0.00     0.000 C 
HETATM   10  C14 UNL     1      -2.851  48.778 -24.547  1.00  0.00     0.006 C 
HETATM   11  C15 UNL     1      -3.936  48.246 -23.616  1.00  0.00     0.006 C 
HETATM   12  C16 UNL     1      -3.801  48.889 -22.241  1.00  0.00     0.003 C 
HETATM   13  C17 UNL     1      -4.406  48.047 -21.039  1.00  0.00    -0.035 C 
HETATM   14  C18 UNL     1      -5.924  47.824 -21.217  1.00  0.00     0.016 C 
HETATM   15  C19 UNL     1      -3.717  46.636 -21.020  1.00  0.00     0.012 C 
HETATM   16  C20 UNL     1      -3.318  46.109 -19.637  1.00  0.00     0.034 C 
HETATM   17  C21 UNL     1      -4.292  46.481 -18.518  1.00  0.00     0.140 C 
HETATM   18  C31 UNL     1      -4.444  48.035 -18.374  1.00  0.00    -0.017 C 
HETATM   19  C32 UNL     1      -5.847  48.432 -17.867  1.00  0.00     0.018 C 
HETATM   20  C33 UNL     1      -3.451  48.484 -17.259  1.00  0.00     0.018 C 
HETATM   21  C34 UNL     1      -4.034  48.782 -19.707  1.00  0.00     0.004 C 
HETATM   22  C35 UNL     1      -4.408  50.275 -19.739  1.00  0.00     0.007 C 
HETATM   23  C36 UNL     1      -3.783  51.005 -20.939  1.00  0.00     0.011 C 
HETATM   24  C37 UNL     1      -4.168  50.421 -22.337  1.00  0.00    -0.032 C 
HETATM   25  C38 UNL     1      -5.683  50.696 -22.521  1.00  0.00     0.016 C 
HETATM   26  C39 UNL     1      -1.478  50.657 -25.457  1.00  0.00     0.017 C 
ENDROOT
BRANCH  17  27
HETATM   27  O3  UNL     1      -5.541  45.825 -18.809  1.00  0.00    -0.314 OA
BRANCH  27  28
HETATM   28  C22 UNL     1      -5.871  44.736 -18.040  1.00  0.00     0.274 C 
HETATM   29  O4  UNL     1      -5.596  44.621 -16.854  1.00  0.00    -0.264 OA
BRANCH  28  30
HETATM   30  C23 UNL     1      -6.728  43.792 -18.894  1.00  0.00     0.234 C 
BRANCH  30  31
HETATM   31  N1  UNL     1      -6.085  43.244 -20.110  1.00  0.00    -0.156 NA
BRANCH  31  32
HETATM   32  O5  UNL     1      -7.085  43.247 -21.166  1.00  0.00    -0.305 OA
HETATM   33  C24 UNL     1      -6.770  44.285 -22.095  1.00  0.00     0.230 C 
ENDBRANCH  31  32
BRANCH  31  34
HETATM   34  C25 UNL     1      -5.536  41.882 -19.905  1.00  0.00     0.253 C 
HETATM   35  O6  UNL     1      -5.539  41.500 -18.527  1.00  0.00    -0.356 OA
HETATM   36  C26 UNL     1      -4.849  40.266 -18.245  1.00  0.00     0.178 C 
HETATM   37  C28 UNL     1      -5.393  39.087 -19.082  1.00  0.00     0.180 C 
HETATM   38  C29 UNL     1      -5.529  39.445 -20.574  1.00  0.00     0.182 C 
HETATM   39  C30 UNL     1      -6.256  40.788 -20.743  1.00  0.00     0.195 C 
BRANCH  36  40
HETATM   40  C27 UNL     1      -3.323  40.447 -18.345  1.00  0.00     0.198 C 
BRANCH  40  41
HETATM   41  O7  UNL     1      -2.980  41.419 -19.324  1.00  0.00    -0.398 OA
HETATM   42  H42 UNL     1      -2.010  41.510 -19.312  1.00  0.00     0.209 HD
ENDBRANCH  40  41
ENDBRANCH  36  40
BRANCH  37  43
HETATM   43  O8  UNL     1      -6.677  38.694 -18.570  1.00  0.00    -0.390 OA
HETATM   44  H44 UNL     1      -7.322  39.369 -18.869  1.00  0.00     0.210 HD
ENDBRANCH  37  43
BRANCH  38  45
HETATM   45  O9  UNL     1      -4.250  39.497 -21.209  1.00  0.00    -0.390 OA
HETATM   46  H46 UNL     1      -3.892  38.589 -21.194  1.00  0.00     0.210 HD
ENDBRANCH  38  45
BRANCH  39  47
HETATM   47  O10 UNL     1      -7.619  40.607 -20.295  1.00  0.00    -0.389 OA
HETATM   48  H48 UNL     1      -7.838  41.433 -19.810  1.00  0.00     0.210 HD
ENDBRANCH  39  47
ENDBRANCH  31  34
ENDBRANCH  30  31
ENDBRANCH  28  30
ENDBRANCH  27  28
ENDBRANCH  17  27
BRANCH   1  49
HETATM   49  C2  UNL     1       0.321  52.233 -24.204  1.00  0.00    -0.088 C 
HETATM   50  C1  UNL     1       0.478  51.836 -22.928  1.00  0.00     0.014 C 
HETATM   51  C3  UNL     1       0.374  53.711 -24.514  1.00  0.00     0.043 C 
ENDBRANCH   1  49
BRANCH   4  52
HETATM   52  C8  UNL     1      -2.795  50.496 -27.613  1.00  0.00     0.149 C 
HETATM   53  O1  UNL     1      -2.692  49.280 -27.626  1.00  0.00    -0.649 OA
BRANCH  52  54
HETATM   54  O2  UNL     1      -3.353  51.117 -28.670  1.00  0.00    -0.776 OA
HETATM   55  H11 UNL     1      -3.581  50.383 -29.277  1.00  0.00     0.167 HD
ENDBRANCH  52  54
ENDBRANCH   4  52
TORSDOF 14
ENDMDL
MODEL 7
REMARK minimizedAffinity -8.09466553
REMARK CNNscore 0.183003947
REMARK CNNaffinity 5.59868002
REMARK  14 active torsions:
REMARK  status: ('A' for Active; 'I' for Inactive)
REMARK    1  A    between atoms: C2_2  and  C4_4 
REMARK    2  A    between atoms: C7_7  and  C8_8 
REMARK    3  A    between atoms: C8_8  and  O2_10 
REMARK    4  A    between atoms: C21_23  and  O3_24 
REMARK    5  A    between atoms: O3_24  and  C22_25 
REMARK    6  A    between atoms: C22_25  and  C23_27 
REMARK    7  A    between atoms: C23_27  and  N1_28 
REMARK    8  A    between atoms: N1_28  and  O5_29 
REMARK    9  A    between atoms: N1_28  and  C25_31 
REMARK   10  A    between atoms: C26_33  and  C27_34 
REMARK   11  A    between atoms: C27_34  and  O7_35 
REMARK   12  A    between atoms: C28_36  and  O8_37 
REMARK   13  A    between atoms: C29_38  and  O9_39 
REMARK   14  A    between atoms: C30_40  and  O10_41 
ROOT
HETATM    1  C4  UNL     1      -9.881  48.111 -28.870  1.00  0.00     0.019 C 
HETATM    2  C5  UNL     1      -8.352  48.285 -28.984  1.00  0.00     0.011 C 
HETATM    3  C6  UNL     1      -7.756  47.034 -28.347  1.00  0.00     0.021 C 
HETATM    4  C7  UNL     1      -8.697  46.668 -27.175  1.00  0.00     0.050 C 
HETATM    5  C9  UNL     1      -8.830  45.136 -27.078  1.00  0.00     0.022 C 
HETATM    6  C10 UNL     1     -10.142  44.643 -26.454  1.00  0.00     0.011 C 
HETATM    7  C11 UNL     1     -11.434  45.197 -27.140  1.00  0.00    -0.032 C 
HETATM    8  C12 UNL     1     -11.364  44.753 -28.621  1.00  0.00     0.016 C 
HETATM    9  C13 UNL     1     -11.345  46.760 -27.006  1.00  0.00     0.000 C 
HETATM   10  C14 UNL     1     -11.575  47.213 -25.522  1.00  0.00     0.006 C 
HETATM   11  C15 UNL     1     -12.602  46.419 -24.721  1.00  0.00     0.006 C 
HETATM   12  C16 UNL     1     -13.589  45.745 -25.666  1.00  0.00     0.003 C 
HETATM   13  C17 UNL     1     -15.009  45.415 -25.038  1.00  0.00    -0.035 C 
HETATM   14  C18 UNL     1     -14.883  44.439 -23.847  1.00  0.00     0.016 C 
HETATM   15  C19 UNL     1     -15.639  46.747 -24.498  1.00  0.00     0.012 C 
HETATM   16  C20 UNL     1     -17.130  46.947 -24.794  1.00  0.00     0.034 C 
HETATM   17  C21 UNL     1     -17.955  45.660 -24.756  1.00  0.00     0.140 C 
HETATM   18  C31 UNL     1     -17.434  44.605 -25.793  1.00  0.00    -0.017 C 
HETATM   19  C32 UNL     1     -17.677  43.158 -25.314  1.00  0.00     0.018 C 
HETATM   20  C33 UNL     1     -18.296  44.774 -27.081  1.00  0.00     0.018 C 
HETATM   21  C34 UNL     1     -15.927  44.881 -26.189  1.00  0.00     0.004 C 
HETATM   22  C35 UNL     1     -15.262  43.745 -26.988  1.00  0.00     0.007 C 
HETATM   23  C36 UNL     1     -13.892  44.154 -27.551  1.00  0.00     0.011 C 
HETATM   24  C37 UNL     1     -12.850  44.610 -26.477  1.00  0.00    -0.032 C 
HETATM   25  C38 UNL     1     -12.513  43.352 -25.636  1.00  0.00     0.016 C 
HETATM   26  C39 UNL     1     -10.018  47.444 -27.461  1.00  0.00     0.017 C 
ENDROOT
BRANCH  17  27
HETATM   27  O3  UNL     1     -17.918  45.173 -23.401  1.00  0.00    -0.314 OA
BRANCH  27  28
HETATM   28  C22 UNL     1     -19.122  44.928 -22.790  1.00  0.00     0.274 C 
HETATM   29  O4  UNL     1     -20.199  44.912 -23.370  1.00  0.00    -0.264 OA
BRANCH  28  30
HETATM   30  C23 UNL     1     -18.848  44.565 -21.324  1.00  0.00     0.234 C 
BRANCH  30  31
HETATM   31  N1  UNL     1     -19.968  44.773 -20.378  1.00  0.00    -0.156 NA
BRANCH  31  32
HETATM   32  O5  UNL     1     -19.496  45.679 -19.342  1.00  0.00    -0.305 OA
HETATM   33  C24 UNL     1     -18.072  45.596 -19.273  1.00  0.00     0.230 C 
ENDBRANCH  31  32
BRANCH  31  34
HETATM   34  C25 UNL     1     -20.464  43.506 -19.788  1.00  0.00     0.253 C 
HETATM   35  O6  UNL     1     -21.464  43.728 -18.792  1.00  0.00    -0.356 OA
HETATM   36  C26 UNL     1     -21.849  42.551 -18.055  1.00  0.00     0.178 C 
HETATM   37  C28 UNL     1     -22.324  41.409 -18.982  1.00  0.00     0.180 C 
HETATM   38  C29 UNL     1     -21.355  41.171 -20.156  1.00  0.00     0.182 C 
HETATM   39  C30 UNL     1     -21.002  42.499 -20.843  1.00  0.00     0.195 C 
BRANCH  36  40
HETATM   40  C27 UNL     1     -20.746  42.129 -17.066  1.00  0.00     0.198 C 
BRANCH  40  41
HETATM   41  O7  UNL     1     -20.374  43.206 -16.217  1.00  0.00    -0.398 OA
HETATM   42  H42 UNL     1     -19.704  42.865 -15.597  1.00  0.00     0.209 HD
ENDBRANCH  40  41
ENDBRANCH  36  40
BRANCH  37  43
HETATM   43  O8  UNL     1     -23.626  41.728 -19.500  1.00  0.00    -0.390 OA
HETATM   44  H44 UNL     1     -23.498  42.409 -20.194  1.00  0.00     0.210 HD
ENDBRANCH  37  43
BRANCH  38  45
HETATM   45  O9  UNL     1     -20.165  40.514 -19.714  1.00  0.00    -0.390 OA
HETATM   46  H46 UNL     1     -20.429  39.625 -19.415  1.00  0.00     0.210 HD
ENDBRANCH  38  45
BRANCH  39  47
HETATM   47  O10 UNL     1     -22.205  43.000 -21.471  1.00  0.00    -0.389 OA
HETATM   48  H48 UNL     1     -22.186  43.970 -21.314  1.00  0.00     0.210 HD
ENDBRANCH  39  47
ENDBRANCH  31  34
ENDBRANCH  30  31
ENDBRANCH  28  30
ENDBRANCH  27  28
ENDBRANCH  17  27
BRANCH   1  49
HETATM   49  C2  UNL     1     -10.567  47.536 -30.103  1.00  0.00    -0.088 C 
HETATM   50  C1  UNL     1      -9.930  47.001 -31.161  1.00  0.00     0.014 C 
HETATM   51  C3  UNL     1     -12.063  47.734 -30.183  1.00  0.00     0.043 C 
ENDBRANCH   1  49
BRANCH   4  52
HETATM   52  C8  UNL     1      -8.077  47.171 -25.859  1.00  0.00     0.149 C 
HETATM   53  O1  UNL     1      -7.580  46.490 -24.976  1.00  0.00    -0.649 OA
BRANCH  52  54
HETATM   54  O2  UNL     1      -8.152  48.506 -25.693  1.00  0.00    -0.776 OA
HETATM   55  H11 UNL     1      -7.747  48.653 -24.814  1.00  0.00     0.167 HD
ENDBRANCH  52  54
ENDBRANCH   4  52
TORSDOF 14
ENDMDL
MODEL 8
REMARK minimizedAffinity -7.7485323
REMARK CNNscore 0.176885426
REMARK CNNaffinity 6.15680265
REMARK  14 active torsions:
REMARK  status: ('A' for Active; 'I' for Inactive)
REMARK    1  A    between atoms: C2_2  and  C4_4 
REMARK    2  A    between atoms: C7_7  and  C8_8 
REMARK    3  A    between atoms: C8_8  and  O2_10 
REMARK    4  A    between atoms: C21_23  and  O3_24 
REMARK    5  A    between atoms: O3_24  and  C22_25 
REMARK    6  A    between atoms: C22_25  and  C23_27 
REMARK    7  A    between atoms: C23_27  and  N1_28 
REMARK    8  A    between atoms: N1_28  and  O5_29 
REMARK    9  A    between atoms: N1_28  and  C25_31 
REMARK   10  A    between atoms: C26_33  and  C27_34 
REMARK   11  A    between atoms: C27_34  and  O7_35 
REMARK   12  A    between atoms: C28_36  and  O8_37 
REMARK   13  A    between atoms: C29_38  and  O9_39 
REMARK   14  A    between atoms: C30_40  and  O10_41 
ROOT
HETATM    1  C4  UNL     1     -12.236  48.978 -39.190  1.00  0.00     0.019 C 
HETATM    2  C5  UNL     1     -12.164  49.211 -40.714  1.00  0.00     0.011 C 
HETATM    3  C6  UNL     1     -11.588  47.922 -41.291  1.00  0.00     0.021 C 
HETATM    4  C7  UNL     1     -10.566  47.411 -40.247  1.00  0.00     0.050 C 
HETATM    5  C9  UNL     1     -10.632  45.874 -40.169  1.00  0.00     0.022 C 
HETATM    6  C10 UNL     1     -10.206  45.281 -38.820  1.00  0.00     0.011 C 
HETATM    7  C11 UNL     1     -10.974  45.858 -37.586  1.00  0.00    -0.032 C 
HETATM    8  C12 UNL     1     -12.474  45.566 -37.832  1.00  0.00     0.016 C 
HETATM    9  C13 UNL     1     -10.682  47.402 -37.594  1.00  0.00     0.000 C 
HETATM   10  C14 UNL     1      -9.196  47.698 -37.188  1.00  0.00     0.006 C 
HETATM   11  C15 UNL     1      -8.594  46.796 -36.116  1.00  0.00     0.006 C 
HETATM   12  C16 UNL     1      -9.702  46.189 -35.265  1.00  0.00     0.003 C 
HETATM   13  C17 UNL     1      -9.268  45.753 -33.801  1.00  0.00    -0.035 C 
HETATM   14  C18 UNL     1      -8.168  44.668 -33.841  1.00  0.00     0.016 C 
HETATM   15  C19 UNL     1      -8.676  47.004 -33.061  1.00  0.00     0.012 C 
HETATM   16  C20 UNL     1      -9.114  47.185 -31.603  1.00  0.00     0.034 C 
HETATM   17  C21 UNL     1      -9.290  45.875 -30.834  1.00  0.00     0.140 C 
HETATM   18  C31 UNL     1     -10.360  44.945 -31.508  1.00  0.00    -0.017 C 
HETATM   19  C32 UNL     1     -10.051  43.451 -31.276  1.00  0.00     0.018 C 
HETATM   20  C33 UNL     1     -11.713  45.213 -30.781  1.00  0.00     0.018 C 
HETATM   21  C34 UNL     1     -10.559  45.307 -33.035  1.00  0.00     0.004 C 
HETATM   22  C35 UNL     1     -11.384  44.277 -33.829  1.00  0.00     0.007 C 
HETATM   23  C36 UNL     1     -11.751  44.784 -35.232  1.00  0.00     0.011 C 
HETATM   24  C37 UNL     1     -10.530  45.164 -36.134  1.00  0.00    -0.032 C 
HETATM   25  C38 UNL     1      -9.781  43.840 -36.432  1.00  0.00     0.016 C 
HETATM   26  C39 UNL     1     -10.922  48.170 -38.932  1.00  0.00     0.017 C 
ENDROOT
BRANCH  17  27
HETATM   27  O3  UNL     1      -7.992  45.257 -30.747  1.00  0.00    -0.314 OA
BRANCH  27  28
HETATM   28  C22 UNL     1      -7.583  44.831 -29.508  1.00  0.00     0.274 C 
HETATM   29  O4  UNL     1      -6.971  43.792 -29.304  1.00  0.00    -0.264 OA
BRANCH  28  30
HETATM   30  C23 UNL     1      -7.915  45.933 -28.492  1.00  0.00     0.234 C 
BRANCH  30  31
HETATM   31  N1  UNL     1      -8.418  45.478 -27.176  1.00  0.00    -0.156 NA
BRANCH  31  32
HETATM   32  O5  UNL     1      -9.484  44.522 -27.427  1.00  0.00    -0.305 OA
HETATM   33  C24 UNL     1      -9.417  43.490 -26.442  1.00  0.00     0.230 C 
ENDBRANCH  31  32
BRANCH  31  34
HETATM   34  C25 UNL     1      -8.898  46.596 -26.328  1.00  0.00     0.253 C 
HETATM   35  O6  UNL     1      -8.266  46.614 -25.047  1.00  0.00    -0.356 OA
HETATM   36  C26 UNL     1      -8.824  47.562 -24.115  1.00  0.00     0.178 C 
HETATM   37  C28 UNL     1      -8.832  49.001 -24.678  1.00  0.00     0.180 C 
HETATM   38  C29 UNL     1      -9.399  49.063 -26.109  1.00  0.00     0.182 C 
HETATM   39  C30 UNL     1      -8.747  47.992 -26.996  1.00  0.00     0.195 C 
BRANCH  36  40
HETATM   40  C27 UNL     1     -10.196  47.090 -23.596  1.00  0.00     0.198 C 
BRANCH  40  41
HETATM   41  O7  UNL     1     -10.118  46.666 -22.242  1.00  0.00    -0.398 OA
HETATM   42  H42 UNL     1     -11.019  46.416 -21.968  1.00  0.00     0.209 HD
ENDBRANCH  40  41
ENDBRANCH  36  40
BRANCH  37  43
HETATM   43  O8  UNL     1      -7.491  49.518 -24.677  1.00  0.00    -0.390 OA
HETATM   44  H44 UNL     1      -7.020  49.093 -25.425  1.00  0.00     0.210 HD
ENDBRANCH  37  43
BRANCH  38  45
HETATM   45  O9  UNL     1     -10.819  48.900 -26.106  1.00  0.00    -0.390 OA
HETATM   46  H46 UNL     1     -11.190  49.677 -25.648  1.00  0.00     0.210 HD
ENDBRANCH  38  45
BRANCH  39  47
HETATM   47  O10 UNL     1      -7.352  48.343 -27.151  1.00  0.00    -0.389 OA
HETATM   48  H48 UNL     1      -6.870  47.488 -27.102  1.00  0.00     0.210 HD
ENDBRANCH  39  47
ENDBRANCH  31  34
ENDBRANCH  30  31
ENDBRANCH  28  30
ENDBRANCH  27  28
ENDBRANCH  17  27
BRANCH   1  49
HETATM   49  C2  UNL     1     -13.587  48.507 -38.664  1.00  0.00    -0.088 C 
HETATM   50  C1  UNL     1     -14.652  48.207 -39.431  1.00  0.00     0.014 C 
HETATM   51  C3  UNL     1     -13.761  48.535 -37.163  1.00  0.00     0.043 C 
ENDBRANCH   1  49
BRANCH   4  52
HETATM   52  C8  UNL     1      -9.149  47.801 -40.701  1.00  0.00     0.149 C 
HETATM   53  O1  UNL     1      -8.346  47.091 -41.286  1.00  0.00    -0.649 OA
BRANCH  52  54
HETATM   54  O2  UNL     1      -8.787  49.052 -40.356  1.00  0.00    -0.776 OA
HETATM   55  H11 UNL     1      -7.869  49.128 -40.688  1.00  0.00     0.167 HD
ENDBRANCH  52  54
ENDBRANCH   4  52
TORSDOF 14
ENDMDL
MODEL 9
REMARK minimizedAffinity -7.45092583
REMARK CNNscore 0.166512549
REMARK CNNaffinity 5.16010571
REMARK  14 active torsions:
REMARK  status: ('A' for Active; 'I' for Inactive)
REMARK    1  A    between atoms: C2_2  and  C4_4 
REMARK    2  A    between atoms: C7_7  and  C8_8 
REMARK    3  A    between atoms: C8_8  and  O2_10 
REMARK    4  A    between atoms: C21_23  and  O3_24 
REMARK    5  A    between atoms: O3_24  and  C22_25 
REMARK    6  A    between atoms: C22_25  and  C23_27 
REMARK    7  A    between atoms: C23_27  and  N1_28 
REMARK    8  A    between atoms: N1_28  and  O5_29 
REMARK    9  A    between atoms: N1_28  and  C25_31 
REMARK   10  A    between atoms: C26_33  and  C27_34 
REMARK   11  A    between atoms: C27_34  and  O7_35 
REMARK   12  A    between atoms: C28_36  and  O8_37 
REMARK   13  A    between atoms: C29_38  and  O9_39 
REMARK   14  A    between atoms: C30_40  and  O10_41 
ROOT
HETATM    1  C4  UNL     1     -20.180  39.982 -18.505  1.00  0.00     0.019 C 
HETATM    2  C5  UNL     1     -20.898  39.551 -17.208  1.00  0.00     0.011 C 
HETATM    3  C6  UNL     1     -21.405  40.846 -16.580  1.00  0.00     0.021 C 
HETATM    4  C7  UNL     1     -20.332  41.916 -16.894  1.00  0.00     0.050 C 
HETATM    5  C9  UNL     1     -21.017  43.262 -17.198  1.00  0.00     0.022 C 
HETATM    6  C10 UNL     1     -20.217  44.198 -18.113  1.00  0.00     0.011 C 
HETATM    7  C11 UNL     1     -19.784  43.560 -19.474  1.00  0.00    -0.032 C 
HETATM    8  C12 UNL     1     -21.088  43.127 -20.185  1.00  0.00     0.016 C 
HETATM    9  C13 UNL     1     -18.899  42.318 -19.093  1.00  0.00     0.000 C 
HETATM   10  C14 UNL     1     -17.511  42.768 -18.517  1.00  0.00     0.006 C 
HETATM   11  C15 UNL     1     -16.885  44.008 -19.147  1.00  0.00     0.006 C 
HETATM   12  C16 UNL     1     -17.432  44.208 -20.555  1.00  0.00     0.003 C 
HETATM   13  C17 UNL     1     -16.491  45.027 -21.536  1.00  0.00    -0.035 C 
HETATM   14  C18 UNL     1     -16.240  46.458 -21.009  1.00  0.00     0.016 C 
HETATM   15  C19 UNL     1     -15.103  44.300 -21.621  1.00  0.00     0.012 C 
HETATM   16  C20 UNL     1     -14.491  44.194 -23.022  1.00  0.00     0.034 C 
HETATM   17  C21 UNL     1     -14.756  45.406 -23.916  1.00  0.00     0.140 C 
HETATM   18  C31 UNL     1     -16.292  45.653 -24.119  1.00  0.00    -0.017 C 
HETATM   19  C32 UNL     1     -16.612  47.149 -24.324  1.00  0.00     0.018 C 
HETATM   20  C33 UNL     1     -16.689  44.950 -25.453  1.00  0.00     0.018 C 
HETATM   21  C34 UNL     1     -17.141  44.991 -22.961  1.00  0.00     0.004 C 
HETATM   22  C35 UNL     1     -18.622  45.411 -22.939  1.00  0.00     0.007 C 
HETATM   23  C36 UNL     1     -19.452  44.569 -21.957  1.00  0.00     0.011 C 
HETATM   24  C37 UNL     1     -18.957  44.611 -20.474  1.00  0.00    -0.032 C 
HETATM   25  C38 UNL     1     -19.201  46.058 -19.974  1.00  0.00     0.016 C 
HETATM   26  C39 UNL     1     -19.487  41.310 -18.055  1.00  0.00     0.017 C 
ENDROOT
BRANCH  17  27
HETATM   27  O3  UNL     1     -14.087  46.531 -23.313  1.00  0.00    -0.314 OA
BRANCH  27  28
HETATM   28  C22 UNL     1     -12.761  46.709 -23.619  1.00  0.00     0.274 C 
HETATM   29  O4  UNL     1     -11.882  46.895 -22.789  1.00  0.00    -0.264 OA
BRANCH  28  30
HETATM   30  C23 UNL     1     -12.589  46.506 -25.130  1.00  0.00     0.234 C 
BRANCH  30  31
HETATM   31  N1  UNL     1     -12.177  47.697 -25.908  1.00  0.00    -0.156 NA
BRANCH  31  32
HETATM   32  O5  UNL     1     -13.242  47.981 -26.858  1.00  0.00    -0.305 OA
HETATM   33  C24 UNL     1     -13.907  46.760 -27.182  1.00  0.00     0.230 C 
ENDBRANCH  31  32
BRANCH  31  34
HETATM   34  C25 UNL     1     -10.882  47.508 -26.604  1.00  0.00     0.253 C 
HETATM   35  O6  UNL     1     -10.986  47.739 -28.011  1.00  0.00    -0.356 OA
HETATM   36  C26 UNL     1      -9.807  47.391 -28.765  1.00  0.00     0.178 C 
HETATM   37  C28 UNL     1      -8.544  48.111 -28.241  1.00  0.00     0.180 C 
HETATM   38  C29 UNL     1      -8.408  48.008 -26.710  1.00  0.00     0.182 C 
HETATM   39  C30 UNL     1      -9.732  48.378 -26.024  1.00  0.00     0.195 C 
BRANCH  36  40
HETATM   40  C27 UNL     1      -9.649  45.863 -28.877  1.00  0.00     0.198 C 
BRANCH  40  41
HETATM   41  O7  UNL     1      -8.634  45.383 -28.007  1.00  0.00    -0.398 OA
HETATM   42  H42 UNL     1      -8.610  44.414 -28.100  1.00  0.00     0.209 HD
ENDBRANCH  40  41
ENDBRANCH  36  40
BRANCH  37  43
HETATM   43  O8  UNL     1      -8.596  49.497 -28.620  1.00  0.00    -0.390 OA
HETATM   44  H44 UNL     1      -9.244  49.931 -28.026  1.00  0.00     0.210 HD
ENDBRANCH  37  43
BRANCH  38  45
HETATM   45  O9  UNL     1      -8.001  46.696 -26.318  1.00  0.00    -0.390 OA
HETATM   46  H46 UNL     1      -7.099  46.566 -26.665  1.00  0.00     0.210 HD
ENDBRANCH  38  45
BRANCH  39  47
HETATM   47  O10 UNL     1      -9.973  49.783 -26.266  1.00  0.00    -0.389 OA
HETATM   48  H48 UNL     1     -10.939  49.848 -26.434  1.00  0.00     0.210 HD
ENDBRANCH  39  47
ENDBRANCH  31  34
ENDBRANCH  30  31
ENDBRANCH  28  30
ENDBRANCH  27  28
ENDBRANCH  17  27
BRANCH   1  49
HETATM   49  C2  UNL     1     -21.020  39.901 -19.774  1.00  0.00    -0.088 C 
HETATM   50  C1  UNL     1     -20.525  39.833 -21.023  1.00  0.00     0.014 C 
HETATM   51  C3  UNL     1     -22.512  40.066 -19.594  1.00  0.00     0.043 C 
ENDBRANCH   1  49
BRANCH   4  52
HETATM   52  C8  UNL     1     -19.441  42.110 -15.654  1.00  0.00     0.149 C 
HETATM   53  O1  UNL     1     -19.742  42.680 -14.617  1.00  0.00    -0.649 OA
BRANCH  52  54
HETATM   54  O2  UNL     1     -18.195  41.618 -15.792  1.00  0.00    -0.776 OA
HETATM   55  H11 UNL     1     -17.761  41.844 -14.944  1.00  0.00     0.167 HD
ENDBRANCH  52  54
ENDBRANCH   4  52
TORSDOF 14
ENDMDL
