MODEL 1
REMARK minimizedAffinity -9.12931252
REMARK  7 active torsions:
REMARK  status: ('A' for Active; 'I' for Inactive)
REMARK    1  A    between atoms: C2_2  and  C3_3 
REMARK    2  A    between atoms: C2_2  and  C9_10 
REMARK    3  A    between atoms: C3_3  and  C4_4 
REMARK    4  A    between atoms: C5_5  and  C6_6 
REMARK    5  A    between atoms: C6_6  and  O1_9 
REMARK    6  A    between atoms: C17_18  and  C18_19 
REMARK    7  A    between atoms: C18_19  and  O2_22 
ROOT
HETATM    1  C9  UNL     1      -3.631  50.669 -25.547  1.00  0.00    -0.002 C 
HETATM    2  C10 UNL     1      -3.646  52.197 -25.212  1.00  0.00     0.006 C 
HETATM    3  C11 UNL     1      -3.539  52.338 -23.678  1.00  0.00     0.011 C 
HETATM    4  C12 UNL     1      -3.788  50.913 -23.150  1.00  0.00    -0.032 C 
HETATM    5  C13 UNL     1      -5.344  50.730 -23.167  1.00  0.00     0.016 C 
HETATM    6  C14 UNL     1      -3.194  50.604 -21.748  1.00  0.00     0.003 C 
HETATM    7  C15 UNL     1      -3.615  51.582 -20.637  1.00  0.00     0.009 C 
HETATM    8  C16 UNL     1      -3.470  51.031 -19.223  1.00  0.00     0.042 C 
HETATM    9  C17 UNL     1      -2.311  50.029 -18.981  1.00  0.00     0.095 C 
HETATM   10  O3  UNL     1      -2.529  49.427 -17.678  1.00  0.00    -0.377 OA
HETATM   11  C21 UNL     1      -3.489  48.383 -17.639  1.00  0.00     0.169 C 
HETATM   12  C22 UNL     1      -2.976  47.160 -18.367  1.00  0.00     0.027 C 
HETATM   13  C23 UNL     1      -2.085  47.499 -19.554  1.00  0.00     0.010 C 
HETATM   14  C24 UNL     1      -2.232  48.928 -20.121  1.00  0.00     0.032 C 
HETATM   15  C25 UNL     1      -3.263  49.089 -21.329  1.00  0.00    -0.033 C 
HETATM   16  C26 UNL     1      -4.681  48.609 -20.948  1.00  0.00     0.016 C 
HETATM   17  C27 UNL     1      -2.799  48.172 -22.524  1.00  0.00     0.011 C 
HETATM   18  C28 UNL     1      -3.281  48.569 -23.941  1.00  0.00     0.011 C 
HETATM   19  C29 UNL     1      -3.027  50.058 -24.242  1.00  0.00    -0.032 C 
HETATM   20  C30 UNL     1      -1.476  50.270 -24.279  1.00  0.00     0.016 C 
ENDROOT
BRANCH   1  21
HETATM   21  C2  UNL     1      -2.967  50.382 -26.924  1.00  0.00    -0.010 C 
HETATM   22  C1  UNL     1      -1.492  50.796 -26.966  1.00  0.00     0.010 C 
BRANCH  21  23
HETATM   23  C3  UNL     1      -3.110  48.896 -27.356  1.00  0.00     0.031 C 
BRANCH  23  24
HETATM   24  C4  UNL     1      -4.509  48.344 -27.277  1.00  0.00    -0.027 C 
HETATM   25  C5  UNL     1      -5.260  48.073 -28.359  1.00  0.00     0.006 C 
BRANCH  25  26
HETATM   26  C6  UNL     1      -6.673  47.548 -28.396  1.00  0.00     0.068 C 
HETATM   27  C7  UNL     1      -7.251  47.149 -27.034  1.00  0.00     0.050 C 
HETATM   28  C8  UNL     1      -6.767  46.376 -29.376  1.00  0.00     0.050 C 
BRANCH  26  29
HETATM   29  O1  UNL     1      -7.466  48.621 -28.914  1.00  0.00    -0.387 OA
HETATM   30  H15 UNL     1      -8.395  48.341 -28.891  1.00  0.00     0.211 HD
ENDBRANCH  26  29
ENDBRANCH  25  26
ENDBRANCH  23  24
ENDBRANCH  21  23
ENDBRANCH   1  21
BRANCH   9  31
HETATM   31  C18 UNL     1      -0.913  50.804 -18.825  1.00  0.00     0.082 C 
HETATM   32  C19 UNL     1      -0.058  50.722 -20.107  1.00  0.00     0.049 C 
HETATM   33  C20 UNL     1      -0.050  50.255 -17.670  1.00  0.00     0.049 C 
BRANCH  31  34
HETATM   34  O2  UNL     1      -1.134  52.195 -18.556  1.00  0.00    -0.388 OA
HETATM   35  H35 UNL     1      -0.266  52.621 -18.455  1.00  0.00     0.210 HD
ENDBRANCH  31  34
ENDBRANCH   9  31
TORSDOF 7
ENDMDL
MODEL 2
REMARK minimizedAffinity -9.08768272
REMARK  7 active torsions:
REMARK  status: ('A' for Active; 'I' for Inactive)
REMARK    1  A    between atoms: C2_2  and  C3_3 
REMARK    2  A    between atoms: C2_2  and  C9_10 
REMARK    3  A    between atoms: C3_3  and  C4_4 
REMARK    4  A    between atoms: C5_5  and  C6_6 
REMARK    5  A    between atoms: C6_6  and  O1_9 
REMARK    6  A    between atoms: C17_18  and  C18_19 
REMARK    7  A    between atoms: C18_19  and  O2_22 
ROOT
HETATM    1  C9  UNL     1      -3.771  50.378 -25.502  1.00  0.00    -0.002 C 
HETATM    2  C10 UNL     1      -3.810  51.919 -25.234  1.00  0.00     0.006 C 
HETATM    3  C11 UNL     1      -3.688  52.129 -23.709  1.00  0.00     0.011 C 
HETATM    4  C12 UNL     1      -3.905  50.724 -23.116  1.00  0.00    -0.032 C 
HETATM    5  C13 UNL     1      -5.458  50.514 -23.106  1.00  0.00     0.016 C 
HETATM    6  C14 UNL     1      -3.289  50.488 -21.709  1.00  0.00     0.003 C 
HETATM    7  C15 UNL     1      -3.716  51.507 -20.637  1.00  0.00     0.009 C 
HETATM    8  C16 UNL     1      -3.544  51.022 -19.202  1.00  0.00     0.042 C 
HETATM    9  C17 UNL     1      -2.364  50.051 -18.930  1.00  0.00     0.095 C 
HETATM   10  O3  UNL     1      -2.557  49.504 -17.600  1.00  0.00    -0.377 OA
HETATM   11  C21 UNL     1      -3.498  48.446 -17.503  1.00  0.00     0.169 C 
HETATM   12  C22 UNL     1      -2.971  47.201 -18.183  1.00  0.00     0.027 C 
HETATM   13  C23 UNL     1      -2.100  47.502 -19.394  1.00  0.00     0.010 C 
HETATM   14  C24 UNL     1      -2.279  48.902 -20.022  1.00  0.00     0.032 C 
HETATM   15  C25 UNL     1      -3.326  48.992 -21.224  1.00  0.00    -0.033 C 
HETATM   16  C26 UNL     1      -4.731  48.505 -20.805  1.00  0.00     0.016 C 
HETATM   17  C27 UNL     1      -2.859  48.032 -22.383  1.00  0.00     0.011 C 
HETATM   18  C28 UNL     1      -3.365  48.358 -23.810  1.00  0.00     0.011 C 
HETATM   19  C29 UNL     1      -3.141  49.836 -24.179  1.00  0.00    -0.032 C 
HETATM   20  C30 UNL     1      -1.595  50.073 -24.244  1.00  0.00     0.016 C 
ENDROOT
BRANCH   1  21
HETATM   21  C2  UNL     1      -3.117  50.042 -26.873  1.00  0.00    -0.010 C 
HETATM   22  C1  UNL     1      -3.917  49.006 -27.671  1.00  0.00     0.010 C 
BRANCH  21  23
HETATM   23  C3  UNL     1      -2.875  51.306 -27.744  1.00  0.00     0.031 C 
BRANCH  23  24
HETATM   24  C4  UNL     1      -1.617  52.068 -27.420  1.00  0.00    -0.027 C 
HETATM   25  C5  UNL     1      -0.395  51.508 -27.405  1.00  0.00     0.006 C 
BRANCH  25  26
HETATM   26  C6  UNL     1       0.920  52.165 -27.069  1.00  0.00     0.068 C 
HETATM   27  C7  UNL     1       2.068  51.844 -28.033  1.00  0.00     0.050 C 
HETATM   28  C8  UNL     1       1.322  51.820 -25.633  1.00  0.00     0.050 C 
BRANCH  26  29
HETATM   29  O1  UNL     1       0.672  53.573 -27.133  1.00  0.00    -0.387 OA
HETATM   30  H15 UNL     1       1.516  54.029 -26.985  1.00  0.00     0.211 HD
ENDBRANCH  26  29
ENDBRANCH  25  26
ENDBRANCH  23  24
ENDBRANCH  21  23
ENDBRANCH   1  21
BRANCH   9  31
HETATM   31  C18 UNL     1      -0.979  50.856 -18.826  1.00  0.00     0.082 C 
HETATM   32  C19 UNL     1      -0.120  50.701 -20.098  1.00  0.00     0.049 C 
HETATM   33  C20 UNL     1      -0.111  50.401 -17.635  1.00  0.00     0.049 C 
BRANCH  31  34
HETATM   34  O2  UNL     1      -1.223  52.259 -18.653  1.00  0.00    -0.388 OA
HETATM   35  H35 UNL     1      -0.362  52.705 -18.580  1.00  0.00     0.210 HD
ENDBRANCH  31  34
ENDBRANCH   9  31
TORSDOF 7
ENDMDL
MODEL 3
REMARK minimizedAffinity -8.62830067
REMARK  7 active torsions:
REMARK  status: ('A' for Active; 'I' for Inactive)
REMARK    1  A    between atoms: C2_2  and  C3_3 
REMARK    2  A    between atoms: C2_2  and  C9_10 
REMARK    3  A    between atoms: C3_3  and  C4_4 
REMARK    4  A    between atoms: C5_5  and  C6_6 
REMARK    5  A    between atoms: C6_6  and  O1_9 
REMARK    6  A    between atoms: C17_18  and  C18_19 
REMARK    7  A    between atoms: C18_19  and  O2_22 
ROOT
HETATM    1  C9  UNL     1      -1.101  51.508 -22.682  1.00  0.00    -0.002 C 
HETATM    2  C10 UNL     1      -2.420  52.154 -23.220  1.00  0.00     0.006 C 
HETATM    3  C11 UNL     1      -3.591  51.243 -22.791  1.00  0.00     0.011 C 
HETATM    4  C12 UNL     1      -2.907  49.951 -22.307  1.00  0.00    -0.032 C 
HETATM    5  C13 UNL     1      -2.572  49.146 -23.609  1.00  0.00     0.016 C 
HETATM    6  C14 UNL     1      -3.727  49.094 -21.303  1.00  0.00     0.003 C 
HETATM    7  C15 UNL     1      -5.139  48.711 -21.782  1.00  0.00     0.009 C 
HETATM    8  C16 UNL     1      -5.739  47.502 -21.073  1.00  0.00     0.042 C 
HETATM    9  C17 UNL     1      -5.334  47.291 -19.590  1.00  0.00     0.095 C 
HETATM   10  O3  UNL     1      -5.775  45.961 -19.211  1.00  0.00    -0.377 OA
HETATM   11  C21 UNL     1      -4.938  44.895 -19.629  1.00  0.00     0.169 C 
HETATM   12  C22 UNL     1      -3.627  44.919 -18.874  1.00  0.00     0.027 C 
HETATM   13  C23 UNL     1      -3.161  46.327 -18.527  1.00  0.00     0.010 C 
HETATM   14  C24 UNL     1      -3.772  47.466 -19.372  1.00  0.00     0.032 C 
HETATM   15  C25 UNL     1      -2.926  47.907 -20.652  1.00  0.00    -0.033 C 
HETATM   16  C26 UNL     1      -2.670  46.725 -21.612  1.00  0.00     0.016 C 
HETATM   17  C27 UNL     1      -1.506  48.403 -20.182  1.00  0.00     0.011 C 
HETATM   18  C28 UNL     1      -0.753  49.372 -21.125  1.00  0.00     0.011 C 
HETATM   19  C29 UNL     1      -1.639  50.549 -21.573  1.00  0.00    -0.032 C 
HETATM   20  C30 UNL     1      -1.958  51.404 -20.302  1.00  0.00     0.016 C 
ENDROOT
BRANCH   1  21
HETATM   21  C2  UNL     1      -0.029  52.581 -22.333  1.00  0.00    -0.010 C 
HETATM   22  C1  UNL     1       1.136  52.008 -21.518  1.00  0.00     0.010 C 
BRANCH  21  23
HETATM   23  C3  UNL     1       0.516  53.311 -23.592  1.00  0.00     0.031 C 
BRANCH  23  24
HETATM   24  C4  UNL     1       0.455  52.510 -24.866  1.00  0.00    -0.027 C 
HETATM   25  C5  UNL     1      -0.013  53.000 -26.027  1.00  0.00     0.006 C 
BRANCH  25  26
HETATM   26  C6  UNL     1      -0.145  52.284 -27.347  1.00  0.00     0.068 C 
HETATM   27  C7  UNL     1      -1.153  51.129 -27.358  1.00  0.00     0.050 C 
HETATM   28  C8  UNL     1       1.228  51.793 -27.812  1.00  0.00     0.050 C 
BRANCH  26  29
HETATM   29  O1  UNL     1      -0.598  53.273 -28.276  1.00  0.00    -0.387 OA
HETATM   30  H15 UNL     1      -0.757  52.831 -29.125  1.00  0.00     0.211 HD
ENDBRANCH  26  29
ENDBRANCH  25  26
ENDBRANCH  23  24
ENDBRANCH  21  23
ENDBRANCH   1  21
BRANCH   9  31
HETATM   31  C18 UNL     1      -6.168  48.270 -18.630  1.00  0.00     0.082 C 
HETATM   32  C19 UNL     1      -6.988  47.493 -17.579  1.00  0.00     0.049 C 
HETATM   33  C20 UNL     1      -7.157  49.167 -19.403  1.00  0.00     0.049 C 
BRANCH  31  34
HETATM   34  O2  UNL     1      -5.287  49.144 -17.911  1.00  0.00    -0.388 OA
HETATM   35  H35 UNL     1      -5.832  49.727 -17.356  1.00  0.00     0.210 HD
ENDBRANCH  31  34
ENDBRANCH   9  31
TORSDOF 7
ENDMDL
MODEL 4
REMARK minimizedAffinity -8.46108913
REMARK  7 active torsions:
REMARK  status: ('A' for Active; 'I' for Inactive)
REMARK    1  A    between atoms: C2_2  and  C3_3 
REMARK    2  A    between atoms: C2_2  and  C9_10 
REMARK    3  A    between atoms: C3_3  and  C4_4 
REMARK    4  A    between atoms: C5_5  and  C6_6 
REMARK    5  A    between atoms: C6_6  and  O1_9 
REMARK    6  A    between atoms: C17_18  and  C18_19 
REMARK    7  A    between atoms: C18_19  and  O2_22 
ROOT
HETATM    1  C9  UNL     1      -1.155  50.634 -21.993  1.00  0.00    -0.002 C 
HETATM    2  C10 UNL     1      -1.558  50.217 -23.445  1.00  0.00     0.006 C 
HETATM    3  C11 UNL     1      -2.750  49.241 -23.335  1.00  0.00     0.011 C 
HETATM    4  C12 UNL     1      -2.797  48.871 -21.841  1.00  0.00    -0.032 C 
HETATM    5  C13 UNL     1      -1.697  47.772 -21.651  1.00  0.00     0.016 C 
HETATM    6  C14 UNL     1      -4.178  48.392 -21.313  1.00  0.00     0.003 C 
HETATM    7  C15 UNL     1      -4.797  47.219 -22.094  1.00  0.00     0.009 C 
HETATM    8  C16 UNL     1      -5.851  46.434 -21.321  1.00  0.00     0.042 C 
HETATM    9  C17 UNL     1      -6.707  47.231 -20.302  1.00  0.00     0.095 C 
HETATM   10  O3  UNL     1      -7.425  46.262 -19.494  1.00  0.00    -0.377 OA
HETATM   11  C21 UNL     1      -6.677  45.660 -18.450  1.00  0.00     0.169 C 
HETATM   12  C22 UNL     1      -6.368  46.669 -17.366  1.00  0.00     0.027 C 
HETATM   13  C23 UNL     1      -6.164  48.080 -17.901  1.00  0.00     0.010 C 
HETATM   14  C24 UNL     1      -5.817  48.189 -19.402  1.00  0.00     0.032 C 
HETATM   15  C25 UNL     1      -4.260  48.237 -19.750  1.00  0.00    -0.033 C 
HETATM   16  C26 UNL     1      -3.506  47.004 -19.203  1.00  0.00     0.016 C 
HETATM   17  C27 UNL     1      -3.615  49.490 -19.044  1.00  0.00     0.011 C 
HETATM   18  C28 UNL     1      -2.312  50.050 -19.662  1.00  0.00     0.011 C 
HETATM   19  C29 UNL     1      -2.438  50.264 -21.182  1.00  0.00    -0.032 C 
HETATM   20  C30 UNL     1      -3.499  51.392 -21.409  1.00  0.00     0.016 C 
ENDROOT
BRANCH   1  21
HETATM   21  C2  UNL     1      -0.588  52.082 -21.939  1.00  0.00    -0.010 C 
HETATM   22  C1  UNL     1      -0.296  52.549 -20.509  1.00  0.00     0.010 C 
BRANCH  21  23
HETATM   23  C3  UNL     1       0.679  52.260 -22.821  1.00  0.00     0.031 C 
BRANCH  23  24
HETATM   24  C4  UNL     1       0.405  52.582 -24.266  1.00  0.00    -0.027 C 
HETATM   25  C5  UNL     1       0.993  51.940 -25.292  1.00  0.00     0.006 C 
BRANCH  25  26
HETATM   26  C6  UNL     1       0.815  52.197 -26.767  1.00  0.00     0.068 C 
HETATM   27  C7  UNL     1      -0.367  51.467 -27.413  1.00  0.00     0.050 C 
HETATM   28  C8  UNL     1       2.112  51.867 -27.511  1.00  0.00     0.050 C 
BRANCH  26  29
HETATM   29  O1  UNL     1       0.584  53.604 -26.886  1.00  0.00    -0.387 OA
HETATM   30  H15 UNL     1       0.400  53.795 -27.819  1.00  0.00     0.211 HD
ENDBRANCH  26  29
ENDBRANCH  25  26
ENDBRANCH  23  24
ENDBRANCH  21  23
ENDBRANCH   1  21
BRANCH   9  31
HETATM   31  C18 UNL     1      -7.865  48.052 -21.052  1.00  0.00     0.082 C 
HETATM   32  C19 UNL     1      -9.165  48.114 -20.223  1.00  0.00     0.049 C 
HETATM   33  C20 UNL     1      -8.233  47.449 -22.424  1.00  0.00     0.049 C 
BRANCH  31  34
HETATM   34  O2  UNL     1      -7.454  49.405 -21.289  1.00  0.00    -0.388 OA
HETATM   35  H35 UNL     1      -8.175  49.859 -21.756  1.00  0.00     0.210 HD
ENDBRANCH  31  34
ENDBRANCH   9  31
TORSDOF 7
ENDMDL
MODEL 5
REMARK minimizedAffinity -8.36314392
REMARK  7 active torsions:
REMARK  status: ('A' for Active; 'I' for Inactive)
REMARK    1  A    between atoms: C2_2  and  C3_3 
REMARK    2  A    between atoms: C2_2  and  C9_10 
REMARK    3  A    between atoms: C3_3  and  C4_4 
REMARK    4  A    between atoms: C5_5  and  C6_6 
REMARK    5  A    between atoms: C6_6  and  O1_9 
REMARK    6  A    between atoms: C17_18  and  C18_19 
REMARK    7  A    between atoms: C18_19  and  O2_22 
ROOT
HETATM    1  C9  UNL     1      -4.556  48.632 -22.560  1.00  0.00    -0.002 C 
HETATM    2  C10 UNL     1      -5.034  48.223 -23.991  1.00  0.00     0.006 C 
HETATM    3  C11 UNL     1      -4.279  49.111 -25.005  1.00  0.00     0.011 C 
HETATM    4  C12 UNL     1      -3.639  50.211 -24.139  1.00  0.00    -0.032 C 
HETATM    5  C13 UNL     1      -4.784  51.246 -23.869  1.00  0.00     0.016 C 
HETATM    6  C14 UNL     1      -2.383  50.897 -24.746  1.00  0.00     0.003 C 
HETATM    7  C15 UNL     1      -2.585  51.484 -26.154  1.00  0.00     0.009 C 
HETATM    8  C16 UNL     1      -1.574  52.558 -26.540  1.00  0.00     0.042 C 
HETATM    9  C17 UNL     1      -0.145  52.415 -25.951  1.00  0.00     0.095 C 
HETATM   10  O3  UNL     1       0.550  53.664 -26.205  1.00  0.00    -0.377 OA
HETATM   11  C21 UNL     1       0.248  54.725 -25.313  1.00  0.00     0.169 C 
HETATM   12  C22 UNL     1       0.803  54.436 -23.935  1.00  0.00     0.027 C 
HETATM   13  C23 UNL     1       0.794  52.955 -23.584  1.00  0.00     0.010 C 
HETATM   14  C24 UNL     1      -0.175  52.074 -24.401  1.00  0.00     0.032 C 
HETATM   15  C25 UNL     1      -1.618  51.851 -23.756  1.00  0.00    -0.033 C 
HETATM   16  C26 UNL     1      -2.345  53.186 -23.487  1.00  0.00     0.016 C 
HETATM   17  C27 UNL     1      -1.449  51.156 -22.352  1.00  0.00     0.011 C 
HETATM   18  C28 UNL     1      -2.660  50.354 -21.816  1.00  0.00     0.011 C 
HETATM   19  C29 UNL     1      -3.215  49.373 -22.866  1.00  0.00    -0.032 C 
HETATM   20  C30 UNL     1      -2.112  48.294 -23.127  1.00  0.00     0.016 C 
ENDROOT
BRANCH   1  21
HETATM   21  C2  UNL     1      -4.575  47.429 -21.574  1.00  0.00    -0.010 C 
HETATM   22  C1  UNL     1      -3.189  46.804 -21.378  1.00  0.00     0.010 C 
BRANCH  21  23
HETATM   23  C3  UNL     1      -5.186  47.798 -20.193  1.00  0.00     0.031 C 
BRANCH  23  24
HETATM   24  C4  UNL     1      -4.183  48.181 -19.137  1.00  0.00    -0.027 C 
HETATM   25  C5  UNL     1      -3.781  49.445 -18.922  1.00  0.00     0.006 C 
BRANCH  25  26
HETATM   26  C6  UNL     1      -2.768  49.936 -17.917  1.00  0.00     0.068 C 
HETATM   27  C7  UNL     1      -1.304  49.711 -18.313  1.00  0.00     0.050 C 
HETATM   28  C8  UNL     1      -3.049  49.311 -16.548  1.00  0.00     0.050 C 
BRANCH  26  29
HETATM   29  O1  UNL     1      -2.985  51.346 -17.812  1.00  0.00    -0.387 OA
HETATM   30  H15 UNL     1      -2.306  51.707 -17.221  1.00  0.00     0.211 HD
ENDBRANCH  26  29
ENDBRANCH  25  26
ENDBRANCH  23  24
ENDBRANCH  21  23
ENDBRANCH   1  21
BRANCH   9  31
HETATM   31  C18 UNL     1       0.700  51.323 -26.770  1.00  0.00     0.082 C 
HETATM   32  C19 UNL     1       2.197  51.348 -26.398  1.00  0.00     0.049 C 
HETATM   33  C20 UNL     1       0.610  51.519 -28.298  1.00  0.00     0.049 C 
BRANCH  31  34
HETATM   34  O2  UNL     1       0.220  50.000 -26.491  1.00  0.00    -0.388 OA
HETATM   35  H35 UNL     1       0.747  49.374 -27.016  1.00  0.00     0.210 HD
ENDBRANCH  31  34
ENDBRANCH   9  31
TORSDOF 7
ENDMDL
MODEL 6
REMARK minimizedAffinity -8.29848385
REMARK  7 active torsions:
REMARK  status: ('A' for Active; 'I' for Inactive)
REMARK    1  A    between atoms: C2_2  and  C3_3 
REMARK    2  A    between atoms: C2_2  and  C9_10 
REMARK    3  A    between atoms: C3_3  and  C4_4 
REMARK    4  A    between atoms: C5_5  and  C6_6 
REMARK    5  A    between atoms: C6_6  and  O1_9 
REMARK    6  A    between atoms: C17_18  and  C18_19 
REMARK    7  A    between atoms: C18_19  and  O2_22 
ROOT
HETATM    1  C9  UNL     1      -3.538  50.356 -23.964  1.00  0.00    -0.002 C 
HETATM    2  C10 UNL     1      -2.348  49.495 -23.428  1.00  0.00     0.006 C 
HETATM    3  C11 UNL     1      -2.889  48.622 -22.275  1.00  0.00     0.011 C 
HETATM    4  C12 UNL     1      -4.272  49.222 -21.963  1.00  0.00    -0.032 C 
HETATM    5  C13 UNL     1      -3.987  50.477 -21.069  1.00  0.00     0.016 C 
HETATM    6  C14 UNL     1      -5.285  48.258 -21.285  1.00  0.00     0.003 C 
HETATM    7  C15 UNL     1      -4.776  47.589 -19.996  1.00  0.00     0.009 C 
HETATM    8  C16 UNL     1      -5.878  47.067 -19.080  1.00  0.00     0.042 C 
HETATM    9  C17 UNL     1      -7.172  46.555 -19.767  1.00  0.00     0.095 C 
HETATM   10  O3  UNL     1      -8.169  46.381 -18.727  1.00  0.00    -0.377 OA
HETATM   11  C21 UNL     1      -8.821  47.567 -18.300  1.00  0.00     0.169 C 
HETATM   12  C22 UNL     1      -9.726  48.100 -19.390  1.00  0.00     0.027 C 
HETATM   13  C23 UNL     1      -9.192  47.840 -20.791  1.00  0.00     0.010 C 
HETATM   14  C24 UNL     1      -7.678  47.552 -20.894  1.00  0.00     0.032 C 
HETATM   15  C25 UNL     1      -6.751  48.818 -21.183  1.00  0.00    -0.033 C 
HETATM   16  C26 UNL     1      -6.926  49.920 -20.115  1.00  0.00     0.016 C 
HETATM   17  C27 UNL     1      -7.183  49.467 -22.553  1.00  0.00     0.011 C 
HETATM   18  C28 UNL     1      -6.119  50.313 -23.294  1.00  0.00     0.011 C 
HETATM   19  C29 UNL     1      -4.775  49.571 -23.422  1.00  0.00    -0.032 C 
HETATM   20  C30 UNL     1      -5.011  48.333 -24.350  1.00  0.00     0.016 C 
ENDROOT
BRANCH   1  21
HETATM   21  C2  UNL     1      -3.406  50.647 -25.487  1.00  0.00    -0.010 C 
HETATM   22  C1  UNL     1      -3.270  52.143 -25.793  1.00  0.00     0.010 C 
BRANCH  21  23
HETATM   23  C3  UNL     1      -2.233  49.867 -26.144  1.00  0.00     0.031 C 
BRANCH  23  24
HETATM   24  C4  UNL     1      -1.181  50.728 -26.791  1.00  0.00    -0.027 C 
HETATM   25  C5  UNL     1       0.022  50.966 -26.241  1.00  0.00     0.006 C 
BRANCH  25  26
HETATM   26  C6  UNL     1       1.133  51.830 -26.784  1.00  0.00     0.068 C 
HETATM   27  C7  UNL     1       1.089  52.066 -28.297  1.00  0.00     0.050 C 
HETATM   28  C8  UNL     1       2.490  51.247 -26.378  1.00  0.00     0.050 C 
BRANCH  26  29
HETATM   29  O1  UNL     1       0.985  53.097 -26.135  1.00  0.00    -0.387 OA
HETATM   30  H15 UNL     1       1.646  53.700 -26.510  1.00  0.00     0.211 HD
ENDBRANCH  26  29
ENDBRANCH  25  26
ENDBRANCH  23  24
ENDBRANCH  21  23
ENDBRANCH   1  21
BRANCH   9  31
HETATM   31  C18 UNL     1      -6.956  45.077 -20.354  1.00  0.00     0.082 C 
HETATM   32  C19 UNL     1      -5.812  44.328 -19.639  1.00  0.00     0.049 C 
HETATM   33  C20 UNL     1      -6.625  45.074 -21.861  1.00  0.00     0.049 C 
BRANCH  31  34
HETATM   34  O2  UNL     1      -8.142  44.288 -20.187  1.00  0.00    -0.388 OA
HETATM   35  H35 UNL     1      -7.973  43.410 -20.568  1.00  0.00     0.210 HD
ENDBRANCH  31  34
ENDBRANCH   9  31
TORSDOF 7
ENDMDL
MODEL 7
REMARK minimizedAffinity -8.21547031
REMARK  7 active torsions:
REMARK  status: ('A' for Active; 'I' for Inactive)
REMARK    1  A    between atoms: C2_2  and  C3_3 
REMARK    2  A    between atoms: C2_2  and  C9_10 
REMARK    3  A    between atoms: C3_3  and  C4_4 
REMARK    4  A    between atoms: C5_5  and  C6_6 
REMARK    5  A    between atoms: C6_6  and  O1_9 
REMARK    6  A    between atoms: C17_18  and  C18_19 
REMARK    7  A    between atoms: C18_19  and  O2_22 
ROOT
HETATM    1  C9  UNL     1      -3.882  50.194 -25.312  1.00  0.00    -0.002 C 
HETATM    2  C10 UNL     1      -3.031  51.386 -24.764  1.00  0.00     0.006 C 
HETATM    3  C11 UNL     1      -3.075  51.318 -23.222  1.00  0.00     0.011 C 
HETATM    4  C12 UNL     1      -4.193  50.304 -22.920  1.00  0.00    -0.032 C 
HETATM    5  C13 UNL     1      -5.531  51.107 -23.065  1.00  0.00     0.016 C 
HETATM    6  C14 UNL     1      -4.101  49.595 -21.540  1.00  0.00     0.003 C 
HETATM    7  C15 UNL     1      -4.006  50.543 -20.332  1.00  0.00     0.009 C 
HETATM    8  C16 UNL     1      -4.415  49.914 -19.004  1.00  0.00     0.042 C 
HETATM    9  C17 UNL     1      -4.128  48.399 -18.832  1.00  0.00     0.095 C 
HETATM   10  O3  UNL     1      -4.840  47.960 -17.646  1.00  0.00    -0.377 OA
HETATM   11  C21 UNL     1      -6.227  47.715 -17.819  1.00  0.00     0.169 C 
HETATM   12  C22 UNL     1      -6.448  46.489 -18.679  1.00  0.00     0.027 C 
HETATM   13  C23 UNL     1      -5.377  46.304 -19.744  1.00  0.00     0.010 C 
HETATM   14  C24 UNL     1      -4.564  47.565 -20.111  1.00  0.00     0.032 C 
HETATM   15  C25 UNL     1      -5.116  48.408 -21.348  1.00  0.00    -0.033 C 
HETATM   16  C26 UNL     1      -6.576  48.863 -21.133  1.00  0.00     0.016 C 
HETATM   17  C27 UNL     1      -5.129  47.490 -22.629  1.00  0.00     0.011 C 
HETATM   18  C28 UNL     1      -5.078  48.202 -24.003  1.00  0.00     0.011 C 
HETATM   19  C29 UNL     1      -3.948  49.247 -24.071  1.00  0.00    -0.032 C 
HETATM   20  C30 UNL     1      -2.590  48.474 -23.976  1.00  0.00     0.016 C 
ENDROOT
BRANCH   1  21
HETATM   21  C2  UNL     1      -3.337  49.664 -26.669  1.00  0.00    -0.010 C 
HETATM   22  C1  UNL     1      -4.217  48.563 -27.271  1.00  0.00     0.010 C 
BRANCH  21  23
HETATM   23  C3  UNL     1      -3.126  50.799 -27.710  1.00  0.00     0.031 C 
BRANCH  23  24
HETATM   24  C4  UNL     1      -1.958  51.708 -27.430  1.00  0.00    -0.027 C 
HETATM   25  C5  UNL     1      -0.675  51.315 -27.523  1.00  0.00     0.006 C 
BRANCH  25  26
HETATM   26  C6  UNL     1       0.564  52.127 -27.240  1.00  0.00     0.068 C 
HETATM   27  C7  UNL     1       1.349  51.697 -25.996  1.00  0.00     0.050 C 
HETATM   28  C8  UNL     1       0.203  53.612 -27.152  1.00  0.00     0.050 C 
BRANCH  26  29
HETATM   29  O1  UNL     1       1.409  51.945 -28.381  1.00  0.00    -0.387 OA
HETATM   30  H15 UNL     1       2.246  52.402 -28.204  1.00  0.00     0.211 HD
ENDBRANCH  26  29
ENDBRANCH  25  26
ENDBRANCH  23  24
ENDBRANCH  21  23
ENDBRANCH   1  21
BRANCH   9  31
HETATM   31  C18 UNL     1      -2.582  48.151 -18.476  1.00  0.00     0.082 C 
HETATM   32  C19 UNL     1      -1.962  49.342 -17.717  1.00  0.00     0.049 C 
HETATM   33  C20 UNL     1      -1.712  47.910 -19.727  1.00  0.00     0.049 C 
BRANCH  31  34
HETATM   34  O2  UNL     1      -2.436  46.996 -17.638  1.00  0.00    -0.388 OA
HETATM   35  H35 UNL     1      -1.488  46.874 -17.461  1.00  0.00     0.210 HD
ENDBRANCH  31  34
ENDBRANCH   9  31
TORSDOF 7
ENDMDL
MODEL 8
REMARK minimizedAffinity -8.21148014
REMARK  7 active torsions:
REMARK  status: ('A' for Active; 'I' for Inactive)
REMARK    1  A    between atoms: C2_2  and  C3_3 
REMARK    2  A    between atoms: C2_2  and  C9_10 
REMARK    3  A    between atoms: C3_3  and  C4_4 
REMARK    4  A    between atoms: C5_5  and  C6_6 
REMARK    5  A    between atoms: C6_6  and  O1_9 
REMARK    6  A    between atoms: C17_18  and  C18_19 
REMARK    7  A    between atoms: C18_19  and  O2_22 
ROOT
HETATM    1  C9  UNL     1      -0.623  50.282 -21.143  1.00  0.00    -0.002 C 
HETATM    2  C10 UNL     1      -1.088  50.317 -22.635  1.00  0.00     0.006 C 
HETATM    3  C11 UNL     1      -2.393  49.497 -22.735  1.00  0.00     0.011 C 
HETATM    4  C12 UNL     1      -2.474  48.752 -21.389  1.00  0.00    -0.032 C 
HETATM    5  C13 UNL     1      -1.520  47.519 -21.540  1.00  0.00     0.016 C 
HETATM    6  C14 UNL     1      -3.900  48.319 -20.947  1.00  0.00     0.003 C 
HETATM    7  C15 UNL     1      -4.669  47.479 -21.982  1.00  0.00     0.009 C 
HETATM    8  C16 UNL     1      -5.808  46.649 -21.398  1.00  0.00     0.042 C 
HETATM    9  C17 UNL     1      -6.547  47.244 -20.170  1.00  0.00     0.095 C 
HETATM   10  O3  UNL     1      -7.374  46.189 -19.615  1.00  0.00    -0.377 OA
HETATM   11  C21 UNL     1      -6.699  45.247 -18.798  1.00  0.00     0.169 C 
HETATM   12  C22 UNL     1      -6.255  45.888 -17.501  1.00  0.00     0.027 C 
HETATM   13  C23 UNL     1      -5.879  47.355 -17.656  1.00  0.00     0.010 C 
HETATM   14  C24 UNL     1      -5.534  47.815 -19.089  1.00  0.00     0.032 C 
HETATM   15  C25 UNL     1      -3.987  47.766 -19.477  1.00  0.00    -0.033 C 
HETATM   16  C26 UNL     1      -3.391  46.352 -19.305  1.00  0.00     0.016 C 
HETATM   17  C27 UNL     1      -3.183  48.701 -18.495  1.00  0.00     0.011 C 
HETATM   18  C28 UNL     1      -1.824  49.245 -19.000  1.00  0.00     0.011 C 
HETATM   19  C29 UNL     1      -1.935  49.867 -20.405  1.00  0.00    -0.032 C 
HETATM   20  C30 UNL     1      -2.847  51.134 -20.284  1.00  0.00     0.016 C 
ENDROOT
BRANCH   1  21
HETATM   21  C2  UNL     1       0.123  51.586 -20.735  1.00  0.00    -0.010 C 
HETATM   22  C1  UNL     1       0.097  52.650 -21.838  1.00  0.00     0.010 C 
BRANCH  21  23
HETATM   23  C3  UNL     1      -0.414  52.189 -19.407  1.00  0.00     0.031 C 
BRANCH  23  24
HETATM   24  C4  UNL     1       0.635  52.443 -18.357  1.00  0.00    -0.027 C 
HETATM   25  C5  UNL     1       0.676  51.794 -17.179  1.00  0.00     0.006 C 
BRANCH  25  26
HETATM   26  C6  UNL     1       1.657  51.987 -16.050  1.00  0.00     0.068 C 
HETATM   27  C7  UNL     1       3.057  52.438 -16.480  1.00  0.00     0.050 C 
HETATM   28  C8  UNL     1       1.745  50.707 -15.215  1.00  0.00     0.050 C 
BRANCH  26  29
HETATM   29  O1  UNL     1       1.096  53.014 -15.226  1.00  0.00    -0.387 OA
HETATM   30  H15 UNL     1       1.735  53.210 -14.523  1.00  0.00     0.211 HD
ENDBRANCH  26  29
ENDBRANCH  25  26
ENDBRANCH  23  24
ENDBRANCH  21  23
ENDBRANCH   1  21
BRANCH   9  31
HETATM   31  C18 UNL     1      -7.598  48.367 -20.631  1.00  0.00     0.082 C 
HETATM   32  C19 UNL     1      -7.053  49.795 -20.420  1.00  0.00     0.049 C 
HETATM   33  C20 UNL     1      -8.938  48.278 -19.872  1.00  0.00     0.049 C 
BRANCH  31  34
HETATM   34  O2  UNL     1      -7.899  48.235 -22.027  1.00  0.00    -0.388 OA
HETATM   35  H35 UNL     1      -8.548  48.921 -22.258  1.00  0.00     0.210 HD
ENDBRANCH  31  34
ENDBRANCH   9  31
TORSDOF 7
ENDMDL
MODEL 9
REMARK minimizedAffinity -8.2036972
REMARK  7 active torsions:
REMARK  status: ('A' for Active; 'I' for Inactive)
REMARK    1  A    between atoms: C2_2  and  C3_3 
REMARK    2  A    between atoms: C2_2  and  C9_10 
REMARK    3  A    between atoms: C3_3  and  C4_4 
REMARK    4  A    between atoms: C5_5  and  C6_6 
REMARK    5  A    between atoms: C6_6  and  O1_9 
REMARK    6  A    between atoms: C17_18  and  C18_19 
REMARK    7  A    between atoms: C18_19  and  O2_22 
ROOT
HETATM    1  C9  UNL     1      -4.796  48.509 -22.932  1.00  0.00    -0.002 C 
HETATM    2  C10 UNL     1      -5.236  48.231 -24.407  1.00  0.00     0.006 C 
HETATM    3  C11 UNL     1      -4.416  49.167 -25.321  1.00  0.00     0.011 C 
HETATM    4  C12 UNL     1      -3.769  50.171 -24.350  1.00  0.00    -0.032 C 
HETATM    5  C13 UNL     1      -4.887  51.224 -24.037  1.00  0.00     0.016 C 
HETATM    6  C14 UNL     1      -2.470  50.855 -24.860  1.00  0.00     0.003 C 
HETATM    7  C15 UNL     1      -2.601  51.557 -26.223  1.00  0.00     0.009 C 
HETATM    8  C16 UNL     1      -1.540  52.620 -26.490  1.00  0.00     0.042 C 
HETATM    9  C17 UNL     1      -0.140  52.379 -25.867  1.00  0.00     0.095 C 
HETATM   10  O3  UNL     1       0.606  53.617 -25.999  1.00  0.00    -0.377 OA
HETATM   11  C21 UNL     1       0.310  54.616 -25.035  1.00  0.00     0.169 C 
HETATM   12  C22 UNL     1       0.806  54.200 -23.667  1.00  0.00     0.027 C 
HETATM   13  C23 UNL     1       0.733  52.697 -23.435  1.00  0.00     0.010 C 
HETATM   14  C24 UNL     1      -0.236  51.919 -24.351  1.00  0.00     0.032 C 
HETATM   15  C25 UNL     1      -1.708  51.699 -23.773  1.00  0.00    -0.033 C 
HETATM   16  C26 UNL     1      -2.397  53.036 -23.423  1.00  0.00     0.016 C 
HETATM   17  C27 UNL     1      -1.613  50.891 -22.424  1.00  0.00     0.011 C 
HETATM   18  C28 UNL     1      -2.869  50.096 -21.993  1.00  0.00     0.011 C 
HETATM   19  C29 UNL     1      -3.420  49.221 -23.135  1.00  0.00    -0.032 C 
HETATM   20  C30 UNL     1      -2.346  48.126 -23.444  1.00  0.00     0.016 C 
ENDROOT
BRANCH   1  21
HETATM   21  C2  UNL     1      -4.891  47.234 -22.046  1.00  0.00    -0.010 C 
HETATM   22  C1  UNL     1      -4.644  47.526 -20.562  1.00  0.00     0.010 C 
BRANCH  21  23
HETATM   23  C3  UNL     1      -6.243  46.487 -22.219  1.00  0.00     0.031 C 
BRANCH  23  24
HETATM   24  C4  UNL     1      -7.316  46.885 -21.240  1.00  0.00    -0.027 C 
HETATM   25  C5  UNL     1      -7.165  47.868 -20.334  1.00  0.00     0.006 C 
BRANCH  25  26
HETATM   26  C6  UNL     1      -8.156  48.328 -19.294  1.00  0.00     0.068 C 
HETATM   27  C7  UNL     1      -7.971  47.706 -17.905  1.00  0.00     0.050 C 
HETATM   28  C8  UNL     1      -9.583  48.091 -19.795  1.00  0.00     0.050 C 
BRANCH  26  29
HETATM   29  O1  UNL     1      -7.958  49.740 -19.176  1.00  0.00    -0.387 OA
HETATM   30  H15 UNL     1      -8.536  50.061 -18.465  1.00  0.00     0.211 HD
ENDBRANCH  26  29
ENDBRANCH  25  26
ENDBRANCH  23  24
ENDBRANCH  21  23
ENDBRANCH   1  21
BRANCH   9  31
HETATM   31  C18 UNL     1       0.696  51.323 -26.742  1.00  0.00     0.082 C 
HETATM   32  C19 UNL     1       2.204  51.366 -26.421  1.00  0.00     0.049 C 
HETATM   33  C20 UNL     1       0.550  51.556 -28.260  1.00  0.00     0.049 C 
BRANCH  31  34
HETATM   34  O2  UNL     1       0.249  49.985 -26.481  1.00  0.00    -0.388 OA
HETATM   35  H35 UNL     1       0.768  49.383 -27.040  1.00  0.00     0.210 HD
ENDBRANCH  31  34
ENDBRANCH   9  31
TORSDOF 7
ENDMDL
