MODEL 1
REMARK minimizedAffinity -9.16919899
REMARK  7 active torsions:
REMARK  status: ('A' for Active; 'I' for Inactive)
REMARK    1  A    between atoms: C2_2  and  O2_4 
REMARK    2  A    between atoms: O2_4  and  C3_5 
REMARK    3  A    between atoms: C3_5  and  C4_6 
REMARK    4  A    between atoms: C3_5  and  C9_12 
REMARK    5  A    between atoms: C5_7  and  C6_8 
REMARK    6  A    between atoms: C6_8  and  O3_11 
REMARK    7  A    between atoms: C9_12  and  C11_14 
ROOT
HETATM    1  C11 UNL     1       1.256   7.055  13.149  1.00  0.00     0.001 C 
HETATM    2  C12 UNL     1       0.392   8.113  13.899  1.00  0.00     0.007 C 
HETATM    3  C13 UNL     1      -1.061   7.604  13.933  1.00  0.00     0.015 C 
HETATM    4  C14 UNL     1      -0.964   6.120  13.552  1.00  0.00    -0.013 C 
HETATM    5  C15 UNL     1      -0.581   5.340  14.849  1.00  0.00     0.021 C 
HETATM    6  C16 UNL     1      -2.206   5.410  13.018  1.00  0.00    -0.068 C 
HETATM    7  C17 UNL     1      -2.075   4.355  12.172  1.00  0.00    -0.068 C 
HETATM    8  C18 UNL     1      -0.695   3.917  11.656  1.00  0.00     0.036 C 
HETATM    9  C19 UNL     1       0.532   4.731  12.116  1.00  0.00     0.015 C 
HETATM   10  C20 UNL     1       0.160   6.182  12.446  1.00  0.00    -0.029 C 
HETATM   11  C21 UNL     1      -0.314   6.897  11.139  1.00  0.00     0.016 C 
HETATM   12  C22 UNL     1      -3.301   3.549  11.656  1.00  0.00    -0.015 C 
HETATM   13  C23 UNL     1      -3.514   3.952  10.175  1.00  0.00     0.020 C 
HETATM   14  C24 UNL     1      -3.013   2.019  11.732  1.00  0.00     0.021 C 
HETATM   15  C25 UNL     1      -4.239   1.114  11.810  1.00  0.00     0.080 C 
HETATM   16  C26 UNL     1      -5.515   1.790  11.374  1.00  0.00     0.135 C 
HETATM   17  O4  UNL     1      -6.257   1.251  10.553  1.00  0.00    -0.297 OA
HETATM   18  C27 UNL     1      -5.877   3.108  12.068  1.00  0.00     0.018 C 
HETATM   19  C28 UNL     1      -6.753   3.959  11.125  1.00  0.00     0.023 C 
HETATM   20  C29 UNL     1      -6.744   2.740  13.292  1.00  0.00     0.023 C 
HETATM   21  C30 UNL     1      -4.567   3.823  12.548  1.00  0.00     0.013 C 
HETATM   22  C31 UNL     1      -4.745   5.325  12.798  1.00  0.00     0.011 C 
HETATM   23  C32 UNL     1      -3.538   5.901  13.529  1.00  0.00     0.036 C 
ENDROOT
BRANCH   1  24
HETATM   24  C9  UNL     1       2.398   7.697  12.290  1.00  0.00     0.020 C 
HETATM   25  C10 UNL     1       1.840   8.707  11.270  1.00  0.00     0.013 C 
BRANCH  24  26
HETATM   26  C3  UNL     1       3.276   6.675  11.490  1.00  0.00     0.158 C 
BRANCH  26  27
HETATM   27  O2  UNL     1       4.667   6.854  11.831  1.00  0.00    -0.312 OA
BRANCH  27  28
HETATM   28  C2  UNL     1       5.581   6.271  11.009  1.00  0.00     0.255 C 
HETATM   29  C1  UNL     1       6.813   7.121  10.931  1.00  0.00     0.126 C 
HETATM   30  O1  UNL     1       5.455   5.197  10.440  1.00  0.00    -0.266 OA
ENDBRANCH  27  28
ENDBRANCH  26  27
BRANCH  26  31
HETATM   31  C4  UNL     1       3.190   6.788   9.989  1.00  0.00     0.005 C 
HETATM   32  C5  UNL     1       2.188   7.408   9.340  1.00  0.00     0.008 C 
BRANCH  32  33
HETATM   33  C6  UNL     1       2.013   7.563   7.847  1.00  0.00     0.068 C 
HETATM   34  C7  UNL     1       0.565   7.949   7.531  1.00  0.00     0.050 C 
HETATM   35  C8  UNL     1       2.423   6.352   7.002  1.00  0.00     0.050 C 
BRANCH  33  36
HETATM   36  O3  UNL     1       2.838   8.664   7.460  1.00  0.00    -0.387 OA
HETATM   37  H13 UNL     1       3.748   8.440   7.724  1.00  0.00     0.211 HD
ENDBRANCH  33  36
ENDBRANCH  32  33
ENDBRANCH  26  31
ENDBRANCH  24  26
ENDBRANCH   1  24
TORSDOF 7
ENDMDL
MODEL 2
REMARK minimizedAffinity -9.05772686
REMARK  7 active torsions:
REMARK  status: ('A' for Active; 'I' for Inactive)
REMARK    1  A    between atoms: C2_2  and  O2_4 
REMARK    2  A    between atoms: O2_4  and  C3_5 
REMARK    3  A    between atoms: C3_5  and  C4_6 
REMARK    4  A    between atoms: C3_5  and  C9_12 
REMARK    5  A    between atoms: C5_7  and  C6_8 
REMARK    6  A    between atoms: C6_8  and  O3_11 
REMARK    7  A    between atoms: C9_12  and  C11_14 
ROOT
HETATM    1  C11 UNL     1      -2.752   5.456  13.237  1.00  0.00     0.001 C 
HETATM    2  C12 UNL     1      -2.707   4.736  11.855  1.00  0.00     0.007 C 
HETATM    3  C13 UNL     1      -1.297   4.921  11.266  1.00  0.00     0.015 C 
HETATM    4  C14 UNL     1      -0.441   5.403  12.447  1.00  0.00    -0.013 C 
HETATM    5  C15 UNL     1      -0.020   4.135  13.253  1.00  0.00     0.021 C 
HETATM    6  C16 UNL     1       0.865   6.141  12.161  1.00  0.00    -0.068 C 
HETATM    7  C17 UNL     1       1.345   7.045  13.055  1.00  0.00    -0.068 C 
HETATM    8  C18 UNL     1       0.544   7.421  14.312  1.00  0.00     0.036 C 
HETATM    9  C19 UNL     1      -0.831   6.750  14.512  1.00  0.00     0.015 C 
HETATM   10  C20 UNL     1      -1.469   6.354  13.174  1.00  0.00    -0.029 C 
HETATM   11  C21 UNL     1      -1.782   7.649  12.356  1.00  0.00     0.016 C 
HETATM   12  C22 UNL     1       2.706   7.770  12.853  1.00  0.00    -0.015 C 
HETATM   13  C23 UNL     1       2.383   9.229  12.444  1.00  0.00     0.020 C 
HETATM   14  C24 UNL     1       3.517   7.780  14.183  1.00  0.00     0.021 C 
HETATM   15  C25 UNL     1       5.029   7.925  14.040  1.00  0.00     0.080 C 
HETATM   16  C26 UNL     1       5.458   8.460  12.696  1.00  0.00     0.135 C 
HETATM   17  O4  UNL     1       6.242   9.406  12.624  1.00  0.00    -0.297 OA
HETATM   18  C27 UNL     1       4.953   7.714  11.457  1.00  0.00     0.018 C 
HETATM   19  C28 UNL     1       4.899   8.687  10.261  1.00  0.00     0.023 C 
HETATM   20  C29 UNL     1       6.012   6.639  11.126  1.00  0.00     0.023 C 
HETATM   21  C30 UNL     1       3.585   7.022  11.784  1.00  0.00     0.013 C 
HETATM   22  C31 UNL     1       2.759   6.678  10.540  1.00  0.00     0.011 C 
HETATM   23  C32 UNL     1       1.594   5.760  10.897  1.00  0.00     0.036 C 
ENDROOT
BRANCH   1  24
HETATM   24  C9  UNL     1      -4.141   6.115  13.538  1.00  0.00     0.020 C 
HETATM   25  C10 UNL     1      -4.149   6.813  14.910  1.00  0.00     0.013 C 
BRANCH  24  26
HETATM   26  C3  UNL     1      -5.358   5.128  13.517  1.00  0.00     0.158 C 
BRANCH  26  27
HETATM   27  O2  UNL     1      -5.344   4.361  12.295  1.00  0.00    -0.312 OA
BRANCH  27  28
HETATM   28  C2  UNL     1      -6.071   3.211  12.284  1.00  0.00     0.255 C 
HETATM   29  C1  UNL     1      -5.574   2.303  11.200  1.00  0.00     0.126 C 
HETATM   30  O1  UNL     1      -6.973   2.922  13.056  1.00  0.00    -0.266 OA
ENDBRANCH  27  28
ENDBRANCH  26  27
BRANCH  26  31
HETATM   31  C4  UNL     1      -6.716   5.779  13.594  1.00  0.00     0.005 C 
HETATM   32  C5  UNL     1      -7.326   6.106  14.748  1.00  0.00     0.008 C 
BRANCH  32  33
HETATM   33  C6  UNL     1      -8.682   6.750  14.923  1.00  0.00     0.068 C 
HETATM   34  C7  UNL     1      -9.510   6.569  13.648  1.00  0.00     0.050 C 
HETATM   35  C8  UNL     1      -8.667   8.229  15.326  1.00  0.00     0.050 C 
BRANCH  33  36
HETATM   36  O3  UNL     1      -9.340   6.021  15.962  1.00  0.00    -0.387 OA
HETATM   37  H13 UNL     1      -8.774   6.085  16.751  1.00  0.00     0.211 HD
ENDBRANCH  33  36
ENDBRANCH  32  33
ENDBRANCH  26  31
ENDBRANCH  24  26
ENDBRANCH   1  24
TORSDOF 7
ENDMDL
MODEL 3
REMARK minimizedAffinity -8.91914749
REMARK  7 active torsions:
REMARK  status: ('A' for Active; 'I' for Inactive)
REMARK    1  A    between atoms: C2_2  and  O2_4 
REMARK    2  A    between atoms: O2_4  and  C3_5 
REMARK    3  A    between atoms: C3_5  and  C4_6 
REMARK    4  A    between atoms: C3_5  and  C9_12 
REMARK    5  A    between atoms: C5_7  and  C6_8 
REMARK    6  A    between atoms: C6_8  and  O3_11 
REMARK    7  A    between atoms: C9_12  and  C11_14 
ROOT
HETATM    1  C11 UNL     1      -2.351   5.726  13.413  1.00  0.00     0.001 C 
HETATM    2  C12 UNL     1      -2.400   5.192  11.950  1.00  0.00     0.007 C 
HETATM    3  C13 UNL     1      -1.021   5.432  11.308  1.00  0.00     0.015 C 
HETATM    4  C14 UNL     1      -0.090   5.744  12.489  1.00  0.00    -0.013 C 
HETATM    5  C15 UNL     1       0.348   4.375  13.098  1.00  0.00     0.021 C 
HETATM    6  C16 UNL     1       1.214   6.493  12.225  1.00  0.00    -0.068 C 
HETATM    7  C17 UNL     1       1.763   7.266  13.199  1.00  0.00    -0.068 C 
HETATM    8  C18 UNL     1       1.043   7.486  14.539  1.00  0.00     0.036 C 
HETATM    9  C19 UNL     1      -0.333   6.815  14.730  1.00  0.00     0.015 C 
HETATM   10  C20 UNL     1      -1.054   6.606  13.392  1.00  0.00    -0.029 C 
HETATM   11  C21 UNL     1      -1.384   8.001  12.769  1.00  0.00     0.016 C 
HETATM   12  C22 UNL     1       3.126   7.991  13.013  1.00  0.00    -0.015 C 
HETATM   13  C23 UNL     1       2.813   9.496  12.817  1.00  0.00     0.020 C 
HETATM   14  C24 UNL     1       4.011   7.816  14.283  1.00  0.00     0.021 C 
HETATM   15  C25 UNL     1       5.516   7.956  14.072  1.00  0.00     0.080 C 
HETATM   16  C26 UNL     1       5.879   8.656  12.786  1.00  0.00     0.135 C 
HETATM   17  O4  UNL     1       6.678   9.592  12.791  1.00  0.00    -0.297 OA
HETATM   18  C27 UNL     1       5.289   8.086  11.492  1.00  0.00     0.018 C 
HETATM   19  C28 UNL     1       5.189   9.208  10.437  1.00  0.00     0.023 C 
HETATM   20  C29 UNL     1       6.303   7.048  10.962  1.00  0.00     0.023 C 
HETATM   21  C30 UNL     1       3.927   7.376  11.806  1.00  0.00     0.013 C 
HETATM   22  C31 UNL     1       3.024   7.210  10.579  1.00  0.00     0.011 C 
HETATM   23  C32 UNL     1       1.862   6.271  10.882  1.00  0.00     0.036 C 
ENDROOT
BRANCH   1  24
HETATM   24  C9  UNL     1      -3.706   6.359  13.879  1.00  0.00     0.020 C 
HETATM   25  C10 UNL     1      -3.839   6.346  15.413  1.00  0.00     0.013 C 
BRANCH  24  26
HETATM   26  C3  UNL     1      -4.990   5.672  13.300  1.00  0.00     0.158 C 
BRANCH  26  27
HETATM   27  O2  UNL     1      -6.042   5.693  14.286  1.00  0.00    -0.312 OA
BRANCH  27  28
HETATM   28  C2  UNL     1      -7.086   6.534  14.053  1.00  0.00     0.255 C 
HETATM   29  C1  UNL     1      -8.102   5.860  13.183  1.00  0.00     0.126 C 
HETATM   30  O1  UNL     1      -7.216   7.662  14.507  1.00  0.00    -0.266 OA
ENDBRANCH  27  28
ENDBRANCH  26  27
BRANCH  26  31
HETATM   31  C4  UNL     1      -4.820   4.231  12.890  1.00  0.00     0.005 C 
HETATM   32  C5  UNL     1      -5.456   3.668  11.847  1.00  0.00     0.008 C 
BRANCH  32  33
HETATM   33  C6  UNL     1      -5.355   2.237  11.369  1.00  0.00     0.068 C 
HETATM   34  C7  UNL     1      -6.521   1.420  11.932  1.00  0.00     0.050 C 
HETATM   35  C8  UNL     1      -4.030   1.528  11.673  1.00  0.00     0.050 C 
BRANCH  33  36
HETATM   36  O3  UNL     1      -5.512   2.278   9.949  1.00  0.00    -0.387 OA
HETATM   37  H13 UNL     1      -4.807   2.854   9.605  1.00  0.00     0.211 HD
ENDBRANCH  33  36
ENDBRANCH  32  33
ENDBRANCH  26  31
ENDBRANCH  24  26
ENDBRANCH   1  24
TORSDOF 7
ENDMDL
MODEL 4
REMARK minimizedAffinity -8.89904022
REMARK  7 active torsions:
REMARK  status: ('A' for Active; 'I' for Inactive)
REMARK    1  A    between atoms: C2_2  and  O2_4 
REMARK    2  A    between atoms: O2_4  and  C3_5 
REMARK    3  A    between atoms: C3_5  and  C4_6 
REMARK    4  A    between atoms: C3_5  and  C9_12 
REMARK    5  A    between atoms: C5_7  and  C6_8 
REMARK    6  A    between atoms: C6_8  and  O3_11 
REMARK    7  A    between atoms: C9_12  and  C11_14 
ROOT
HETATM    1  C11 UNL     1      -1.872   5.477  12.508  1.00  0.00     0.001 C 
HETATM    2  C12 UNL     1      -1.766   5.692  14.048  1.00  0.00     0.007 C 
HETATM    3  C13 UNL     1      -0.416   6.371  14.343  1.00  0.00     0.015 C 
HETATM    4  C14 UNL     1       0.072   6.880  12.979  1.00  0.00    -0.013 C 
HETATM    5  C15 UNL     1      -0.642   8.243  12.719  1.00  0.00     0.021 C 
HETATM    6  C16 UNL     1       1.558   7.171  12.786  1.00  0.00    -0.068 C 
HETATM    7  C17 UNL     1       2.117   7.064  11.552  1.00  0.00    -0.068 C 
HETATM    8  C18 UNL     1       1.302   6.556  10.352  1.00  0.00     0.036 C 
HETATM    9  C19 UNL     1      -0.166   6.152  10.604  1.00  0.00     0.015 C 
HETATM   10  C20 UNL     1      -0.388   5.691  12.050  1.00  0.00    -0.029 C 
HETATM   11  C21 UNL     1       0.425   4.378  12.297  1.00  0.00     0.016 C 
HETATM   12  C22 UNL     1       3.607   7.419  11.282  1.00  0.00    -0.015 C 
HETATM   13  C23 UNL     1       4.362   6.080  11.092  1.00  0.00     0.020 C 
HETATM   14  C24 UNL     1       3.735   8.266   9.981  1.00  0.00     0.021 C 
HETATM   15  C25 UNL     1       4.978   9.145   9.877  1.00  0.00     0.080 C 
HETATM   16  C26 UNL     1       6.080   8.742  10.826  1.00  0.00     0.135 C 
HETATM   17  O4  UNL     1       7.229   8.585  10.414  1.00  0.00    -0.297 OA
HETATM   18  C27 UNL     1       5.717   8.640  12.311  1.00  0.00     0.018 C 
HETATM   19  C28 UNL     1       6.667   7.639  13.002  1.00  0.00     0.023 C 
HETATM   20  C29 UNL     1       5.987  10.030  12.929  1.00  0.00     0.023 C 
HETATM   21  C30 UNL     1       4.196   8.286  12.455  1.00  0.00     0.013 C 
HETATM   22  C31 UNL     1       3.833   7.684  13.816  1.00  0.00     0.011 C 
HETATM   23  C32 UNL     1       2.321   7.633  14.003  1.00  0.00     0.036 C 
ENDROOT
BRANCH   1  24
HETATM   24  C9  UNL     1      -2.614   4.153  12.125  1.00  0.00     0.020 C 
HETATM   25  C10 UNL     1      -2.563   3.894  10.608  1.00  0.00     0.013 C 
BRANCH  24  26
HETATM   26  C3  UNL     1      -4.122   4.094  12.550  1.00  0.00     0.158 C 
BRANCH  26  27
HETATM   27  O2  UNL     1      -4.921   3.610  11.451  1.00  0.00    -0.312 OA
BRANCH  27  28
HETATM   28  C2  UNL     1      -5.880   2.692  11.746  1.00  0.00     0.255 C 
HETATM   29  C1  UNL     1      -5.424   1.325  11.334  1.00  0.00     0.126 C 
HETATM   30  O1  UNL     1      -6.946   2.918  12.300  1.00  0.00    -0.266 OA
ENDBRANCH  27  28
ENDBRANCH  26  27
BRANCH  26  31
HETATM   31  C4  UNL     1      -4.725   5.412  12.967  1.00  0.00     0.005 C 
HETATM   32  C5  UNL     1      -5.439   5.586  14.094  1.00  0.00     0.008 C 
BRANCH  32  33
HETATM   33  C6  UNL     1      -6.086   6.860  14.586  1.00  0.00     0.068 C 
HETATM   34  C7  UNL     1      -7.601   6.786  14.378  1.00  0.00     0.050 C 
HETATM   35  C8  UNL     1      -5.543   8.158  13.978  1.00  0.00     0.050 C 
BRANCH  33  36
HETATM   36  O3  UNL     1      -5.854   6.908  15.996  1.00  0.00    -0.387 OA
HETATM   37  H13 UNL     1      -4.888   6.887  16.122  1.00  0.00     0.211 HD
ENDBRANCH  33  36
ENDBRANCH  32  33
ENDBRANCH  26  31
ENDBRANCH  24  26
ENDBRANCH   1  24
TORSDOF 7
ENDMDL
MODEL 5
REMARK minimizedAffinity -8.83673382
REMARK  7 active torsions:
REMARK  status: ('A' for Active; 'I' for Inactive)
REMARK    1  A    between atoms: C2_2  and  O2_4 
REMARK    2  A    between atoms: O2_4  and  C3_5 
REMARK    3  A    between atoms: C3_5  and  C4_6 
REMARK    4  A    between atoms: C3_5  and  C9_12 
REMARK    5  A    between atoms: C5_7  and  C6_8 
REMARK    6  A    between atoms: C6_8  and  O3_11 
REMARK    7  A    between atoms: C9_12  and  C11_14 
ROOT
HETATM    1  C11 UNL     1      -3.725   5.980  12.901  1.00  0.00     0.001 C 
HETATM    2  C12 UNL     1      -4.702   6.846  13.752  1.00  0.00     0.007 C 
HETATM    3  C13 UNL     1      -3.873   7.910  14.494  1.00  0.00     0.015 C 
HETATM    4  C14 UNL     1      -2.507   7.900  13.793  1.00  0.00    -0.013 C 
HETATM    5  C15 UNL     1      -2.643   8.788  12.517  1.00  0.00     0.021 C 
HETATM    6  C16 UNL     1      -1.291   8.456  14.532  1.00  0.00    -0.068 C 
HETATM    7  C17 UNL     1      -0.049   7.985  14.247  1.00  0.00    -0.068 C 
HETATM    8  C18 UNL     1       0.154   6.824  13.260  1.00  0.00     0.036 C 
HETATM    9  C19 UNL     1      -1.104   6.200  12.622  1.00  0.00     0.015 C 
HETATM   10  C20 UNL     1      -2.336   6.355  13.524  1.00  0.00    -0.029 C 
HETATM   11  C21 UNL     1      -2.115   5.531  14.834  1.00  0.00     0.016 C 
HETATM   12  C22 UNL     1       1.231   8.565  14.914  1.00  0.00    -0.015 C 
HETATM   13  C23 UNL     1       1.715   7.518  15.948  1.00  0.00     0.020 C 
HETATM   14  C24 UNL     1       2.346   8.781  13.848  1.00  0.00     0.021 C 
HETATM   15  C25 UNL     1       3.407   9.823  14.194  1.00  0.00     0.080 C 
HETATM   16  C26 UNL     1       3.460  10.160  15.663  1.00  0.00     0.135 C 
HETATM   17  O4  UNL     1       4.532  10.147  16.267  1.00  0.00    -0.297 OA
HETATM   18  C27 UNL     1       2.151  10.607  16.322  1.00  0.00     0.018 C 
HETATM   19  C28 UNL     1       2.198  10.278  17.829  1.00  0.00     0.023 C 
HETATM   20  C29 UNL     1       2.091  12.145  16.191  1.00  0.00     0.023 C 
HETATM   21  C30 UNL     1       0.937   9.967  15.563  1.00  0.00     0.013 C 
HETATM   22  C31 UNL     1      -0.352   9.928  16.390  1.00  0.00     0.011 C 
HETATM   23  C32 UNL     1      -1.549   9.570  15.515  1.00  0.00     0.036 C 
ENDROOT
BRANCH   1  24
HETATM   24  C9  UNL     1      -4.153   4.475  12.822  1.00  0.00     0.020 C 
HETATM   25  C10 UNL     1      -3.977   3.911  11.400  1.00  0.00     0.013 C 
BRANCH  24  26
HETATM   26  C3  UNL     1      -5.632   4.186  13.252  1.00  0.00     0.158 C 
BRANCH  26  27
HETATM   27  O2  UNL     1      -6.395   3.747  12.109  1.00  0.00    -0.312 OA
BRANCH  27  28
HETATM   28  C2  UNL     1      -7.134   2.615  12.263  1.00  0.00     0.255 C 
HETATM   29  C1  UNL     1      -6.428   1.453  11.632  1.00  0.00     0.126 C 
HETATM   30  O1  UNL     1      -8.199   2.526  12.856  1.00  0.00    -0.266 OA
ENDBRANCH  27  28
ENDBRANCH  26  27
BRANCH  26  31
HETATM   31  C4  UNL     1      -6.375   5.362  13.832  1.00  0.00     0.005 C 
HETATM   32  C5  UNL     1      -7.168   5.287  14.918  1.00  0.00     0.008 C 
BRANCH  32  33
HETATM   33  C6  UNL     1      -7.955   6.404  15.563  1.00  0.00     0.068 C 
HETATM   34  C7  UNL     1      -8.302   7.466  14.516  1.00  0.00     0.050 C 
HETATM   35  C8  UNL     1      -7.292   7.069  16.775  1.00  0.00     0.050 C 
BRANCH  33  36
HETATM   36  O3  UNL     1      -9.185   5.824  16.002  1.00  0.00    -0.387 OA
HETATM   37  H13 UNL     1      -8.953   5.106  16.617  1.00  0.00     0.211 HD
ENDBRANCH  33  36
ENDBRANCH  32  33
ENDBRANCH  26  31
ENDBRANCH  24  26
ENDBRANCH   1  24
TORSDOF 7
ENDMDL
MODEL 6
REMARK minimizedAffinity -8.77973461
REMARK  7 active torsions:
REMARK  status: ('A' for Active; 'I' for Inactive)
REMARK    1  A    between atoms: C2_2  and  O2_4 
REMARK    2  A    between atoms: O2_4  and  C3_5 
REMARK    3  A    between atoms: C3_5  and  C4_6 
REMARK    4  A    between atoms: C3_5  and  C9_12 
REMARK    5  A    between atoms: C5_7  and  C6_8 
REMARK    6  A    between atoms: C6_8  and  O3_11 
REMARK    7  A    between atoms: C9_12  and  C11_14 
ROOT
HETATM    1  C11 UNL     1      -5.344   6.227  14.983  1.00  0.00     0.001 C 
HETATM    2  C12 UNL     1      -4.936   7.666  15.420  1.00  0.00     0.007 C 
HETATM    3  C13 UNL     1      -6.208   8.533  15.454  1.00  0.00     0.015 C 
HETATM    4  C14 UNL     1      -7.367   7.527  15.411  1.00  0.00    -0.013 C 
HETATM    5  C15 UNL     1      -7.584   7.019  16.871  1.00  0.00     0.021 C 
HETATM    6  C16 UNL     1      -8.743   8.003  14.951  1.00  0.00    -0.068 C 
HETATM    7  C17 UNL     1      -9.604   7.130  14.366  1.00  0.00    -0.068 C 
HETATM    8  C18 UNL     1      -9.183   5.683  14.062  1.00  0.00     0.036 C 
HETATM    9  C19 UNL     1      -7.743   5.265  14.426  1.00  0.00     0.015 C 
HETATM   10  C20 UNL     1      -6.783   6.461  14.406  1.00  0.00    -0.029 C 
HETATM   11  C21 UNL     1      -6.673   7.002  12.943  1.00  0.00     0.016 C 
HETATM   12  C22 UNL     1     -11.044   7.540  13.945  1.00  0.00    -0.015 C 
HETATM   13  C23 UNL     1     -11.046   7.661  12.401  1.00  0.00     0.020 C 
HETATM   14  C24 UNL     1     -12.066   6.443  14.372  1.00  0.00     0.021 C 
HETATM   15  C25 UNL     1     -13.508   6.910  14.552  1.00  0.00     0.080 C 
HETATM   16  C26 UNL     1     -13.800   8.231  13.884  1.00  0.00     0.135 C 
HETATM   17  O4  UNL     1     -14.777   8.353  13.146  1.00  0.00    -0.297 OA
HETATM   18  C27 UNL     1     -12.891   9.410  14.248  1.00  0.00     0.018 C 
HETATM   19  C28 UNL     1     -12.870  10.418  13.080  1.00  0.00     0.023 C 
HETATM   20  C29 UNL     1     -13.547  10.119  15.453  1.00  0.00     0.023 C 
HETATM   21  C30 UNL     1     -11.477   8.873  14.659  1.00  0.00     0.013 C 
HETATM   22  C31 UNL     1     -10.369   9.929  14.563  1.00  0.00     0.011 C 
HETATM   23  C32 UNL     1      -9.094   9.441  15.242  1.00  0.00     0.036 C 
ENDROOT
BRANCH   1  24
HETATM   24  C9  UNL     1      -4.261   5.527  14.094  1.00  0.00     0.020 C 
HETATM   25  C10 UNL     1      -3.184   6.523  13.625  1.00  0.00     0.013 C 
BRANCH  24  26
HETATM   26  C3  UNL     1      -4.817   4.814  12.814  1.00  0.00     0.158 C 
BRANCH  26  27
HETATM   27  O2  UNL     1      -5.622   3.680  13.197  1.00  0.00    -0.312 OA
BRANCH  27  28
HETATM   28  C2  UNL     1      -6.556   3.260  12.302  1.00  0.00     0.255 C 
HETATM   29  C1  UNL     1      -6.942   1.841  12.594  1.00  0.00     0.126 C 
HETATM   30  O1  UNL     1      -7.051   3.932  11.409  1.00  0.00    -0.266 OA
ENDBRANCH  27  28
ENDBRANCH  26  27
BRANCH  26  31
HETATM   31  C4  UNL     1      -3.771   4.290  11.863  1.00  0.00     0.005 C 
HETATM   32  C5  UNL     1      -3.008   3.209  12.109  1.00  0.00     0.008 C 
BRANCH  32  33
HETATM   33  C6  UNL     1      -1.935   2.619  11.224  1.00  0.00     0.068 C 
HETATM   34  C7  UNL     1      -2.035   1.091  11.238  1.00  0.00     0.050 C 
HETATM   35  C8  UNL     1      -0.498   3.047  11.547  1.00  0.00     0.050 C 
BRANCH  33  36
HETATM   36  O3  UNL     1      -2.230   3.051   9.894  1.00  0.00    -0.387 OA
HETATM   37  H13 UNL     1      -2.230   4.024   9.909  1.00  0.00     0.211 HD
ENDBRANCH  33  36
ENDBRANCH  32  33
ENDBRANCH  26  31
ENDBRANCH  24  26
ENDBRANCH   1  24
TORSDOF 7
ENDMDL
MODEL 7
REMARK minimizedAffinity -8.74243927
REMARK  7 active torsions:
REMARK  status: ('A' for Active; 'I' for Inactive)
REMARK    1  A    between atoms: C2_2  and  O2_4 
REMARK    2  A    between atoms: O2_4  and  C3_5 
REMARK    3  A    between atoms: C3_5  and  C4_6 
REMARK    4  A    between atoms: C3_5  and  C9_12 
REMARK    5  A    between atoms: C5_7  and  C6_8 
REMARK    6  A    between atoms: C6_8  and  O3_11 
REMARK    7  A    between atoms: C9_12  and  C11_14 
ROOT
HETATM    1  C11 UNL     1      -3.848   6.116  13.349  1.00  0.00     0.001 C 
HETATM    2  C12 UNL     1      -5.068   6.953  12.859  1.00  0.00     0.007 C 
HETATM    3  C13 UNL     1      -4.974   8.351  13.498  1.00  0.00     0.015 C 
HETATM    4  C14 UNL     1      -3.538   8.440  14.033  1.00  0.00    -0.013 C 
HETATM    5  C15 UNL     1      -2.627   8.846  12.832  1.00  0.00     0.021 C 
HETATM    6  C16 UNL     1      -3.218   9.454  15.129  1.00  0.00    -0.068 C 
HETATM    7  C17 UNL     1      -2.204   9.215  16.002  1.00  0.00    -0.068 C 
HETATM    8  C18 UNL     1      -1.429   7.888  15.975  1.00  0.00     0.036 C 
HETATM    9  C19 UNL     1      -1.857   6.831  14.935  1.00  0.00     0.015 C 
HETATM   10  C20 UNL     1      -3.339   6.968  14.562  1.00  0.00    -0.029 C 
HETATM   11  C21 UNL     1      -4.211   6.651  15.820  1.00  0.00     0.016 C 
HETATM   12  C22 UNL     1      -1.786  10.244  17.091  1.00  0.00    -0.015 C 
HETATM   13  C23 UNL     1      -2.296   9.697  18.448  1.00  0.00     0.020 C 
HETATM   14  C24 UNL     1      -0.235  10.375  17.144  1.00  0.00     0.021 C 
HETATM   15  C25 UNL     1       0.304  11.685  17.713  1.00  0.00     0.080 C 
HETATM   16  C26 UNL     1      -0.713  12.454  18.519  1.00  0.00     0.135 C 
HETATM   17  O4  UNL     1      -0.433  12.868  19.643  1.00  0.00    -0.297 OA
HETATM   18  C27 UNL     1      -2.048  12.769  17.835  1.00  0.00     0.018 C 
HETATM   19  C28 UNL     1      -3.146  12.931  18.907  1.00  0.00     0.023 C 
HETATM   20  C29 UNL     1      -1.878  14.140  17.143  1.00  0.00     0.023 C 
HETATM   21  C30 UNL     1      -2.357  11.672  16.759  1.00  0.00     0.013 C 
HETATM   22  C31 UNL     1      -3.838  11.592  16.373  1.00  0.00     0.011 C 
HETATM   23  C32 UNL     1      -4.031  10.725  15.134  1.00  0.00     0.036 C 
ENDROOT
BRANCH   1  24
HETATM   24  C9  UNL     1      -4.190   4.602  13.558  1.00  0.00     0.020 C 
HETATM   25  C10 UNL     1      -3.466   3.711  12.531  1.00  0.00     0.013 C 
BRANCH  24  26
HETATM   26  C3  UNL     1      -5.715   4.252  13.476  1.00  0.00     0.158 C 
BRANCH  26  27
HETATM   27  O2  UNL     1      -6.022   3.710  12.175  1.00  0.00    -0.312 OA
BRANCH  27  28
HETATM   28  C2  UNL     1      -6.765   2.570  12.144  1.00  0.00     0.255 C 
HETATM   29  C1  UNL     1      -6.078   1.535  11.305  1.00  0.00     0.126 C 
HETATM   30  O1  UNL     1      -7.817   2.381  12.736  1.00  0.00    -0.266 OA
ENDBRANCH  27  28
ENDBRANCH  26  27
BRANCH  26  31
HETATM   31  C4  UNL     1      -6.654   5.413  13.685  1.00  0.00     0.005 C 
HETATM   32  C5  UNL     1      -7.629   5.431  14.612  1.00  0.00     0.008 C 
BRANCH  32  33
HETATM   33  C6  UNL     1      -8.619   6.540  14.888  1.00  0.00     0.068 C 
HETATM   34  C7  UNL     1      -9.592   6.670  13.713  1.00  0.00     0.050 C 
HETATM   35  C8  UNL     1      -8.008   7.909  15.208  1.00  0.00     0.050 C 
BRANCH  33  36
HETATM   36  O3  UNL     1      -9.379   6.125  16.024  1.00  0.00    -0.387 OA
HETATM   37  H13 UNL     1      -8.745   5.980  16.748  1.00  0.00     0.211 HD
ENDBRANCH  33  36
ENDBRANCH  32  33
ENDBRANCH  26  31
ENDBRANCH  24  26
ENDBRANCH   1  24
TORSDOF 7
ENDMDL
MODEL 8
REMARK minimizedAffinity -8.73035526
REMARK  7 active torsions:
REMARK  status: ('A' for Active; 'I' for Inactive)
REMARK    1  A    between atoms: C2_2  and  O2_4 
REMARK    2  A    between atoms: O2_4  and  C3_5 
REMARK    3  A    between atoms: C3_5  and  C4_6 
REMARK    4  A    between atoms: C3_5  and  C9_12 
REMARK    5  A    between atoms: C5_7  and  C6_8 
REMARK    6  A    between atoms: C6_8  and  O3_11 
REMARK    7  A    between atoms: C9_12  and  C11_14 
ROOT
HETATM    1  C11 UNL     1      -5.527   6.215  14.773  1.00  0.00     0.001 C 
HETATM    2  C12 UNL     1      -5.713   5.044  13.761  1.00  0.00     0.007 C 
HETATM    3  C13 UNL     1      -4.413   4.904  12.949  1.00  0.00     0.015 C 
HETATM    4  C14 UNL     1      -3.373   5.718  13.733  1.00  0.00    -0.013 C 
HETATM    5  C15 UNL     1      -2.845   4.799  14.879  1.00  0.00     0.021 C 
HETATM    6  C16 UNL     1      -2.120   6.208  13.012  1.00  0.00    -0.068 C 
HETATM    7  C17 UNL     1      -1.491   7.337  13.432  1.00  0.00    -0.068 C 
HETATM    8  C18 UNL     1      -2.075   8.196  14.565  1.00  0.00     0.036 C 
HETATM    9  C19 UNL     1      -3.409   7.742  15.192  1.00  0.00     0.015 C 
HETATM   10  C20 UNL     1      -4.258   6.937  14.200  1.00  0.00    -0.029 C 
HETATM   11  C21 UNL     1      -4.681   7.869  13.019  1.00  0.00     0.016 C 
HETATM   12  C22 UNL     1      -0.171   7.842  12.783  1.00  0.00    -0.015 C 
HETATM   13  C23 UNL     1      -0.536   9.075  11.919  1.00  0.00     0.020 C 
HETATM   14  C24 UNL     1       0.843   8.273  13.884  1.00  0.00     0.021 C 
HETATM   15  C25 UNL     1       2.315   8.249  13.482  1.00  0.00     0.080 C 
HETATM   16  C26 UNL     1       2.529   8.232  11.989  1.00  0.00     0.135 C 
HETATM   17  O4  UNL     1       3.304   9.030  11.462  1.00  0.00    -0.297 OA
HETATM   18  C27 UNL     1       1.822   7.127  11.196  1.00  0.00     0.018 C 
HETATM   19  C28 UNL     1       1.590   7.605   9.748  1.00  0.00     0.023 C 
HETATM   20  C29 UNL     1       2.800   5.933  11.134  1.00  0.00     0.023 C 
HETATM   21  C30 UNL     1       0.516   6.698  11.949  1.00  0.00     0.013 C 
HETATM   22  C31 UNL     1      -0.504   5.989  11.051  1.00  0.00     0.011 C 
HETATM   23  C32 UNL     1      -1.608   5.346  11.884  1.00  0.00     0.036 C 
ENDROOT
BRANCH   1  24
HETATM   24  C9  UNL     1      -6.840   7.035  15.009  1.00  0.00     0.020 C 
HETATM   25  C10 UNL     1      -7.230   7.062  16.499  1.00  0.00     0.013 C 
BRANCH  24  26
HETATM   26  C3  UNL     1      -8.090   6.521  14.217  1.00  0.00     0.158 C 
BRANCH  26  27
HETATM   27  O2  UNL     1      -7.793   6.485  12.805  1.00  0.00    -0.312 OA
BRANCH  27  28
HETATM   28  C2  UNL     1      -8.578   5.687  12.032  1.00  0.00     0.255 C 
HETATM   29  C1  UNL     1      -8.577   4.290  12.575  1.00  0.00     0.126 C 
HETATM   30  O1  UNL     1      -9.227   6.041  11.059  1.00  0.00    -0.266 OA
ENDBRANCH  27  28
ENDBRANCH  26  27
BRANCH  26  31
HETATM   31  C4  UNL     1      -9.336   7.357  14.367  1.00  0.00     0.005 C 
HETATM   32  C5  UNL     1     -10.584   6.853  14.353  1.00  0.00     0.008 C 
BRANCH  32  33
HETATM   33  C6  UNL     1     -11.885   7.610  14.487  1.00  0.00     0.068 C 
HETATM   34  C7  UNL     1     -13.058   6.625  14.505  1.00  0.00     0.050 C 
HETATM   35  C8  UNL     1     -12.134   8.694  13.432  1.00  0.00     0.050 C 
BRANCH  33  36
HETATM   36  O3  UNL     1     -11.847   8.246  15.766  1.00  0.00    -0.387 OA
HETATM   37  H13 UNL     1     -11.061   8.820  15.771  1.00  0.00     0.211 HD
ENDBRANCH  33  36
ENDBRANCH  32  33
ENDBRANCH  26  31
ENDBRANCH  24  26
ENDBRANCH   1  24
TORSDOF 7
ENDMDL
MODEL 9
REMARK minimizedAffinity -8.4790678
REMARK  7 active torsions:
REMARK  status: ('A' for Active; 'I' for Inactive)
REMARK    1  A    between atoms: C2_2  and  O2_4 
REMARK    2  A    between atoms: O2_4  and  C3_5 
REMARK    3  A    between atoms: C3_5  and  C4_6 
REMARK    4  A    between atoms: C3_5  and  C9_12 
REMARK    5  A    between atoms: C5_7  and  C6_8 
REMARK    6  A    between atoms: C6_8  and  O3_11 
REMARK    7  A    between atoms: C9_12  and  C11_14 
ROOT
HETATM    1  C11 UNL     1       2.361   8.516  12.378  1.00  0.00     0.001 C 
HETATM    2  C12 UNL     1       2.930   7.505  11.337  1.00  0.00     0.007 C 
HETATM    3  C13 UNL     1       1.820   6.493  10.999  1.00  0.00     0.015 C 
HETATM    4  C14 UNL     1       0.532   7.132  11.537  1.00  0.00    -0.013 C 
HETATM    5  C15 UNL     1       0.041   8.147  10.458  1.00  0.00     0.021 C 
HETATM    6  C16 UNL     1      -0.675   6.241  11.818  1.00  0.00    -0.068 C 
HETATM    7  C17 UNL     1      -1.577   6.597  12.770  1.00  0.00    -0.068 C 
HETATM    8  C18 UNL     1      -1.355   7.838  13.650  1.00  0.00     0.036 C 
HETATM    9  C19 UNL     1      -0.063   8.651  13.427  1.00  0.00     0.015 C 
HETATM   10  C20 UNL     1       1.070   7.777  12.873  1.00  0.00    -0.029 C 
HETATM   11  C21 UNL     1       1.462   6.711  13.946  1.00  0.00     0.016 C 
HETATM   12  C22 UNL     1      -2.862   5.767  13.048  1.00  0.00    -0.015 C 
HETATM   13  C23 UNL     1      -2.635   5.016  14.384  1.00  0.00     0.020 C 
HETATM   14  C24 UNL     1      -4.094   6.709  13.196  1.00  0.00     0.021 C 
HETATM   15  C25 UNL     1      -5.454   6.079  12.910  1.00  0.00     0.080 C 
HETATM   16  C26 UNL     1      -5.439   4.571  12.951  1.00  0.00     0.135 C 
HETATM   17  O4  UNL     1      -6.274   3.958  13.615  1.00  0.00    -0.297 OA
HETATM   18  C27 UNL     1      -4.412   3.861  12.063  1.00  0.00     0.018 C 
HETATM   19  C28 UNL     1      -4.072   2.486  12.673  1.00  0.00     0.023 C 
HETATM   20  C29 UNL     1      -5.104   3.603  10.706  1.00  0.00     0.023 C 
HETATM   21  C30 UNL     1      -3.170   4.794  11.850  1.00  0.00     0.013 C 
HETATM   22  C31 UNL     1      -1.906   4.043  11.417  1.00  0.00     0.011 C 
HETATM   23  C32 UNL     1      -0.828   5.016  10.950  1.00  0.00     0.036 C 
ENDROOT
BRANCH   1  24
HETATM   24  C9  UNL     1       3.429   8.985  13.422  1.00  0.00     0.020 C 
HETATM   25  C10 UNL     1       3.014  10.301  14.105  1.00  0.00     0.013 C 
BRANCH  24  26
HETATM   26  C3  UNL     1       4.869   9.203  12.842  1.00  0.00     0.158 C 
BRANCH  26  27
HETATM   27  O2  UNL     1       5.268   8.045  12.079  1.00  0.00    -0.312 OA
BRANCH  27  28
HETATM   28  C2  UNL     1       6.191   8.244  11.099  1.00  0.00     0.255 C 
HETATM   29  C1  UNL     1       5.893   9.517  10.366  1.00  0.00     0.126 C 
HETATM   30  O1  UNL     1       7.151   7.527  10.859  1.00  0.00    -0.266 OA
ENDBRANCH  27  28
ENDBRANCH  26  27
BRANCH  26  31
HETATM   31  C4  UNL     1       5.950   9.428  13.869  1.00  0.00     0.005 C 
HETATM   32  C5  UNL     1       6.593   8.435  14.511  1.00  0.00     0.008 C 
BRANCH  32  33
HETATM   33  C6  UNL     1       7.677   8.564  15.556  1.00  0.00     0.068 C 
HETATM   34  C7  UNL     1       8.012  10.042  15.776  1.00  0.00     0.050 C 
HETATM   35  C8  UNL     1       8.963   7.778  15.278  1.00  0.00     0.050 C 
BRANCH  33  36
HETATM   36  O3  UNL     1       7.119   8.070  16.775  1.00  0.00    -0.387 OA
HETATM   37  H13 UNL     1       6.847   7.151  16.607  1.00  0.00     0.211 HD
ENDBRANCH  33  36
ENDBRANCH  32  33
ENDBRANCH  26  31
ENDBRANCH  24  26
ENDBRANCH   1  24
TORSDOF 7
ENDMDL
