MODEL 1
REMARK minimizedAffinity -7.39403963
REMARK CNNscore 0.673660815
REMARK CNNaffinity 7.39922094
REMARK  6 active torsions:
REMARK  status: ('A' for Active; 'I' for Inactive)
REMARK    1  A    between atoms: C3_3  and  C4_4 
REMARK    2  A    between atoms: C4_4  and  O1_5 
REMARK    3  A    between atoms: C7_9  and  O3_10 
REMARK    4  A    between atoms: C21_24  and  O4_26 
REMARK    5  A    between atoms: C23_27  and  O5_28 
REMARK    6  A    between atoms: C30_36  and  C31_37 
ROOT
HETATM    1  C1  UNL     1     -19.150  17.050   5.114  1.00  0.00     0.013 C 
HETATM    2  C2  UNL     1     -17.690  16.959   5.538  1.00  0.00     0.023 C 
HETATM    3  C3  UNL     1     -17.404  15.905   6.605  1.00  0.00     0.047 C 
HETATM    4  C5  UNL     1     -16.069  16.370   7.201  1.00  0.00     0.160 C 
HETATM    5  O2  UNL     1     -16.167  17.810   7.171  1.00  0.00    -0.373 OA
HETATM    6  C6  UNL     1     -17.181  18.221   6.233  1.00  0.00     0.167 C 
HETATM    7  C7  UNL     1     -16.647  19.309   5.282  1.00  0.00     0.226 C 
HETATM    8  C8  UNL     1     -15.210  19.182   4.930  1.00  0.00    -0.072 C 
HETATM    9  C9  UNL     1     -14.041  19.159   4.667  1.00  0.00    -0.103 C 
HETATM   10  C10 UNL     1     -12.655  19.291   4.195  1.00  0.00     0.099 C 
HETATM   11  C11 UNL     1     -11.508  18.405   4.790  1.00  0.00     0.009 C 
HETATM   12  C12 UNL     1     -10.272  18.883   3.936  1.00  0.00     0.016 C 
HETATM   13  C13 UNL     1      -9.169  17.908   3.413  1.00  0.00     0.027 C 
HETATM   14  C14 UNL     1      -9.445  16.439   3.591  1.00  0.00    -0.030 C 
HETATM   15  C15 UNL     1      -8.992  15.468   2.770  1.00  0.00    -0.006 C 
HETATM   16  C16 UNL     1      -9.304  14.001   2.939  1.00  0.00     0.043 C 
HETATM   17  C17 UNL     1     -10.577  13.758   3.740  1.00  0.00     0.013 C 
HETATM   18  C18 UNL     1     -10.576  14.601   5.018  1.00  0.00     0.026 C 
HETATM   19  C19 UNL     1     -11.893  14.609   5.826  1.00  0.00     0.016 C 
HETATM   20  C20 UNL     1     -12.145  16.121   6.182  1.00  0.00     0.034 C 
HETATM   21  C21 UNL     1     -13.431  16.344   7.057  1.00  0.00     0.087 C 
HETATM   22  C22 UNL     1     -13.427  17.737   7.700  1.00  0.00     0.049 C 
HETATM   23  C23 UNL     1     -14.787  15.848   6.468  1.00  0.00     0.181 C 
HETATM   24  C24 UNL     1     -11.649  16.845   4.858  1.00  0.00     0.003 C 
HETATM   25  C25 UNL     1     -12.451  16.452   3.589  1.00  0.00     0.019 C 
HETATM   26  C26 UNL     1     -10.223  16.115   4.829  1.00  0.00     0.098 C 
HETATM   27  O6  UNL     1      -9.351  16.244   5.981  1.00  0.00    -0.363 OA
HETATM   28  C27 UNL     1      -8.923  17.422   6.615  1.00  0.00     0.263 C 
HETATM   29  C28 UNL     1      -7.456  17.532   6.493  1.00  0.00    -0.080 C 
HETATM   30  C29 UNL     1      -6.270  17.602   6.319  1.00  0.00    -0.093 C 
HETATM   31  C30 UNL     1      -4.809  17.594   6.024  1.00  0.00     0.121 C 
HETATM   32  C37 UNL     1      -4.418  18.645   4.948  1.00  0.00     0.190 C 
HETATM   33  O7  UNL     1      -4.609  18.206   3.585  1.00  0.00    -0.384 OA
HETATM   34  C38 UNL     1      -5.970  18.157   3.161  1.00  0.00     0.122 C 
HETATM   35  C39 UNL     1      -6.569  19.564   3.007  1.00  0.00     0.033 C 
HETATM   36  C40 UNL     1      -7.789  19.612   2.071  1.00  0.00     0.013 C 
HETATM   37  C41 UNL     1      -8.581  18.280   1.991  1.00  0.00    -0.026 C 
HETATM   38  C42 UNL     1      -9.716  18.409   0.941  1.00  0.00     0.016 C 
HETATM   39  C43 UNL     1      -7.593  17.205   1.432  1.00  0.00     0.071 C 
HETATM   40  C44 UNL     1      -6.118  17.368   1.864  1.00  0.00     0.045 C 
HETATM   41  C45 UNL     1      -8.068  15.781   1.644  1.00  0.00     0.161 C 
HETATM   42  O8  UNL     1      -7.693  14.887   0.888  1.00  0.00    -0.292 OA
ENDROOT
BRANCH  31  43
HETATM   43  C31 UNL     1      -4.031  17.787   7.317  1.00  0.00    -0.040 A 
HETATM   44  C32 UNL     1      -4.600  18.439   8.422  1.00  0.00     0.008 A 
HETATM   45  C33 UNL     1      -3.876  18.589   9.604  1.00  0.00     0.001 A 
HETATM   46  C34 UNL     1      -2.580  18.085   9.701  1.00  0.00     0.000 A 
HETATM   47  C35 UNL     1      -2.005  17.444   8.608  1.00  0.00     0.001 A 
HETATM   48  C36 UNL     1      -2.722  17.294   7.424  1.00  0.00     0.008 A 
ENDBRANCH  31  43
BRANCH  21  49
HETATM   49  O4  UNL     1     -13.241  15.454   8.215  1.00  0.00    -0.387 OA
HETATM   50  H30 UNL     1     -12.455  15.751   8.702  1.00  0.00     0.210 HD
ENDBRANCH  21  49
BRANCH  23  51
HETATM   51  O5  UNL     1     -14.901  16.049   5.067  1.00  0.00    -0.390 OA
HETATM   52  H32 UNL     1     -14.535  15.254   4.651  1.00  0.00     0.210 HD
ENDBRANCH  23  51
BRANCH   7  53
HETATM   53  O3  UNL     1     -16.832  20.594   5.897  1.00  0.00    -0.381 OA
HETATM   54  H12 UNL     1     -16.393  21.225   5.305  1.00  0.00     0.211 HD
ENDBRANCH   7  53
BRANCH   3  55
HETATM   55  C4  UNL     1     -17.430  14.457   6.142  1.00  0.00     0.172 C 
BRANCH  55  56
HETATM   56  O1  UNL     1     -16.489  13.713   6.898  1.00  0.00    -0.400 OA
HETATM   57  H8  UNL     1     -16.292  12.891   6.426  1.00  0.00     0.209 HD
ENDBRANCH  55  56
ENDBRANCH   3  55
TORSDOF 6
ENDMDL
MODEL 2
REMARK minimizedAffinity -8.09710026
REMARK CNNscore 0.616060376
REMARK CNNaffinity 7.21201849
REMARK  6 active torsions:
REMARK  status: ('A' for Active; 'I' for Inactive)
REMARK    1  A    between atoms: C3_3  and  C4_4 
REMARK    2  A    between atoms: C4_4  and  O1_5 
REMARK    3  A    between atoms: C7_9  and  O3_10 
REMARK    4  A    between atoms: C21_24  and  O4_26 
REMARK    5  A    between atoms: C23_27  and  O5_28 
REMARK    6  A    between atoms: C30_36  and  C31_37 
ROOT
HETATM    1  C1  UNL     1       5.690  16.570  -2.170  1.00  0.00     0.013 C 
HETATM    2  C2  UNL     1       4.243  16.224  -1.845  1.00  0.00     0.023 C 
HETATM    3  C3  UNL     1       3.862  14.771  -2.113  1.00  0.00     0.047 C 
HETATM    4  C5  UNL     1       2.332  14.828  -2.218  1.00  0.00     0.160 C 
HETATM    5  O2  UNL     1       2.084  16.097  -2.860  1.00  0.00    -0.373 OA
HETATM    6  C6  UNL     1       3.232  16.957  -2.726  1.00  0.00     0.167 C 
HETATM    7  C7  UNL     1       2.823  18.351  -2.215  1.00  0.00     0.226 C 
HETATM    8  C8  UNL     1       1.680  18.359  -1.268  1.00  0.00    -0.072 C 
HETATM    9  C9  UNL     1       0.722  18.424  -0.551  1.00  0.00    -0.103 C 
HETATM   10  C10 UNL     1      -0.395  18.719   0.358  1.00  0.00     0.099 C 
HETATM   11  C11 UNL     1      -1.428  17.611   0.759  1.00  0.00     0.009 C 
HETATM   12  C12 UNL     1      -2.358  18.401   1.758  1.00  0.00     0.016 C 
HETATM   13  C13 UNL     1      -2.935  17.771   3.066  1.00  0.00     0.027 C 
HETATM   14  C14 UNL     1      -2.393  16.418   3.444  1.00  0.00    -0.030 C 
HETATM   15  C15 UNL     1      -2.277  15.963   4.709  1.00  0.00    -0.006 C 
HETATM   16  C16 UNL     1      -1.701  14.618   5.078  1.00  0.00     0.043 C 
HETATM   17  C17 UNL     1      -0.775  14.060   4.004  1.00  0.00     0.013 C 
HETATM   18  C18 UNL     1      -1.432  14.160   2.625  1.00  0.00     0.026 C 
HETATM   19  C19 UNL     1      -0.529  13.818   1.418  1.00  0.00     0.016 C 
HETATM   20  C20 UNL     1      -0.792  14.964   0.373  1.00  0.00     0.034 C 
HETATM   21  C21 UNL     1       0.006  14.775  -0.967  1.00  0.00     0.087 C 
HETATM   22  C22 UNL     1      -0.562  15.666  -2.080  1.00  0.00     0.049 C 
HETATM   23  C23 UNL     1       1.560  14.688  -0.863  1.00  0.00     0.181 C 
HETATM   24  C24 UNL     1      -0.948  16.229   1.322  1.00  0.00     0.003 C 
HETATM   25  C25 UNL     1       0.320  16.547   2.157  1.00  0.00     0.019 C 
HETATM   26  C26 UNL     1      -2.050  15.554   2.269  1.00  0.00     0.098 C 
HETATM   27  O6  UNL     1      -3.276  15.062   1.670  1.00  0.00    -0.363 OA
HETATM   28  C27 UNL     1      -4.172  15.755   0.839  1.00  0.00     0.263 C 
HETATM   29  C28 UNL     1      -5.481  15.854   1.515  1.00  0.00    -0.080 C 
HETATM   30  C29 UNL     1      -6.508  15.955   2.128  1.00  0.00    -0.093 C 
HETATM   31  C30 UNL     1      -7.722  16.038   2.989  1.00  0.00     0.121 C 
HETATM   32  C37 UNL     1      -7.949  17.467   3.555  1.00  0.00     0.190 C 
HETATM   33  O7  UNL     1      -7.188  17.768   4.745  1.00  0.00    -0.384 OA
HETATM   34  C38 UNL     1      -5.796  17.987   4.523  1.00  0.00     0.122 C 
HETATM   35  C39 UNL     1      -5.541  19.309   3.780  1.00  0.00     0.033 C 
HETATM   36  C40 UNL     1      -4.119  19.860   3.981  1.00  0.00     0.013 C 
HETATM   37  C41 UNL     1      -3.053  18.774   4.284  1.00  0.00    -0.026 C 
HETATM   38  C42 UNL     1      -1.688  19.449   4.577  1.00  0.00     0.016 C 
HETATM   39  C43 UNL     1      -3.489  18.079   5.615  1.00  0.00     0.071 C 
HETATM   40  C44 UNL     1      -5.014  17.951   5.831  1.00  0.00     0.045 C 
HETATM   41  C45 UNL     1      -2.790  16.757   5.862  1.00  0.00     0.161 C 
HETATM   42  O8  UNL     1      -2.645  16.340   7.009  1.00  0.00    -0.292 OA
ENDROOT
BRANCH  31  43
HETATM   43  C31 UNL     1      -8.929  15.536   2.211  1.00  0.00    -0.040 A 
HETATM   44  C32 UNL     1      -9.127  15.882   0.865  1.00  0.00     0.008 A 
HETATM   45  C33 UNL     1     -10.230  15.396   0.165  1.00  0.00     0.001 A 
HETATM   46  C34 UNL     1     -11.145  14.553   0.795  1.00  0.00     0.000 A 
HETATM   47  C35 UNL     1     -10.961  14.210   2.131  1.00  0.00     0.001 A 
HETATM   48  C36 UNL     1      -9.862  14.696   2.836  1.00  0.00     0.008 A 
ENDBRANCH  31  43
BRANCH  21  49
HETATM   49  O4  UNL     1      -0.360  13.421  -1.420  1.00  0.00    -0.387 OA
HETATM   50  H30 UNL     1      -1.315  13.408  -1.600  1.00  0.00     0.210 HD
ENDBRANCH  21  49
BRANCH  23  51
HETATM   51  O5  UNL     1       2.109  15.560   0.113  1.00  0.00    -0.390 OA
HETATM   52  H32 UNL     1       2.118  15.061   0.944  1.00  0.00     0.210 HD
ENDBRANCH  23  51
BRANCH   7  53
HETATM   53  O3  UNL     1       2.462  19.169  -3.339  1.00  0.00    -0.381 OA
HETATM   54  H12 UNL     1       2.122  19.993  -2.955  1.00  0.00     0.211 HD
ENDBRANCH   7  53
BRANCH   3  55
HETATM   55  C4  UNL     1       4.399  13.743  -1.129  1.00  0.00     0.172 C 
BRANCH  55  56
HETATM   56  O1  UNL     1       4.876  12.619  -1.849  1.00  0.00    -0.400 OA
HETATM   57  H8  UNL     1       4.940  11.867  -1.242  1.00  0.00     0.209 HD
ENDBRANCH  55  56
ENDBRANCH   3  55
TORSDOF 6
ENDMDL
MODEL 3
REMARK minimizedAffinity -7.40636921
REMARK CNNscore 0.491156548
REMARK CNNaffinity 6.73503733
REMARK  6 active torsions:
REMARK  status: ('A' for Active; 'I' for Inactive)
REMARK    1  A    between atoms: C3_3  and  C4_4 
REMARK    2  A    between atoms: C4_4  and  O1_5 
REMARK    3  A    between atoms: C7_9  and  O3_10 
REMARK    4  A    between atoms: C21_24  and  O4_26 
REMARK    5  A    between atoms: C23_27  and  O5_28 
REMARK    6  A    between atoms: C30_36  and  C31_37 
ROOT
HETATM    1  C1  UNL     1       3.807  14.409   1.998  1.00  0.00     0.013 C 
HETATM    2  C2  UNL     1       2.649  14.854   2.884  1.00  0.00     0.023 C 
HETATM    3  C3  UNL     1       3.066  15.396   4.249  1.00  0.00     0.047 C 
HETATM    4  C5  UNL     1       1.783  15.261   5.080  1.00  0.00     0.160 C 
HETATM    5  O2  UNL     1       1.188  14.041   4.590  1.00  0.00    -0.373 OA
HETATM    6  C6  UNL     1       1.726  13.708   3.295  1.00  0.00     0.167 C 
HETATM    7  C7  UNL     1       0.600  13.396   2.292  1.00  0.00     0.226 C 
HETATM    8  C8  UNL     1      -0.644  14.183   2.484  1.00  0.00    -0.072 C 
HETATM    9  C9  UNL     1      -1.691  14.746   2.637  1.00  0.00    -0.103 C 
HETATM   10  C10 UNL     1      -3.032  15.348   2.626  1.00  0.00     0.099 C 
HETATM   11  C11 UNL     1      -3.518  16.266   3.799  1.00  0.00     0.009 C 
HETATM   12  C12 UNL     1      -4.952  16.682   3.294  1.00  0.00     0.016 C 
HETATM   13  C13 UNL     1      -5.537  18.119   3.478  1.00  0.00     0.027 C 
HETATM   14  C14 UNL     1      -4.579  19.164   3.986  1.00  0.00    -0.030 C 
HETATM   15  C15 UNL     1      -4.648  20.478   3.689  1.00  0.00    -0.006 C 
HETATM   16  C16 UNL     1      -3.662  21.512   4.178  1.00  0.00     0.043 C 
HETATM   17  C17 UNL     1      -2.315  20.908   4.552  1.00  0.00     0.013 C 
HETATM   18  C18 UNL     1      -2.507  19.680   5.446  1.00  0.00     0.026 C 
HETATM   19  C19 UNL     1      -1.237  18.849   5.738  1.00  0.00     0.016 C 
HETATM   20  C20 UNL     1      -1.670  17.352   5.522  1.00  0.00     0.034 C 
HETATM   21  C21 UNL     1      -0.519  16.325   5.820  1.00  0.00     0.087 C 
HETATM   22  C22 UNL     1      -1.072  14.904   5.982  1.00  0.00     0.049 C 
HETATM   23  C23 UNL     1       0.798  16.475   4.997  1.00  0.00     0.181 C 
HETATM   24  C24 UNL     1      -2.653  17.482   4.281  1.00  0.00     0.003 C 
HETATM   25  C25 UNL     1      -1.975  18.034   2.998  1.00  0.00     0.019 C 
HETATM   26  C26 UNL     1      -3.554  18.632   4.940  1.00  0.00     0.098 C 
HETATM   27  O6  UNL     1      -4.187  18.374   6.219  1.00  0.00    -0.363 OA
HETATM   28  C27 UNL     1      -5.010  17.292   6.574  1.00  0.00     0.263 C 
HETATM   29  C28 UNL     1      -6.356  17.799   6.911  1.00  0.00    -0.080 C 
HETATM   30  C29 UNL     1      -7.446  18.254   7.122  1.00  0.00    -0.093 C 
HETATM   31  C30 UNL     1      -8.759  18.927   7.337  1.00  0.00     0.121 C 
HETATM   32  C37 UNL     1      -9.763  18.644   6.185  1.00  0.00     0.190 C 
HETATM   33  O7  UNL     1      -9.609  19.500   5.032  1.00  0.00    -0.384 OA
HETATM   34  C38 UNL     1      -8.472  19.209   4.222  1.00  0.00     0.122 C 
HETATM   35  C39 UNL     1      -8.637  17.880   3.468  1.00  0.00     0.033 C 
HETATM   36  C40 UNL     1      -7.749  17.772   2.216  1.00  0.00     0.013 C 
HETATM   37  C41 UNL     1      -6.449  18.617   2.284  1.00  0.00    -0.026 C 
HETATM   38  C42 UNL     1      -5.692  18.520   0.933  1.00  0.00     0.016 C 
HETATM   39  C43 UNL     1      -6.893  20.110   2.427  1.00  0.00     0.071 C 
HETATM   40  C44 UNL     1      -8.181  20.345   3.247  1.00  0.00     0.045 C 
HETATM   41  C45 UNL     1      -5.778  21.028   2.887  1.00  0.00     0.161 C 
HETATM   42  O8  UNL     1      -5.805  22.223   2.599  1.00  0.00    -0.292 OA
ENDROOT
BRANCH  31  43
HETATM   43  C31 UNL     1      -9.318  18.523   8.693  1.00  0.00    -0.040 A 
HETATM   44  C32 UNL     1     -10.644  18.084   8.835  1.00  0.00     0.008 A 
HETATM   45  C33 UNL     1     -11.131  17.700  10.084  1.00  0.00     0.001 A 
HETATM   46  C34 UNL     1     -10.301  17.742  11.204  1.00  0.00     0.000 A 
HETATM   47  C35 UNL     1      -8.987  18.183  11.073  1.00  0.00     0.001 A 
HETATM   48  C36 UNL     1      -8.496  18.571   9.828  1.00  0.00     0.008 A 
ENDBRANCH  31  43
BRANCH  21  49
HETATM   49  O4  UNL     1      -0.080  16.657   7.187  1.00  0.00    -0.387 OA
HETATM   50  H30 UNL     1      -0.825  16.503   7.791  1.00  0.00     0.210 HD
ENDBRANCH  21  49
BRANCH  23  51
HETATM   51  O5  UNL     1       0.578  16.844   3.644  1.00  0.00    -0.390 OA
HETATM   52  H32 UNL     1       0.567  17.814   3.629  1.00  0.00     0.210 HD
ENDBRANCH  23  51
BRANCH   7  53
HETATM   53  O3  UNL     1       0.257  12.005   2.398  1.00  0.00    -0.381 OA
HETATM   54  H12 UNL     1      -0.515  11.890   1.822  1.00  0.00     0.211 HD
ENDBRANCH   7  53
BRANCH   3  55
HETATM   55  C4  UNL     1       3.693  16.781   4.258  1.00  0.00     0.172 C 
BRANCH  55  56
HETATM   56  O1  UNL     1       4.936  16.720   4.938  1.00  0.00    -0.400 OA
HETATM   57  H8  UNL     1       5.190  17.617   5.200  1.00  0.00     0.209 HD
ENDBRANCH  55  56
ENDBRANCH   3  55
TORSDOF 6
ENDMDL
MODEL 4
REMARK minimizedAffinity -8.73792744
REMARK CNNscore 0.374226302
REMARK CNNaffinity 7.08058786
REMARK  6 active torsions:
REMARK  status: ('A' for Active; 'I' for Inactive)
REMARK    1  A    between atoms: C3_3  and  C4_4 
REMARK    2  A    between atoms: C4_4  and  O1_5 
REMARK    3  A    between atoms: C7_9  and  O3_10 
REMARK    4  A    between atoms: C21_24  and  O4_26 
REMARK    5  A    between atoms: C23_27  and  O5_28 
REMARK    6  A    between atoms: C30_36  and  C31_37 
ROOT
HETATM    1  C1  UNL     1     -19.067   2.168  35.370  1.00  0.00     0.013 C 
HETATM    2  C2  UNL     1     -18.259   2.944  34.338  1.00  0.00     0.023 C 
HETATM    3  C3  UNL     1     -17.049   3.683  34.904  1.00  0.00     0.047 C 
HETATM    4  C5  UNL     1     -16.763   4.746  33.835  1.00  0.00     0.160 C 
HETATM    5  O2  UNL     1     -18.076   5.120  33.368  1.00  0.00    -0.373 OA
HETATM    6  C6  UNL     1     -19.035   4.099  33.705  1.00  0.00     0.167 C 
HETATM    7  C7  UNL     1     -19.884   3.710  32.481  1.00  0.00     0.226 C 
HETATM    8  C8  UNL     1     -19.168   3.762  31.181  1.00  0.00    -0.072 C 
HETATM    9  C9  UNL     1     -18.654   3.850  30.103  1.00  0.00    -0.103 C 
HETATM   10  C10 UNL     1     -18.206   3.855  28.702  1.00  0.00     0.099 C 
HETATM   11  C11 UNL     1     -16.819   4.460  28.297  1.00  0.00     0.009 C 
HETATM   12  C12 UNL     1     -16.799   4.178  26.746  1.00  0.00     0.016 C 
HETATM   13  C13 UNL     1     -15.515   3.727  25.978  1.00  0.00     0.027 C 
HETATM   14  C14 UNL     1     -14.325   3.371  26.829  1.00  0.00    -0.030 C 
HETATM   15  C15 UNL     1     -13.385   2.464  26.493  1.00  0.00    -0.006 C 
HETATM   16  C16 UNL     1     -12.214   2.091  27.370  1.00  0.00     0.043 C 
HETATM   17  C17 UNL     1     -12.465   2.384  28.844  1.00  0.00     0.013 C 
HETATM   18  C18 UNL     1     -13.021   3.800  29.022  1.00  0.00     0.026 C 
HETATM   19  C19 UNL     1     -13.511   4.162  30.442  1.00  0.00     0.016 C 
HETATM   20  C20 UNL     1     -14.902   4.865  30.227  1.00  0.00     0.034 C 
HETATM   21  C21 UNL     1     -15.558   5.361  31.565  1.00  0.00     0.087 C 
HETATM   22  C22 UNL     1     -16.687   6.364  31.290  1.00  0.00     0.049 C 
HETATM   23  C23 UNL     1     -15.826   4.289  32.666  1.00  0.00     0.181 C 
HETATM   24  C24 UNL     1     -15.504   4.017  29.025  1.00  0.00     0.003 C 
HETATM   25  C25 UNL     1     -15.707   2.515  29.357  1.00  0.00     0.019 C 
HETATM   26  C26 UNL     1     -14.216   4.180  28.085  1.00  0.00     0.098 C 
HETATM   27  O6  UNL     1     -13.765   5.517  27.748  1.00  0.00    -0.363 OA
HETATM   28  C27 UNL     1     -14.513   6.568  27.192  1.00  0.00     0.263 C 
HETATM   29  C28 UNL     1     -13.958   6.909  25.866  1.00  0.00    -0.080 C 
HETATM   30  C29 UNL     1     -13.504   7.110  24.773  1.00  0.00    -0.093 C 
HETATM   31  C30 UNL     1     -12.874   7.257  23.431  1.00  0.00     0.121 C 
HETATM   32  C37 UNL     1     -13.774   6.702  22.292  1.00  0.00     0.190 C 
HETATM   33  O7  UNL     1     -13.673   5.275  22.090  1.00  0.00    -0.384 OA
HETATM   34  C38 UNL     1     -14.311   4.485  23.092  1.00  0.00     0.122 C 
HETATM   35  C39 UNL     1     -15.843   4.594  23.010  1.00  0.00     0.033 C 
HETATM   36  C40 UNL     1     -16.576   3.407  23.659  1.00  0.00     0.013 C 
HETATM   37  C41 UNL     1     -15.779   2.710  24.794  1.00  0.00    -0.026 C 
HETATM   38  C42 UNL     1     -16.562   1.469  25.295  1.00  0.00     0.016 C 
HETATM   39  C43 UNL     1     -14.465   2.163  24.146  1.00  0.00     0.071 C 
HETATM   40  C44 UNL     1     -13.874   3.027  23.009  1.00  0.00     0.045 C 
HETATM   41  C45 UNL     1     -13.401   1.795  25.161  1.00  0.00     0.161 C 
HETATM   42  O8  UNL     1     -12.554   0.947  24.887  1.00  0.00    -0.292 OA
ENDROOT
BRANCH  31  43
HETATM   43  C31 UNL     1     -12.502   8.714  23.203  1.00  0.00    -0.040 A 
HETATM   44  C32 UNL     1     -13.413   9.623  22.643  1.00  0.00     0.008 A 
HETATM   45  C33 UNL     1     -13.058  10.958  22.460  1.00  0.00     0.001 A 
HETATM   46  C34 UNL     1     -11.794  11.406  22.840  1.00  0.00     0.000 A 
HETATM   47  C35 UNL     1     -10.881  10.511  23.389  1.00  0.00     0.001 A 
HETATM   48  C36 UNL     1     -11.229   9.175  23.571  1.00  0.00     0.008 A 
ENDBRANCH  31  43
BRANCH  21  49
HETATM   49  O4  UNL     1     -14.523   6.205  32.187  1.00  0.00    -0.387 OA
HETATM   50  H30 UNL     1     -14.355   6.961  31.601  1.00  0.00     0.210 HD
ENDBRANCH  21  49
BRANCH  23  51
HETATM   51  O5  UNL     1     -16.257   3.041  32.145  1.00  0.00    -0.390 OA
HETATM   52  H32 UNL     1     -15.451   2.529  31.973  1.00  0.00     0.210 HD
ENDBRANCH  23  51
BRANCH   7  53
HETATM   53  O3  UNL     1     -21.008   4.600  32.395  1.00  0.00    -0.381 OA
HETATM   54  H12 UNL     1     -21.448   4.375  31.560  1.00  0.00     0.211 HD
ENDBRANCH   7  53
BRANCH   3  55
HETATM   55  C4  UNL     1     -15.856   2.823  35.288  1.00  0.00     0.172 C 
BRANCH  55  56
HETATM   56  O1  UNL     1     -14.706   3.645  35.387  1.00  0.00    -0.400 OA
HETATM   57  H8  UNL     1     -13.918   3.084  35.338  1.00  0.00     0.209 HD
ENDBRANCH  55  56
ENDBRANCH   3  55
TORSDOF 6
ENDMDL
MODEL 5
REMARK minimizedAffinity -7.78630257
REMARK CNNscore 0.348122269
REMARK CNNaffinity 7.16136312
REMARK  6 active torsions:
REMARK  status: ('A' for Active; 'I' for Inactive)
REMARK    1  A    between atoms: C3_3  and  C4_4 
REMARK    2  A    between atoms: C4_4  and  O1_5 
REMARK    3  A    between atoms: C7_9  and  O3_10 
REMARK    4  A    between atoms: C21_24  and  O4_26 
REMARK    5  A    between atoms: C23_27  and  O5_28 
REMARK    6  A    between atoms: C30_36  and  C31_37 
ROOT
HETATM    1  C1  UNL     1      -3.700   4.661  11.499  1.00  0.00     0.013 C 
HETATM    2  C2  UNL     1      -2.974   5.458  12.577  1.00  0.00     0.023 C 
HETATM    3  C3  UNL     1      -1.816   4.719  13.241  1.00  0.00     0.047 C 
HETATM    4  C5  UNL     1      -1.633   5.479  14.561  1.00  0.00     0.160 C 
HETATM    5  O2  UNL     1      -2.980   5.838  14.935  1.00  0.00    -0.373 OA
HETATM    6  C6  UNL     1      -3.849   5.776  13.788  1.00  0.00     0.167 C 
HETATM    7  C7  UNL     1      -4.687   7.061  13.658  1.00  0.00     0.226 C 
HETATM    8  C8  UNL     1      -4.001   8.302  14.098  1.00  0.00    -0.072 C 
HETATM    9  C9  UNL     1      -3.514   9.321  14.500  1.00  0.00    -0.103 C 
HETATM   10  C10 UNL     1      -3.094  10.672  14.898  1.00  0.00     0.099 C 
HETATM   11  C11 UNL     1      -1.766  10.905  15.697  1.00  0.00     0.009 C 
HETATM   12  C12 UNL     1      -1.752  12.477  15.823  1.00  0.00     0.016 C 
HETATM   13  C13 UNL     1      -0.451  13.331  15.687  1.00  0.00     0.027 C 
HETATM   14  C14 UNL     1       0.779  12.596  15.223  1.00  0.00    -0.030 C 
HETATM   15  C15 UNL     1       1.781  13.151  14.510  1.00  0.00    -0.006 C 
HETATM   16  C16 UNL     1       2.993  12.396  14.021  1.00  0.00     0.043 C 
HETATM   17  C17 UNL     1       2.746  10.897  13.906  1.00  0.00     0.013 C 
HETATM   18  C18 UNL     1       2.085  10.364  15.180  1.00  0.00     0.026 C 
HETATM   19  C19 UNL     1       1.593   8.900  15.127  1.00  0.00     0.016 C 
HETATM   20  C20 UNL     1       0.148   8.931  15.747  1.00  0.00     0.034 C 
HETATM   21  C21 UNL     1      -0.521   7.512  15.830  1.00  0.00     0.087 C 
HETATM   22  C22 UNL     1      -1.729   7.524  16.776  1.00  0.00     0.049 C 
HETATM   23  C23 UNL     1      -0.684   6.723  14.495  1.00  0.00     0.181 C 
HETATM   24  C24 UNL     1      -0.407  10.312  15.189  1.00  0.00     0.003 C 
HETATM   25  C25 UNL     1      -0.487  10.377  13.641  1.00  0.00     0.019 C 
HETATM   26  C26 UNL     1       0.847  11.175  15.690  1.00  0.00     0.098 C 
HETATM   27  O6  UNL     1       1.185  11.157  17.101  1.00  0.00    -0.363 OA
HETATM   28  C27 UNL     1       0.347  11.427  18.195  1.00  0.00     0.263 C 
HETATM   29  C28 UNL     1       0.850  12.620  18.907  1.00  0.00    -0.080 C 
HETATM   30  C29 UNL     1       1.267  13.623  19.417  1.00  0.00    -0.093 C 
HETATM   31  C30 UNL     1       1.860  14.882  19.951  1.00  0.00     0.121 C 
HETATM   32  C37 UNL     1       0.985  16.127  19.636  1.00  0.00     0.190 C 
HETATM   33  O7  UNL     1       1.194  16.688  18.321  1.00  0.00    -0.384 OA
HETATM   34  C38 UNL     1       0.638  15.924  17.253  1.00  0.00     0.122 C 
HETATM   35  C39 UNL     1      -0.899  15.979  17.255  1.00  0.00     0.033 C 
HETATM   36  C40 UNL     1      -1.525  15.658  15.887  1.00  0.00     0.013 C 
HETATM   37  C41 UNL     1      -0.655  14.737  14.990  1.00  0.00    -0.026 C 
HETATM   38  C42 UNL     1      -1.329  14.572  13.603  1.00  0.00     0.016 C 
HETATM   39  C43 UNL     1       0.685  15.500  14.734  1.00  0.00     0.071 C 
HETATM   40  C44 UNL     1       1.186  16.376  15.904  1.00  0.00     0.045 C 
HETATM   41  C45 UNL     1       1.793  14.610  14.205  1.00  0.00     0.161 C 
HETATM   42  O8  UNL     1       2.699  15.090  13.526  1.00  0.00    -0.292 OA
ENDROOT
BRANCH  31  43
HETATM   43  C31 UNL     1       2.112  14.728  21.444  1.00  0.00    -0.040 A 
HETATM   44  C32 UNL     1       2.479  13.492  21.999  1.00  0.00     0.008 A 
HETATM   45  C33 UNL     1       2.723  13.376  23.367  1.00  0.00     0.001 A 
HETATM   46  C34 UNL     1       2.613  14.492  24.196  1.00  0.00     0.000 A 
HETATM   47  C35 UNL     1       2.243  15.720  23.655  1.00  0.00     0.001 A 
HETATM   48  C36 UNL     1       1.994  15.840  22.290  1.00  0.00     0.008 A 
ENDBRANCH  31  43
BRANCH  21  49
HETATM   49  O4  UNL     1       0.457   6.693  16.568  1.00  0.00    -0.387 OA
HETATM   50  H30 UNL     1       0.554   7.064  17.460  1.00  0.00     0.210 HD
ENDBRANCH  21  49
BRANCH  23  51
HETATM   51  O5  UNL     1      -1.025   7.548  13.391  1.00  0.00    -0.390 OA
HETATM   52  H32 UNL     1      -0.185   7.843  13.007  1.00  0.00     0.210 HD
ENDBRANCH  23  51
BRANCH   7  53
HETATM   53  O3  UNL     1      -5.879   6.920  14.448  1.00  0.00    -0.381 OA
HETATM   54  H12 UNL     1      -6.314   7.786  14.409  1.00  0.00     0.211 HD
ENDBRANCH   7  53
BRANCH   3  55
HETATM   55  C4  UNL     1      -0.552   4.565  12.409  1.00  0.00     0.172 C 
BRANCH  55  56
HETATM   56  O1  UNL     1      -0.368   3.194  12.097  1.00  0.00    -0.400 OA
HETATM   57  H8  UNL     1       0.554   3.057  11.836  1.00  0.00     0.209 HD
ENDBRANCH  55  56
ENDBRANCH   3  55
TORSDOF 6
ENDMDL
MODEL 6
REMARK minimizedAffinity -7.3004446
REMARK CNNscore 0.30205068
REMARK CNNaffinity 6.87412405
REMARK  6 active torsions:
REMARK  status: ('A' for Active; 'I' for Inactive)
REMARK    1  A    between atoms: C3_3  and  C4_4 
REMARK    2  A    between atoms: C4_4  and  O1_5 
REMARK    3  A    between atoms: C7_9  and  O3_10 
REMARK    4  A    between atoms: C21_24  and  O4_26 
REMARK    5  A    between atoms: C23_27  and  O5_28 
REMARK    6  A    between atoms: C30_36  and  C31_37 
ROOT
HETATM    1  C1  UNL     1       5.864  16.820   0.836  1.00  0.00     0.013 C 
HETATM    2  C2  UNL     1       4.387  16.458   0.937  1.00  0.00     0.023 C 
HETATM    3  C3  UNL     1       4.101  14.959   0.947  1.00  0.00     0.047 C 
HETATM    4  C5  UNL     1       2.627  14.885   0.526  1.00  0.00     0.160 C 
HETATM    5  O2  UNL     1       2.495  15.956  -0.432  1.00  0.00    -0.373 OA
HETATM    6  C6  UNL     1       3.571  16.902  -0.276  1.00  0.00     0.167 C 
HETATM    7  C7  UNL     1       3.035  18.343  -0.200  1.00  0.00     0.226 C 
HETATM    8  C8  UNL     1       1.718  18.486   0.469  1.00  0.00    -0.072 C 
HETATM    9  C9  UNL     1       0.629  18.646   0.944  1.00  0.00    -0.103 C 
HETATM   10  C10 UNL     1      -0.661  19.061   1.514  1.00  0.00     0.099 C 
HETATM   11  C11 UNL     1      -1.733  18.003   1.949  1.00  0.00     0.009 C 
HETATM   12  C12 UNL     1      -2.868  18.932   2.526  1.00  0.00     0.016 C 
HETATM   13  C13 UNL     1      -3.695  18.575   3.802  1.00  0.00     0.027 C 
HETATM   14  C14 UNL     1      -3.218  17.383   4.589  1.00  0.00    -0.030 C 
HETATM   15  C15 UNL     1      -3.363  17.235   5.921  1.00  0.00    -0.006 C 
HETATM   16  C16 UNL     1      -2.851  16.050   6.705  1.00  0.00     0.043 C 
HETATM   17  C17 UNL     1      -1.708  15.330   6.001  1.00  0.00     0.013 C 
HETATM   18  C18 UNL     1      -2.060  15.070   4.533  1.00  0.00     0.026 C 
HETATM   19  C19 UNL     1      -0.916  14.528   3.647  1.00  0.00     0.016 C 
HETATM   20  C20 UNL     1      -0.976  15.387   2.331  1.00  0.00     0.034 C 
HETATM   21  C21 UNL     1       0.091  14.956   1.261  1.00  0.00     0.087 C 
HETATM   22  C22 UNL     1      -0.247  15.531  -0.120  1.00  0.00     0.049 C 
HETATM   23  C23 UNL     1       1.589  15.002   1.693  1.00  0.00     0.181 C 
HETATM   24  C24 UNL     1      -1.354  16.820   2.905  1.00  0.00     0.003 C 
HETATM   25  C25 UNL     1      -0.298  17.404   3.880  1.00  0.00     0.019 C 
HETATM   26  C26 UNL     1      -2.618  16.302   3.743  1.00  0.00     0.098 C 
HETATM   27  O6  UNL     1      -3.680  15.605   3.043  1.00  0.00    -0.363 OA
HETATM   28  C27 UNL     1      -4.393  16.029   1.910  1.00  0.00     0.263 C 
HETATM   29  C28 UNL     1      -5.817  16.187   2.266  1.00  0.00    -0.080 C 
HETATM   30  C29 UNL     1      -6.953  16.353   2.620  1.00  0.00    -0.093 C 
HETATM   31  C30 UNL     1      -8.323  16.544   3.176  1.00  0.00     0.121 C 
HETATM   32  C37 UNL     1      -8.692  18.045   3.332  1.00  0.00     0.190 C 
HETATM   33  O7  UNL     1      -8.206  18.659   4.546  1.00  0.00    -0.384 OA
HETATM   34  C38 UNL     1      -6.804  18.917   4.562  1.00  0.00     0.122 C 
HETATM   35  C39 UNL     1      -6.424  20.051   3.596  1.00  0.00     0.033 C 
HETATM   36  C40 UNL     1      -5.088  20.731   3.944  1.00  0.00     0.013 C 
HETATM   37  C41 UNL     1      -4.088  19.817   4.701  1.00  0.00    -0.026 C 
HETATM   38  C42 UNL     1      -2.830  20.633   5.096  1.00  0.00     0.016 C 
HETATM   39  C43 UNL     1      -4.782  19.412   6.043  1.00  0.00     0.071 C 
HETATM   40  C44 UNL     1      -6.315  19.231   5.972  1.00  0.00     0.045 C 
HETATM   41  C45 UNL     1      -4.124  18.230   6.729  1.00  0.00     0.161 C 
HETATM   42  O8  UNL     1      -4.216  18.094   7.947  1.00  0.00    -0.292 OA
ENDROOT
BRANCH  31  43
HETATM   43  C31 UNL     1      -9.327  15.797   2.311  1.00  0.00    -0.040 A 
HETATM   44  C32 UNL     1     -10.313  14.976   2.879  1.00  0.00     0.008 A 
HETATM   45  C33 UNL     1     -11.236  14.315   2.070  1.00  0.00     0.001 A 
HETATM   46  C34 UNL     1     -11.191  14.471   0.685  1.00  0.00     0.000 A 
HETATM   47  C35 UNL     1     -10.213  15.278   0.112  1.00  0.00     0.001 A 
HETATM   48  C36 UNL     1      -9.287  15.937   0.916  1.00  0.00     0.008 A 
ENDBRANCH  31  43
BRANCH  21  49
HETATM   49  O4  UNL     1      -0.144  13.513   1.075  1.00  0.00    -0.387 OA
HETATM   50  H30 UNL     1      -1.038  13.394   0.716  1.00  0.00     0.210 HD
ENDBRANCH  21  49
BRANCH  23  51
HETATM   51  O5  UNL     1       1.902  16.107   2.527  1.00  0.00    -0.390 OA
HETATM   52  H32 UNL     1       1.745  15.810   3.436  1.00  0.00     0.210 HD
ENDBRANCH  23  51
BRANCH   7  53
HETATM   53  O3  UNL     1       2.904  18.860  -1.534  1.00  0.00    -0.381 OA
HETATM   54  H12 UNL     1       2.474  19.724  -1.431  1.00  0.00     0.211 HD
ENDBRANCH   7  53
BRANCH   3  55
HETATM   55  C4  UNL     1       4.439  14.220   2.232  1.00  0.00     0.172 C 
BRANCH  55  56
HETATM   56  O1  UNL     1       5.653  13.510   2.052  1.00  0.00    -0.400 OA
HETATM   57  H8  UNL     1       5.717  12.826   2.734  1.00  0.00     0.209 HD
ENDBRANCH  55  56
ENDBRANCH   3  55
TORSDOF 6
ENDMDL
MODEL 7
REMARK minimizedAffinity -7.62688446
REMARK CNNscore 0.247878045
REMARK CNNaffinity 6.48352098
REMARK  6 active torsions:
REMARK  status: ('A' for Active; 'I' for Inactive)
REMARK    1  A    between atoms: C3_3  and  C4_4 
REMARK    2  A    between atoms: C4_4  and  O1_5 
REMARK    3  A    between atoms: C7_9  and  O3_10 
REMARK    4  A    between atoms: C21_24  and  O4_26 
REMARK    5  A    between atoms: C23_27  and  O5_28 
REMARK    6  A    between atoms: C30_36  and  C31_37 
ROOT
HETATM    1  C1  UNL     1      -0.835   5.641  11.732  1.00  0.00     0.013 C 
HETATM    2  C2  UNL     1      -0.813   6.635  12.887  1.00  0.00     0.023 C 
HETATM    3  C3  UNL     1       0.505   6.685  13.656  1.00  0.00     0.047 C 
HETATM    4  C5  UNL     1       0.098   7.309  14.998  1.00  0.00     0.160 C 
HETATM    5  O2  UNL     1      -1.219   6.770  15.238  1.00  0.00    -0.373 OA
HETATM    6  C6  UNL     1      -1.790   6.283  14.007  1.00  0.00     0.167 C 
HETATM    7  C7  UNL     1      -3.219   6.823  13.809  1.00  0.00     0.226 C 
HETATM    8  C8  UNL     1      -3.447   8.194  14.331  1.00  0.00    -0.072 C 
HETATM    9  C9  UNL     1      -3.699   9.271  14.793  1.00  0.00    -0.103 C 
HETATM   10  C10 UNL     1      -4.202  10.575  15.248  1.00  0.00     0.099 C 
HETATM   11  C11 UNL     1      -3.342  11.496  16.180  1.00  0.00     0.009 C 
HETATM   12  C12 UNL     1      -4.281  12.754  16.326  1.00  0.00     0.016 C 
HETATM   13  C13 UNL     1      -3.745  14.221  16.333  1.00  0.00     0.027 C 
HETATM   14  C14 UNL     1      -2.290  14.397  15.987  1.00  0.00    -0.030 C 
HETATM   15  C15 UNL     1      -1.771  15.487  15.386  1.00  0.00    -0.006 C 
HETATM   16  C16 UNL     1      -0.315  15.638  15.013  1.00  0.00     0.043 C 
HETATM   17  C17 UNL     1       0.393  14.299  14.855  1.00  0.00     0.013 C 
HETATM   18  C18 UNL     1       0.092  13.389  16.049  1.00  0.00     0.026 C 
HETATM   19  C19 UNL     1       0.580  11.928  15.928  1.00  0.00     0.016 C 
HETATM   20  C20 UNL     1      -0.637  11.050  16.399  1.00  0.00     0.034 C 
HETATM   21  C21 UNL     1      -0.326   9.510  16.397  1.00  0.00     0.087 C 
HETATM   22  C22 UNL     1      -1.367   8.734  17.216  1.00  0.00     0.049 C 
HETATM   23  C23 UNL     1       0.114   8.875  15.042  1.00  0.00     0.181 C 
HETATM   24  C24 UNL     1      -1.865  11.864  15.805  1.00  0.00     0.003 C 
HETATM   25  C25 UNL     1      -1.853  11.978  14.257  1.00  0.00     0.019 C 
HETATM   26  C26 UNL     1      -1.419  13.266  16.441  1.00  0.00     0.098 C 
HETATM   27  O6  UNL     1      -1.243  13.354  17.878  1.00  0.00    -0.363 OA
HETATM   28  C27 UNL     1      -2.153  12.995  18.885  1.00  0.00     0.263 C 
HETATM   29  C28 UNL     1      -2.519  14.199  19.659  1.00  0.00    -0.080 C 
HETATM   30  C29 UNL     1      -2.825  15.215  20.220  1.00  0.00    -0.093 C 
HETATM   31  C30 UNL     1      -3.146  16.538  20.828  1.00  0.00     0.121 C 
HETATM   32  C37 UNL     1      -4.566  17.037  20.440  1.00  0.00     0.190 C 
HETATM   33  O7  UNL     1      -4.638  17.702  19.160  1.00  0.00    -0.384 OA
HETATM   34  C38 UNL     1      -4.545  16.835  18.032  1.00  0.00     0.122 C 
HETATM   35  C39 UNL     1      -5.803  15.965  17.880  1.00  0.00     0.033 C 
HETATM   36  C40 UNL     1      -6.009  15.431  16.451  1.00  0.00     0.013 C 
HETATM   37  C41 UNL     1      -4.698  15.274  15.636  1.00  0.00    -0.026 C 
HETATM   38  C42 UNL     1      -5.035  14.839  14.185  1.00  0.00     0.016 C 
HETATM   39  C43 UNL     1      -4.067  16.701  15.526  1.00  0.00     0.071 C 
HETATM   40  C44 UNL     1      -4.279  17.618  16.751  1.00  0.00     0.045 C 
HETATM   41  C45 UNL     1      -2.612  16.684  15.101  1.00  0.00     0.161 C 
HETATM   42  O8  UNL     1      -2.127  17.655  14.523  1.00  0.00    -0.292 OA
ENDROOT
BRANCH  31  43
HETATM   43  C31 UNL     1      -2.962  16.459  22.336  1.00  0.00    -0.040 A 
HETATM   44  C32 UNL     1      -1.960  17.193  22.990  1.00  0.00     0.008 A 
HETATM   45  C33 UNL     1      -1.820  17.120  24.375  1.00  0.00     0.001 A 
HETATM   46  C34 UNL     1      -2.682  16.322  25.126  1.00  0.00     0.000 A 
HETATM   47  C35 UNL     1      -3.675  15.586  24.485  1.00  0.00     0.001 A 
HETATM   48  C36 UNL     1      -3.816  15.652  23.102  1.00  0.00     0.008 A 
ENDBRANCH  31  43
BRANCH  21  49
HETATM   49  O4  UNL     1       0.889   9.383  17.220  1.00  0.00    -0.387 OA
HETATM   50  H30 UNL     1       0.679   9.676  18.121  1.00  0.00     0.210 HD
ENDBRANCH  21  49
BRANCH  23  51
HETATM   51  O5  UNL     1      -0.570   9.410  13.920  1.00  0.00    -0.390 OA
HETATM   52  H32 UNL     1      -0.049  10.173  13.626  1.00  0.00     0.210 HD
ENDBRANCH  23  51
BRANCH   7  53
HETATM   53  O3  UNL     1      -4.142   5.945  14.472  1.00  0.00    -0.381 OA
HETATM   54  H12 UNL     1      -5.005   6.383  14.400  1.00  0.00     0.211 HD
ENDBRANCH   7  53
BRANCH   3  55
HETATM   55  C4  UNL     1       1.666   7.372  12.955  1.00  0.00     0.172 C 
BRANCH  55  56
HETATM   56  O1  UNL     1       2.880   6.964  13.563  1.00  0.00    -0.400 OA
HETATM   57  H8  UNL     1       3.572   7.599  13.330  1.00  0.00     0.209 HD
ENDBRANCH  55  56
ENDBRANCH   3  55
TORSDOF 6
ENDMDL
MODEL 8
REMARK minimizedAffinity -7.70757914
REMARK CNNscore 0.24232915
REMARK CNNaffinity 6.30005074
REMARK  6 active torsions:
REMARK  status: ('A' for Active; 'I' for Inactive)
REMARK    1  A    between atoms: C3_3  and  C4_4 
REMARK    2  A    between atoms: C4_4  and  O1_5 
REMARK    3  A    between atoms: C7_9  and  O3_10 
REMARK    4  A    between atoms: C21_24  and  O4_26 
REMARK    5  A    between atoms: C23_27  and  O5_28 
REMARK    6  A    between atoms: C30_36  and  C31_37 
ROOT
HETATM    1  C1  UNL     1     -23.150  -7.812   4.396  1.00  0.00     0.013 C 
HETATM    2  C2  UNL     1     -21.862  -8.077   5.165  1.00  0.00     0.023 C 
HETATM    3  C3  UNL     1     -20.870  -8.988   4.447  1.00  0.00     0.047 C 
HETATM    4  C5  UNL     1     -19.979  -9.496   5.588  1.00  0.00     0.160 C 
HETATM    5  O2  UNL     1     -20.892  -9.633   6.697  1.00  0.00    -0.373 OA
HETATM    6  C6  UNL     1     -22.081  -8.851   6.464  1.00  0.00     0.167 C 
HETATM    7  C7  UNL     1     -22.416  -7.978   7.687  1.00  0.00     0.226 C 
HETATM    8  C8  UNL     1     -21.239  -7.473   8.437  1.00  0.00    -0.072 C 
HETATM    9  C9  UNL     1     -20.324  -7.094   9.113  1.00  0.00    -0.103 C 
HETATM   10  C10 UNL     1     -19.355  -6.503  10.047  1.00  0.00     0.099 C 
HETATM   11  C11 UNL     1     -17.835  -6.880   9.984  1.00  0.00     0.009 C 
HETATM   12  C12 UNL     1     -17.242  -5.965  11.122  1.00  0.00     0.016 C 
HETATM   13  C13 UNL     1     -15.868  -5.231  10.996  1.00  0.00     0.027 C 
HETATM   14  C14 UNL     1     -15.216  -5.274   9.639  1.00  0.00    -0.030 C 
HETATM   15  C15 UNL     1     -14.411  -4.311   9.144  1.00  0.00    -0.006 C 
HETATM   16  C16 UNL     1     -13.791  -4.348   7.769  1.00  0.00     0.043 C 
HETATM   17  C17 UNL     1     -14.558  -5.240   6.801  1.00  0.00     0.013 C 
HETATM   18  C18 UNL     1     -14.859  -6.596   7.445  1.00  0.00     0.026 C 
HETATM   19  C19 UNL     1     -15.805  -7.527   6.654  1.00  0.00     0.016 C 
HETATM   20  C20 UNL     1     -16.828  -8.070   7.719  1.00  0.00     0.034 C 
HETATM   21  C21 UNL     1     -17.864  -9.088   7.119  1.00  0.00     0.087 C 
HETATM   22  C22 UNL     1     -18.571  -9.877   8.229  1.00  0.00     0.049 C 
HETATM   23  C23 UNL     1     -18.753  -8.586   5.940  1.00  0.00     0.181 C 
HETATM   24  C24 UNL     1     -17.039  -6.790   8.637  1.00  0.00     0.003 C 
HETATM   25  C25 UNL     1     -17.640  -5.572   7.888  1.00  0.00     0.019 C 
HETATM   26  C26 UNL     1     -15.475  -6.540   8.883  1.00  0.00     0.098 C 
HETATM   27  O6  UNL     1     -14.682  -7.607   9.463  1.00  0.00    -0.363 OA
HETATM   28  C27 UNL     1     -14.926  -8.321  10.648  1.00  0.00     0.263 C 
HETATM   29  C28 UNL     1     -13.828  -8.066  11.602  1.00  0.00    -0.080 C 
HETATM   30  C29 UNL     1     -12.940  -7.784  12.359  1.00  0.00    -0.093 C 
HETATM   31  C30 UNL     1     -11.803  -7.345  13.219  1.00  0.00     0.121 C 
HETATM   32  C37 UNL     1     -12.251  -6.358  14.331  1.00  0.00     0.190 C 
HETATM   33  O7  UNL     1     -12.350  -4.981  13.906  1.00  0.00    -0.384 OA
HETATM   34  C38 UNL     1     -13.476  -4.691  13.081  1.00  0.00     0.122 C 
HETATM   35  C39 UNL     1     -14.792  -4.753  13.874  1.00  0.00     0.033 C 
HETATM   36  C40 UNL     1     -15.936  -3.954  13.225  1.00  0.00     0.013 C 
HETATM   37  C41 UNL     1     -15.815  -3.808  11.685  1.00  0.00    -0.026 C 
HETATM   38  C42 UNL     1     -16.954  -2.897  11.157  1.00  0.00     0.016 C 
HETATM   39  C43 UNL     1     -14.482  -3.039  11.412  1.00  0.00     0.071 C 
HETATM   40  C44 UNL     1     -13.328  -3.337  12.396  1.00  0.00     0.045 C 
HETATM   41  C45 UNL     1     -14.012  -3.139   9.974  1.00  0.00     0.161 C 
HETATM   42  O8  UNL     1     -13.304  -2.256   9.493  1.00  0.00    -0.292 OA
ENDROOT
BRANCH  31  43
HETATM   43  C31 UNL     1     -11.102  -8.568  13.791  1.00  0.00    -0.040 A 
HETATM   44  C32 UNL     1     -10.228  -9.342  13.012  1.00  0.00     0.008 A 
HETATM   45  C33 UNL     1      -9.582 -10.448  13.562  1.00  0.00     0.001 A 
HETATM   46  C34 UNL     1      -9.793 -10.792  14.896  1.00  0.00     0.000 A 
HETATM   47  C35 UNL     1     -10.664 -10.035  15.674  1.00  0.00     0.001 A 
HETATM   48  C36 UNL     1     -11.315  -8.931  15.129  1.00  0.00     0.008 A 
ENDBRANCH  31  43
BRANCH  21  49
HETATM   49  O4  UNL     1     -17.030 -10.117   6.474  1.00  0.00    -0.387 OA
HETATM   50  H30 UNL     1     -16.499 -10.553   7.161  1.00  0.00     0.210 HD
ENDBRANCH  21  49
BRANCH  23  51
HETATM   51  O5  UNL     1     -19.163  -7.234   6.079  1.00  0.00    -0.390 OA
HETATM   52  H32 UNL     1     -18.471  -6.699   5.662  1.00  0.00     0.210 HD
ENDBRANCH  23  51
BRANCH   7  53
HETATM   53  O3  UNL     1     -23.218  -8.745   8.599  1.00  0.00    -0.381 OA
HETATM   54  H12 UNL     1     -23.314  -8.185   9.385  1.00  0.00     0.211 HD
ENDBRANCH   7  53
BRANCH   3  55
HETATM   55  C4  UNL     1     -20.122  -8.374   3.274  1.00  0.00     0.172 C 
BRANCH  55  56
HETATM   56  O1  UNL     1     -20.928  -7.364   2.690  1.00  0.00    -0.400 OA
HETATM   57  H8  UNL     1     -20.599  -7.183   1.798  1.00  0.00     0.209 HD
ENDBRANCH  55  56
ENDBRANCH   3  55
TORSDOF 6
ENDMDL
MODEL 9
REMARK minimizedAffinity -7.8448925
REMARK CNNscore 0.241992891
REMARK CNNaffinity 6.61007547
REMARK  6 active torsions:
REMARK  status: ('A' for Active; 'I' for Inactive)
REMARK    1  A    between atoms: C3_3  and  C4_4 
REMARK    2  A    between atoms: C4_4  and  O1_5 
REMARK    3  A    between atoms: C7_9  and  O3_10 
REMARK    4  A    between atoms: C21_24  and  O4_26 
REMARK    5  A    between atoms: C23_27  and  O5_28 
REMARK    6  A    between atoms: C30_36  and  C31_37 
ROOT
HETATM    1  C1  UNL     1       3.615   8.781  13.020  1.00  0.00     0.013 C 
HETATM    2  C2  UNL     1       2.634   9.238  14.093  1.00  0.00     0.023 C 
HETATM    3  C3  UNL     1       3.190   9.210  15.515  1.00  0.00     0.047 C 
HETATM    4  C5  UNL     1       1.924   9.186  16.381  1.00  0.00     0.160 C 
HETATM    5  O2  UNL     1       1.004   8.379  15.615  1.00  0.00    -0.373 OA
HETATM    6  C6  UNL     1       1.423   8.318  14.237  1.00  0.00     0.167 C 
HETATM    7  C7  UNL     1       0.253   8.640  13.289  1.00  0.00     0.226 C 
HETATM    8  C8  UNL     1      -0.714   9.641  13.806  1.00  0.00    -0.072 C 
HETATM    9  C9  UNL     1      -1.556  10.395  14.205  1.00  0.00    -0.103 C 
HETATM   10  C10 UNL     1      -2.670  11.313  14.485  1.00  0.00     0.099 C 
HETATM   11  C11 UNL     1      -2.871  11.933  15.910  1.00  0.00     0.009 C 
HETATM   12  C12 UNL     1      -4.126  12.856  15.673  1.00  0.00     0.016 C 
HETATM   13  C13 UNL     1      -4.276  14.274  16.311  1.00  0.00     0.027 C 
HETATM   14  C14 UNL     1      -3.058  14.815  17.013  1.00  0.00    -0.030 C 
HETATM   15  C15 UNL     1      -2.749  16.125  17.113  1.00  0.00    -0.006 C 
HETATM   16  C16 UNL     1      -1.508  16.655  17.790  1.00  0.00     0.043 C 
HETATM   17  C17 UNL     1      -0.389  15.623  17.856  1.00  0.00     0.013 C 
HETATM   18  C18 UNL     1      -0.923  14.285  18.373  1.00  0.00     0.026 C 
HETATM   19  C19 UNL     1       0.057  13.091  18.302  1.00  0.00     0.016 C 
HETATM   20  C20 UNL     1      -0.787  11.905  17.704  1.00  0.00     0.034 C 
HETATM   21  C21 UNL     1       0.024  10.564  17.593  1.00  0.00     0.087 C 
HETATM   22  C22 UNL     1      -0.913   9.366  17.387  1.00  0.00     0.049 C 
HETATM   23  C23 UNL     1       1.327  10.589  16.737  1.00  0.00     0.181 C 
HETATM   24  C24 UNL     1      -1.693  12.664  16.643  1.00  0.00     0.003 C 
HETATM   25  C25 UNL     1      -0.888  13.369  15.519  1.00  0.00     0.019 C 
HETATM   26  C26 UNL     1      -2.227  13.763  17.680  1.00  0.00     0.098 C 
HETATM   27  O6  UNL     1      -2.905  13.316  18.881  1.00  0.00    -0.363 OA
HETATM   28  C27 UNL     1      -4.002  12.445  18.982  1.00  0.00     0.263 C 
HETATM   29  C28 UNL     1      -5.147  13.173  19.566  1.00  0.00    -0.080 C 
HETATM   30  C29 UNL     1      -6.061  13.823  19.993  1.00  0.00    -0.093 C 
HETATM   31  C30 UNL     1      -7.126  14.732  20.506  1.00  0.00     0.121 C 
HETATM   32  C37 UNL     1      -8.171  15.092  19.414  1.00  0.00     0.190 C 
HETATM   33  O7  UNL     1      -7.781  16.178  18.546  1.00  0.00    -0.384 OA
HETATM   34  C38 UNL     1      -6.775  15.846  17.591  1.00  0.00     0.122 C 
HETATM   35  C39 UNL     1      -7.315  14.902  16.504  1.00  0.00     0.033 C 
HETATM   36  C40 UNL     1      -6.497  14.937  15.201  1.00  0.00     0.013 C 
HETATM   37  C41 UNL     1      -5.009  15.335  15.395  1.00  0.00    -0.026 C 
HETATM   38  C42 UNL     1      -4.314  15.446  14.013  1.00  0.00     0.016 C 
HETATM   39  C43 UNL     1      -5.008  16.778  15.999  1.00  0.00     0.071 C 
HETATM   40  C44 UNL     1      -6.174  17.098  16.961  1.00  0.00     0.045 C 
HETATM   41  C45 UNL     1      -3.676  17.176  16.604  1.00  0.00     0.161 C 
HETATM   42  O8  UNL     1      -3.360  18.362  16.675  1.00  0.00    -0.292 OA
ENDROOT
BRANCH  31  43
HETATM   43  C31 UNL     1      -7.776  14.107  21.732  1.00  0.00    -0.040 A 
HETATM   44  C32 UNL     1      -8.588  12.967  21.628  1.00  0.00     0.008 A 
HETATM   45  C33 UNL     1      -9.159  12.400  22.766  1.00  0.00     0.001 A 
HETATM   46  C34 UNL     1      -8.921  12.958  24.022  1.00  0.00     0.000 A 
HETATM   47  C35 UNL     1      -8.123  14.092  24.133  1.00  0.00     0.001 A 
HETATM   48  C36 UNL     1      -7.553  14.665  22.999  1.00  0.00     0.008 A 
ENDBRANCH  31  43
BRANCH  21  49
HETATM   49  O4  UNL     1       0.541  10.338  18.954  1.00  0.00    -0.387 OA
HETATM   50  H30 UNL     1      -0.216  10.218  19.551  1.00  0.00     0.210 HD
ENDBRANCH  21  49
BRANCH  23  51
HETATM   51  O5  UNL     1       1.220  11.393  15.571  1.00  0.00    -0.390 OA
HETATM   52  H32 UNL     1       1.486  12.287  15.836  1.00  0.00     0.210 HD
ENDBRANCH  23  51
BRANCH   7  53
HETATM   53  O3  UNL     1      -0.474   7.430  13.021  1.00  0.00    -0.381 OA
HETATM   54  H12 UNL     1      -1.248   7.707  12.506  1.00  0.00     0.211 HD
ENDBRANCH   7  53
BRANCH   3  55
HETATM   55  C4  UNL     1       4.188  10.302  15.867  1.00  0.00     0.172 C 
BRANCH  55  56
HETATM   56  O1  UNL     1       5.447   9.709  16.136  1.00  0.00    -0.400 OA
HETATM   57  H8  UNL     1       5.988  10.341  16.633  1.00  0.00     0.209 HD
ENDBRANCH  55  56
ENDBRANCH   3  55
TORSDOF 6
ENDMDL
