MODEL 1
REMARK minimizedAffinity -9.31380558
REMARK CNNscore 0.592647076
REMARK CNNaffinity 6.8215065
REMARK  14 active torsions:
REMARK  status: ('A' for Active; 'I' for Inactive)
REMARK    1  A    between atoms: C12_13  and  O2_14 
REMARK    2  A    between atoms: C19_21  and  O3_22 
REMARK    3  A    between atoms: C19_21  and  C20_23 
REMARK    4  A    between atoms: C20_23  and  C21_25 
REMARK    5  A    between atoms: C21_25  and  O5_26 
REMARK    6  A    between atoms: O5_26  and  C22_27 
REMARK    7  A    between atoms: C22_27  and  C23_29 
REMARK    8  A    between atoms: C23_29  and  C24_30 
REMARK    9  A    between atoms: C24_30  and  C25_31 
REMARK       I    between atoms: C25_31  and  N1_33 
REMARK   10  A    between atoms: N1_33  and  C26_34 
REMARK   11  A    between atoms: C26_34  and  C27_35 
REMARK   12  A    between atoms: C27_35  and  C28_36 
REMARK   13  A    between atoms: C31_39  and  O8_40 
REMARK   14  A    between atoms: C32_41  and  O9_42 
ROOT
HETATM    1  C1  UNL     1      -2.189   6.297  14.883  1.00  0.00     0.025 C 
HETATM    2  C2  UNL     1      -1.832   7.799  14.856  1.00  0.00     0.004 A 
HETATM    3  C3  UNL     1      -1.398   8.171  16.274  1.00  0.00    -0.009 A 
HETATM    4  C4  UNL     1      -2.042   9.006  17.100  1.00  0.00     0.052 A 
HETATM    5  C5  UNL     1      -3.279   9.683  16.682  1.00  0.00     0.172 A 
HETATM    6  O1  UNL     1      -3.893  10.423  17.441  1.00  0.00    -0.289 OA
HETATM    7  C6  UNL     1      -3.735   9.449  15.300  1.00  0.00     0.058 A 
HETATM    8  C7  UNL     1      -3.091   8.615  14.461  1.00  0.00    -0.064 A 
HETATM    9  C8  UNL     1      -3.563   8.519  13.030  1.00  0.00     0.036 C 
HETATM   10  C9  UNL     1      -2.430   8.861  12.063  1.00  0.00     0.010 C 
HETATM   11  C10 UNL     1      -1.242   7.939  12.326  1.00  0.00    -0.002 C 
HETATM   12  C11 UNL     1      -0.711   8.110  13.791  1.00  0.00     0.035 C 
HETATM   13  C12 UNL     1       0.739   7.515  13.940  1.00  0.00     0.124 C 
HETATM   14  C13 UNL     1       1.227   6.540  12.846  1.00  0.00     0.045 C 
HETATM   15  C14 UNL     1       0.847   6.879  11.387  1.00  0.00     0.001 C 
HETATM   16  C15 UNL     1       0.166   5.617  10.773  1.00  0.00     0.019 C 
HETATM   17  C16 UNL     1      -0.059   8.138  11.388  1.00  0.00     0.002 C 
HETATM   18  C17 UNL     1      -0.242   8.450   9.917  1.00  0.00     0.009 C 
HETATM   19  C18 UNL     1       1.158   8.170   9.332  1.00  0.00     0.047 C 
HETATM   20  C19 UNL     1       1.964   7.380  10.420  1.00  0.00     0.128 C 
ENDROOT
BRANCH  20  21
HETATM   21  O3  UNL     1       2.808   8.299  11.120  1.00  0.00    -0.381 OA
HETATM   22  H25 UNL     1       3.310   8.810  10.458  1.00  0.00     0.211 HD
ENDBRANCH  20  21
BRANCH  20  23
HETATM   23  C20 UNL     1       2.855   6.275   9.797  1.00  0.00     0.185 C 
HETATM   24  O4  UNL     1       2.483   5.616   8.822  1.00  0.00    -0.292 OA
BRANCH  23  25
HETATM   25  C21 UNL     1       4.222   6.050  10.436  1.00  0.00     0.260 C 
BRANCH  25  26
HETATM   26  O5  UNL     1       5.026   7.225  10.304  1.00  0.00    -0.314 OA
BRANCH  26  27
HETATM   27  C22 UNL     1       6.220   7.155  10.949  1.00  0.00     0.259 C 
HETATM   28  O6  UNL     1       7.190   6.525  10.549  1.00  0.00    -0.265 OA
BRANCH  27  29
HETATM   29  C23 UNL     1       6.181   7.936  12.234  1.00  0.00     0.120 C 
BRANCH  29  30
HETATM   30  C24 UNL     1       6.626   7.076  13.408  1.00  0.00     0.112 C 
BRANCH  30  31
HETATM   31  C25 UNL     1       7.125   7.913  14.564  1.00  0.00     0.218 C 
HETATM   32  O7  UNL     1       6.555   8.917  14.974  1.00  0.00    -0.274 OA
HETATM   33  N1  UNL     1       8.287   7.421  15.117  1.00  0.00    -0.361 N 
HETATM   34  H32 UNL     1       8.697   6.572  14.747  1.00  0.00     0.162 HD
BRANCH  33  35
HETATM   35  C26 UNL     1       8.932   8.066  16.245  1.00  0.00     0.127 C 
BRANCH  35  36
HETATM   36  C27 UNL     1       8.877   9.592  16.145  1.00  0.00     0.058 C 
BRANCH  36  37
HETATM   37  C28 UNL     1       9.172  10.246  17.472  1.00  0.00    -0.054 A 
HETATM   38  C29 UNL     1       8.154  10.912  18.176  1.00  0.00     0.010 A 
HETATM   39  C30 UNL     1       8.415  11.497  19.417  1.00  0.00     0.040 A 
HETATM   40  C31 UNL     1       9.693  11.411  19.950  1.00  0.00     0.098 A 
HETATM   41  C32 UNL     1      10.709  10.754  19.265  1.00  0.00     0.099 A 
HETATM   42  C33 UNL     1      10.459  10.167  18.028  1.00  0.00     0.046 A 
BRANCH  40  43
HETATM   43  O8  UNL     1       9.948  11.982  21.165  1.00  0.00    -0.358 OA
HETATM   44  H39 UNL     1      10.897  11.805  21.320  1.00  0.00     0.217 HD
ENDBRANCH  40  43
BRANCH  41  45
HETATM   45  O9  UNL     1      11.944  10.706  19.849  1.00  0.00    -0.358 OA
HETATM   46  H40 UNL     1      12.541  10.224  19.252  1.00  0.00     0.217 HD
ENDBRANCH  41  45
ENDBRANCH  36  37
ENDBRANCH  35  36
ENDBRANCH  33  35
ENDBRANCH  30  31
ENDBRANCH  29  30
ENDBRANCH  27  29
ENDBRANCH  26  27
ENDBRANCH  25  26
ENDBRANCH  23  25
ENDBRANCH  20  23
BRANCH  13  47
HETATM   47  O2  UNL     1       0.966   6.883  15.193  1.00  0.00    -0.395 OA
HETATM   48  H14 UNL     1       1.921   6.708  15.268  1.00  0.00     0.210 HD
ENDBRANCH  13  47
TORSDOF 14
ENDMDL
MODEL 2
REMARK minimizedAffinity -8.75923061
REMARK CNNscore 0.402494639
REMARK CNNaffinity 6.61773109
REMARK  14 active torsions:
REMARK  status: ('A' for Active; 'I' for Inactive)
REMARK    1  A    between atoms: C12_13  and  O2_14 
REMARK    2  A    between atoms: C19_21  and  O3_22 
REMARK    3  A    between atoms: C19_21  and  C20_23 
REMARK    4  A    between atoms: C20_23  and  C21_25 
REMARK    5  A    between atoms: C21_25  and  O5_26 
REMARK    6  A    between atoms: O5_26  and  C22_27 
REMARK    7  A    between atoms: C22_27  and  C23_29 
REMARK    8  A    between atoms: C23_29  and  C24_30 
REMARK    9  A    between atoms: C24_30  and  C25_31 
REMARK       I    between atoms: C25_31  and  N1_33 
REMARK   10  A    between atoms: N1_33  and  C26_34 
REMARK   11  A    between atoms: C26_34  and  C27_35 
REMARK   12  A    between atoms: C27_35  and  C28_36 
REMARK   13  A    between atoms: C31_39  and  O8_40 
REMARK   14  A    between atoms: C32_41  and  O9_42 
ROOT
HETATM    1  C1  UNL     1      -3.372   6.158  15.454  1.00  0.00     0.025 C 
HETATM    2  C2  UNL     1      -3.924   6.532  14.062  1.00  0.00     0.004 A 
HETATM    3  C3  UNL     1      -4.974   7.620  14.285  1.00  0.00    -0.009 A 
HETATM    4  C4  UNL     1      -6.289   7.505  14.057  1.00  0.00     0.052 A 
HETATM    5  C5  UNL     1      -6.860   6.257  13.526  1.00  0.00     0.172 A 
HETATM    6  O1  UNL     1      -8.064   6.130  13.345  1.00  0.00    -0.289 OA
HETATM    7  C6  UNL     1      -5.915   5.174  13.204  1.00  0.00     0.058 A 
HETATM    8  C7  UNL     1      -4.590   5.284  13.425  1.00  0.00    -0.064 A 
HETATM    9  C8  UNL     1      -3.682   4.169  12.963  1.00  0.00     0.036 C 
HETATM   10  C9  UNL     1      -2.618   4.702  12.006  1.00  0.00     0.010 C 
HETATM   11  C10 UNL     1      -1.833   5.819  12.688  1.00  0.00    -0.002 C 
HETATM   12  C11 UNL     1      -2.776   7.004  13.089  1.00  0.00     0.035 C 
HETATM   13  C12 UNL     1      -1.948   8.311  13.384  1.00  0.00     0.124 C 
HETATM   14  C13 UNL     1      -0.434   8.154  13.646  1.00  0.00     0.045 C 
HETATM   15  C14 UNL     1       0.324   7.127  12.773  1.00  0.00     0.001 C 
HETATM   16  C15 UNL     1       1.095   6.170  13.735  1.00  0.00     0.019 C 
HETATM   17  C16 UNL     1      -0.697   6.402  11.858  1.00  0.00     0.002 C 
HETATM   18  C17 UNL     1       0.171   5.540  10.964  1.00  0.00     0.009 C 
HETATM   19  C18 UNL     1       1.373   6.461  10.666  1.00  0.00     0.047 C 
HETATM   20  C19 UNL     1       1.304   7.653  11.680  1.00  0.00     0.128 C 
ENDROOT
BRANCH  20  21
HETATM   21  O3  UNL     1       0.709   8.777  11.023  1.00  0.00    -0.381 OA
HETATM   22  H25 UNL     1       1.181   8.917  10.181  1.00  0.00     0.211 HD
ENDBRANCH  20  21
BRANCH  20  23
HETATM   23  C20 UNL     1       2.709   8.070  12.185  1.00  0.00     0.185 C 
HETATM   24  O4  UNL     1       3.734   7.517  11.777  1.00  0.00    -0.292 OA
BRANCH  23  25
HETATM   25  C21 UNL     1       2.767   9.206  13.202  1.00  0.00     0.260 C 
BRANCH  25  26
HETATM   26  O5  UNL     1       4.092   9.331  13.725  1.00  0.00    -0.314 OA
BRANCH  26  27
HETATM   27  C22 UNL     1       4.219   8.927  15.015  1.00  0.00     0.259 C 
HETATM   28  O6  UNL     1       3.777   9.535  15.982  1.00  0.00    -0.265 OA
BRANCH  27  29
HETATM   29  C23 UNL     1       5.000   7.644  15.101  1.00  0.00     0.120 C 
BRANCH  29  30
HETATM   30  C24 UNL     1       6.231   7.694  14.209  1.00  0.00     0.112 C 
BRANCH  30  31
HETATM   31  C25 UNL     1       7.344   8.510  14.828  1.00  0.00     0.218 C 
HETATM   32  O7  UNL     1       7.640   9.643  14.467  1.00  0.00    -0.274 OA
HETATM   33  N1  UNL     1       7.986   7.847  15.851  1.00  0.00    -0.361 N 
HETATM   34  H32 UNL     1       7.679   6.921  16.117  1.00  0.00     0.162 HD
BRANCH  33  35
HETATM   35  C26 UNL     1       9.079   8.453  16.590  1.00  0.00     0.127 C 
BRANCH  35  36
HETATM   36  C27 UNL     1       9.374   9.878  16.116  1.00  0.00     0.058 C 
BRANCH  36  37
HETATM   37  C28 UNL     1      10.046  10.692  17.194  1.00  0.00    -0.054 A 
HETATM   38  C29 UNL     1      11.132  11.528  16.878  1.00  0.00     0.010 A 
HETATM   39  C30 UNL     1      11.741  12.303  17.867  1.00  0.00     0.040 A 
HETATM   40  C31 UNL     1      11.262  12.242  19.167  1.00  0.00     0.098 A 
HETATM   41  C32 UNL     1      10.187  11.420  19.492  1.00  0.00     0.099 A 
HETATM   42  C33 UNL     1       9.573  10.644  18.515  1.00  0.00     0.046 A 
BRANCH  40  43
HETATM   43  O8  UNL     1      11.857  13.001  20.134  1.00  0.00    -0.358 OA
HETATM   44  H39 UNL     1      11.364  12.784  20.950  1.00  0.00     0.217 HD
ENDBRANCH  40  43
BRANCH  41  45
HETATM   45  O9  UNL     1       9.766  11.409  20.793  1.00  0.00    -0.358 OA
HETATM   46  H40 UNL     1       9.020  10.788  20.862  1.00  0.00     0.217 HD
ENDBRANCH  41  45
ENDBRANCH  36  37
ENDBRANCH  35  36
ENDBRANCH  33  35
ENDBRANCH  30  31
ENDBRANCH  29  30
ENDBRANCH  27  29
ENDBRANCH  26  27
ENDBRANCH  25  26
ENDBRANCH  23  25
ENDBRANCH  20  23
BRANCH  13  47
HETATM   47  O2  UNL     1      -2.476   9.088  14.450  1.00  0.00    -0.395 OA
HETATM   48  H14 UNL     1      -2.019   9.949  14.445  1.00  0.00     0.210 HD
ENDBRANCH  13  47
TORSDOF 14
ENDMDL
MODEL 3
REMARK minimizedAffinity -8.26256847
REMARK CNNscore 0.347174823
REMARK CNNaffinity 6.50124025
REMARK  14 active torsions:
REMARK  status: ('A' for Active; 'I' for Inactive)
REMARK    1  A    between atoms: C12_13  and  O2_14 
REMARK    2  A    between atoms: C19_21  and  O3_22 
REMARK    3  A    between atoms: C19_21  and  C20_23 
REMARK    4  A    between atoms: C20_23  and  C21_25 
REMARK    5  A    between atoms: C21_25  and  O5_26 
REMARK    6  A    between atoms: O5_26  and  C22_27 
REMARK    7  A    between atoms: C22_27  and  C23_29 
REMARK    8  A    between atoms: C23_29  and  C24_30 
REMARK    9  A    between atoms: C24_30  and  C25_31 
REMARK       I    between atoms: C25_31  and  N1_33 
REMARK   10  A    between atoms: N1_33  and  C26_34 
REMARK   11  A    between atoms: C26_34  and  C27_35 
REMARK   12  A    between atoms: C27_35  and  C28_36 
REMARK   13  A    between atoms: C31_39  and  O8_40 
REMARK   14  A    between atoms: C32_41  and  O9_42 
ROOT
HETATM    1  C1  UNL     1      -1.390   6.602  11.754  1.00  0.00     0.025 C 
HETATM    2  C2  UNL     1      -2.070   6.524  13.138  1.00  0.00     0.004 A 
HETATM    3  C3  UNL     1      -2.422   5.055  13.370  1.00  0.00    -0.009 A 
HETATM    4  C4  UNL     1      -3.658   4.546  13.458  1.00  0.00     0.052 A 
HETATM    5  C5  UNL     1      -4.844   5.410  13.348  1.00  0.00     0.172 A 
HETATM    6  O1  UNL     1      -5.977   4.950  13.394  1.00  0.00    -0.289 OA
HETATM    7  C6  UNL     1      -4.605   6.857  13.202  1.00  0.00     0.058 A 
HETATM    8  C7  UNL     1      -3.365   7.377  13.118  1.00  0.00    -0.064 A 
HETATM    9  C8  UNL     1      -3.210   8.879  13.081  1.00  0.00     0.036 C 
HETATM   10  C9  UNL     1      -2.321   9.358  14.227  1.00  0.00     0.010 C 
HETATM   11  C10 UNL     1      -0.970   8.652  14.153  1.00  0.00    -0.002 C 
HETATM   12  C11 UNL     1      -1.140   7.099  14.275  1.00  0.00     0.035 C 
HETATM   13  C12 UNL     1       0.228   6.406  14.634  1.00  0.00     0.124 C 
HETATM   14  C13 UNL     1       1.521   7.218  14.405  1.00  0.00     0.045 C 
HETATM   15  C14 UNL     1       1.478   8.721  14.766  1.00  0.00     0.001 C 
HETATM   16  C15 UNL     1       1.969   9.519  13.519  1.00  0.00     0.019 C 
HETATM   17  C16 UNL     1       0.036   9.083  15.211  1.00  0.00     0.002 C 
HETATM   18  C17 UNL     1       0.154  10.523  15.670  1.00  0.00     0.009 C 
HETATM   19  C18 UNL     1       1.511  10.536  16.406  1.00  0.00     0.047 C 
HETATM   20  C19 UNL     1       2.255   9.210  16.027  1.00  0.00     0.128 C 
ENDROOT
BRANCH  20  21
HETATM   21  O3  UNL     1       2.070   8.264  17.084  1.00  0.00    -0.381 OA
HETATM   22  H25 UNL     1       2.309   8.701  17.923  1.00  0.00     0.211 HD
ENDBRANCH  20  21
BRANCH  20  23
HETATM   23  C20 UNL     1       3.776   9.432  15.830  1.00  0.00     0.185 C 
HETATM   24  O4  UNL     1       4.533   8.505  15.531  1.00  0.00    -0.292 OA
BRANCH  23  25
HETATM   25  C21 UNL     1       4.293  10.857  16.010  1.00  0.00     0.260 C 
BRANCH  25  26
HETATM   26  O5  UNL     1       5.452  10.857  16.847  1.00  0.00    -0.314 OA
BRANCH  26  27
HETATM   27  C22 UNL     1       5.351  11.665  17.935  1.00  0.00     0.259 C 
HETATM   28  O6  UNL     1       4.318  11.860  18.562  1.00  0.00    -0.265 OA
BRANCH  27  29
HETATM   29  C23 UNL     1       6.673  12.309  18.249  1.00  0.00     0.120 C 
BRANCH  29  30
HETATM   30  C24 UNL     1       7.467  11.470  19.240  1.00  0.00     0.112 C 
BRANCH  30  31
HETATM   31  C25 UNL     1       7.461  12.076  20.625  1.00  0.00     0.218 C 
HETATM   32  O7  UNL     1       8.470  12.237  21.301  1.00  0.00    -0.274 OA
HETATM   33  N1  UNL     1       6.200  12.439  21.044  1.00  0.00    -0.361 N 
HETATM   34  H32 UNL     1       5.409  12.300  20.428  1.00  0.00     0.162 HD
BRANCH  33  35
HETATM   35  C26 UNL     1       5.969  13.049  22.340  1.00  0.00     0.127 C 
BRANCH  35  36
HETATM   36  C27 UNL     1       4.483  13.085  22.703  1.00  0.00     0.058 C 
BRANCH  36  37
HETATM   37  C28 UNL     1       3.831  11.738  22.505  1.00  0.00    -0.054 A 
HETATM   38  C29 UNL     1       4.272  10.622  23.238  1.00  0.00     0.010 A 
HETATM   39  C30 UNL     1       3.655   9.380  23.077  1.00  0.00     0.040 A 
HETATM   40  C31 UNL     1       2.599   9.258  22.186  1.00  0.00     0.098 A 
HETATM   41  C32 UNL     1       2.152  10.355  21.456  1.00  0.00     0.099 A 
HETATM   42  C33 UNL     1       2.759  11.597  21.610  1.00  0.00     0.046 A 
BRANCH  40  43
HETATM   43  O8  UNL     1       1.994   8.043  22.030  1.00  0.00    -0.358 OA
HETATM   44  H39 UNL     1       1.304   8.201  21.357  1.00  0.00     0.217 HD
ENDBRANCH  40  43
BRANCH  41  45
HETATM   45  O9  UNL     1       1.106  10.164  20.597  1.00  0.00    -0.358 OA
HETATM   46  H40 UNL     1       0.916  11.012  20.161  1.00  0.00     0.217 HD
ENDBRANCH  41  45
ENDBRANCH  36  37
ENDBRANCH  35  36
ENDBRANCH  33  35
ENDBRANCH  30  31
ENDBRANCH  29  30
ENDBRANCH  27  29
ENDBRANCH  26  27
ENDBRANCH  25  26
ENDBRANCH  23  25
ENDBRANCH  20  23
BRANCH  13  47
HETATM   47  O2  UNL     1       0.409   5.147  14.000  1.00  0.00    -0.395 OA
HETATM   48  H14 UNL     1       1.181   4.716  14.410  1.00  0.00     0.210 HD
ENDBRANCH  13  47
TORSDOF 14
ENDMDL
MODEL 4
REMARK minimizedAffinity -8.87298203
REMARK CNNscore 0.336133689
REMARK CNNaffinity 5.88882971
REMARK  14 active torsions:
REMARK  status: ('A' for Active; 'I' for Inactive)
REMARK    1  A    between atoms: C12_13  and  O2_14 
REMARK    2  A    between atoms: C19_21  and  O3_22 
REMARK    3  A    between atoms: C19_21  and  C20_23 
REMARK    4  A    between atoms: C20_23  and  C21_25 
REMARK    5  A    between atoms: C21_25  and  O5_26 
REMARK    6  A    between atoms: O5_26  and  C22_27 
REMARK    7  A    between atoms: C22_27  and  C23_29 
REMARK    8  A    between atoms: C23_29  and  C24_30 
REMARK    9  A    between atoms: C24_30  and  C25_31 
REMARK       I    between atoms: C25_31  and  N1_33 
REMARK   10  A    between atoms: N1_33  and  C26_34 
REMARK   11  A    between atoms: C26_34  and  C27_35 
REMARK   12  A    between atoms: C27_35  and  C28_36 
REMARK   13  A    between atoms: C31_39  and  O8_40 
REMARK   14  A    between atoms: C32_41  and  O9_42 
ROOT
HETATM    1  C1  UNL     1       3.951  13.219  23.031  1.00  0.00     0.025 C 
HETATM    2  C2  UNL     1       5.082  12.659  22.142  1.00  0.00     0.004 A 
HETATM    3  C3  UNL     1       5.884  11.691  23.012  1.00  0.00    -0.009 A 
HETATM    4  C4  UNL     1       7.155  11.851  23.402  1.00  0.00     0.052 A 
HETATM    5  C5  UNL     1       7.933  13.029  22.987  1.00  0.00     0.172 A 
HETATM    6  O1  UNL     1       9.084  13.201  23.365  1.00  0.00    -0.289 OA
HETATM    7  C6  UNL     1       7.270  13.982  22.081  1.00  0.00     0.058 A 
HETATM    8  C7  UNL     1       5.993  13.826  21.680  1.00  0.00    -0.064 A 
HETATM    9  C8  UNL     1       5.428  14.790  20.664  1.00  0.00     0.036 C 
HETATM   10  C9  UNL     1       4.923  14.041  19.432  1.00  0.00     0.010 C 
HETATM   11  C10 UNL     1       3.888  13.003  19.856  1.00  0.00    -0.002 C 
HETATM   12  C11 UNL     1       4.511  11.962  20.848  1.00  0.00     0.035 C 
HETATM   13  C12 UNL     1       3.615  10.670  20.948  1.00  0.00     0.124 C 
HETATM   14  C13 UNL     1       2.157  10.771  20.448  1.00  0.00     0.045 C 
HETATM   15  C14 UNL     1       1.914  11.591  19.160  1.00  0.00     0.001 C 
HETATM   16  C15 UNL     1       0.804  12.641  19.473  1.00  0.00     0.019 C 
HETATM   17  C16 UNL     1       3.259  12.221  18.711  1.00  0.00     0.002 C 
HETATM   18  C17 UNL     1       2.926  12.868  17.382  1.00  0.00     0.009 C 
HETATM   19  C18 UNL     1       1.984  11.836  16.727  1.00  0.00     0.047 C 
HETATM   20  C19 UNL     1       1.548  10.832  17.849  1.00  0.00     0.128 C 
ENDROOT
BRANCH  20  21
HETATM   21  O3  UNL     1       2.357   9.656  17.749  1.00  0.00    -0.381 OA
HETATM   22  H25 UNL     1       2.330   9.351  16.823  1.00  0.00     0.211 HD
ENDBRANCH  20  21
BRANCH  20  23
HETATM   23  C20 UNL     1       0.061  10.415  17.710  1.00  0.00     0.185 C 
HETATM   24  O4  UNL     1      -0.711  10.440  18.672  1.00  0.00    -0.292 OA
BRANCH  23  25
HETATM   25  C21 UNL     1      -0.407   9.985  16.323  1.00  0.00     0.260 C 
BRANCH  25  26
HETATM   26  O5  UNL     1      -1.559  10.739  15.937  1.00  0.00    -0.314 OA
BRANCH  26  27
HETATM   27  C22 UNL     1      -1.979  10.499  14.668  1.00  0.00     0.259 C 
HETATM   28  O6  UNL     1      -1.762  11.233  13.712  1.00  0.00    -0.265 OA
BRANCH  27  29
HETATM   29  C23 UNL     1      -2.771   9.222  14.599  1.00  0.00     0.120 C 
BRANCH  29  30
HETATM   30  C24 UNL     1      -3.593   9.021  15.863  1.00  0.00     0.112 C 
BRANCH  30  31
HETATM   31  C25 UNL     1      -4.929   8.375  15.571  1.00  0.00     0.218 C 
HETATM   32  O7  UNL     1      -5.942   9.004  15.290  1.00  0.00    -0.274 OA
HETATM   33  N1  UNL     1      -4.885   7.000  15.646  1.00  0.00    -0.361 N 
HETATM   34  H32 UNL     1      -4.010   6.538  15.861  1.00  0.00     0.162 HD
BRANCH  33  35
HETATM   35  C26 UNL     1      -6.055   6.181  15.391  1.00  0.00     0.127 C 
BRANCH  35  36
HETATM   36  C27 UNL     1      -6.498   6.248  13.928  1.00  0.00     0.058 C 
BRANCH  36  37
HETATM   37  C28 UNL     1      -6.319   4.921  13.232  1.00  0.00    -0.054 A 
HETATM   38  C29 UNL     1      -5.104   4.613  12.595  1.00  0.00     0.010 A 
HETATM   39  C30 UNL     1      -4.924   3.376  11.972  1.00  0.00     0.040 A 
HETATM   40  C31 UNL     1      -5.957   2.451  11.991  1.00  0.00     0.098 A 
HETATM   41  C32 UNL     1      -7.164   2.743  12.620  1.00  0.00     0.099 A 
HETATM   42  C33 UNL     1      -7.353   3.972  13.244  1.00  0.00     0.046 A 
BRANCH  40  43
HETATM   43  O8  UNL     1      -5.781   1.241  11.383  1.00  0.00    -0.358 OA
HETATM   44  H39 UNL     1      -6.631   0.777  11.516  1.00  0.00     0.217 HD
ENDBRANCH  40  43
BRANCH  41  45
HETATM   45  O9  UNL     1      -8.139   1.785  12.601  1.00  0.00    -0.358 OA
HETATM   46  H40 UNL     1      -8.915   2.137  13.070  1.00  0.00     0.217 HD
ENDBRANCH  41  45
ENDBRANCH  36  37
ENDBRANCH  35  36
ENDBRANCH  33  35
ENDBRANCH  30  31
ENDBRANCH  29  30
ENDBRANCH  27  29
ENDBRANCH  26  27
ENDBRANCH  25  26
ENDBRANCH  23  25
ENDBRANCH  20  23
BRANCH  13  47
HETATM   47  O2  UNL     1       3.569  10.113  22.256  1.00  0.00    -0.395 OA
HETATM   48  H14 UNL     1       3.150   9.236  22.190  1.00  0.00     0.210 HD
ENDBRANCH  13  47
TORSDOF 14
ENDMDL
MODEL 5
REMARK minimizedAffinity -10.0001106
REMARK CNNscore 0.334180623
REMARK CNNaffinity 6.93896866
REMARK  14 active torsions:
REMARK  status: ('A' for Active; 'I' for Inactive)
REMARK    1  A    between atoms: C12_13  and  O2_14 
REMARK    2  A    between atoms: C19_21  and  O3_22 
REMARK    3  A    between atoms: C19_21  and  C20_23 
REMARK    4  A    between atoms: C20_23  and  C21_25 
REMARK    5  A    between atoms: C21_25  and  O5_26 
REMARK    6  A    between atoms: O5_26  and  C22_27 
REMARK    7  A    between atoms: C22_27  and  C23_29 
REMARK    8  A    between atoms: C23_29  and  C24_30 
REMARK    9  A    between atoms: C24_30  and  C25_31 
REMARK       I    between atoms: C25_31  and  N1_33 
REMARK   10  A    between atoms: N1_33  and  C26_34 
REMARK   11  A    between atoms: C26_34  and  C27_35 
REMARK   12  A    between atoms: C27_35  and  C28_36 
REMARK   13  A    between atoms: C31_39  and  O8_40 
REMARK   14  A    between atoms: C32_41  and  O9_42 
ROOT
HETATM    1  C1  UNL     1      -7.434   7.072  16.564  1.00  0.00     0.025 C 
HETATM    2  C2  UNL     1      -7.690   7.533  15.113  1.00  0.00     0.004 A 
HETATM    3  C3  UNL     1      -8.312   8.926  15.200  1.00  0.00    -0.009 A 
HETATM    4  C4  UNL     1      -9.558   9.256  14.834  1.00  0.00     0.052 A 
HETATM    5  C5  UNL     1     -10.474   8.252  14.272  1.00  0.00     0.172 A 
HETATM    6  O1  UNL     1     -11.625   8.535  13.965  1.00  0.00    -0.289 OA
HETATM    7  C6  UNL     1      -9.939   6.893  14.075  1.00  0.00     0.058 A 
HETATM    8  C7  UNL     1      -8.685   6.555  14.436  1.00  0.00    -0.064 A 
HETATM    9  C8  UNL     1      -8.181   5.172  14.097  1.00  0.00     0.036 C 
HETATM   10  C9  UNL     1      -6.914   5.252  13.248  1.00  0.00     0.010 C 
HETATM   11  C10 UNL     1      -5.857   6.069  13.987  1.00  0.00    -0.002 C 
HETATM   12  C11 UNL     1      -6.363   7.527  14.260  1.00  0.00     0.035 C 
HETATM   13  C12 UNL     1      -5.165   8.485  14.614  1.00  0.00     0.124 C 
HETATM   14  C13 UNL     1      -3.831   7.833  15.040  1.00  0.00     0.045 C 
HETATM   15  C14 UNL     1      -3.398   6.561  14.276  1.00  0.00     0.001 C 
HETATM   16  C15 UNL     1      -3.101   5.454  15.334  1.00  0.00     0.019 C 
HETATM   17  C16 UNL     1      -4.518   6.179  13.272  1.00  0.00     0.002 C 
HETATM   18  C17 UNL     1      -3.923   5.022  12.494  1.00  0.00     0.009 C 
HETATM   19  C18 UNL     1      -2.454   5.456  12.308  1.00  0.00     0.047 C 
HETATM   20  C19 UNL     1      -2.200   6.656  13.283  1.00  0.00     0.128 C 
ENDROOT
BRANCH  20  21
HETATM   21  O3  UNL     1      -2.303   7.876  12.543  1.00  0.00    -0.381 OA
HETATM   22  H25 UNL     1      -1.736   7.797  11.753  1.00  0.00     0.211 HD
ENDBRANCH  20  21
BRANCH  20  23
HETATM   23  C20 UNL     1      -0.791   6.593  13.927  1.00  0.00     0.185 C 
HETATM   24  O4  UNL     1      -0.428   7.415  14.773  1.00  0.00    -0.292 OA
BRANCH  23  25
HETATM   25  C21 UNL     1       0.123   5.457  13.477  1.00  0.00     0.260 C 
BRANCH  25  26
HETATM   26  O5  UNL     1       1.082   5.942  12.534  1.00  0.00    -0.314 OA
BRANCH  26  27
HETATM   27  C22 UNL     1       1.019   5.340  11.318  1.00  0.00     0.259 C 
HETATM   28  O6  UNL     1       0.304   4.382  11.053  1.00  0.00    -0.265 OA
BRANCH  27  29
HETATM   29  C23 UNL     1       1.965   5.992  10.347  1.00  0.00     0.120 C 
BRANCH  29  30
HETATM   30  C24 UNL     1       2.911   6.944  11.063  1.00  0.00     0.112 C 
BRANCH  30  31
HETATM   31  C25 UNL     1       4.351   6.492  10.961  1.00  0.00     0.218 C 
HETATM   32  O7  UNL     1       4.864   6.082   9.927  1.00  0.00    -0.274 OA
HETATM   33  N1  UNL     1       5.030   6.600  12.155  1.00  0.00    -0.361 N 
HETATM   34  H32 UNL     1       4.555   6.969  12.969  1.00  0.00     0.162 HD
BRANCH  33  35
HETATM   35  C26 UNL     1       6.427   6.230  12.278  1.00  0.00     0.127 C 
BRANCH  35  36
HETATM   36  C27 UNL     1       7.356   7.440  12.153  1.00  0.00     0.058 C 
BRANCH  36  37
HETATM   37  C28 UNL     1       8.027   7.762  13.466  1.00  0.00    -0.054 A 
HETATM   38  C29 UNL     1       9.413   7.991  13.517  1.00  0.00     0.010 A 
HETATM   39  C30 UNL     1      10.034   8.315  14.726  1.00  0.00     0.040 A 
HETATM   40  C31 UNL     1       9.267   8.410  15.877  1.00  0.00     0.098 A 
HETATM   41  C32 UNL     1       7.894   8.187  15.840  1.00  0.00     0.099 A 
HETATM   42  C33 UNL     1       7.266   7.865  14.642  1.00  0.00     0.046 A 
BRANCH  40  43
HETATM   43  O8  UNL     1       9.874   8.728  17.059  1.00  0.00    -0.358 OA
HETATM   44  H39 UNL     1       9.148   8.724  17.713  1.00  0.00     0.217 HD
ENDBRANCH  40  43
BRANCH  41  45
HETATM   45  O9  UNL     1       7.200   8.300  17.012  1.00  0.00    -0.358 OA
HETATM   46  H40 UNL     1       6.264   8.110  16.827  1.00  0.00     0.217 HD
ENDBRANCH  41  45
ENDBRANCH  36  37
ENDBRANCH  35  36
ENDBRANCH  33  35
ENDBRANCH  30  31
ENDBRANCH  29  30
ENDBRANCH  27  29
ENDBRANCH  26  27
ENDBRANCH  25  26
ENDBRANCH  23  25
ENDBRANCH  20  23
BRANCH  13  47
HETATM   47  O2  UNL     1      -5.488   9.455  15.601  1.00  0.00    -0.395 OA
HETATM   48  H14 UNL     1      -4.762  10.105  15.627  1.00  0.00     0.210 HD
ENDBRANCH  13  47
TORSDOF 14
ENDMDL
MODEL 6
REMARK minimizedAffinity -8.65399742
REMARK CNNscore 0.323833823
REMARK CNNaffinity 6.7038269
REMARK  14 active torsions:
REMARK  status: ('A' for Active; 'I' for Inactive)
REMARK    1  A    between atoms: C12_13  and  O2_14 
REMARK    2  A    between atoms: C19_21  and  O3_22 
REMARK    3  A    between atoms: C19_21  and  C20_23 
REMARK    4  A    between atoms: C20_23  and  C21_25 
REMARK    5  A    between atoms: C21_25  and  O5_26 
REMARK    6  A    between atoms: O5_26  and  C22_27 
REMARK    7  A    between atoms: C22_27  and  C23_29 
REMARK    8  A    between atoms: C23_29  and  C24_30 
REMARK    9  A    between atoms: C24_30  and  C25_31 
REMARK       I    between atoms: C25_31  and  N1_33 
REMARK   10  A    between atoms: N1_33  and  C26_34 
REMARK   11  A    between atoms: C26_34  and  C27_35 
REMARK   12  A    between atoms: C27_35  and  C28_36 
REMARK   13  A    between atoms: C31_39  and  O8_40 
REMARK   14  A    between atoms: C32_41  and  O9_42 
ROOT
HETATM    1  C1  UNL     1      -7.467   4.973  15.673  1.00  0.00     0.025 C 
HETATM    2  C2  UNL     1      -7.015   5.746  14.416  1.00  0.00     0.004 A 
HETATM    3  C3  UNL     1      -7.053   4.754  13.254  1.00  0.00    -0.009 A 
HETATM    4  C4  UNL     1      -5.994   4.308  12.565  1.00  0.00     0.052 A 
HETATM    5  C5  UNL     1      -4.635   4.777  12.876  1.00  0.00     0.172 A 
HETATM    6  O1  UNL     1      -3.657   4.352  12.273  1.00  0.00    -0.289 OA
HETATM    7  C6  UNL     1      -4.504   5.798  13.930  1.00  0.00     0.058 A 
HETATM    8  C7  UNL     1      -5.564   6.255  14.625  1.00  0.00    -0.064 A 
HETATM    9  C8  UNL     1      -5.356   7.380  15.610  1.00  0.00     0.036 C 
HETATM   10  C9  UNL     1      -6.251   8.570  15.270  1.00  0.00     0.010 C 
HETATM   11  C10 UNL     1      -7.708   8.117  15.235  1.00  0.00    -0.002 C 
HETATM   12  C11 UNL     1      -7.926   7.006  14.151  1.00  0.00     0.035 C 
HETATM   13  C12 UNL     1      -9.454   6.846  13.804  1.00  0.00     0.124 C 
HETATM   14  C13 UNL     1     -10.478   7.434  14.799  1.00  0.00     0.045 C 
HETATM   15  C14 UNL     1     -10.130   8.799  15.437  1.00  0.00     0.001 C 
HETATM   16  C15 UNL     1     -10.249   8.640  16.984  1.00  0.00     0.019 C 
HETATM   17  C16 UNL     1      -8.716   9.224  14.960  1.00  0.00     0.002 C 
HETATM   18  C17 UNL     1      -8.552  10.620  15.526  1.00  0.00     0.009 C 
HETATM   19  C18 UNL     1      -9.953  11.236  15.326  1.00  0.00     0.047 C 
HETATM   20  C19 UNL     1     -10.931  10.059  14.988  1.00  0.00     0.128 C 
ENDROOT
BRANCH  20  21
HETATM   21  O3  UNL     1     -11.116  10.013  13.569  1.00  0.00    -0.381 OA
HETATM   22  H25 UNL     1     -11.355  10.910  13.268  1.00  0.00     0.211 HD
ENDBRANCH  20  21
BRANCH  20  23
HETATM   23  C20 UNL     1     -12.317  10.245  15.656  1.00  0.00     0.185 C 
HETATM   24  O4  UNL     1     -12.430  10.702  16.796  1.00  0.00    -0.292 OA
BRANCH  23  25
HETATM   25  C21 UNL     1     -13.538   9.849  14.831  1.00  0.00     0.260 C 
BRANCH  25  26
HETATM   26  O5  UNL     1     -13.537   8.438  14.597  1.00  0.00    -0.314 OA
BRANCH  26  27
HETATM   27  C22 UNL     1     -13.745   8.091  13.300  1.00  0.00     0.259 C 
HETATM   28  O6  UNL     1     -13.830   8.886  12.372  1.00  0.00    -0.265 OA
BRANCH  27  29
HETATM   29  C23 UNL     1     -13.884   6.600  13.160  1.00  0.00     0.120 C 
BRANCH  29  30
HETATM   30  C24 UNL     1     -14.210   5.955  14.499  1.00  0.00     0.112 C 
BRANCH  30  31
HETATM   31  C25 UNL     1     -15.411   5.040  14.407  1.00  0.00     0.218 C 
HETATM   32  O7  UNL     1     -16.515   5.402  14.018  1.00  0.00    -0.274 OA
HETATM   33  N1  UNL     1     -15.130   3.749  14.800  1.00  0.00    -0.361 N 
HETATM   34  H32 UNL     1     -14.191   3.508  15.090  1.00  0.00     0.162 HD
BRANCH  33  35
HETATM   35  C26 UNL     1     -16.138   2.706  14.780  1.00  0.00     0.127 C 
BRANCH  35  36
HETATM   36  C27 UNL     1     -15.705   1.503  13.939  1.00  0.00     0.058 C 
BRANCH  36  37
HETATM   37  C28 UNL     1     -15.762   0.222  14.733  1.00  0.00    -0.054 A 
HETATM   38  C29 UNL     1     -15.543  -1.015  14.102  1.00  0.00     0.010 A 
HETATM   39  C30 UNL     1     -15.569  -2.202  14.838  1.00  0.00     0.040 A 
HETATM   40  C31 UNL     1     -15.813  -2.148  16.202  1.00  0.00     0.098 A 
HETATM   41  C32 UNL     1     -16.030  -0.930  16.840  1.00  0.00     0.099 A 
HETATM   42  C33 UNL     1     -16.005   0.257  16.116  1.00  0.00     0.046 A 
BRANCH  40  43
HETATM   43  O8  UNL     1     -15.837  -3.308  16.922  1.00  0.00    -0.358 OA
HETATM   44  H39 UNL     1     -16.034  -3.022  17.836  1.00  0.00     0.217 HD
ENDBRANCH  40  43
BRANCH  41  45
HETATM   45  O9  UNL     1     -16.263  -0.950  18.187  1.00  0.00    -0.358 OA
HETATM   46  H40 UNL     1     -16.401  -0.034  18.482  1.00  0.00     0.217 HD
ENDBRANCH  41  45
ENDBRANCH  36  37
ENDBRANCH  35  36
ENDBRANCH  33  35
ENDBRANCH  30  31
ENDBRANCH  29  30
ENDBRANCH  27  29
ENDBRANCH  26  27
ENDBRANCH  25  26
ENDBRANCH  23  25
ENDBRANCH  20  23
BRANCH  13  47
HETATM   47  O2  UNL     1      -9.840   5.501  13.555  1.00  0.00    -0.395 OA
HETATM   48  H14 UNL     1     -10.739   5.515  13.180  1.00  0.00     0.210 HD
ENDBRANCH  13  47
TORSDOF 14
ENDMDL
MODEL 7
REMARK minimizedAffinity -8.29195309
REMARK CNNscore 0.318090141
REMARK CNNaffinity 6.02629614
REMARK  14 active torsions:
REMARK  status: ('A' for Active; 'I' for Inactive)
REMARK    1  A    between atoms: C12_13  and  O2_14 
REMARK    2  A    between atoms: C19_21  and  O3_22 
REMARK    3  A    between atoms: C19_21  and  C20_23 
REMARK    4  A    between atoms: C20_23  and  C21_25 
REMARK    5  A    between atoms: C21_25  and  O5_26 
REMARK    6  A    between atoms: O5_26  and  C22_27 
REMARK    7  A    between atoms: C22_27  and  C23_29 
REMARK    8  A    between atoms: C23_29  and  C24_30 
REMARK    9  A    between atoms: C24_30  and  C25_31 
REMARK       I    between atoms: C25_31  and  N1_33 
REMARK   10  A    between atoms: N1_33  and  C26_34 
REMARK   11  A    between atoms: C26_34  and  C27_35 
REMARK   12  A    between atoms: C27_35  and  C28_36 
REMARK   13  A    between atoms: C31_39  and  O8_40 
REMARK   14  A    between atoms: C32_41  and  O9_42 
ROOT
HETATM    1  C1  UNL     1      -1.257   5.323  10.564  1.00  0.00     0.025 C 
HETATM    2  C2  UNL     1      -1.251   4.307  11.725  1.00  0.00     0.004 A 
HETATM    3  C3  UNL     1      -0.140   3.302  11.421  1.00  0.00    -0.009 A 
HETATM    4  C4  UNL     1      -0.308   2.002  11.146  1.00  0.00     0.052 A 
HETATM    5  C5  UNL     1      -1.649   1.397  11.130  1.00  0.00     0.172 A 
HETATM    6  O1  UNL     1      -1.817   0.218  10.848  1.00  0.00    -0.289 OA
HETATM    7  C6  UNL     1      -2.780   2.270  11.490  1.00  0.00     0.058 A 
HETATM    8  C7  UNL     1      -2.619   3.578  11.773  1.00  0.00    -0.064 A 
HETATM    9  C8  UNL     1      -3.816   4.372  12.239  1.00  0.00     0.036 C 
HETATM   10  C9  UNL     1      -3.546   5.004  13.603  1.00  0.00     0.010 C 
HETATM   11  C10 UNL     1      -2.293   5.872  13.524  1.00  0.00    -0.002 C 
HETATM   12  C11 UNL     1      -1.043   5.018  13.118  1.00  0.00     0.035 C 
HETATM   13  C12 UNL     1       0.294   5.779  13.451  1.00  0.00     0.124 C 
HETATM   14  C13 UNL     1       0.207   7.301  13.698  1.00  0.00     0.045 C 
HETATM   15  C14 UNL     1      -1.009   7.810  14.506  1.00  0.00     0.001 C 
HETATM   16  C15 UNL     1      -1.690   8.938  13.671  1.00  0.00     0.019 C 
HETATM   17  C16 UNL     1      -1.942   6.609  14.809  1.00  0.00     0.002 C 
HETATM   18  C17 UNL     1      -3.005   7.199  15.714  1.00  0.00     0.009 C 
HETATM   19  C18 UNL     1      -2.192   8.147  16.620  1.00  0.00     0.047 C 
HETATM   20  C19 UNL     1      -0.780   8.318  15.962  1.00  0.00     0.128 C 
ENDROOT
BRANCH  20  21
HETATM   21  O3  UNL     1       0.140   7.442  16.622  1.00  0.00    -0.381 OA
HETATM   22  H25 UNL     1       0.060   7.591  17.583  1.00  0.00     0.211 HD
ENDBRANCH  20  21
BRANCH  20  23
HETATM   23  C20 UNL     1      -0.250   9.769  16.090  1.00  0.00     0.185 C 
HETATM   24  O4  UNL     1       0.320  10.335  15.154  1.00  0.00    -0.292 OA
BRANCH  23  25
HETATM   25  C21 UNL     1      -0.479  10.471  17.425  1.00  0.00     0.260 C 
BRANCH  25  26
HETATM   26  O5  UNL     1      -0.622  11.879  17.221  1.00  0.00    -0.314 OA
BRANCH  26  27
HETATM   27  C22 UNL     1      -0.859  12.583  18.359  1.00  0.00     0.259 C 
HETATM   28  O6  UNL     1      -1.745  13.418  18.488  1.00  0.00    -0.265 OA
BRANCH  27  29
HETATM   29  C23 UNL     1       0.129  12.215  19.432  1.00  0.00     0.120 C 
BRANCH  29  30
HETATM   30  C24 UNL     1       0.632  13.454  20.158  1.00  0.00     0.112 C 
BRANCH  30  31
HETATM   31  C25 UNL     1       1.912  13.184  20.916  1.00  0.00     0.218 C 
HETATM   32  O7  UNL     1       2.806  12.455  20.505  1.00  0.00    -0.274 OA
HETATM   33  N1  UNL     1       1.971  13.854  22.119  1.00  0.00    -0.361 N 
HETATM   34  H32 UNL     1       1.209  14.461  22.392  1.00  0.00     0.162 HD
BRANCH  33  35
HETATM   35  C26 UNL     1       3.118  13.744  23.001  1.00  0.00     0.127 C 
BRANCH  35  36
HETATM   36  C27 UNL     1       4.207  14.764  22.659  1.00  0.00     0.058 C 
BRANCH  36  37
HETATM   37  C28 UNL     1       5.587  14.206  22.909  1.00  0.00    -0.054 A 
HETATM   38  C29 UNL     1       5.816  12.820  22.833  1.00  0.00     0.010 A 
HETATM   39  C30 UNL     1       7.096  12.301  23.038  1.00  0.00     0.040 A 
HETATM   40  C31 UNL     1       8.143  13.169  23.314  1.00  0.00     0.098 A 
HETATM   41  C32 UNL     1       7.930  14.541  23.390  1.00  0.00     0.099 A 
HETATM   42  C33 UNL     1       6.659  15.069  23.187  1.00  0.00     0.046 A 
BRANCH  40  43
HETATM   43  O8  UNL     1       9.395  12.661  23.512  1.00  0.00    -0.358 OA
HETATM   44  H39 UNL     1       9.947  13.446  23.698  1.00  0.00     0.217 HD
ENDBRANCH  40  43
BRANCH  41  45
HETATM   45  O9  UNL     1       9.007  15.338  23.664  1.00  0.00    -0.358 OA
HETATM   46  H40 UNL     1       8.699  16.260  23.690  1.00  0.00     0.217 HD
ENDBRANCH  41  45
ENDBRANCH  36  37
ENDBRANCH  35  36
ENDBRANCH  33  35
ENDBRANCH  30  31
ENDBRANCH  29  30
ENDBRANCH  27  29
ENDBRANCH  26  27
ENDBRANCH  25  26
ENDBRANCH  23  25
ENDBRANCH  20  23
BRANCH  13  47
HETATM   47  O2  UNL     1       1.319   5.573  12.486  1.00  0.00    -0.395 OA
HETATM   48  H14 UNL     1       2.149   5.924  12.855  1.00  0.00     0.210 HD
ENDBRANCH  13  47
TORSDOF 14
ENDMDL
MODEL 8
REMARK minimizedAffinity -9.49812794
REMARK CNNscore 0.314064771
REMARK CNNaffinity 6.89306498
REMARK  14 active torsions:
REMARK  status: ('A' for Active; 'I' for Inactive)
REMARK    1  A    between atoms: C12_13  and  O2_14 
REMARK    2  A    between atoms: C19_21  and  O3_22 
REMARK    3  A    between atoms: C19_21  and  C20_23 
REMARK    4  A    between atoms: C20_23  and  C21_25 
REMARK    5  A    between atoms: C21_25  and  O5_26 
REMARK    6  A    between atoms: O5_26  and  C22_27 
REMARK    7  A    between atoms: C22_27  and  C23_29 
REMARK    8  A    between atoms: C23_29  and  C24_30 
REMARK    9  A    between atoms: C24_30  and  C25_31 
REMARK       I    between atoms: C25_31  and  N1_33 
REMARK   10  A    between atoms: N1_33  and  C26_34 
REMARK   11  A    between atoms: C26_34  and  C27_35 
REMARK   12  A    between atoms: C27_35  and  C28_36 
REMARK   13  A    between atoms: C31_39  and  O8_40 
REMARK   14  A    between atoms: C32_41  and  O9_42 
ROOT
HETATM    1  C1  UNL     1      -6.920   5.835  16.229  1.00  0.00     0.025 C 
HETATM    2  C2  UNL     1      -7.118   6.518  14.859  1.00  0.00     0.004 A 
HETATM    3  C3  UNL     1      -7.990   7.748  15.106  1.00  0.00    -0.009 A 
HETATM    4  C4  UNL     1      -9.235   7.935  14.648  1.00  0.00     0.052 A 
HETATM    5  C5  UNL     1      -9.895   6.921  13.809  1.00  0.00     0.172 A 
HETATM    6  O1  UNL     1     -11.044   7.067  13.413  1.00  0.00    -0.289 OA
HETATM    7  C6  UNL     1      -9.103   5.732  13.450  1.00  0.00     0.058 A 
HETATM    8  C7  UNL     1      -7.848   5.539  13.903  1.00  0.00    -0.064 A 
HETATM    9  C8  UNL     1      -7.070   4.348  13.397  1.00  0.00     0.036 C 
HETATM   10  C9  UNL     1      -5.764   4.795  12.742  1.00  0.00     0.010 C 
HETATM   11  C10 UNL     1      -4.949   5.615  13.739  1.00  0.00    -0.002 C 
HETATM   12  C11 UNL     1      -5.738   6.892  14.193  1.00  0.00     0.035 C 
HETATM   13  C12 UNL     1      -4.774   7.946  14.855  1.00  0.00     0.124 C 
HETATM   14  C13 UNL     1      -3.390   7.451  15.328  1.00  0.00     0.045 C 
HETATM   15  C14 UNL     1      -2.661   6.437  14.417  1.00  0.00     0.001 C 
HETATM   16  C15 UNL     1      -2.267   5.211  15.298  1.00  0.00     0.019 C 
HETATM   17  C16 UNL     1      -3.592   6.078  13.229  1.00  0.00     0.002 C 
HETATM   18  C17 UNL     1      -2.724   5.205  12.345  1.00  0.00     0.009 C 
HETATM   19  C18 UNL     1      -1.349   5.899  12.424  1.00  0.00     0.047 C 
HETATM   20  C19 UNL     1      -1.412   6.915  13.616  1.00  0.00     0.128 C 
ENDROOT
BRANCH  20  21
HETATM   21  O3  UNL     1      -1.667   8.221  13.090  1.00  0.00    -0.381 OA
HETATM   22  H25 UNL     1      -1.023   8.389  12.377  1.00  0.00     0.211 HD
ENDBRANCH  20  21
BRANCH  20  23
HETATM   23  C20 UNL     1      -0.083   6.960  14.412  1.00  0.00     0.185 C 
HETATM   24  O4  UNL     1       0.786   6.095  14.272  1.00  0.00    -0.292 OA
BRANCH  23  25
HETATM   25  C21 UNL     1       0.108   8.133  15.369  1.00  0.00     0.260 C 
BRANCH  25  26
HETATM   26  O5  UNL     1       1.435   8.653  15.251  1.00  0.00    -0.314 OA
BRANCH  26  27
HETATM   27  C22 UNL     1       1.726   9.155  14.023  1.00  0.00     0.259 C 
HETATM   28  O6  UNL     1       0.899   9.609  13.243  1.00  0.00    -0.265 OA
BRANCH  27  29
HETATM   29  C23 UNL     1       3.200   9.055  13.740  1.00  0.00     0.120 C 
BRANCH  29  30
HETATM   30  C24 UNL     1       3.511   7.826  12.898  1.00  0.00     0.112 C 
BRANCH  30  31
HETATM   31  C25 UNL     1       3.850   8.190  11.470  1.00  0.00     0.218 C 
HETATM   32  O7  UNL     1       4.891   8.743  11.137  1.00  0.00    -0.274 OA
HETATM   33  N1  UNL     1       2.865   7.826  10.578  1.00  0.00    -0.361 N 
HETATM   34  H32 UNL     1       2.037   7.351  10.914  1.00  0.00     0.162 HD
BRANCH  33  35
HETATM   35  C26 UNL     1       2.991   8.072   9.154  1.00  0.00     0.127 C 
BRANCH  35  36
HETATM   36  C27 UNL     1       2.071   7.169   8.329  1.00  0.00     0.058 C 
BRANCH  36  37
HETATM   37  C28 UNL     1       2.750   5.872   7.963  1.00  0.00    -0.054 A 
HETATM   38  C29 UNL     1       2.806   5.454   6.622  1.00  0.00     0.010 A 
HETATM   39  C30 UNL     1       3.456   4.268   6.275  1.00  0.00     0.040 A 
HETATM   40  C31 UNL     1       4.050   3.505   7.270  1.00  0.00     0.098 A 
HETATM   41  C32 UNL     1       4.003   3.908   8.601  1.00  0.00     0.099 A 
HETATM   42  C33 UNL     1       3.359   5.088   8.957  1.00  0.00     0.046 A 
BRANCH  40  43
HETATM   43  O8  UNL     1       4.687   2.346   6.930  1.00  0.00    -0.358 OA
HETATM   44  H39 UNL     1       5.006   1.987   7.782  1.00  0.00     0.217 HD
ENDBRANCH  40  43
BRANCH  41  45
HETATM   45  O9  UNL     1       4.611   3.109   9.529  1.00  0.00    -0.358 OA
HETATM   46  H40 UNL     1       4.488   3.516  10.403  1.00  0.00     0.217 HD
ENDBRANCH  41  45
ENDBRANCH  36  37
ENDBRANCH  35  36
ENDBRANCH  33  35
ENDBRANCH  30  31
ENDBRANCH  29  30
ENDBRANCH  27  29
ENDBRANCH  26  27
ENDBRANCH  25  26
ENDBRANCH  23  25
ENDBRANCH  20  23
BRANCH  13  47
HETATM   47  O2  UNL     1      -5.362   8.643  15.947  1.00  0.00    -0.395 OA
HETATM   48  H14 UNL     1      -4.773   9.385  16.176  1.00  0.00     0.210 HD
ENDBRANCH  13  47
TORSDOF 14
ENDMDL
MODEL 9
REMARK minimizedAffinity -8.5735054
REMARK CNNscore 0.305515021
REMARK CNNaffinity 6.831038
REMARK  14 active torsions:
REMARK  status: ('A' for Active; 'I' for Inactive)
REMARK    1  A    between atoms: C12_13  and  O2_14 
REMARK    2  A    between atoms: C19_21  and  O3_22 
REMARK    3  A    between atoms: C19_21  and  C20_23 
REMARK    4  A    between atoms: C20_23  and  C21_25 
REMARK    5  A    between atoms: C21_25  and  O5_26 
REMARK    6  A    between atoms: O5_26  and  C22_27 
REMARK    7  A    between atoms: C22_27  and  C23_29 
REMARK    8  A    between atoms: C23_29  and  C24_30 
REMARK    9  A    between atoms: C24_30  and  C25_31 
REMARK       I    between atoms: C25_31  and  N1_33 
REMARK   10  A    between atoms: N1_33  and  C26_34 
REMARK   11  A    between atoms: C26_34  and  C27_35 
REMARK   12  A    between atoms: C27_35  and  C28_36 
REMARK   13  A    between atoms: C31_39  and  O8_40 
REMARK   14  A    between atoms: C32_41  and  O9_42 
ROOT
HETATM    1  C1  UNL     1      -7.455   4.665  15.468  1.00  0.00     0.025 C 
HETATM    2  C2  UNL     1      -6.987   5.470  14.237  1.00  0.00     0.004 A 
HETATM    3  C3  UNL     1      -7.004   4.505  13.051  1.00  0.00    -0.009 A 
HETATM    4  C4  UNL     1      -5.933   4.080  12.367  1.00  0.00     0.052 A 
HETATM    5  C5  UNL     1      -4.581   4.547  12.709  1.00  0.00     0.172 A 
HETATM    6  O1  UNL     1      -3.593   4.140  12.111  1.00  0.00    -0.289 OA
HETATM    7  C6  UNL     1      -4.470   5.542  13.789  1.00  0.00     0.058 A 
HETATM    8  C7  UNL     1      -5.542   5.979  14.479  1.00  0.00    -0.064 A 
HETATM    9  C8  UNL     1      -5.353   7.081  15.494  1.00  0.00     0.036 C 
HETATM   10  C9  UNL     1      -6.248   8.275  15.168  1.00  0.00     0.010 C 
HETATM   11  C10 UNL     1      -7.702   7.817  15.101  1.00  0.00    -0.002 C 
HETATM   12  C11 UNL     1      -7.899   6.732  13.988  1.00  0.00     0.035 C 
HETATM   13  C12 UNL     1      -9.421   6.575  13.614  1.00  0.00     0.124 C 
HETATM   14  C13 UNL     1     -10.462   7.135  14.608  1.00  0.00     0.045 C 
HETATM   15  C14 UNL     1     -10.130   8.485  15.283  1.00  0.00     0.001 C 
HETATM   16  C15 UNL     1     -10.271   8.290  16.824  1.00  0.00     0.019 C 
HETATM   17  C16 UNL     1      -8.711   8.927  14.838  1.00  0.00     0.002 C 
HETATM   18  C17 UNL     1      -8.561  10.310  15.439  1.00  0.00     0.009 C 
HETATM   19  C18 UNL     1      -9.961  10.926  15.233  1.00  0.00     0.047 C 
HETATM   20  C19 UNL     1     -10.929   9.753  14.852  1.00  0.00     0.128 C 
ENDROOT
BRANCH  20  21
HETATM   21  O3  UNL     1     -11.093   9.740  13.431  1.00  0.00    -0.381 OA
HETATM   22  H25 UNL     1     -11.331  10.643  13.147  1.00  0.00     0.211 HD
ENDBRANCH  20  21
BRANCH  20  23
HETATM   23  C20 UNL     1     -12.325   9.918  15.504  1.00  0.00     0.185 C 
HETATM   24  O4  UNL     1     -12.545  10.784  16.354  1.00  0.00    -0.292 OA
BRANCH  23  25
HETATM   25  C21 UNL     1     -13.422   8.966  15.034  1.00  0.00     0.260 C 
BRANCH  25  26
HETATM   26  O5  UNL     1     -14.239   9.605  14.051  1.00  0.00    -0.314 OA
BRANCH  26  27
HETATM   27  C22 UNL     1     -14.203   9.012  12.829  1.00  0.00     0.259 C 
HETATM   28  O6  UNL     1     -13.301   8.285  12.435  1.00  0.00    -0.265 OA
BRANCH  27  29
HETATM   29  C23 UNL     1     -15.409   9.392  12.014  1.00  0.00     0.120 C 
BRANCH  29  30
HETATM   30  C24 UNL     1     -16.694   9.118  12.781  1.00  0.00     0.112 C 
BRANCH  30  31
HETATM   31  C25 UNL     1     -17.350   7.828  12.344  1.00  0.00     0.218 C 
HETATM   32  O7  UNL     1     -18.264   7.770  11.531  1.00  0.00    -0.274 OA
HETATM   33  N1  UNL     1     -16.803   6.719  12.951  1.00  0.00    -0.361 N 
HETATM   34  H32 UNL     1     -16.033   6.831  13.598  1.00  0.00     0.162 HD
BRANCH  33  35
HETATM   35  C26 UNL     1     -17.277   5.377  12.667  1.00  0.00     0.127 C 
BRANCH  35  36
HETATM   36  C27 UNL     1     -17.471   4.552  13.941  1.00  0.00     0.058 C 
BRANCH  36  37
HETATM   37  C28 UNL     1     -16.844   3.186  13.818  1.00  0.00    -0.054 A 
HETATM   38  C29 UNL     1     -17.235   2.316  12.784  1.00  0.00     0.010 A 
HETATM   39  C30 UNL     1     -16.640   1.060  12.651  1.00  0.00     0.040 A 
HETATM   40  C31 UNL     1     -15.654   0.679  13.549  1.00  0.00     0.098 A 
HETATM   41  C32 UNL     1     -15.257   1.530  14.575  1.00  0.00     0.099 A 
HETATM   42  C33 UNL     1     -15.843   2.783  14.717  1.00  0.00     0.046 A 
BRANCH  40  43
HETATM   43  O8  UNL     1     -15.071  -0.549  13.417  1.00  0.00    -0.358 OA
HETATM   44  H39 UNL     1     -14.431  -0.594  14.154  1.00  0.00     0.217 HD
ENDBRANCH  40  43
BRANCH  41  45
HETATM   45  O9  UNL     1     -14.279   1.090  15.423  1.00  0.00    -0.358 OA
HETATM   46  H40 UNL     1     -14.118   1.786  16.083  1.00  0.00     0.217 HD
ENDBRANCH  41  45
ENDBRANCH  36  37
ENDBRANCH  35  36
ENDBRANCH  33  35
ENDBRANCH  30  31
ENDBRANCH  29  30
ENDBRANCH  27  29
ENDBRANCH  26  27
ENDBRANCH  25  26
ENDBRANCH  23  25
ENDBRANCH  20  23
BRANCH  13  47
HETATM   47  O2  UNL     1      -9.798   5.234  13.328  1.00  0.00    -0.395 OA
HETATM   48  H14 UNL     1     -10.692   5.254  12.940  1.00  0.00     0.210 HD
ENDBRANCH  13  47
TORSDOF 14
ENDMDL
