MODEL 1
REMARK minimizedAffinity -9.01457214
REMARK  8 active torsions:
REMARK  status: ('A' for Active; 'I' for Inactive)
REMARK    1  A    between atoms: C12_14  and  C13_15 
REMARK    2  A    between atoms: C13_15  and  C15_17 
REMARK    3  A    between atoms: C15_17  and  C16_18 
REMARK    4  A    between atoms: C16_18  and  C17_19 
REMARK    5  A    between atoms: C26_28  and  C27_29 
REMARK    6  A    between atoms: C27_29  and  C28_30 
REMARK    7  A    between atoms: C28_30  and  C29_31 
REMARK    8  A    between atoms: C29_31  and  O4_33 
ROOT
HETATM    1  C1  UNL     1       6.399   7.400  10.922  1.00  0.00     0.025 C 
HETATM    2  C2  UNL     1       5.299   7.792  11.574  1.00  0.00     0.015 C 
HETATM    3  C3  UNL     1       5.221   7.836  13.051  1.00  0.00     0.289 C 
HETATM    4  O1  UNL     1       6.021   7.357  13.832  1.00  0.00    -0.260 OA
HETATM    5  O2  UNL     1       4.078   8.492  13.386  1.00  0.00    -0.311 OA
HETATM    6  C4  UNL     1       3.506   9.086  12.213  1.00  0.00     0.142 C 
HETATM    7  C5  UNL     1       1.990   9.169  12.330  1.00  0.00     0.039 C 
HETATM    8  C6  UNL     1       1.358   7.775  12.459  1.00  0.00     0.006 C 
HETATM    9  C7  UNL     1       1.689   6.919  11.214  1.00  0.00    -0.027 A 
HETATM   10  C8  UNL     1       0.495   6.409  10.404  1.00  0.00     0.011 C 
HETATM   11  C9  UNL     1      -0.717   5.902  11.209  1.00  0.00     0.011 C 
HETATM   12  C10 UNL     1      -0.746   6.343  12.681  1.00  0.00    -0.032 C 
HETATM   13  C11 UNL     1       0.049   5.294  13.515  1.00  0.00     0.016 C 
HETATM   14  C12 UNL     1      -2.162   6.523  13.327  1.00  0.00    -0.002 C 
HETATM   15  C21 UNL     1      -1.875   7.515  14.493  1.00  0.00     0.006 C 
HETATM   16  C22 UNL     1      -0.508   8.169  14.228  1.00  0.00     0.011 C 
HETATM   17  C23 UNL     1      -0.167   7.802  12.772  1.00  0.00    -0.032 C 
HETATM   18  C24 UNL     1      -0.899   8.853  11.878  1.00  0.00     0.016 C 
HETATM   19  C25 UNL     1       2.849   5.956  11.349  1.00  0.00     0.022 A 
HETATM   20  C26 UNL     1       3.045   7.193  10.498  1.00  0.00    -0.021 A 
HETATM   21  C30 UNL     1       4.003   8.282  11.019  1.00  0.00     0.063 C 
ENDROOT
BRANCH  14  22
HETATM   22  C13 UNL     1      -2.976   5.276  13.796  1.00  0.00    -0.014 C 
HETATM   23  C14 UNL     1      -3.398   4.393  12.617  1.00  0.00     0.010 C 
BRANCH  22  24
HETATM   24  C15 UNL     1      -4.226   5.725  14.609  1.00  0.00     0.008 C 
BRANCH  24  25
HETATM   25  C16 UNL     1      -5.501   5.866  13.768  1.00  0.00     0.028 C 
BRANCH  25  26
HETATM   26  C17 UNL     1      -6.364   4.652  13.523  1.00  0.00    -0.025 C 
HETATM   27  C18 UNL     1      -7.554   4.483  12.912  1.00  0.00    -0.091 C 
HETATM   28  C19 UNL     1      -8.201   3.119  12.889  1.00  0.00     0.042 C 
HETATM   29  C20 UNL     1      -8.345   5.544  12.201  1.00  0.00     0.042 C 
ENDBRANCH  25  26
ENDBRANCH  24  25
ENDBRANCH  22  24
ENDBRANCH  14  22
BRANCH  20  30
HETATM   30  C27 UNL     1       3.190   6.941   8.993  1.00  0.00     0.021 C 
BRANCH  30  31
HETATM   31  C28 UNL     1       2.746   8.126   8.136  1.00  0.00     0.111 C 
BRANCH  31  32
HETATM   32  C29 UNL     1       1.619   7.737   7.219  1.00  0.00     0.139 C 
HETATM   33  O3  UNL     1       1.692   7.097   6.185  1.00  0.00    -0.650 OA
BRANCH  32  34
HETATM   34  O4  UNL     1       0.432   8.205   7.654  1.00  0.00    -0.776 OA
HETATM   35  H43 UNL     1      -0.207   7.897   6.977  1.00  0.00     0.167 HD
ENDBRANCH  32  34
ENDBRANCH  31  32
ENDBRANCH  30  31
ENDBRANCH  20  30
TORSDOF 8
ENDMDL
MODEL 2
REMARK minimizedAffinity -8.96667957
REMARK  8 active torsions:
REMARK  status: ('A' for Active; 'I' for Inactive)
REMARK    1  A    between atoms: C12_14  and  C13_15 
REMARK    2  A    between atoms: C13_15  and  C15_17 
REMARK    3  A    between atoms: C15_17  and  C16_18 
REMARK    4  A    between atoms: C16_18  and  C17_19 
REMARK    5  A    between atoms: C26_28  and  C27_29 
REMARK    6  A    between atoms: C27_29  and  C28_30 
REMARK    7  A    between atoms: C28_30  and  C29_31 
REMARK    8  A    between atoms: C29_31  and  O4_33 
ROOT
HETATM    1  C1  UNL     1       5.280   8.844   9.888  1.00  0.00     0.025 C 
HETATM    2  C2  UNL     1       4.221   8.029   9.933  1.00  0.00     0.015 C 
HETATM    3  C3  UNL     1       3.190   8.002   8.871  1.00  0.00     0.289 C 
HETATM    4  O1  UNL     1       3.058   8.809   7.970  1.00  0.00    -0.260 OA
HETATM    5  O2  UNL     1       2.395   6.922   9.093  1.00  0.00    -0.311 OA
HETATM    6  C4  UNL     1       2.979   6.099  10.112  1.00  0.00     0.142 C 
HETATM    7  C5  UNL     1       1.903   5.362  10.898  1.00  0.00     0.039 C 
HETATM    8  C6  UNL     1       0.963   6.339  11.618  1.00  0.00     0.006 C 
HETATM    9  C7  UNL     1       1.758   7.213  12.615  1.00  0.00    -0.027 A 
HETATM   10  C8  UNL     1       1.341   7.121  14.084  1.00  0.00     0.011 C 
HETATM   11  C9  UNL     1      -0.173   7.067  14.368  1.00  0.00     0.011 C 
HETATM   12  C10 UNL     1      -1.045   6.705  13.155  1.00  0.00    -0.032 C 
HETATM   13  C11 UNL     1      -1.391   8.024  12.398  1.00  0.00     0.016 C 
HETATM   14  C12 UNL     1      -2.379   5.942  13.458  1.00  0.00    -0.002 C 
HETATM   15  C21 UNL     1      -2.664   5.215  12.111  1.00  0.00     0.006 C 
HETATM   16  C22 UNL     1      -1.363   5.221  11.290  1.00  0.00     0.011 C 
HETATM   17  C23 UNL     1      -0.268   5.654  12.282  1.00  0.00    -0.032 C 
HETATM   18  C24 UNL     1       0.161   4.360  13.046  1.00  0.00     0.016 C 
HETATM   19  C25 UNL     1       2.156   8.592  12.132  1.00  0.00     0.022 A 
HETATM   20  C26 UNL     1       3.238   7.541  12.255  1.00  0.00    -0.021 A 
HETATM   21  C30 UNL     1       3.870   7.002  10.956  1.00  0.00     0.063 C 
ENDROOT
BRANCH  14  22
HETATM   22  C13 UNL     1      -3.626   6.718  13.989  1.00  0.00    -0.014 C 
HETATM   23  C14 UNL     1      -3.590   6.884  15.512  1.00  0.00     0.010 C 
BRANCH  22  24
HETATM   24  C15 UNL     1      -4.935   5.995  13.554  1.00  0.00     0.008 C 
BRANCH  24  25
HETATM   25  C16 UNL     1      -4.701   4.674  12.810  1.00  0.00     0.028 C 
BRANCH  25  26
HETATM   26  C17 UNL     1      -5.748   3.590  12.879  1.00  0.00    -0.025 C 
HETATM   27  C18 UNL     1      -7.081   3.590  12.672  1.00  0.00    -0.091 C 
HETATM   28  C19 UNL     1      -7.876   2.324  12.888  1.00  0.00     0.042 C 
HETATM   29  C20 UNL     1      -7.907   4.756  12.211  1.00  0.00     0.042 C 
ENDBRANCH  25  26
ENDBRANCH  24  25
ENDBRANCH  22  24
ENDBRANCH  14  22
BRANCH  20  30
HETATM   30  C27 UNL     1       4.269   7.783  13.364  1.00  0.00     0.021 C 
BRANCH  30  31
HETATM   31  C28 UNL     1       5.591   8.351  12.847  1.00  0.00     0.111 C 
BRANCH  31  32
HETATM   32  C29 UNL     1       6.732   7.416  13.143  1.00  0.00     0.139 C 
HETATM   33  O3  UNL     1       7.797   7.338  12.556  1.00  0.00    -0.650 OA
BRANCH  32  34
HETATM   34  O4  UNL     1       6.454   6.594  14.173  1.00  0.00    -0.776 OA
HETATM   35  H43 UNL     1       7.259   6.038  14.257  1.00  0.00     0.167 HD
ENDBRANCH  32  34
ENDBRANCH  31  32
ENDBRANCH  30  31
ENDBRANCH  20  30
TORSDOF 8
ENDMDL
MODEL 3
REMARK minimizedAffinity -8.6997757
REMARK  8 active torsions:
REMARK  status: ('A' for Active; 'I' for Inactive)
REMARK    1  A    between atoms: C12_14  and  C13_15 
REMARK    2  A    between atoms: C13_15  and  C15_17 
REMARK    3  A    between atoms: C15_17  and  C16_18 
REMARK    4  A    between atoms: C16_18  and  C17_19 
REMARK    5  A    between atoms: C26_28  and  C27_29 
REMARK    6  A    between atoms: C27_29  and  C28_30 
REMARK    7  A    between atoms: C28_30  and  C29_31 
REMARK    8  A    between atoms: C29_31  and  O4_33 
ROOT
HETATM    1  C1  UNL     1     -10.007   6.771  13.930  1.00  0.00     0.025 C 
HETATM    2  C2  UNL     1      -8.836   6.931  14.556  1.00  0.00     0.015 C 
HETATM    3  C3  UNL     1      -8.454   8.197  15.221  1.00  0.00     0.289 C 
HETATM    4  O1  UNL     1      -9.025   9.267  15.122  1.00  0.00    -0.260 OA
HETATM    5  O2  UNL     1      -7.333   7.959  15.952  1.00  0.00    -0.311 OA
HETATM    6  C4  UNL     1      -7.077   6.549  15.991  1.00  0.00     0.142 C 
HETATM    7  C5  UNL     1      -5.585   6.270  16.109  1.00  0.00     0.039 C 
HETATM    8  C6  UNL     1      -4.813   6.814  14.898  1.00  0.00     0.006 C 
HETATM    9  C7  UNL     1      -5.316   6.147  13.597  1.00  0.00    -0.027 A 
HETATM   10  C8  UNL     1      -4.278   5.370  12.786  1.00  0.00     0.011 C 
HETATM   11  C9  UNL     1      -2.881   6.010  12.662  1.00  0.00     0.011 C 
HETATM   12  C10 UNL     1      -2.585   7.118  13.685  1.00  0.00    -0.032 C 
HETATM   13  C11 UNL     1      -3.087   8.470  13.092  1.00  0.00     0.016 C 
HETATM   14  C12 UNL     1      -1.089   7.289  14.115  1.00  0.00    -0.002 C 
HETATM   15  C21 UNL     1      -1.215   7.972  15.509  1.00  0.00     0.006 C 
HETATM   16  C22 UNL     1      -2.662   7.782  15.995  1.00  0.00     0.011 C 
HETATM   17  C23 UNL     1      -3.266   6.729  15.048  1.00  0.00    -0.032 C 
HETATM   18  C24 UNL     1      -2.839   5.339  15.618  1.00  0.00     0.016 C 
HETATM   19  C25 UNL     1      -6.328   6.930  12.787  1.00  0.00     0.022 A 
HETATM   20  C26 UNL     1      -6.812   5.714  13.548  1.00  0.00    -0.021 A 
HETATM   21  C30 UNL     1      -7.737   5.943  14.759  1.00  0.00     0.063 C 
ENDROOT
BRANCH  14  22
HETATM   22  C13 UNL     1      -0.082   8.030  13.180  1.00  0.00    -0.014 C 
HETATM   23  C14 UNL     1      -0.075   9.542  13.431  1.00  0.00     0.010 C 
BRANCH  22  24
HETATM   24  C15 UNL     1      -0.413   7.731  11.688  1.00  0.00     0.008 C 
BRANCH  24  25
HETATM   25  C16 UNL     1       0.697   6.981  10.940  1.00  0.00     0.028 C 
BRANCH  25  26
HETATM   26  C17 UNL     1       1.026   7.371   9.520  1.00  0.00    -0.025 C 
HETATM   27  C18 UNL     1       1.973   6.959   8.653  1.00  0.00    -0.091 C 
HETATM   28  C19 UNL     1       2.082   7.606   7.293  1.00  0.00     0.042 C 
HETATM   29  C20 UNL     1       2.974   5.864   8.888  1.00  0.00     0.042 C 
ENDBRANCH  25  26
ENDBRANCH  24  25
ENDBRANCH  22  24
ENDBRANCH  14  22
BRANCH  20  30
HETATM   30  C27 UNL     1      -7.245   4.524  12.683  1.00  0.00     0.021 C 
BRANCH  30  31
HETATM   31  C28 UNL     1      -6.485   3.237  13.000  1.00  0.00     0.111 C 
BRANCH  31  32
HETATM   32  C29 UNL     1      -7.072   2.067  12.259  1.00  0.00     0.139 C 
HETATM   33  O3  UNL     1      -6.498   1.310  11.497  1.00  0.00    -0.650 OA
BRANCH  32  34
HETATM   34  O4  UNL     1      -8.389   1.924  12.506  1.00  0.00    -0.776 OA
HETATM   35  H43 UNL     1      -8.650   1.148  11.966  1.00  0.00     0.167 HD
ENDBRANCH  32  34
ENDBRANCH  31  32
ENDBRANCH  30  31
ENDBRANCH  20  30
TORSDOF 8
ENDMDL
MODEL 4
REMARK minimizedAffinity -8.57302189
REMARK  8 active torsions:
REMARK  status: ('A' for Active; 'I' for Inactive)
REMARK    1  A    between atoms: C12_14  and  C13_15 
REMARK    2  A    between atoms: C13_15  and  C15_17 
REMARK    3  A    between atoms: C15_17  and  C16_18 
REMARK    4  A    between atoms: C16_18  and  C17_19 
REMARK    5  A    between atoms: C26_28  and  C27_29 
REMARK    6  A    between atoms: C27_29  and  C28_30 
REMARK    7  A    between atoms: C28_30  and  C29_31 
REMARK    8  A    between atoms: C29_31  and  O4_33 
ROOT
HETATM    1  C1  UNL     1      -6.045   6.345  15.267  1.00  0.00     0.025 C 
HETATM    2  C2  UNL     1      -4.790   6.805  15.203  1.00  0.00     0.015 C 
HETATM    3  C3  UNL     1      -4.462   8.244  15.317  1.00  0.00     0.289 C 
HETATM    4  O1  UNL     1      -5.249   9.171  15.279  1.00  0.00    -0.260 OA
HETATM    5  O2  UNL     1      -3.113   8.351  15.450  1.00  0.00    -0.311 OA
HETATM    6  C4  UNL     1      -2.548   7.050  15.660  1.00  0.00     0.142 C 
HETATM    7  C5  UNL     1      -1.133   6.976  15.103  1.00  0.00     0.039 C 
HETATM    8  C6  UNL     1      -1.112   7.215  13.586  1.00  0.00     0.006 C 
HETATM    9  C7  UNL     1      -1.961   6.144  12.862  1.00  0.00    -0.027 A 
HETATM   10  C8  UNL     1      -1.229   5.274  11.838  1.00  0.00     0.011 C 
HETATM   11  C9  UNL     1      -0.214   5.991  10.926  1.00  0.00     0.011 C 
HETATM   12  C10 UNL     1       0.232   7.377  11.419  1.00  0.00    -0.032 C 
HETATM   13  C11 UNL     1      -0.775   8.433  10.868  1.00  0.00     0.016 C 
HETATM   14  C12 UNL     1       1.682   7.823  11.030  1.00  0.00    -0.002 C 
HETATM   15  C21 UNL     1       2.019   8.871  12.131  1.00  0.00     0.006 C 
HETATM   16  C22 UNL     1       1.014   8.683  13.281  1.00  0.00     0.011 C 
HETATM   17  C23 UNL     1       0.320   7.340  12.988  1.00  0.00    -0.032 C 
HETATM   18  C24 UNL     1       1.261   6.233  13.563  1.00  0.00     0.016 C 
HETATM   19  C25 UNL     1      -3.374   6.542  12.493  1.00  0.00     0.022 A 
HETATM   20  C26 UNL     1      -3.184   5.562  13.631  1.00  0.00    -0.021 A 
HETATM   21  C30 UNL     1      -3.517   6.041  15.058  1.00  0.00     0.063 C 
ENDROOT
BRANCH  14  22
HETATM   22  C13 UNL     1       1.982   8.355   9.593  1.00  0.00    -0.014 C 
HETATM   23  C14 UNL     1       0.785   8.172   8.654  1.00  0.00     0.010 C 
BRANCH  22  24
HETATM   24  C15 UNL     1       3.240   7.647   9.009  1.00  0.00     0.008 C 
BRANCH  24  25
HETATM   25  C16 UNL     1       3.568   6.306   9.678  1.00  0.00     0.028 C 
BRANCH  25  26
HETATM   26  C17 UNL     1       4.556   6.270  10.818  1.00  0.00    -0.025 C 
HETATM   27  C18 UNL     1       5.499   7.136  11.240  1.00  0.00    -0.091 C 
HETATM   28  C19 UNL     1       6.391   6.770  12.403  1.00  0.00     0.042 C 
HETATM   29  C20 UNL     1       5.770   8.499  10.671  1.00  0.00     0.042 C 
ENDBRANCH  25  26
ENDBRANCH  24  25
ENDBRANCH  22  24
ENDBRANCH  14  22
BRANCH  20  30
HETATM   30  C27 UNL     1      -3.662   4.131  13.356  1.00  0.00     0.021 C 
BRANCH  30  31
HETATM   31  C28 UNL     1      -4.805   4.060  12.344  1.00  0.00     0.111 C 
BRANCH  31  32
HETATM   32  C29 UNL     1      -4.388   3.305  11.111  1.00  0.00     0.139 C 
HETATM   33  O3  UNL     1      -3.550   3.635  10.290  1.00  0.00    -0.650 OA
BRANCH  32  34
HETATM   34  O4  UNL     1      -5.079   2.159  10.964  1.00  0.00    -0.776 OA
HETATM   35  H43 UNL     1      -4.727   1.773  10.134  1.00  0.00     0.167 HD
ENDBRANCH  32  34
ENDBRANCH  31  32
ENDBRANCH  30  31
ENDBRANCH  20  30
TORSDOF 8
ENDMDL
MODEL 5
REMARK minimizedAffinity -8.40359592
REMARK  8 active torsions:
REMARK  status: ('A' for Active; 'I' for Inactive)
REMARK    1  A    between atoms: C12_14  and  C13_15 
REMARK    2  A    between atoms: C13_15  and  C15_17 
REMARK    3  A    between atoms: C15_17  and  C16_18 
REMARK    4  A    between atoms: C16_18  and  C17_19 
REMARK    5  A    between atoms: C26_28  and  C27_29 
REMARK    6  A    between atoms: C27_29  and  C28_30 
REMARK    7  A    between atoms: C28_30  and  C29_31 
REMARK    8  A    between atoms: C29_31  and  O4_33 
ROOT
HETATM    1  C1  UNL     1       2.547   5.452  10.397  1.00  0.00     0.025 C 
HETATM    2  C2  UNL     1       1.805   6.498  10.776  1.00  0.00     0.015 C 
HETATM    3  C3  UNL     1       2.342   7.876  10.835  1.00  0.00     0.289 C 
HETATM    4  O1  UNL     1       3.511   8.202  10.753  1.00  0.00    -0.260 OA
HETATM    5  O2  UNL     1       1.293   8.721  11.021  1.00  0.00    -0.311 OA
HETATM    6  C4  UNL     1       0.064   8.001  10.860  1.00  0.00     0.142 C 
HETATM    7  C5  UNL     1      -1.037   8.606  11.720  1.00  0.00     0.039 C 
HETATM    8  C6  UNL     1      -0.689   8.535  13.214  1.00  0.00     0.006 C 
HETATM    9  C7  UNL     1      -0.503   7.064  13.653  1.00  0.00    -0.027 A 
HETATM   10  C8  UNL     1      -1.435   6.561  14.757  1.00  0.00     0.011 C 
HETATM   11  C9  UNL     1      -1.709   7.532  15.922  1.00  0.00     0.011 C 
HETATM   12  C10 UNL     1      -1.354   9.001  15.636  1.00  0.00    -0.032 C 
HETATM   13  C11 UNL     1       0.143   9.218  16.011  1.00  0.00     0.016 C 
HETATM   14  C12 UNL     1      -2.213  10.082  16.375  1.00  0.00    -0.002 C 
HETATM   15  C21 UNL     1      -2.056  11.325  15.451  1.00  0.00     0.006 C 
HETATM   16  C22 UNL     1      -1.524  10.837  14.093  1.00  0.00     0.011 C 
HETATM   17  C23 UNL     1      -1.684   9.305  14.130  1.00  0.00    -0.032 C 
HETATM   18  C24 UNL     1      -3.162   9.015  13.713  1.00  0.00     0.016 C 
HETATM   19  C25 UNL     1       0.921   6.555  13.715  1.00  0.00     0.022 A 
HETATM   20  C26 UNL     1       0.038   6.063  12.588  1.00  0.00    -0.021 A 
HETATM   21  C30 UNL     1       0.364   6.537  11.157  1.00  0.00     0.063 C 
ENDROOT
BRANCH  14  22
HETATM   22  C13 UNL     1      -1.935  10.417  17.874  1.00  0.00    -0.014 C 
HETATM   23  C14 UNL     1      -3.232  10.545  18.682  1.00  0.00     0.010 C 
BRANCH  22  24
HETATM   24  C15 UNL     1      -1.098  11.726  17.986  1.00  0.00     0.008 C 
BRANCH  24  25
HETATM   25  C16 UNL     1      -0.539  11.991  19.390  1.00  0.00     0.028 C 
BRANCH  25  26
HETATM   26  C17 UNL     1       0.347  10.957  20.040  1.00  0.00    -0.025 C 
HETATM   27  C18 UNL     1       1.487  11.046  20.755  1.00  0.00    -0.091 C 
HETATM   28  C19 UNL     1       2.183   9.791  21.224  1.00  0.00     0.042 C 
HETATM   29  C20 UNL     1       2.173  12.315  21.175  1.00  0.00     0.042 C 
ENDBRANCH  25  26
ENDBRANCH  24  25
ENDBRANCH  22  24
ENDBRANCH  14  22
BRANCH  20  30
HETATM   30  C27 UNL     1      -0.349   4.581  12.651  1.00  0.00     0.021 C 
BRANCH  30  31
HETATM   31  C28 UNL     1      -1.361   4.174  11.581  1.00  0.00     0.111 C 
BRANCH  31  32
HETATM   32  C29 UNL     1      -1.026   2.824  11.008  1.00  0.00     0.139 C 
HETATM   33  O3  UNL     1      -0.071   2.119  11.283  1.00  0.00    -0.650 OA
BRANCH  32  34
HETATM   34  O4  UNL     1      -1.922   2.435  10.081  1.00  0.00    -0.776 OA
HETATM   35  H43 UNL     1      -1.592   1.560   9.783  1.00  0.00     0.167 HD
ENDBRANCH  32  34
ENDBRANCH  31  32
ENDBRANCH  30  31
ENDBRANCH  20  30
TORSDOF 8
ENDMDL
MODEL 6
REMARK minimizedAffinity -8.05774593
REMARK  8 active torsions:
REMARK  status: ('A' for Active; 'I' for Inactive)
REMARK    1  A    between atoms: C12_14  and  C13_15 
REMARK    2  A    between atoms: C13_15  and  C15_17 
REMARK    3  A    between atoms: C15_17  and  C16_18 
REMARK    4  A    between atoms: C16_18  and  C17_19 
REMARK    5  A    between atoms: C26_28  and  C27_29 
REMARK    6  A    between atoms: C27_29  and  C28_30 
REMARK    7  A    between atoms: C28_30  and  C29_31 
REMARK    8  A    between atoms: C29_31  and  O4_33 
ROOT
HETATM    1  C1  UNL     1       2.395   8.731  10.914  1.00  0.00     0.025 C 
HETATM    2  C2  UNL     1       1.395   7.884  11.180  1.00  0.00     0.015 C 
HETATM    3  C3  UNL     1       0.553   7.286  10.120  1.00  0.00     0.289 C 
HETATM    4  O1  UNL     1       0.519   7.617   8.950  1.00  0.00    -0.260 OA
HETATM    5  O2  UNL     1      -0.199   6.308  10.691  1.00  0.00    -0.311 OA
HETATM    6  C4  UNL     1       0.262   6.069  12.027  1.00  0.00     0.142 C 
HETATM    7  C5  UNL     1      -0.879   5.600  12.920  1.00  0.00     0.039 C 
HETATM    8  C6  UNL     1      -1.982   6.662  13.028  1.00  0.00     0.006 C 
HETATM    9  C7  UNL     1      -1.414   7.966  13.636  1.00  0.00    -0.027 A 
HETATM   10  C8  UNL     1      -2.057   8.446  14.938  1.00  0.00     0.011 C 
HETATM   11  C9  UNL     1      -3.590   8.327  15.033  1.00  0.00     0.011 C 
HETATM   12  C10 UNL     1      -4.231   7.384  14.002  1.00  0.00    -0.032 C 
HETATM   13  C11 UNL     1      -4.530   8.209  12.714  1.00  0.00     0.016 C 
HETATM   14  C12 UNL     1      -5.547   6.658  14.444  1.00  0.00    -0.002 C 
HETATM   15  C21 UNL     1      -5.564   5.403  13.521  1.00  0.00     0.006 C 
HETATM   16  C22 UNL     1      -4.151   5.228  12.941  1.00  0.00     0.011 C 
HETATM   17  C23 UNL     1      -3.259   6.170  13.771  1.00  0.00    -0.032 C 
HETATM   18  C24 UNL     1      -2.881   5.381  15.064  1.00  0.00     0.016 C 
HETATM   19  C25 UNL     1      -1.030   9.054  12.655  1.00  0.00     0.022 A 
HETATM   20  C26 UNL     1       0.082   8.296  13.349  1.00  0.00    -0.021 A 
HETATM   21  C30 UNL     1       0.947   7.345  12.497  1.00  0.00     0.063 C 
ENDROOT
BRANCH  14  22
HETATM   22  C13 UNL     1      -6.908   7.422  14.433  1.00  0.00    -0.014 C 
HETATM   23  C14 UNL     1      -6.924   8.576  15.441  1.00  0.00     0.010 C 
BRANCH  22  24
HETATM   24  C15 UNL     1      -8.080   6.437  14.721  1.00  0.00     0.008 C 
BRANCH  24  25
HETATM   25  C16 UNL     1      -9.363   7.119  15.211  1.00  0.00     0.028 C 
BRANCH  25  26
HETATM   26  C17 UNL     1     -10.515   7.302  14.253  1.00  0.00    -0.025 C 
HETATM   27  C18 UNL     1     -11.192   8.390  13.832  1.00  0.00    -0.091 C 
HETATM   28  C19 UNL     1     -12.366   8.230  12.895  1.00  0.00     0.042 C 
HETATM   29  C20 UNL     1     -10.890   9.817  14.191  1.00  0.00     0.042 C 
ENDBRANCH  25  26
ENDBRANCH  24  25
ENDBRANCH  22  24
ENDBRANCH  14  22
BRANCH  20  30
HETATM   30  C27 UNL     1       0.903   9.107  14.358  1.00  0.00     0.021 C 
BRANCH  30  31
HETATM   31  C28 UNL     1       2.136   8.364  14.870  1.00  0.00     0.111 C 
BRANCH  31  32
HETATM   32  C29 UNL     1       2.057   8.148  16.357  1.00  0.00     0.139 C 
HETATM   33  O3  UNL     1       2.445   8.896  17.236  1.00  0.00    -0.650 OA
BRANCH  32  34
HETATM   34  O4  UNL     1       1.498   6.961  16.663  1.00  0.00    -0.776 OA
HETATM   35  H43 UNL     1       1.513   6.937  17.644  1.00  0.00     0.167 HD
ENDBRANCH  32  34
ENDBRANCH  31  32
ENDBRANCH  30  31
ENDBRANCH  20  30
TORSDOF 8
ENDMDL
MODEL 7
REMARK minimizedAffinity -7.91488457
REMARK  8 active torsions:
REMARK  status: ('A' for Active; 'I' for Inactive)
REMARK    1  A    between atoms: C12_14  and  C13_15 
REMARK    2  A    between atoms: C13_15  and  C15_17 
REMARK    3  A    between atoms: C15_17  and  C16_18 
REMARK    4  A    between atoms: C16_18  and  C17_19 
REMARK    5  A    between atoms: C26_28  and  C27_29 
REMARK    6  A    between atoms: C27_29  and  C28_30 
REMARK    7  A    between atoms: C28_30  and  C29_31 
REMARK    8  A    between atoms: C29_31  and  O4_33 
ROOT
HETATM    1  C1  UNL     1       4.723   8.914   9.518  1.00  0.00     0.025 C 
HETATM    2  C2  UNL     1       3.704   8.063   9.680  1.00  0.00     0.015 C 
HETATM    3  C3  UNL     1       2.625   7.911   8.678  1.00  0.00     0.289 C 
HETATM    4  O1  UNL     1       2.414   8.638   7.726  1.00  0.00    -0.260 OA
HETATM    5  O2  UNL     1       1.890   6.820   9.023  1.00  0.00    -0.311 OA
HETATM    6  C4  UNL     1       2.558   6.105  10.071  1.00  0.00     0.142 C 
HETATM    7  C5  UNL     1       1.556   5.389  10.965  1.00  0.00     0.039 C 
HETATM    8  C6  UNL     1       0.610   6.381  11.657  1.00  0.00     0.006 C 
HETATM    9  C7  UNL     1       1.413   7.362  12.541  1.00  0.00    -0.027 A 
HETATM   10  C8  UNL     1       1.073   7.369  14.033  1.00  0.00     0.011 C 
HETATM   11  C9  UNL     1      -0.422   7.277  14.398  1.00  0.00     0.011 C 
HETATM   12  C10 UNL     1      -1.336   6.786  13.263  1.00  0.00    -0.032 C 
HETATM   13  C11 UNL     1      -1.775   8.025  12.426  1.00  0.00     0.016 C 
HETATM   14  C12 UNL     1      -2.618   5.996  13.693  1.00  0.00    -0.002 C 
HETATM   15  C21 UNL     1      -2.936   5.154  12.422  1.00  0.00     0.006 C 
HETATM   16  C22 UNL     1      -1.678   5.147  11.537  1.00  0.00     0.011 C 
HETATM   17  C23 UNL     1      -0.556   5.701  12.434  1.00  0.00    -0.032 C 
HETATM   18  C24 UNL     1      -0.034   4.490  13.271  1.00  0.00     0.016 C 
HETATM   19  C25 UNL     1       1.725   8.714  11.934  1.00  0.00     0.022 A 
HETATM   20  C26 UNL     1       2.858   7.720  12.081  1.00  0.00    -0.021 A 
HETATM   21  C30 UNL     1       3.449   7.106  10.796  1.00  0.00     0.063 C 
ENDROOT
BRANCH  14  22
HETATM   22  C13 UNL     1      -3.870   6.760  14.227  1.00  0.00    -0.014 C 
HETATM   23  C14 UNL     1      -4.397   7.777  13.209  1.00  0.00     0.010 C 
BRANCH  22  24
HETATM   24  C15 UNL     1      -3.535   7.467  15.574  1.00  0.00     0.008 C 
BRANCH  24  25
HETATM   25  C16 UNL     1      -3.603   8.998  15.509  1.00  0.00     0.028 C 
BRANCH  25  26
HETATM   26  C17 UNL     1      -3.381   9.803  16.766  1.00  0.00    -0.025 C 
HETATM   27  C18 UNL     1      -3.692  11.069  17.110  1.00  0.00    -0.091 C 
HETATM   28  C19 UNL     1      -3.265  11.611  18.453  1.00  0.00     0.042 C 
HETATM   29  C20 UNL     1      -4.469  12.049  16.278  1.00  0.00     0.042 C 
ENDBRANCH  25  26
ENDBRANCH  24  25
ENDBRANCH  22  24
ENDBRANCH  14  22
BRANCH  20  30
HETATM   30  C27 UNL     1       3.930   8.090  13.112  1.00  0.00     0.021 C 
BRANCH  30  31
HETATM   31  C28 UNL     1       5.299   7.484  12.805  1.00  0.00     0.111 C 
BRANCH  31  32
HETATM   32  C29 UNL     1       6.209   7.575  13.999  1.00  0.00     0.139 C 
HETATM   33  O3  UNL     1       6.744   8.573  14.450  1.00  0.00    -0.650 OA
BRANCH  32  34
HETATM   34  O4  UNL     1       6.420   6.370  14.564  1.00  0.00    -0.776 OA
HETATM   35  H43 UNL     1       7.026   6.560  15.312  1.00  0.00     0.167 HD
ENDBRANCH  32  34
ENDBRANCH  31  32
ENDBRANCH  30  31
ENDBRANCH  20  30
TORSDOF 8
ENDMDL
MODEL 8
REMARK minimizedAffinity -7.86136198
REMARK  8 active torsions:
REMARK  status: ('A' for Active; 'I' for Inactive)
REMARK    1  A    between atoms: C12_14  and  C13_15 
REMARK    2  A    between atoms: C13_15  and  C15_17 
REMARK    3  A    between atoms: C15_17  and  C16_18 
REMARK    4  A    between atoms: C16_18  and  C17_19 
REMARK    5  A    between atoms: C26_28  and  C27_29 
REMARK    6  A    between atoms: C27_29  and  C28_30 
REMARK    7  A    between atoms: C28_30  and  C29_31 
REMARK    8  A    between atoms: C29_31  and  O4_33 
ROOT
HETATM    1  C1  UNL     1      -6.313   8.128  15.441  1.00  0.00     0.025 C 
HETATM    2  C2  UNL     1      -4.978   8.070  15.414  1.00  0.00     0.015 C 
HETATM    3  C3  UNL     1      -4.125   9.276  15.516  1.00  0.00     0.289 C 
HETATM    4  O1  UNL     1      -4.495  10.432  15.434  1.00  0.00    -0.260 OA
HETATM    5  O2  UNL     1      -2.843   8.863  15.695  1.00  0.00    -0.311 OA
HETATM    6  C4  UNL     1      -2.825   7.451  15.947  1.00  0.00     0.142 C 
HETATM    7  C5  UNL     1      -1.533   6.824  15.442  1.00  0.00     0.039 C 
HETATM    8  C6  UNL     1      -1.382   6.993  13.923  1.00  0.00     0.006 C 
HETATM    9  C7  UNL     1      -2.557   6.308  13.187  1.00  0.00    -0.027 A 
HETATM   10  C8  UNL     1      -2.188   5.195  12.205  1.00  0.00     0.011 C 
HETATM   11  C9  UNL     1      -0.952   5.442  11.318  1.00  0.00     0.011 C 
HETATM   12  C10 UNL     1      -0.022   6.565  11.803  1.00  0.00    -0.032 C 
HETATM   13  C11 UNL     1      -0.531   7.909  11.199  1.00  0.00     0.016 C 
HETATM   14  C12 UNL     1       1.498   6.410  11.458  1.00  0.00    -0.002 C 
HETATM   15  C21 UNL     1       2.182   7.280  12.554  1.00  0.00     0.006 C 
HETATM   16  C22 UNL     1       1.152   7.526  13.669  1.00  0.00     0.011 C 
HETATM   17  C23 UNL     1       0.004   6.542  13.375  1.00  0.00    -0.032 C 
HETATM   18  C24 UNL     1       0.432   5.177  14.001  1.00  0.00     0.016 C 
HETATM   19  C25 UNL     1      -3.699   7.206  12.761  1.00  0.00     0.022 A 
HETATM   20  C26 UNL     1      -3.930   6.261  13.921  1.00  0.00    -0.021 A 
HETATM   21  C30 UNL     1      -4.091   6.873  15.327  1.00  0.00     0.063 C 
ENDROOT
BRANCH  14  22
HETATM   22  C13 UNL     1       2.018   6.744  10.025  1.00  0.00    -0.014 C 
HETATM   23  C14 UNL     1       2.925   5.639   9.472  1.00  0.00     0.010 C 
BRANCH  22  24
HETATM   24  C15 UNL     1       2.769   8.109  10.029  1.00  0.00     0.008 C 
BRANCH  24  25
HETATM   25  C16 UNL     1       4.257   8.003   9.671  1.00  0.00     0.028 C 
BRANCH  25  26
HETATM   26  C17 UNL     1       5.295   8.269  10.734  1.00  0.00    -0.025 C 
HETATM   27  C18 UNL     1       6.153   7.467  11.396  1.00  0.00    -0.091 C 
HETATM   28  C19 UNL     1       7.041   8.042  12.474  1.00  0.00     0.042 C 
HETATM   29  C20 UNL     1       6.353   5.997  11.165  1.00  0.00     0.042 C 
ENDBRANCH  25  26
ENDBRANCH  24  25
ENDBRANCH  22  24
ENDBRANCH  14  22
BRANCH  20  30
HETATM   30  C27 UNL     1      -4.913   5.116  13.653  1.00  0.00     0.021 C 
BRANCH  30  31
HETATM   31  C28 UNL     1      -6.252   5.587  13.088  1.00  0.00     0.111 C 
BRANCH  31  32
HETATM   32  C29 UNL     1      -7.144   4.419  12.767  1.00  0.00     0.139 C 
HETATM   33  O3  UNL     1      -8.342   4.440  12.548  1.00  0.00    -0.650 OA
BRANCH  32  34
HETATM   34  O4  UNL     1      -6.465   3.255  12.759  1.00  0.00    -0.776 OA
HETATM   35  H43 UNL     1      -7.148   2.583  12.550  1.00  0.00     0.167 HD
ENDBRANCH  32  34
ENDBRANCH  31  32
ENDBRANCH  30  31
ENDBRANCH  20  30
TORSDOF 8
ENDMDL
MODEL 9
REMARK minimizedAffinity -7.83376646
REMARK  8 active torsions:
REMARK  status: ('A' for Active; 'I' for Inactive)
REMARK    1  A    between atoms: C12_14  and  C13_15 
REMARK    2  A    between atoms: C13_15  and  C15_17 
REMARK    3  A    between atoms: C15_17  and  C16_18 
REMARK    4  A    between atoms: C16_18  and  C17_19 
REMARK    5  A    between atoms: C26_28  and  C27_29 
REMARK    6  A    between atoms: C27_29  and  C28_30 
REMARK    7  A    between atoms: C28_30  and  C29_31 
REMARK    8  A    between atoms: C29_31  and  O4_33 
ROOT
HETATM    1  C1  UNL     1       0.147   5.108  11.523  1.00  0.00     0.025 C 
HETATM    2  C2  UNL     1      -0.035   6.384  11.883  1.00  0.00     0.015 C 
HETATM    3  C3  UNL     1       1.037   7.400  11.786  1.00  0.00     0.289 C 
HETATM    4  O1  UNL     1       2.217   7.190  11.574  1.00  0.00    -0.260 OA
HETATM    5  O2  UNL     1       0.472   8.618  11.997  1.00  0.00    -0.311 OA
HETATM    6  C4  UNL     1      -0.956   8.490  12.004  1.00  0.00     0.142 C 
HETATM    7  C5  UNL     1      -1.592   9.536  12.909  1.00  0.00     0.039 C 
HETATM    8  C6  UNL     1      -1.137   9.372  14.366  1.00  0.00     0.006 C 
HETATM    9  C7  UNL     1      -1.542   7.979  14.901  1.00  0.00    -0.027 A 
HETATM   10  C8  UNL     1      -2.466   7.961  16.120  1.00  0.00     0.011 C 
HETATM   11  C9  UNL     1      -2.168   8.993  17.225  1.00  0.00     0.011 C 
HETATM   12  C10 UNL     1      -1.262  10.157  16.794  1.00  0.00    -0.032 C 
HETATM   13  C11 UNL     1       0.219   9.724  17.016  1.00  0.00     0.016 C 
HETATM   14  C12 UNL     1      -1.492  11.526  17.519  1.00  0.00    -0.002 C 
HETATM   15  C21 UNL     1      -0.931  12.551  16.490  1.00  0.00     0.006 C 
HETATM   16  C22 UNL     1      -0.815  11.837  15.132  1.00  0.00     0.011 C 
HETATM   17  C23 UNL     1      -1.602  10.525  15.304  1.00  0.00    -0.032 C 
HETATM   18  C24 UNL     1      -3.100  10.882  15.045  1.00  0.00     0.016 C 
HETATM   19  C25 UNL     1      -0.470   6.911  14.875  1.00  0.00     0.022 A 
HETATM   20  C26 UNL     1      -1.601   6.808  13.874  1.00  0.00    -0.021 A 
HETATM   21  C30 UNL     1      -1.271   7.049  12.387  1.00  0.00     0.063 C 
ENDROOT
BRANCH  14  22
HETATM   22  C13 UNL     1      -0.929  11.760  18.956  1.00  0.00    -0.014 C 
HETATM   23  C14 UNL     1      -0.589  13.233  19.206  1.00  0.00     0.010 C 
BRANCH  22  24
HETATM   24  C15 UNL     1       0.325  10.868  19.194  1.00  0.00     0.008 C 
BRANCH  24  25
HETATM   25  C16 UNL     1       1.185  11.305  20.386  1.00  0.00     0.028 C 
BRANCH  25  26
HETATM   26  C17 UNL     1       1.933  10.262  21.181  1.00  0.00    -0.025 C 
HETATM   27  C18 UNL     1       2.780  10.342  22.227  1.00  0.00    -0.091 C 
HETATM   28  C19 UNL     1       3.428   9.089  22.768  1.00  0.00     0.042 C 
HETATM   29  C20 UNL     1       3.163  11.592  22.966  1.00  0.00     0.042 C 
ENDBRANCH  25  26
ENDBRANCH  24  25
ENDBRANCH  22  24
ENDBRANCH  14  22
BRANCH  20  30
HETATM   30  C27 UNL     1      -2.567   5.638  14.088  1.00  0.00     0.021 C 
BRANCH  30  31
HETATM   31  C28 UNL     1      -3.757   5.653  13.129  1.00  0.00     0.111 C 
BRANCH  31  32
HETATM   32  C29 UNL     1      -4.115   4.259  12.692  1.00  0.00     0.139 C 
HETATM   33  O3  UNL     1      -5.218   3.741  12.697  1.00  0.00    -0.650 OA
BRANCH  32  34
HETATM   34  O4  UNL     1      -3.034   3.567  12.282  1.00  0.00    -0.776 OA
HETATM   35  H43 UNL     1      -3.393   2.688  12.037  1.00  0.00     0.167 HD
ENDBRANCH  32  34
ENDBRANCH  31  32
ENDBRANCH  30  31
ENDBRANCH  20  30
TORSDOF 8
ENDMDL
