MODEL 1
REMARK minimizedAffinity -8.86708069
REMARK  9 active torsions:
REMARK  status: ('A' for Active; 'I' for Inactive)
REMARK    1  A    between atoms: C12_14  and  C13_15 
REMARK    2  A    between atoms: C13_15  and  C15_17 
REMARK    3  A    between atoms: C15_17  and  C16_18 
REMARK    4  A    between atoms: C16_18  and  C17_19 
REMARK    5  A    between atoms: C18_20  and  C20_22 
REMARK    6  A    between atoms: C26_29  and  C27_30 
REMARK    7  A    between atoms: C27_30  and  C28_31 
REMARK    8  A    between atoms: C28_31  and  C29_32 
REMARK    9  A    between atoms: C29_32  and  O5_34 
ROOT
HETATM    1  C1  UNL     1       4.337   7.781   9.937  1.00  0.00     0.025 C 
HETATM    2  C2  UNL     1       3.228   7.158  10.353  1.00  0.00     0.015 C 
HETATM    3  C3  UNL     1       2.176   6.784   9.383  1.00  0.00     0.289 C 
HETATM    4  O1  UNL     1       2.046   7.211   8.249  1.00  0.00    -0.260 OA
HETATM    5  O2  UNL     1       1.369   5.872   9.981  1.00  0.00    -0.311 OA
HETATM    6  C4  UNL     1       1.896   5.516  11.267  1.00  0.00     0.142 C 
HETATM    7  C5  UNL     1       0.743   5.258  12.223  1.00  0.00     0.039 C 
HETATM    8  C6  UNL     1      -0.108   6.523  12.411  1.00  0.00     0.006 C 
HETATM    9  C7  UNL     1       0.742   7.630  13.071  1.00  0.00    -0.027 A 
HETATM   10  C8  UNL     1       0.255   8.117  14.441  1.00  0.00     0.011 C 
HETATM   11  C9  UNL     1      -1.266   8.312  14.604  1.00  0.00     0.011 C 
HETATM   12  C10 UNL     1      -2.125   7.625  13.532  1.00  0.00    -0.032 C 
HETATM   13  C11 UNL     1      -2.266   8.600  12.323  1.00  0.00     0.016 C 
HETATM   14  C12 UNL     1      -3.553   7.162  13.971  1.00  0.00    -0.002 C 
HETATM   15  C21 UNL     1      -3.863   6.022  12.956  1.00  0.00     0.006 C 
HETATM   16  C22 UNL     1      -2.535   5.597  12.308  1.00  0.00     0.011 C 
HETATM   17  C23 UNL     1      -1.442   6.257  13.169  1.00  0.00    -0.032 C 
HETATM   18  C24 UNL     1      -1.217   5.301  14.387  1.00  0.00     0.016 C 
HETATM   19  C25 UNL     1       1.340   8.714  12.195  1.00  0.00     0.022 A 
HETATM   20  C26 UNL     1       2.272   7.645  12.720  1.00  0.00    -0.021 A 
HETATM   21  C30 UNL     1       2.851   6.628  11.701  1.00  0.00     0.063 C 
ENDROOT
BRANCH  14  22
HETATM   22  C13 UNL     1      -4.718   8.195  14.074  1.00  0.00    -0.014 C 
HETATM   23  C14 UNL     1      -4.881   8.732  15.501  1.00  0.00     0.010 C 
BRANCH  22  24
HETATM   24  C15 UNL     1      -6.048   7.552  13.591  1.00  0.00     0.008 C 
BRANCH  24  25
HETATM   25  C16 UNL     1      -6.883   6.916  14.710  1.00  0.00     0.028 C 
BRANCH  25  26
HETATM   26  C17 UNL     1      -7.022   5.432  14.492  1.00  0.00    -0.017 C 
HETATM   27  C18 UNL     1      -7.679   4.814  13.493  1.00  0.00    -0.028 C 
HETATM   28  C19 UNL     1      -8.441   5.447  12.371  1.00  0.00     0.051 C 
BRANCH  27  29
HETATM   29  C20 UNL     1      -7.652   3.322  13.490  1.00  0.00     0.265 C 
HETATM   30  O3  UNL     1      -8.445   2.645  12.848  1.00  0.00    -0.302 OA
ENDBRANCH  27  29
ENDBRANCH  25  26
ENDBRANCH  24  25
ENDBRANCH  22  24
ENDBRANCH  14  22
BRANCH  20  31
HETATM   31  C27 UNL     1       3.224   7.963  13.885  1.00  0.00     0.021 C 
BRANCH  31  32
HETATM   32  C28 UNL     1       4.657   8.315  13.508  1.00  0.00     0.111 C 
BRANCH  32  33
HETATM   33  C29 UNL     1       5.671   7.687  14.424  1.00  0.00     0.139 C 
HETATM   34  O4  UNL     1       6.877   7.637  14.262  1.00  0.00    -0.650 OA
BRANCH  33  35
HETATM   35  O5  UNL     1       5.108   7.208  15.552  1.00  0.00    -0.776 OA
HETATM   36  H41 UNL     1       5.865   6.846  16.063  1.00  0.00     0.167 HD
ENDBRANCH  33  35
ENDBRANCH  32  33
ENDBRANCH  31  32
ENDBRANCH  20  31
TORSDOF 9
ENDMDL
MODEL 2
REMARK minimizedAffinity -8.55703449
REMARK  9 active torsions:
REMARK  status: ('A' for Active; 'I' for Inactive)
REMARK    1  A    between atoms: C12_14  and  C13_15 
REMARK    2  A    between atoms: C13_15  and  C15_17 
REMARK    3  A    between atoms: C15_17  and  C16_18 
REMARK    4  A    between atoms: C16_18  and  C17_19 
REMARK    5  A    between atoms: C18_20  and  C20_22 
REMARK    6  A    between atoms: C26_29  and  C27_30 
REMARK    7  A    between atoms: C27_30  and  C28_31 
REMARK    8  A    between atoms: C28_31  and  C29_32 
REMARK    9  A    between atoms: C29_32  and  O5_34 
ROOT
HETATM    1  C1  UNL     1       4.090   7.642   9.643  1.00  0.00     0.025 C 
HETATM    2  C2  UNL     1       2.983   7.060  10.123  1.00  0.00     0.015 C 
HETATM    3  C3  UNL     1       1.870   6.714   9.213  1.00  0.00     0.289 C 
HETATM    4  O1  UNL     1       1.695   7.135   8.084  1.00  0.00    -0.260 OA
HETATM    5  O2  UNL     1       1.066   5.834   9.861  1.00  0.00    -0.311 OA
HETATM    6  C4  UNL     1       1.647   5.472  11.123  1.00  0.00     0.142 C 
HETATM    7  C5  UNL     1       0.539   5.261  12.140  1.00  0.00     0.039 C 
HETATM    8  C6  UNL     1      -0.259   6.555  12.359  1.00  0.00     0.006 C 
HETATM    9  C7  UNL     1       0.661   7.639  12.962  1.00  0.00    -0.027 A 
HETATM   10  C8  UNL     1       0.263   8.154  14.351  1.00  0.00     0.011 C 
HETATM   11  C9  UNL     1      -1.240   8.401  14.591  1.00  0.00     0.011 C 
HETATM   12  C10 UNL     1      -2.176   7.735  13.573  1.00  0.00    -0.032 C 
HETATM   13  C11 UNL     1      -2.348   8.703  12.363  1.00  0.00     0.016 C 
HETATM   14  C12 UNL     1      -3.594   7.324  14.091  1.00  0.00    -0.002 C 
HETATM   15  C21 UNL     1      -3.995   6.187  13.105  1.00  0.00     0.006 C 
HETATM   16  C22 UNL     1      -2.717   5.711  12.392  1.00  0.00     0.011 C 
HETATM   17  C23 UNL     1      -1.560   6.342  13.189  1.00  0.00    -0.032 C 
HETATM   18  C24 UNL     1      -1.303   5.389  14.402  1.00  0.00     0.016 C 
HETATM   19  C25 UNL     1       1.248   8.694  12.046  1.00  0.00     0.022 A 
HETATM   20  C26 UNL     1       2.170   7.599  12.532  1.00  0.00    -0.021 A 
HETATM   21  C30 UNL     1       2.660   6.555  11.494  1.00  0.00     0.063 C 
ENDROOT
BRANCH  14  22
HETATM   22  C13 UNL     1      -4.717   8.397  14.243  1.00  0.00    -0.014 C 
HETATM   23  C14 UNL     1      -4.194   9.681  14.899  1.00  0.00     0.010 C 
BRANCH  22  24
HETATM   24  C15 UNL     1      -5.900   7.819  15.070  1.00  0.00     0.008 C 
BRANCH  24  25
HETATM   25  C16 UNL     1      -6.289   6.384  14.695  1.00  0.00     0.028 C 
BRANCH  25  26
HETATM   26  C17 UNL     1      -7.447   6.382  13.731  1.00  0.00    -0.017 C 
HETATM   27  C18 UNL     1      -7.992   5.316  13.115  1.00  0.00    -0.028 C 
HETATM   28  C19 UNL     1      -7.572   3.883  13.225  1.00  0.00     0.051 C 
BRANCH  27  29
HETATM   29  C20 UNL     1      -9.153   5.578  12.215  1.00  0.00     0.265 C 
HETATM   30  O3  UNL     1      -9.031   6.080  11.104  1.00  0.00    -0.302 OA
ENDBRANCH  27  29
ENDBRANCH  25  26
ENDBRANCH  24  25
ENDBRANCH  22  24
ENDBRANCH  14  22
BRANCH  20  31
HETATM   31  C27 UNL     1       3.192   7.894  13.642  1.00  0.00     0.021 C 
BRANCH  31  32
HETATM   32  C28 UNL     1       2.705   8.767  14.792  1.00  0.00     0.111 C 
BRANCH  32  33
HETATM   33  C29 UNL     1       2.697   8.043  16.110  1.00  0.00     0.139 C 
HETATM   34  O4  UNL     1       2.378   8.494  17.196  1.00  0.00    -0.650 OA
BRANCH  33  35
HETATM   35  O5  UNL     1       3.033   6.743  15.977  1.00  0.00    -0.776 OA
HETATM   36  H41 UNL     1       2.976   6.386  16.890  1.00  0.00     0.167 HD
ENDBRANCH  33  35
ENDBRANCH  32  33
ENDBRANCH  31  32
ENDBRANCH  20  31
TORSDOF 9
ENDMDL
MODEL 3
REMARK minimizedAffinity -8.37830162
REMARK  9 active torsions:
REMARK  status: ('A' for Active; 'I' for Inactive)
REMARK    1  A    between atoms: C12_14  and  C13_15 
REMARK    2  A    between atoms: C13_15  and  C15_17 
REMARK    3  A    between atoms: C15_17  and  C16_18 
REMARK    4  A    between atoms: C16_18  and  C17_19 
REMARK    5  A    between atoms: C18_20  and  C20_22 
REMARK    6  A    between atoms: C26_29  and  C27_30 
REMARK    7  A    between atoms: C27_30  and  C28_31 
REMARK    8  A    between atoms: C28_31  and  C29_32 
REMARK    9  A    between atoms: C29_32  and  O5_34 
ROOT
HETATM    1  C1  UNL     1       2.544   5.629  10.192  1.00  0.00     0.025 C 
HETATM    2  C2  UNL     1       1.742   6.600  10.646  1.00  0.00     0.015 C 
HETATM    3  C3  UNL     1       2.266   7.970  10.838  1.00  0.00     0.289 C 
HETATM    4  O1  UNL     1       3.437   8.299  10.894  1.00  0.00    -0.260 OA
HETATM    5  O2  UNL     1       1.203   8.806  10.942  1.00  0.00    -0.311 OA
HETATM    6  C4  UNL     1      -0.016   8.087  10.706  1.00  0.00     0.142 C 
HETATM    7  C5  UNL     1      -1.112   8.661  11.589  1.00  0.00     0.039 C 
HETATM    8  C6  UNL     1      -0.763   8.494  13.075  1.00  0.00     0.006 C 
HETATM    9  C7  UNL     1      -0.686   6.994  13.428  1.00  0.00    -0.027 A 
HETATM   10  C8  UNL     1      -1.693   6.502  14.476  1.00  0.00     0.011 C 
HETATM   11  C9  UNL     1      -1.929   7.421  15.691  1.00  0.00     0.011 C 
HETATM   12  C10 UNL     1      -1.445   8.868  15.512  1.00  0.00    -0.032 C 
HETATM   13  C11 UNL     1       0.057   8.934  15.924  1.00  0.00     0.016 C 
HETATM   14  C12 UNL     1      -2.230   9.970  16.298  1.00  0.00    -0.002 C 
HETATM   15  C21 UNL     1      -1.948  11.249  15.455  1.00  0.00     0.006 C 
HETATM   16  C22 UNL     1      -1.430  10.798  14.078  1.00  0.00     0.011 C 
HETATM   17  C23 UNL     1      -1.715   9.286  14.021  1.00  0.00    -0.032 C 
HETATM   18  C24 UNL     1      -3.205   9.145  13.567  1.00  0.00     0.016 C 
HETATM   19  C25 UNL     1       0.674   6.328  13.503  1.00  0.00     0.022 A 
HETATM   20  C26 UNL     1      -0.185   6.030  12.295  1.00  0.00    -0.021 A 
HETATM   21  C30 UNL     1       0.271   6.602  10.927  1.00  0.00     0.063 C 
ENDROOT
BRANCH  14  22
HETATM   22  C13 UNL     1      -1.959  10.194  17.819  1.00  0.00    -0.014 C 
HETATM   23  C14 UNL     1      -3.248  10.511  18.587  1.00  0.00     0.010 C 
BRANCH  22  24
HETATM   24  C15 UNL     1      -0.925  11.337  18.016  1.00  0.00     0.008 C 
BRANCH  24  25
HETATM   25  C16 UNL     1      -0.640  11.682  19.483  1.00  0.00     0.028 C 
BRANCH  25  26
HETATM   26  C17 UNL     1       0.393  10.748  20.057  1.00  0.00    -0.017 C 
HETATM   27  C18 UNL     1       1.523  11.085  20.707  1.00  0.00    -0.028 C 
HETATM   28  C19 UNL     1       2.033  12.461  21.002  1.00  0.00     0.051 C 
BRANCH  27  29
HETATM   29  C20 UNL     1       2.377   9.964  21.199  1.00  0.00     0.265 C 
HETATM   30  O3  UNL     1       3.495   9.736  20.754  1.00  0.00    -0.302 OA
ENDBRANCH  27  29
ENDBRANCH  25  26
ENDBRANCH  24  25
ENDBRANCH  22  24
ENDBRANCH  14  22
BRANCH  20  31
HETATM   31  C27 UNL     1      -0.917   4.682  12.189  1.00  0.00     0.021 C 
BRANCH  31  32
HETATM   32  C28 UNL     1      -0.052   3.469  11.869  1.00  0.00     0.111 C 
BRANCH  32  33
HETATM   33  C29 UNL     1      -0.851   2.305  11.353  1.00  0.00     0.139 C 
HETATM   34  O4  UNL     1      -2.065   2.216  11.289  1.00  0.00    -0.650 OA
BRANCH  33  35
HETATM   35  O5  UNL     1      -0.064   1.322  10.871  1.00  0.00    -0.776 OA
HETATM   36  H41 UNL     1      -0.696   0.640  10.556  1.00  0.00     0.167 HD
ENDBRANCH  33  35
ENDBRANCH  32  33
ENDBRANCH  31  32
ENDBRANCH  20  31
TORSDOF 9
ENDMDL
MODEL 4
REMARK minimizedAffinity -8.23021793
REMARK  9 active torsions:
REMARK  status: ('A' for Active; 'I' for Inactive)
REMARK    1  A    between atoms: C12_14  and  C13_15 
REMARK    2  A    between atoms: C13_15  and  C15_17 
REMARK    3  A    between atoms: C15_17  and  C16_18 
REMARK    4  A    between atoms: C16_18  and  C17_19 
REMARK    5  A    between atoms: C18_20  and  C20_22 
REMARK    6  A    between atoms: C26_29  and  C27_30 
REMARK    7  A    between atoms: C27_30  and  C28_31 
REMARK    8  A    between atoms: C28_31  and  C29_32 
REMARK    9  A    between atoms: C29_32  and  O5_34 
ROOT
HETATM    1  C1  UNL     1       4.219   8.065  15.015  1.00  0.00     0.025 C 
HETATM    2  C2  UNL     1       2.931   8.394  14.855  1.00  0.00     0.015 C 
HETATM    3  C3  UNL     1       2.096   8.728  16.029  1.00  0.00     0.289 C 
HETATM    4  O1  UNL     1       2.349   8.484  17.195  1.00  0.00    -0.260 OA
HETATM    5  O2  UNL     1       0.985   9.362  15.578  1.00  0.00    -0.311 OA
HETATM    6  C4  UNL     1       1.084   9.584  14.164  1.00  0.00     0.142 C 
HETATM    7  C5  UNL     1      -0.297   9.461  13.542  1.00  0.00     0.039 C 
HETATM    8  C6  UNL     1      -0.865   8.048  13.744  1.00  0.00     0.006 C 
HETATM    9  C7  UNL     1       0.018   7.020  13.007  1.00  0.00    -0.027 A 
HETATM   10  C8  UNL     1      -0.672   6.226  11.891  1.00  0.00     0.011 C 
HETATM   11  C9  UNL     1      -2.104   5.731  12.179  1.00  0.00     0.011 C 
HETATM   12  C10 UNL     1      -2.800   6.421  13.361  1.00  0.00    -0.032 C 
HETATM   13  C11 UNL     1      -2.418   5.657  14.665  1.00  0.00     0.016 C 
HETATM   14  C12 UNL     1      -4.359   6.533  13.285  1.00  0.00    -0.002 C 
HETATM   15  C21 UNL     1      -4.653   7.752  14.209  1.00  0.00     0.006 C 
HETATM   16  C22 UNL     1      -3.334   8.517  14.410  1.00  0.00     0.011 C 
HETATM   17  C23 UNL     1      -2.370   7.932  13.361  1.00  0.00    -0.032 C 
HETATM   18  C24 UNL     1      -2.672   8.692  12.027  1.00  0.00     0.016 C 
HETATM   19  C25 UNL     1       1.040   6.229  13.800  1.00  0.00     0.022 A 
HETATM   20  C26 UNL     1       1.551   7.346  12.918  1.00  0.00    -0.021 A 
HETATM   21  C30 UNL     1       2.124   8.609  13.613  1.00  0.00     0.063 C 
ENDROOT
BRANCH  14  22
HETATM   22  C13 UNL     1      -5.254   5.301  13.629  1.00  0.00    -0.014 C 
HETATM   23  C14 UNL     1      -4.922   4.091  12.749  1.00  0.00     0.010 C 
BRANCH  22  24
HETATM   24  C15 UNL     1      -6.756   5.673  13.481  1.00  0.00     0.008 C 
BRANCH  24  25
HETATM   25  C16 UNL     1      -7.649   5.152  14.615  1.00  0.00     0.028 C 
BRANCH  25  26
HETATM   26  C17 UNL     1      -8.276   6.297  15.366  1.00  0.00    -0.017 C 
HETATM   27  C18 UNL     1      -9.346   7.025  14.994  1.00  0.00    -0.028 C 
HETATM   28  C19 UNL     1     -10.158   6.884  13.745  1.00  0.00     0.051 C 
BRANCH  27  29
HETATM   29  C20 UNL     1      -9.787   8.101  15.929  1.00  0.00     0.265 C 
HETATM   30  O3  UNL     1      -9.564   8.067  17.133  1.00  0.00    -0.302 OA
ENDBRANCH  27  29
ENDBRANCH  25  26
ENDBRANCH  24  25
ENDBRANCH  22  24
ENDBRANCH  14  22
BRANCH  20  31
HETATM   31  C27 UNL     1       2.231   7.014  11.579  1.00  0.00     0.021 C 
BRANCH  31  32
HETATM   32  C28 UNL     1       2.103   5.575  11.096  1.00  0.00     0.111 C 
BRANCH  32  33
HETATM   33  C29 UNL     1       3.113   5.224  10.039  1.00  0.00     0.139 C 
HETATM   34  O4  UNL     1       3.828   5.993   9.420  1.00  0.00    -0.650 OA
BRANCH  33  35
HETATM   35  O5  UNL     1       3.222   3.892   9.862  1.00  0.00    -0.776 OA
HETATM   36  H41 UNL     1       3.912   3.797   9.170  1.00  0.00     0.167 HD
ENDBRANCH  33  35
ENDBRANCH  32  33
ENDBRANCH  31  32
ENDBRANCH  20  31
TORSDOF 9
ENDMDL
MODEL 5
REMARK minimizedAffinity -8.17268562
REMARK  9 active torsions:
REMARK  status: ('A' for Active; 'I' for Inactive)
REMARK    1  A    between atoms: C12_14  and  C13_15 
REMARK    2  A    between atoms: C13_15  and  C15_17 
REMARK    3  A    between atoms: C15_17  and  C16_18 
REMARK    4  A    between atoms: C16_18  and  C17_19 
REMARK    5  A    between atoms: C18_20  and  C20_22 
REMARK    6  A    between atoms: C26_29  and  C27_30 
REMARK    7  A    between atoms: C27_30  and  C28_31 
REMARK    8  A    between atoms: C28_31  and  C29_32 
REMARK    9  A    between atoms: C29_32  and  O5_34 
ROOT
HETATM    1  C1  UNL     1       4.588   8.990   9.464  1.00  0.00     0.025 C 
HETATM    2  C2  UNL     1       3.658   8.058   9.701  1.00  0.00     0.015 C 
HETATM    3  C3  UNL     1       2.569   7.826   8.727  1.00  0.00     0.289 C 
HETATM    4  O1  UNL     1       2.231   8.571   7.824  1.00  0.00    -0.260 OA
HETATM    5  O2  UNL     1       2.006   6.627   9.016  1.00  0.00    -0.311 OA
HETATM    6  C4  UNL     1       2.741   5.976  10.063  1.00  0.00     0.142 C 
HETATM    7  C5  UNL     1       1.775   5.192  10.936  1.00  0.00     0.039 C 
HETATM    8  C6  UNL     1       0.756   6.127  11.605  1.00  0.00     0.006 C 
HETATM    9  C7  UNL     1       1.487   7.098  12.557  1.00  0.00    -0.027 A 
HETATM   10  C8  UNL     1       1.100   6.996  14.038  1.00  0.00     0.011 C 
HETATM   11  C9  UNL     1      -0.399   6.820  14.350  1.00  0.00     0.011 C 
HETATM   12  C10 UNL     1      -1.259   6.373  13.160  1.00  0.00    -0.032 C 
HETATM   13  C11 UNL     1      -1.709   7.644  12.378  1.00  0.00     0.016 C 
HETATM   14  C12 UNL     1      -2.526   5.516  13.494  1.00  0.00    -0.002 C 
HETATM   15  C21 UNL     1      -2.767   4.740  12.166  1.00  0.00     0.006 C 
HETATM   16  C22 UNL     1      -1.478   4.827  11.331  1.00  0.00     0.011 C 
HETATM   17  C23 UNL     1      -0.410   5.366  12.301  1.00  0.00    -0.032 C 
HETATM   18  C24 UNL     1       0.120   4.125  13.092  1.00  0.00     0.016 C 
HETATM   19  C25 UNL     1       1.784   8.507  12.082  1.00  0.00     0.022 A 
HETATM   20  C26 UNL     1       2.937   7.531  12.143  1.00  0.00    -0.021 A 
HETATM   21  C30 UNL     1       3.544   7.047  10.800  1.00  0.00     0.063 C 
ENDROOT
BRANCH  14  22
HETATM   22  C13 UNL     1      -3.823   6.204  14.021  1.00  0.00    -0.014 C 
HETATM   23  C14 UNL     1      -3.775   6.428  15.538  1.00  0.00     0.010 C 
BRANCH  22  24
HETATM   24  C15 UNL     1      -5.069   5.354  13.647  1.00  0.00     0.008 C 
BRANCH  24  25
HETATM   25  C16 UNL     1      -6.251   6.171  13.109  1.00  0.00     0.028 C 
BRANCH  25  26
HETATM   26  C17 UNL     1      -7.368   6.218  14.118  1.00  0.00    -0.017 C 
HETATM   27  C18 UNL     1      -7.661   7.226  14.961  1.00  0.00    -0.028 C 
HETATM   28  C19 UNL     1      -6.944   8.531  15.111  1.00  0.00     0.051 C 
BRANCH  27  29
HETATM   29  C20 UNL     1      -8.839   7.033  15.857  1.00  0.00     0.265 C 
HETATM   30  O3  UNL     1      -9.989   6.975  15.439  1.00  0.00    -0.302 OA
ENDBRANCH  27  29
ENDBRANCH  25  26
ENDBRANCH  24  25
ENDBRANCH  22  24
ENDBRANCH  14  22
BRANCH  20  31
HETATM   31  C27 UNL     1       3.961   7.627  13.286  1.00  0.00     0.021 C 
BRANCH  31  32
HETATM   32  C28 UNL     1       5.426   7.700  12.874  1.00  0.00     0.111 C 
BRANCH  32  33
HETATM   33  C29 UNL     1       6.363   7.310  13.984  1.00  0.00     0.139 C 
HETATM   34  O4  UNL     1       7.579   7.379  13.979  1.00  0.00    -0.650 OA
BRANCH  33  35
HETATM   35  O5  UNL     1       5.702   6.910  15.090  1.00  0.00    -0.776 OA
HETATM   36  H41 UNL     1       6.414   6.702  15.733  1.00  0.00     0.167 HD
ENDBRANCH  33  35
ENDBRANCH  32  33
ENDBRANCH  31  32
ENDBRANCH  20  31
TORSDOF 9
ENDMDL
MODEL 6
REMARK minimizedAffinity -8.15793419
REMARK  9 active torsions:
REMARK  status: ('A' for Active; 'I' for Inactive)
REMARK    1  A    between atoms: C12_14  and  C13_15 
REMARK    2  A    between atoms: C13_15  and  C15_17 
REMARK    3  A    between atoms: C15_17  and  C16_18 
REMARK    4  A    between atoms: C16_18  and  C17_19 
REMARK    5  A    between atoms: C18_20  and  C20_22 
REMARK    6  A    between atoms: C26_29  and  C27_30 
REMARK    7  A    between atoms: C27_30  and  C28_31 
REMARK    8  A    between atoms: C28_31  and  C29_32 
REMARK    9  A    between atoms: C29_32  and  O5_34 
ROOT
HETATM    1  C1  UNL     1       5.578   7.724  12.583  1.00  0.00     0.025 C 
HETATM    2  C2  UNL     1       4.447   8.169  13.144  1.00  0.00     0.015 C 
HETATM    3  C3  UNL     1       4.290   8.156  14.615  1.00  0.00     0.289 C 
HETATM    4  O1  UNL     1       4.964   7.531  15.413  1.00  0.00    -0.260 OA
HETATM    5  O2  UNL     1       3.251   8.972  14.925  1.00  0.00    -0.311 OA
HETATM    6  C4  UNL     1       2.774   9.634  13.744  1.00  0.00     0.142 C 
HETATM    7  C5  UNL     1       1.268   9.807  13.845  1.00  0.00     0.039 C 
HETATM    8  C6  UNL     1       0.563   8.444  13.921  1.00  0.00     0.006 C 
HETATM    9  C7  UNL     1       0.807   7.657  12.616  1.00  0.00    -0.027 A 
HETATM   10  C8  UNL     1      -0.445   7.313  11.800  1.00  0.00     0.011 C 
HETATM   11  C9  UNL     1      -1.681   6.844  12.595  1.00  0.00     0.011 C 
HETATM   12  C10 UNL     1      -1.639   7.156  14.098  1.00  0.00    -0.032 C 
HETATM   13  C11 UNL     1      -0.900   5.987  14.818  1.00  0.00     0.016 C 
HETATM   14  C12 UNL     1      -3.018   7.386  14.802  1.00  0.00    -0.002 C 
HETATM   15  C21 UNL     1      -2.624   8.256  16.033  1.00  0.00     0.006 C 
HETATM   16  C22 UNL     1      -1.220   8.829  15.773  1.00  0.00     0.011 C 
HETATM   17  C23 UNL     1      -0.948   8.555  14.282  1.00  0.00    -0.032 C 
HETATM   18  C24 UNL     1      -1.630   9.724  13.498  1.00  0.00     0.016 C 
HETATM   19  C25 UNL     1       1.882   6.588  12.596  1.00  0.00     0.022 A 
HETATM   20  C26 UNL     1       2.182   7.895  11.898  1.00  0.00    -0.021 A 
HETATM   21  C30 UNL     1       3.247   8.826  12.537  1.00  0.00     0.063 C 
ENDROOT
BRANCH  14  22
HETATM   22  C13 UNL     1      -3.910   6.169  15.200  1.00  0.00    -0.014 C 
HETATM   23  C14 UNL     1      -3.853   5.053  14.149  1.00  0.00     0.010 C 
BRANCH  22  24
HETATM   24  C15 UNL     1      -5.379   6.629  15.411  1.00  0.00     0.008 C 
BRANCH  24  25
HETATM   25  C16 UNL     1      -6.202   6.724  14.119  1.00  0.00     0.028 C 
BRANCH  25  26
HETATM   26  C17 UNL     1      -6.499   5.350  13.577  1.00  0.00    -0.017 C 
HETATM   27  C18 UNL     1      -7.605   4.958  12.917  1.00  0.00    -0.028 C 
HETATM   28  C19 UNL     1      -8.808   5.781  12.577  1.00  0.00     0.051 C 
BRANCH  27  29
HETATM   29  C20 UNL     1      -7.650   3.537  12.464  1.00  0.00     0.265 C 
HETATM   30  O3  UNL     1      -8.437   2.718  12.923  1.00  0.00    -0.302 OA
ENDBRANCH  27  29
ENDBRANCH  25  26
ENDBRANCH  24  25
ENDBRANCH  22  24
ENDBRANCH  14  22
BRANCH  20  31
HETATM   31  C27 UNL     1       2.133   7.973  10.363  1.00  0.00     0.021 C 
BRANCH  31  32
HETATM   32  C28 UNL     1       3.291   7.322   9.618  1.00  0.00     0.111 C 
BRANCH  32  33
HETATM   33  C29 UNL     1       2.843   6.543   8.412  1.00  0.00     0.139 C 
HETATM   34  O4  UNL     1       2.817   5.331   8.288  1.00  0.00    -0.650 OA
BRANCH  33  35
HETATM   35  O5  UNL     1       2.376   7.345   7.434  1.00  0.00    -0.776 OA
HETATM   36  H41 UNL     1       2.106   6.724   6.722  1.00  0.00     0.167 HD
ENDBRANCH  33  35
ENDBRANCH  32  33
ENDBRANCH  31  32
ENDBRANCH  20  31
TORSDOF 9
ENDMDL
MODEL 7
REMARK minimizedAffinity -7.84844112
REMARK  9 active torsions:
REMARK  status: ('A' for Active; 'I' for Inactive)
REMARK    1  A    between atoms: C12_14  and  C13_15 
REMARK    2  A    between atoms: C13_15  and  C15_17 
REMARK    3  A    between atoms: C15_17  and  C16_18 
REMARK    4  A    between atoms: C16_18  and  C17_19 
REMARK    5  A    between atoms: C18_20  and  C20_22 
REMARK    6  A    between atoms: C26_29  and  C27_30 
REMARK    7  A    between atoms: C27_30  and  C28_31 
REMARK    8  A    between atoms: C28_31  and  C29_32 
REMARK    9  A    between atoms: C29_32  and  O5_34 
ROOT
HETATM    1  C1  UNL     1       0.430   4.761  11.493  1.00  0.00     0.025 C 
HETATM    2  C2  UNL     1       0.190   6.023  11.870  1.00  0.00     0.015 C 
HETATM    3  C3  UNL     1       1.274   7.029  11.836  1.00  0.00     0.289 C 
HETATM    4  O1  UNL     1       2.469   6.808  11.760  1.00  0.00    -0.260 OA
HETATM    5  O2  UNL     1       0.699   8.256  11.903  1.00  0.00    -0.311 OA
HETATM    6  C4  UNL     1      -0.730   8.134  11.857  1.00  0.00     0.142 C 
HETATM    7  C5  UNL     1      -1.349   9.212  12.731  1.00  0.00     0.039 C 
HETATM    8  C6  UNL     1      -0.923   9.041  14.197  1.00  0.00     0.006 C 
HETATM    9  C7  UNL     1      -1.459   7.700  14.743  1.00  0.00    -0.027 A 
HETATM   10  C8  UNL     1      -2.438   7.803  15.919  1.00  0.00     0.011 C 
HETATM   11  C9  UNL     1      -2.100   8.835  17.013  1.00  0.00     0.011 C 
HETATM   12  C10 UNL     1      -1.065   9.894  16.604  1.00  0.00    -0.032 C 
HETATM   13  C11 UNL     1       0.357   9.324  16.892  1.00  0.00     0.016 C 
HETATM   14  C12 UNL     1      -1.191  11.296  17.289  1.00  0.00    -0.002 C 
HETATM   15  C21 UNL     1      -0.493  12.235  16.262  1.00  0.00     0.006 C 
HETATM   16  C22 UNL     1      -0.397  11.481  14.925  1.00  0.00     0.011 C 
HETATM   17  C23 UNL     1      -1.312  10.253  15.094  1.00  0.00    -0.032 C 
HETATM   18  C24 UNL     1      -2.761  10.749  14.773  1.00  0.00     0.016 C 
HETATM   19  C25 UNL     1      -0.522   6.509  14.808  1.00  0.00     0.022 A 
HETATM   20  C26 UNL     1      -1.570   6.517  13.718  1.00  0.00    -0.021 A 
HETATM   21  C30 UNL     1      -1.087   6.703  12.255  1.00  0.00     0.063 C 
ENDROOT
BRANCH  14  22
HETATM   22  C13 UNL     1      -0.662  11.511  18.742  1.00  0.00    -0.014 C 
HETATM   23  C14 UNL     1      -0.861  12.956  19.213  1.00  0.00     0.010 C 
BRANCH  22  24
HETATM   24  C15 UNL     1       0.841  11.123  18.826  1.00  0.00     0.008 C 
BRANCH  24  25
HETATM   25  C16 UNL     1       1.509  11.479  20.161  1.00  0.00     0.028 C 
BRANCH  25  26
HETATM   26  C17 UNL     1       1.590  10.268  21.053  1.00  0.00    -0.017 C 
HETATM   27  C18 UNL     1       2.683   9.787  21.675  1.00  0.00    -0.028 C 
HETATM   28  C19 UNL     1       4.079  10.325  21.618  1.00  0.00     0.051 C 
BRANCH  27  29
HETATM   29  C20 UNL     1       2.496   8.575  22.525  1.00  0.00     0.265 C 
HETATM   30  O3  UNL     1       1.578   7.781  22.357  1.00  0.00    -0.302 OA
ENDBRANCH  27  29
ENDBRANCH  25  26
ENDBRANCH  24  25
ENDBRANCH  22  24
ENDBRANCH  14  22
BRANCH  20  31
HETATM   31  C27 UNL     1      -2.819   5.631  13.849  1.00  0.00     0.021 C 
BRANCH  31  32
HETATM   32  C28 UNL     1      -3.548   5.298  12.554  1.00  0.00     0.111 C 
BRANCH  32  33
HETATM   33  C29 UNL     1      -4.831   4.547  12.785  1.00  0.00     0.139 C 
HETATM   34  O4  UNL     1      -5.709   4.820  13.585  1.00  0.00    -0.650 OA
BRANCH  33  35
HETATM   35  O5  UNL     1      -4.974   3.512  11.932  1.00  0.00    -0.776 OA
HETATM   36  H41 UNL     1      -5.843   3.121  12.173  1.00  0.00     0.167 HD
ENDBRANCH  33  35
ENDBRANCH  32  33
ENDBRANCH  31  32
ENDBRANCH  20  31
TORSDOF 9
ENDMDL
MODEL 8
REMARK minimizedAffinity -7.63683271
REMARK  9 active torsions:
REMARK  status: ('A' for Active; 'I' for Inactive)
REMARK    1  A    between atoms: C12_14  and  C13_15 
REMARK    2  A    between atoms: C13_15  and  C15_17 
REMARK    3  A    between atoms: C15_17  and  C16_18 
REMARK    4  A    between atoms: C16_18  and  C17_19 
REMARK    5  A    between atoms: C18_20  and  C20_22 
REMARK    6  A    between atoms: C26_29  and  C27_30 
REMARK    7  A    between atoms: C27_30  and  C28_31 
REMARK    8  A    between atoms: C28_31  and  C29_32 
REMARK    9  A    between atoms: C29_32  and  O5_34 
ROOT
HETATM    1  C1  UNL     1       2.778   9.026  11.557  1.00  0.00     0.025 C 
HETATM    2  C2  UNL     1       1.727   8.216  11.733  1.00  0.00     0.015 C 
HETATM    3  C3  UNL     1       0.769   7.987  10.629  1.00  0.00     0.289 C 
HETATM    4  O1  UNL     1       0.645   8.662   9.622  1.00  0.00    -0.260 OA
HETATM    5  O2  UNL     1       0.044   6.883  10.935  1.00  0.00    -0.311 OA
HETATM    6  C4  UNL     1       0.547   6.279  12.135  1.00  0.00     0.142 C 
HETATM    7  C5  UNL     1      -0.612   5.684  12.917  1.00  0.00     0.039 C 
HETATM    8  C6  UNL     1      -1.607   6.776  13.338  1.00  0.00     0.006 C 
HETATM    9  C7  UNL     1      -0.918   7.767  14.300  1.00  0.00    -0.027 A 
HETATM   10  C8  UNL     1      -1.520   7.857  15.708  1.00  0.00     0.011 C 
HETATM   11  C9  UNL     1      -3.059   7.856  15.804  1.00  0.00     0.011 C 
HETATM   12  C10 UNL     1      -3.785   7.370  14.540  1.00  0.00    -0.032 C 
HETATM   13  C11 UNL     1      -3.979   8.590  13.590  1.00  0.00     0.016 C 
HETATM   14  C12 UNL     1      -5.171   6.676  14.754  1.00  0.00    -0.002 C 
HETATM   15  C21 UNL     1      -5.304   5.792  13.479  1.00  0.00     0.006 C 
HETATM   16  C22 UNL     1      -3.907   5.670  12.845  1.00  0.00     0.011 C 
HETATM   17  C23 UNL     1      -2.937   6.205  13.914  1.00  0.00    -0.032 C 
HETATM   18  C24 UNL     1      -2.662   5.008  14.884  1.00  0.00     0.016 C 
HETATM   19  C25 UNL     1      -0.406   9.084  13.751  1.00  0.00     0.022 A 
HETATM   20  C26 UNL     1       0.615   8.016  14.074  1.00  0.00    -0.021 A 
HETATM   21  C30 UNL     1       1.350   7.340  12.887  1.00  0.00     0.063 C 
ENDROOT
BRANCH  14  22
HETATM   22  C13 UNL     1      -6.448   7.534  15.015  1.00  0.00    -0.014 C 
HETATM   23  C14 UNL     1      -6.104   9.009  15.258  1.00  0.00     0.010 C 
BRANCH  22  24
HETATM   24  C15 UNL     1      -7.239   6.963  16.225  1.00  0.00     0.008 C 
BRANCH  24  25
HETATM   25  C16 UNL     1      -8.686   6.570  15.902  1.00  0.00     0.028 C 
BRANCH  25  26
HETATM   26  C17 UNL     1      -9.485   7.778  15.490  1.00  0.00    -0.017 C 
HETATM   27  C18 UNL     1     -10.236   7.917  14.382  1.00  0.00    -0.028 C 
HETATM   28  C19 UNL     1     -10.446   6.918  13.287  1.00  0.00     0.051 C 
BRANCH  27  29
HETATM   29  C20 UNL     1     -10.951   9.216  14.211  1.00  0.00     0.265 C 
HETATM   30  O3  UNL     1     -11.636   9.473  13.229  1.00  0.00    -0.302 OA
ENDBRANCH  27  29
ENDBRANCH  25  26
ENDBRANCH  24  25
ENDBRANCH  22  24
ENDBRANCH  14  22
BRANCH  20  31
HETATM   31  C27 UNL     1       1.470   8.134  15.345  1.00  0.00     0.021 C 
BRANCH  31  32
HETATM   32  C28 UNL     1       2.715   7.257  15.404  1.00  0.00     0.111 C 
BRANCH  32  33
HETATM   33  C29 UNL     1       3.984   8.033  15.183  1.00  0.00     0.139 C 
HETATM   34  O4  UNL     1       4.388   8.982  15.831  1.00  0.00    -0.650 OA
BRANCH  33  35
HETATM   35  O5  UNL     1       4.725   7.519  14.181  1.00  0.00    -0.776 OA
HETATM   36  H41 UNL     1       5.519   8.095  14.149  1.00  0.00     0.167 HD
ENDBRANCH  33  35
ENDBRANCH  32  33
ENDBRANCH  31  32
ENDBRANCH  20  31
TORSDOF 9
ENDMDL
MODEL 9
REMARK minimizedAffinity -7.54017878
REMARK  9 active torsions:
REMARK  status: ('A' for Active; 'I' for Inactive)
REMARK    1  A    between atoms: C12_14  and  C13_15 
REMARK    2  A    between atoms: C13_15  and  C15_17 
REMARK    3  A    between atoms: C15_17  and  C16_18 
REMARK    4  A    between atoms: C16_18  and  C17_19 
REMARK    5  A    between atoms: C18_20  and  C20_22 
REMARK    6  A    between atoms: C26_29  and  C27_30 
REMARK    7  A    between atoms: C27_30  and  C28_31 
REMARK    8  A    between atoms: C28_31  and  C29_32 
REMARK    9  A    between atoms: C29_32  and  O5_34 
ROOT
HETATM    1  C1  UNL     1      -2.056   4.808  11.248  1.00  0.00     0.025 C 
HETATM    2  C2  UNL     1      -1.885   5.375  12.448  1.00  0.00     0.015 C 
HETATM    3  C3  UNL     1      -2.694   4.931  13.604  1.00  0.00     0.289 C 
HETATM    4  O1  UNL     1      -3.722   4.277  13.564  1.00  0.00    -0.260 OA
HETATM    5  O2  UNL     1      -2.088   5.382  14.730  1.00  0.00    -0.311 OA
HETATM    6  C4  UNL     1      -0.838   6.006  14.400  1.00  0.00     0.142 C 
HETATM    7  C5  UNL     1      -0.598   7.170  15.347  1.00  0.00     0.039 C 
HETATM    8  C6  UNL     1      -1.695   8.235  15.196  1.00  0.00     0.006 C 
HETATM    9  C7  UNL     1      -1.647   8.835  13.775  1.00  0.00    -0.027 A 
HETATM   10  C8  UNL     1      -1.352  10.338  13.695  1.00  0.00     0.011 C 
HETATM   11  C9  UNL     1      -2.055  11.236  14.732  1.00  0.00     0.011 C 
HETATM   12  C10 UNL     1      -2.635  10.493  15.944  1.00  0.00    -0.032 C 
HETATM   13  C11 UNL     1      -4.074  10.016  15.581  1.00  0.00     0.016 C 
HETATM   14  C12 UNL     1      -2.696  11.289  17.290  1.00  0.00    -0.002 C 
HETATM   15  C21 UNL     1      -2.699  10.152  18.354  1.00  0.00     0.006 C 
HETATM   16  C22 UNL     1      -2.224   8.862  17.663  1.00  0.00     0.011 C 
HETATM   17  C23 UNL     1      -1.651   9.323  16.310  1.00  0.00    -0.032 C 
HETATM   18  C24 UNL     1      -0.181   9.776  16.596  1.00  0.00     0.016 C 
HETATM   19  C25 UNL     1      -2.627   8.332  12.733  1.00  0.00     0.022 A 
HETATM   20  C26 UNL     1      -1.191   7.874  12.621  1.00  0.00    -0.021 A 
HETATM   21  C30 UNL     1      -0.884   6.383  12.920  1.00  0.00     0.063 C 
ENDROOT
BRANCH  14  22
HETATM   22  C13 UNL     1      -3.831  12.331  17.536  1.00  0.00    -0.014 C 
HETATM   23  C14 UNL     1      -3.429  13.735  17.067  1.00  0.00     0.010 C 
BRANCH  22  24
HETATM   24  C15 UNL     1      -4.213  12.361  19.042  1.00  0.00     0.008 C 
BRANCH  24  25
HETATM   25  C16 UNL     1      -5.197  13.476  19.421  1.00  0.00     0.028 C 
BRANCH  25  26
HETATM   26  C17 UNL     1      -5.550  13.398  20.883  1.00  0.00    -0.017 C 
HETATM   27  C18 UNL     1      -6.783  13.334  21.420  1.00  0.00    -0.028 C 
HETATM   28  C19 UNL     1      -8.095  13.340  20.701  1.00  0.00     0.051 C 
BRANCH  27  29
HETATM   29  C20 UNL     1      -6.865  13.245  22.908  1.00  0.00     0.265 C 
HETATM   30  O3  UNL     1      -7.927  13.289  23.518  1.00  0.00    -0.302 OA
ENDBRANCH  27  29
ENDBRANCH  25  26
ENDBRANCH  24  25
ENDBRANCH  22  24
ENDBRANCH  14  22
BRANCH  20  31
HETATM   31  C27 UNL     1      -0.271   8.493  11.556  1.00  0.00     0.021 C 
BRANCH  31  32
HETATM   32  C28 UNL     1       0.057   7.616  10.355  1.00  0.00     0.111 C 
BRANCH  32  33
HETATM   33  C29 UNL     1       0.353   8.413   9.115  1.00  0.00     0.139 C 
HETATM   34  O4  UNL     1       1.351   8.346   8.419  1.00  0.00    -0.650 OA
BRANCH  33  35
HETATM   35  O5  UNL     1      -0.672   9.218   8.771  1.00  0.00    -0.776 OA
HETATM   36  H41 UNL     1      -0.364   9.664   7.952  1.00  0.00     0.167 HD
ENDBRANCH  33  35
ENDBRANCH  32  33
ENDBRANCH  31  32
ENDBRANCH  20  31
TORSDOF 9
ENDMDL
