MODEL 1
REMARK minimizedAffinity -7.54546165
REMARK CNNscore 0.395361334
REMARK CNNaffinity 7.00032234
REMARK  6 active torsions:
REMARK  status: ('A' for Active; 'I' for Inactive)
REMARK    1  A    between atoms: C3_3  and  C4_4 
REMARK    2  A    between atoms: C4_4  and  O1_5 
REMARK    3  A    between atoms: C7_9  and  O3_10 
REMARK    4  A    between atoms: C25_30  and  C26_31 
REMARK    5  A    between atoms: C39_45  and  O7_47 
REMARK    6  A    between atoms: C41_48  and  O8_49 
ROOT
HETATM    1  C1  UNL     1      -5.158  42.951  -8.291  1.00  0.00     0.013 C 
HETATM    2  C2  UNL     1      -4.602  44.366  -8.160  1.00  0.00     0.023 C 
HETATM    3  C3  UNL     1      -5.671  45.327  -7.568  1.00  0.00     0.047 C 
HETATM    4  C5  UNL     1      -5.975  46.359  -8.682  1.00  0.00     0.160 C 
HETATM    5  O2  UNL     1      -5.519  45.670  -9.852  1.00  0.00    -0.373 OA
HETATM    6  C6  UNL     1      -4.279  45.028  -9.496  1.00  0.00     0.167 C 
HETATM    7  C7  UNL     1      -3.750  44.229 -10.700  1.00  0.00     0.226 C 
HETATM    8  C8  UNL     1      -3.546  45.210 -11.786  1.00  0.00    -0.072 C 
HETATM    9  C9  UNL     1      -3.565  46.191 -12.481  1.00  0.00    -0.103 C 
HETATM   10  C10 UNL     1      -3.789  47.442 -13.207  1.00  0.00     0.099 C 
HETATM   11  C11 UNL     1      -2.993  48.667 -12.740  1.00  0.00     0.009 C 
HETATM   12  C12 UNL     1      -1.447  48.417 -13.003  1.00  0.00     0.016 C 
HETATM   13  C13 UNL     1      -0.642  49.728 -12.940  1.00  0.00     0.027 C 
HETATM   14  C14 UNL     1      -1.442  50.957 -12.521  1.00  0.00    -0.036 C 
HETATM   15  C15 UNL     1      -1.200  51.983 -13.391  1.00  0.00     0.057 C 
HETATM   16  C16 UNL     1       0.256  52.061 -13.794  1.00  0.00     0.154 C 
HETATM   17  O4  UNL     1       0.651  52.643 -14.789  1.00  0.00    -0.293 OA
HETATM   18  C17 UNL     1       1.133  51.432 -12.725  1.00  0.00     0.071 C 
HETATM   19  C18 UNL     1       2.533  51.919 -12.432  1.00  0.00     0.045 C 
HETATM   20  C19 UNL     1       2.680  51.805 -10.894  1.00  0.00     0.122 C 
HETATM   21  C20 UNL     1       2.514  50.303 -10.519  1.00  0.00     0.033 C 
HETATM   22  C21 UNL     1       1.183  49.654 -11.008  1.00  0.00     0.013 C 
HETATM   23  C22 UNL     1       0.860  49.912 -12.506  1.00  0.00    -0.026 C 
HETATM   24  C23 UNL     1       1.754  49.029 -13.394  1.00  0.00     0.016 C 
HETATM   25  O5  UNL     1       1.646  52.525 -10.168  1.00  0.00    -0.384 OA
HETATM   26  C24 UNL     1       1.551  53.938 -10.407  1.00  0.00     0.190 C 
HETATM   27  C25 UNL     1       0.200  54.593  -9.965  1.00  0.00     0.121 C 
HETATM   28  C32 UNL     1      -1.015  54.112 -10.700  1.00  0.00    -0.093 C 
HETATM   29  C33 UNL     1      -2.074  53.754 -11.162  1.00  0.00    -0.080 C 
HETATM   30  C34 UNL     1      -3.419  53.227 -11.563  1.00  0.00     0.263 C 
HETATM   31  O6  UNL     1      -3.525  51.822 -11.974  1.00  0.00    -0.363 OA
HETATM   32  C35 UNL     1      -2.549  50.861 -11.457  1.00  0.00     0.094 C 
HETATM   33  C36 UNL     1      -2.465  51.131  -9.933  1.00  0.00     0.044 C 
HETATM   34  C37 UNL     1      -3.864  50.664  -9.433  1.00  0.00     0.012 C 
HETATM   35  C38 UNL     1      -4.442  49.653 -10.499  1.00  0.00     0.034 C 
HETATM   36  C39 UNL     1      -5.594  48.749  -9.886  1.00  0.00     0.087 C 
HETATM   37  C40 UNL     1      -6.426  48.116 -11.012  1.00  0.00     0.049 C 
HETATM   38  C41 UNL     1      -5.372  47.804  -8.610  1.00  0.00     0.181 C 
HETATM   39  C42 UNL     1      -3.131  49.293 -11.302  1.00  0.00     0.002 C 
HETATM   40  C43 UNL     1      -2.249  48.409 -10.346  1.00  0.00     0.019 C 
ENDROOT
BRANCH  27  41
HETATM   41  C26 UNL     1      -0.071  54.641  -8.464  1.00  0.00    -0.040 A 
HETATM   42  C27 UNL     1      -0.750  53.627  -7.771  1.00  0.00     0.008 A 
HETATM   43  C28 UNL     1      -0.980  53.732  -6.397  1.00  0.00     0.001 A 
HETATM   44  C29 UNL     1      -0.548  54.856  -5.695  1.00  0.00     0.000 A 
HETATM   45  C30 UNL     1       0.110  55.882  -6.366  1.00  0.00     0.001 A 
HETATM   46  C31 UNL     1       0.344  55.774  -7.738  1.00  0.00     0.008 A 
ENDBRANCH  27  41
BRANCH  36  47
HETATM   47  O7  UNL     1      -6.519  49.782  -9.368  1.00  0.00    -0.387 OA
HETATM   48  H49 UNL     1      -7.366  49.354  -9.153  1.00  0.00     0.210 HD
ENDBRANCH  36  47
BRANCH  38  49
HETATM   49  O8  UNL     1      -4.020  47.742  -8.175  1.00  0.00    -0.390 OA
HETATM   50  H51 UNL     1      -3.895  48.463  -7.530  1.00  0.00     0.210 HD
ENDBRANCH  38  49
BRANCH   7  51
HETATM   51  O3  UNL     1      -2.511  43.597 -10.404  1.00  0.00    -0.381 OA
HETATM   52  H12 UNL     1      -2.717  42.741  -9.997  1.00  0.00     0.211 HD
ENDBRANCH   7  51
BRANCH   3  53
HETATM   53  C4  UNL     1      -5.325  45.874  -6.189  1.00  0.00     0.172 C 
BRANCH  53  54
HETATM   54  O1  UNL     1      -6.197  46.948  -5.856  1.00  0.00    -0.400 OA
HETATM   55  H8  UNL     1      -7.055  46.559  -5.608  1.00  0.00     0.209 HD
ENDBRANCH  53  54
ENDBRANCH   3  53
TORSDOF 6
ENDMDL
MODEL 2
REMARK minimizedAffinity -7.78885317
REMARK CNNscore 0.370630741
REMARK CNNaffinity 6.72344208
REMARK  6 active torsions:
REMARK  status: ('A' for Active; 'I' for Inactive)
REMARK    1  A    between atoms: C3_3  and  C4_4 
REMARK    2  A    between atoms: C4_4  and  O1_5 
REMARK    3  A    between atoms: C7_9  and  O3_10 
REMARK    4  A    between atoms: C25_30  and  C26_31 
REMARK    5  A    between atoms: C39_45  and  O7_47 
REMARK    6  A    between atoms: C41_48  and  O8_49 
ROOT
HETATM    1  C1  UNL     1       0.589  44.616 -12.077  1.00  0.00     0.013 C 
HETATM    2  C2  UNL     1       0.356  45.832 -11.184  1.00  0.00     0.023 C 
HETATM    3  C3  UNL     1      -1.163  46.138 -11.055  1.00  0.00     0.047 C 
HETATM    4  C5  UNL     1      -1.371  47.525 -11.713  1.00  0.00     0.160 C 
HETATM    5  O2  UNL     1      -0.206  47.635 -12.539  1.00  0.00    -0.373 OA
HETATM    6  C6  UNL     1       0.900  47.134 -11.762  1.00  0.00     0.167 C 
HETATM    7  C7  UNL     1       2.185  47.184 -12.605  1.00  0.00     0.226 C 
HETATM    8  C8  UNL     1       2.388  48.604 -12.962  1.00  0.00    -0.072 C 
HETATM    9  C9  UNL     1       2.247  49.781 -13.161  1.00  0.00    -0.103 C 
HETATM   10  C10 UNL     1       1.838  51.164 -13.413  1.00  0.00     0.099 C 
HETATM   11  C11 UNL     1       1.732  52.089 -12.193  1.00  0.00     0.009 C 
HETATM   12  C12 UNL     1       3.175  52.291 -11.563  1.00  0.00     0.016 C 
HETATM   13  C13 UNL     1       3.213  53.498 -10.609  1.00  0.00     0.027 C 
HETATM   14  C14 UNL     1       1.865  54.167 -10.361  1.00  0.00    -0.036 C 
HETATM   15  C15 UNL     1       1.985  55.519 -10.521  1.00  0.00     0.057 C 
HETATM   16  C16 UNL     1       3.276  56.052  -9.937  1.00  0.00     0.154 C 
HETATM   17  O4  UNL     1       3.763  57.126 -10.247  1.00  0.00    -0.293 OA
HETATM   18  C17 UNL     1       3.780  55.129  -8.843  1.00  0.00     0.071 C 
HETATM   19  C18 UNL     1       4.548  55.634  -7.643  1.00  0.00     0.045 C 
HETATM   20  C19 UNL     1       4.049  54.768  -6.458  1.00  0.00     0.122 C 
HETATM   21  C20 UNL     1       4.411  53.288  -6.778  1.00  0.00     0.033 C 
HETATM   22  C21 UNL     1       3.853  52.761  -8.136  1.00  0.00     0.013 C 
HETATM   23  C22 UNL     1       4.132  53.695  -9.347  1.00  0.00    -0.026 C 
HETATM   24  C23 UNL     1       5.606  53.575  -9.771  1.00  0.00     0.016 C 
HETATM   25  O5  UNL     1       2.606  54.810  -6.290  1.00  0.00    -0.384 OA
HETATM   26  C24 UNL     1       2.019  56.099  -6.053  1.00  0.00     0.190 C 
HETATM   27  C25 UNL     1       0.476  56.179  -6.302  1.00  0.00     0.121 C 
HETATM   28  C32 UNL     1       0.043  55.940  -7.717  1.00  0.00    -0.093 C 
HETATM   29  C33 UNL     1      -0.439  55.691  -8.799  1.00  0.00    -0.080 C 
HETATM   30  C34 UNL     1      -1.098  55.219 -10.059  1.00  0.00     0.263 C 
HETATM   31  O6  UNL     1      -0.393  54.237 -10.892  1.00  0.00    -0.363 OA
HETATM   32  C35 UNL     1       0.573  53.339 -10.257  1.00  0.00     0.094 C 
HETATM   33  C36 UNL     1      -0.136  52.790  -8.992  1.00  0.00     0.044 C 
HETATM   34  C37 UNL     1      -1.254  51.891  -9.599  1.00  0.00     0.012 C 
HETATM   35  C38 UNL     1      -0.810  51.495 -11.062  1.00  0.00     0.034 C 
HETATM   36  C39 UNL     1      -1.591  50.216 -11.585  1.00  0.00     0.087 C 
HETATM   37  C40 UNL     1      -1.486  50.121 -13.114  1.00  0.00     0.049 C 
HETATM   38  C41 UNL     1      -1.555  48.804 -10.826  1.00  0.00     0.181 C 
HETATM   39  C42 UNL     1       0.729  51.843 -11.004  1.00  0.00     0.002 C 
HETATM   40  C43 UNL     1       1.398  50.766 -10.075  1.00  0.00     0.019 C 
ENDROOT
BRANCH  27  41
HETATM   41  C26 UNL     1      -0.408  55.393  -5.337  1.00  0.00    -0.040 A 
HETATM   42  C27 UNL     1      -0.855  54.087  -5.590  1.00  0.00     0.008 A 
HETATM   43  C28 UNL     1      -1.673  53.422  -4.673  1.00  0.00     0.001 A 
HETATM   44  C29 UNL     1      -2.068  54.052  -3.495  1.00  0.00     0.000 A 
HETATM   45  C30 UNL     1      -1.653  55.354  -3.233  1.00  0.00     0.001 A 
HETATM   46  C31 UNL     1      -0.831  56.017  -4.147  1.00  0.00     0.008 A 
ENDBRANCH  27  41
BRANCH  36  47
HETATM   47  O7  UNL     1      -2.995  50.648 -11.402  1.00  0.00    -0.387 OA
HETATM   48  H49 UNL     1      -3.570  50.027 -11.883  1.00  0.00     0.210 HD
ENDBRANCH  36  47
BRANCH  38  49
HETATM   49  O8  UNL     1      -0.649  48.767  -9.732  1.00  0.00    -0.390 OA
HETATM   50  H51 UNL     1      -1.141  49.060  -8.943  1.00  0.00     0.210 HD
ENDBRANCH  38  49
BRANCH   7  51
HETATM   51  O3  UNL     1       3.311  46.722 -11.869  1.00  0.00    -0.381 OA
HETATM   52  H12 UNL     1       3.346  45.759 -11.975  1.00  0.00     0.211 HD
ENDBRANCH   7  51
BRANCH   3  53
HETATM   53  C4  UNL     1      -1.723  45.944  -9.652  1.00  0.00     0.172 C 
BRANCH  53  54
HETATM   54  O1  UNL     1      -3.140  45.821  -9.704  1.00  0.00    -0.400 OA
HETATM   55  H8  UNL     1      -3.341  44.925 -10.028  1.00  0.00     0.209 HD
ENDBRANCH  53  54
ENDBRANCH   3  53
TORSDOF 6
ENDMDL
MODEL 3
REMARK minimizedAffinity -7.38365173
REMARK CNNscore 0.333278596
REMARK CNNaffinity 6.6350503
REMARK  6 active torsions:
REMARK  status: ('A' for Active; 'I' for Inactive)
REMARK    1  A    between atoms: C3_3  and  C4_4 
REMARK    2  A    between atoms: C4_4  and  O1_5 
REMARK    3  A    between atoms: C7_9  and  O3_10 
REMARK    4  A    between atoms: C25_30  and  C26_31 
REMARK    5  A    between atoms: C39_45  and  O7_47 
REMARK    6  A    between atoms: C41_48  and  O8_49 
ROOT
HETATM    1  C1  UNL     1       2.572  57.206   1.744  1.00  0.00     0.013 C 
HETATM    2  C2  UNL     1       3.060  56.358   0.571  1.00  0.00     0.023 C 
HETATM    3  C3  UNL     1       4.583  56.071   0.695  1.00  0.00     0.047 C 
HETATM    4  C5  UNL     1       5.245  56.775  -0.516  1.00  0.00     0.160 C 
HETATM    5  O2  UNL     1       4.246  57.735  -0.879  1.00  0.00    -0.373 OA
HETATM    6  C6  UNL     1       2.974  57.066  -0.777  1.00  0.00     0.167 C 
HETATM    7  C7  UNL     1       1.844  58.054  -1.114  1.00  0.00     0.226 C 
HETATM    8  C8  UNL     1       2.095  58.509  -2.498  1.00  0.00    -0.072 C 
HETATM    9  C9  UNL     1       2.589  58.753  -3.566  1.00  0.00    -0.103 C 
HETATM   10  C10 UNL     1       3.402  59.031  -4.752  1.00  0.00     0.099 C 
HETATM   11  C11 UNL     1       3.654  57.859  -5.710  1.00  0.00     0.009 C 
HETATM   12  C12 UNL     1       2.277  57.413  -6.364  1.00  0.00     0.016 C 
HETATM   13  C13 UNL     1       2.499  56.537  -7.609  1.00  0.00     0.027 C 
HETATM   14  C14 UNL     1       3.952  56.171  -7.891  1.00  0.00    -0.036 C 
HETATM   15  C15 UNL     1       4.244  56.417  -9.203  1.00  0.00     0.057 C 
HETATM   16  C16 UNL     1       3.113  56.017 -10.126  1.00  0.00     0.154 C 
HETATM   17  O4  UNL     1       2.988  56.439 -11.262  1.00  0.00    -0.293 OA
HETATM   18  C17 UNL     1       2.261  54.939  -9.479  1.00  0.00     0.071 C 
HETATM   19  C18 UNL     1       1.562  53.867 -10.280  1.00  0.00     0.045 C 
HETATM   20  C19 UNL     1       1.673  52.587  -9.413  1.00  0.00     0.122 C 
HETATM   21  C20 UNL     1       0.931  52.865  -8.072  1.00  0.00     0.033 C 
HETATM   22  C21 UNL     1       1.440  54.118  -7.296  1.00  0.00     0.013 C 
HETATM   23  C22 UNL     1       1.559  55.402  -8.164  1.00  0.00    -0.026 C 
HETATM   24  C23 UNL     1       0.162  55.988  -8.428  1.00  0.00     0.016 C 
HETATM   25  O5  UNL     1       3.044  52.255  -9.061  1.00  0.00    -0.384 OA
HETATM   26  C24 UNL     1       3.953  52.021 -10.148  1.00  0.00     0.190 C 
HETATM   27  C25 UNL     1       5.469  52.093  -9.769  1.00  0.00     0.121 C 
HETATM   28  C32 UNL     1       5.948  53.434  -9.298  1.00  0.00    -0.093 C 
HETATM   29  C33 UNL     1       6.439  54.437  -8.832  1.00  0.00    -0.080 C 
HETATM   30  C34 UNL     1       7.050  55.585  -8.087  1.00  0.00     0.263 C 
HETATM   31  O6  UNL     1       6.174  56.439  -7.277  1.00  0.00    -0.363 OA
HETATM   32  C35 UNL     1       4.934  55.873  -6.745  1.00  0.00     0.094 C 
HETATM   33  C36 UNL     1       5.330  54.507  -6.128  1.00  0.00     0.044 C 
HETATM   34  C37 UNL     1       6.193  54.930  -4.902  1.00  0.00     0.012 C 
HETATM   35  C38 UNL     1       5.795  56.410  -4.524  1.00  0.00     0.034 C 
HETATM   36  C39 UNL     1       6.220  56.769  -3.037  1.00  0.00     0.087 C 
HETATM   37  C40 UNL     1       6.239  58.293  -2.846  1.00  0.00     0.049 C 
HETATM   38  C41 UNL     1       5.705  55.944  -1.762  1.00  0.00     0.181 C 
HETATM   39  C42 UNL     1       4.424  56.551  -5.295  1.00  0.00     0.002 C 
HETATM   40  C43 UNL     1       3.387  55.648  -4.532  1.00  0.00     0.019 C 
ENDROOT
BRANCH  27  41
HETATM   41  C26 UNL     1       5.992  50.991  -8.851  1.00  0.00    -0.040 A 
HETATM   42  C27 UNL     1       5.167  50.013  -8.275  1.00  0.00     0.008 A 
HETATM   43  C28 UNL     1       5.702  49.034  -7.432  1.00  0.00     0.001 A 
HETATM   44  C29 UNL     1       7.064  49.024  -7.141  1.00  0.00     0.000 A 
HETATM   45  C30 UNL     1       7.897  49.997  -7.686  1.00  0.00     0.001 A 
HETATM   46  C31 UNL     1       7.364  50.971  -8.532  1.00  0.00     0.008 A 
ENDBRANCH  27  41
BRANCH  36  47
HETATM   47  O7  UNL     1       7.665  56.448  -3.070  1.00  0.00    -0.387 OA
HETATM   48  H49 UNL     1       8.079  56.825  -2.274  1.00  0.00     0.210 HD
ENDBRANCH  36  47
BRANCH  38  49
HETATM   49  O8  UNL     1       4.726  54.962  -2.076  1.00  0.00    -0.390 OA
HETATM   50  H51 UNL     1       5.205  54.138  -2.284  1.00  0.00     0.210 HD
ENDBRANCH  38  49
BRANCH   7  51
HETATM   51  O3  UNL     1       0.568  57.430  -1.053  1.00  0.00    -0.381 OA
HETATM   52  H12 UNL     1       0.266  57.486  -0.133  1.00  0.00     0.211 HD
ENDBRANCH   7  51
BRANCH   3  53
HETATM   53  C4  UNL     1       4.926  54.604   0.918  1.00  0.00     0.172 C 
BRANCH  53  54
HETATM   54  O1  UNL     1       6.332  54.410   0.817  1.00  0.00    -0.400 OA
HETATM   55  H8  UNL     1       6.731  54.744   1.641  1.00  0.00     0.209 HD
ENDBRANCH  53  54
ENDBRANCH   3  53
TORSDOF 6
ENDMDL
MODEL 4
REMARK minimizedAffinity -7.95356464
REMARK CNNscore 0.318394661
REMARK CNNaffinity 6.47559786
REMARK  6 active torsions:
REMARK  status: ('A' for Active; 'I' for Inactive)
REMARK    1  A    between atoms: C3_3  and  C4_4 
REMARK    2  A    between atoms: C4_4  and  O1_5 
REMARK    3  A    between atoms: C7_9  and  O3_10 
REMARK    4  A    between atoms: C25_30  and  C26_31 
REMARK    5  A    between atoms: C39_45  and  O7_47 
REMARK    6  A    between atoms: C41_48  and  O8_49 
ROOT
HETATM    1  C1  UNL     1      -7.000  43.113 -22.962  1.00  0.00     0.013 C 
HETATM    2  C2  UNL     1      -8.412  42.707 -23.379  1.00  0.00     0.023 C 
HETATM    3  C3  UNL     1      -8.399  42.021 -24.775  1.00  0.00     0.047 C 
HETATM    4  C5  UNL     1      -9.204  42.957 -25.712  1.00  0.00     0.160 C 
HETATM    5  O2  UNL     1      -9.151  44.199 -25.001  1.00  0.00    -0.373 OA
HETATM    6  C6  UNL     1      -9.350  43.887 -23.608  1.00  0.00     0.167 C 
HETATM    7  C7  UNL     1      -9.264  45.177 -22.775  1.00  0.00     0.226 C 
HETATM    8  C8  UNL     1     -10.334  46.064 -23.278  1.00  0.00    -0.072 C 
HETATM    9  C9  UNL     1     -11.201  46.579 -23.933  1.00  0.00    -0.103 C 
HETATM   10  C10 UNL     1     -12.156  47.089 -24.918  1.00  0.00     0.099 C 
HETATM   11  C11 UNL     1     -13.509  46.371 -25.009  1.00  0.00     0.009 C 
HETATM   12  C12 UNL     1     -14.305  46.582 -23.652  1.00  0.00     0.016 C 
HETATM   13  C13 UNL     1     -15.798  46.245 -23.813  1.00  0.00     0.027 C 
HETATM   14  C14 UNL     1     -16.188  45.669 -25.170  1.00  0.00    -0.036 C 
HETATM   15  C15 UNL     1     -17.278  46.333 -25.657  1.00  0.00     0.057 C 
HETATM   16  C16 UNL     1     -18.298  46.628 -24.578  1.00  0.00     0.154 C 
HETATM   17  O4  UNL     1     -19.160  47.483 -24.683  1.00  0.00    -0.293 OA
HETATM   18  C17 UNL     1     -18.163  45.635 -23.439  1.00  0.00     0.071 C 
HETATM   19  C18 UNL     1     -19.343  45.180 -22.613  1.00  0.00     0.045 C 
HETATM   20  C19 UNL     1     -19.080  43.678 -22.335  1.00  0.00     0.122 C 
HETATM   21  C20 UNL     1     -17.753  43.579 -21.526  1.00  0.00     0.033 C 
HETATM   22  C21 UNL     1     -16.523  44.251 -22.210  1.00  0.00     0.013 C 
HETATM   23  C22 UNL     1     -16.783  45.699 -22.713  1.00  0.00    -0.026 C 
HETATM   24  C23 UNL     1     -16.800  46.672 -21.521  1.00  0.00     0.016 C 
HETATM   25  O5  UNL     1     -18.879  42.901 -23.547  1.00  0.00    -0.384 OA
HETATM   26  C24 UNL     1     -19.954  42.898 -24.499  1.00  0.00     0.190 C 
HETATM   27  C25 UNL     1     -19.560  42.430 -25.940  1.00  0.00     0.121 C 
HETATM   28  C32 UNL     1     -18.572  43.308 -26.649  1.00  0.00    -0.093 C 
HETATM   29  C33 UNL     1     -17.729  43.886 -27.295  1.00  0.00    -0.080 C 
HETATM   30  C34 UNL     1     -16.570  44.451 -28.059  1.00  0.00     0.263 C 
HETATM   31  O6  UNL     1     -15.490  45.104 -27.310  1.00  0.00    -0.363 OA
HETATM   32  C35 UNL     1     -15.254  44.705 -25.922  1.00  0.00     0.094 C 
HETATM   33  C36 UNL     1     -15.251  43.154 -25.929  1.00  0.00     0.044 C 
HETATM   34  C37 UNL     1     -13.949  42.826 -26.718  1.00  0.00     0.012 C 
HETATM   35  C38 UNL     1     -12.999  44.083 -26.621  1.00  0.00     0.034 C 
HETATM   36  C39 UNL     1     -11.491  43.705 -26.942  1.00  0.00     0.087 C 
HETATM   37  C40 UNL     1     -10.689  44.970 -27.280  1.00  0.00     0.049 C 
HETATM   38  C41 UNL     1     -10.676  42.600 -26.113  1.00  0.00     0.181 C 
HETATM   39  C42 UNL     1     -13.660  44.857 -25.414  1.00  0.00     0.002 C 
HETATM   40  C43 UNL     1     -13.351  44.018 -24.121  1.00  0.00     0.019 C 
ENDROOT
BRANCH  27  41
HETATM   41  C26 UNL     1     -19.172  40.962 -26.093  1.00  0.00    -0.040 A 
HETATM   42  C27 UNL     1     -20.078  39.904 -25.926  1.00  0.00     0.008 A 
HETATM   43  C28 UNL     1     -19.661  38.577 -26.068  1.00  0.00     0.001 A 
HETATM   44  C29 UNL     1     -18.332  38.285 -26.367  1.00  0.00     0.000 A 
HETATM   45  C30 UNL     1     -17.412  39.319 -26.517  1.00  0.00     0.001 A 
HETATM   46  C31 UNL     1     -17.830  40.644 -26.380  1.00  0.00     0.008 A 
ENDBRANCH  27  41
BRANCH  36  47
HETATM   47  O7  UNL     1     -11.635  43.072 -28.273  1.00  0.00    -0.387 OA
HETATM   48  H49 UNL     1     -10.750  42.985 -28.667  1.00  0.00     0.210 HD
ENDBRANCH  36  47
BRANCH  38  49
HETATM   49  O8  UNL     1     -11.379  42.103 -24.982  1.00  0.00    -0.390 OA
HETATM   50  H51 UNL     1     -11.901  41.338 -25.285  1.00  0.00     0.210 HD
ENDBRANCH  38  49
BRANCH   7  51
HETATM   51  O3  UNL     1      -9.481  44.922 -21.393  1.00  0.00    -0.381 OA
HETATM   52  H12 UNL     1      -8.624  44.683 -21.008  1.00  0.00     0.211 HD
ENDBRANCH   7  51
BRANCH   3  53
HETATM   53  C4  UNL     1      -8.796  40.551 -24.753  1.00  0.00     0.172 C 
BRANCH  53  54
HETATM   54  O1  UNL     1      -7.653  39.740 -24.504  1.00  0.00    -0.400 OA
HETATM   55  H8  UNL     1      -7.448  39.813 -23.555  1.00  0.00     0.209 HD
ENDBRANCH  53  54
ENDBRANCH   3  53
TORSDOF 6
ENDMDL
MODEL 5
REMARK minimizedAffinity -7.93577671
REMARK CNNscore 0.318110496
REMARK CNNaffinity 6.70150614
REMARK  6 active torsions:
REMARK  status: ('A' for Active; 'I' for Inactive)
REMARK    1  A    between atoms: C3_3  and  C4_4 
REMARK    2  A    between atoms: C4_4  and  O1_5 
REMARK    3  A    between atoms: C7_9  and  O3_10 
REMARK    4  A    between atoms: C25_30  and  C26_31 
REMARK    5  A    between atoms: C39_45  and  O7_47 
REMARK    6  A    between atoms: C41_48  and  O8_49 
ROOT
HETATM    1  C1  UNL     1       7.088  45.554  -6.211  1.00  0.00     0.013 C 
HETATM    2  C2  UNL     1       6.033  46.480  -6.812  1.00  0.00     0.023 C 
HETATM    3  C3  UNL     1       5.921  46.266  -8.348  1.00  0.00     0.047 C 
HETATM    4  C5  UNL     1       6.374  47.599  -8.995  1.00  0.00     0.160 C 
HETATM    5  O2  UNL     1       7.126  48.199  -7.933  1.00  0.00    -0.373 OA
HETATM    6  C6  UNL     1       6.388  47.960  -6.719  1.00  0.00     0.167 C 
HETATM    7  C7  UNL     1       7.162  48.544  -5.524  1.00  0.00     0.226 C 
HETATM    8  C8  UNL     1       7.295  49.992  -5.789  1.00  0.00    -0.072 C 
HETATM    9  C9  UNL     1       7.321  51.080  -6.301  1.00  0.00    -0.103 C 
HETATM   10  C10 UNL     1       7.381  52.283  -7.132  1.00  0.00     0.099 C 
HETATM   11  C11 UNL     1       6.042  52.928  -7.517  1.00  0.00     0.009 C 
HETATM   12  C12 UNL     1       5.331  53.477  -6.208  1.00  0.00     0.016 C 
HETATM   13  C13 UNL     1       4.207  54.471  -6.549  1.00  0.00     0.027 C 
HETATM   14  C14 UNL     1       3.917  54.632  -8.037  1.00  0.00    -0.036 C 
HETATM   15  C15 UNL     1       3.868  55.960  -8.357  1.00  0.00     0.057 C 
HETATM   16  C16 UNL     1       3.160  56.778  -7.298  1.00  0.00     0.154 C 
HETATM   17  O4  UNL     1       3.287  57.985  -7.182  1.00  0.00    -0.293 OA
HETATM   18  C17 UNL     1       2.196  55.906  -6.515  1.00  0.00     0.071 C 
HETATM   19  C18 UNL     1       0.905  56.437  -5.938  1.00  0.00     0.045 C 
HETATM   20  C19 UNL     1      -0.117  55.285  -6.123  1.00  0.00     0.122 C 
HETATM   21  C20 UNL     1       0.405  54.064  -5.310  1.00  0.00     0.033 C 
HETATM   22  C21 UNL     1       1.848  53.603  -5.683  1.00  0.00     0.013 C 
HETATM   23  C22 UNL     1       2.893  54.753  -5.728  1.00  0.00    -0.026 C 
HETATM   24  C23 UNL     1       3.271  55.173  -4.298  1.00  0.00     0.016 C 
HETATM   25  O5  UNL     1      -0.231  54.841  -7.502  1.00  0.00    -0.384 OA
HETATM   26  C24 UNL     1      -0.634  55.825  -8.468  1.00  0.00     0.190 C 
HETATM   27  C25 UNL     1      -0.338  55.448  -9.958  1.00  0.00     0.121 C 
HETATM   28  C32 UNL     1       1.114  55.306 -10.305  1.00  0.00    -0.093 C 
HETATM   29  C33 UNL     1       2.239  55.087 -10.692  1.00  0.00    -0.080 C 
HETATM   30  C34 UNL     1       3.581  54.630 -11.178  1.00  0.00     0.263 C 
HETATM   31  O6  UNL     1       4.522  54.064 -10.204  1.00  0.00    -0.363 OA
HETATM   32  C35 UNL     1       3.989  53.432  -8.996  1.00  0.00     0.094 C 
HETATM   33  C36 UNL     1       2.851  52.498  -9.481  1.00  0.00     0.044 C 
HETATM   34  C37 UNL     1       3.629  51.396 -10.258  1.00  0.00     0.012 C 
HETATM   35  C38 UNL     1       5.115  51.391  -9.725  1.00  0.00     0.034 C 
HETATM   36  C39 UNL     1       5.855  50.028 -10.061  1.00  0.00     0.087 C 
HETATM   37  C40 UNL     1       7.375  50.208  -9.946  1.00  0.00     0.049 C 
HETATM   38  C41 UNL     1       5.314  48.600  -9.569  1.00  0.00     0.181 C 
HETATM   39  C42 UNL     1       4.945  52.196  -8.377  1.00  0.00     0.002 C 
HETATM   40  C43 UNL     1       4.160  51.257  -7.390  1.00  0.00     0.019 C 
ENDROOT
BRANCH  27  41
HETATM   41  C26 UNL     1      -1.138  54.284 -10.535  1.00  0.00    -0.040 A 
HETATM   42  C27 UNL     1      -0.553  53.220 -11.237  1.00  0.00     0.008 A 
HETATM   43  C28 UNL     1      -1.340  52.186 -11.753  1.00  0.00     0.001 A 
HETATM   44  C29 UNL     1      -2.724  52.205 -11.587  1.00  0.00     0.000 A 
HETATM   45  C30 UNL     1      -3.326  53.261 -10.911  1.00  0.00     0.001 A 
HETATM   46  C31 UNL     1      -2.540  54.290 -10.392  1.00  0.00     0.008 A 
ENDBRANCH  27  41
BRANCH  36  47
HETATM   47  O7  UNL     1       5.666  49.958 -11.528  1.00  0.00    -0.387 OA
HETATM   48  H49 UNL     1       6.257  49.269 -11.879  1.00  0.00     0.210 HD
ENDBRANCH  36  47
BRANCH  38  49
HETATM   49  O8  UNL     1       4.202  48.685  -8.688  1.00  0.00    -0.390 OA
HETATM   50  H51 UNL     1       3.399  48.681  -9.241  1.00  0.00     0.210 HD
ENDBRANCH  38  49
BRANCH   7  51
HETATM   51  O3  UNL     1       6.459  48.356  -4.303  1.00  0.00    -0.381 OA
HETATM   52  H12 UNL     1       6.705  47.482  -3.963  1.00  0.00     0.211 HD
ENDBRANCH   7  51
BRANCH   3  53
HETATM   53  C4  UNL     1       4.587  45.690  -8.803  1.00  0.00     0.172 C 
BRANCH  53  54
HETATM   54  O1  UNL     1       4.641  45.364 -10.187  1.00  0.00    -0.400 OA
HETATM   55  H8  UNL     1       5.152  44.539 -10.271  1.00  0.00     0.209 HD
ENDBRANCH  53  54
ENDBRANCH   3  53
TORSDOF 6
ENDMDL
MODEL 6
REMARK minimizedAffinity -8.4511013
REMARK CNNscore 0.31565395
REMARK CNNaffinity 6.38838577
REMARK  6 active torsions:
REMARK  status: ('A' for Active; 'I' for Inactive)
REMARK    1  A    between atoms: C3_3  and  C4_4 
REMARK    2  A    between atoms: C4_4  and  O1_5 
REMARK    3  A    between atoms: C7_9  and  O3_10 
REMARK    4  A    between atoms: C25_30  and  C26_31 
REMARK    5  A    between atoms: C39_45  and  O7_47 
REMARK    6  A    between atoms: C41_48  and  O8_49 
ROOT
HETATM    1  C1  UNL     1     -21.407  36.069 -19.378  1.00  0.00     0.013 C 
HETATM    2  C2  UNL     1     -20.441  37.252 -19.362  1.00  0.00     0.023 C 
HETATM    3  C3  UNL     1     -20.294  37.824 -17.924  1.00  0.00     0.047 C 
HETATM    4  C5  UNL     1     -20.868  39.262 -17.981  1.00  0.00     0.160 C 
HETATM    5  O2  UNL     1     -21.684  39.205 -19.157  1.00  0.00    -0.373 OA
HETATM    6  C6  UNL     1     -20.938  38.464 -20.142  1.00  0.00     0.167 C 
HETATM    7  C7  UNL     1     -21.776  38.327 -21.425  1.00  0.00     0.226 C 
HETATM    8  C8  UNL     1     -22.046  39.704 -21.889  1.00  0.00    -0.072 C 
HETATM    9  C9  UNL     1     -22.173  40.897 -21.968  1.00  0.00    -0.103 C 
HETATM   10  C10 UNL     1     -22.341  42.344 -21.823  1.00  0.00     0.099 C 
HETATM   11  C11 UNL     1     -21.067  43.198 -21.874  1.00  0.00     0.009 C 
HETATM   12  C12 UNL     1     -20.425  43.094 -23.323  1.00  0.00     0.016 C 
HETATM   13  C13 UNL     1     -19.399  44.214 -23.570  1.00  0.00     0.027 C 
HETATM   14  C14 UNL     1     -19.112  45.104 -22.365  1.00  0.00    -0.036 C 
HETATM   15  C15 UNL     1     -19.189  46.418 -22.733  1.00  0.00     0.057 C 
HETATM   16  C16 UNL     1     -18.573  46.668 -24.092  1.00  0.00     0.154 C 
HETATM   17  O4  UNL     1     -18.817  47.651 -24.772  1.00  0.00    -0.293 OA
HETATM   18  C17 UNL     1     -17.536  45.605 -24.406  1.00  0.00     0.071 C 
HETATM   19  C18 UNL     1     -16.308  45.888 -25.239  1.00  0.00     0.045 C 
HETATM   20  C19 UNL     1     -15.179  45.059 -24.576  1.00  0.00     0.122 C 
HETATM   21  C20 UNL     1     -15.587  43.559 -24.664  1.00  0.00     0.033 C 
HETATM   22  C21 UNL     1     -16.975  43.226 -24.035  1.00  0.00     0.013 C 
HETATM   23  C22 UNL     1     -18.127  44.163 -24.495  1.00  0.00    -0.026 C 
HETATM   24  C23 UNL     1     -18.557  43.800 -25.926  1.00  0.00     0.016 C 
HETATM   25  O5  UNL     1     -15.009  45.355 -23.163  1.00  0.00    -0.384 OA
HETATM   26  C24 UNL     1     -14.694  46.714 -22.819  1.00  0.00     0.190 C 
HETATM   27  C25 UNL     1     -14.938  47.090 -21.320  1.00  0.00     0.121 C 
HETATM   28  C32 UNL     1     -16.366  47.020 -20.868  1.00  0.00    -0.093 C 
HETATM   29  C33 UNL     1     -17.461  46.929 -20.361  1.00  0.00    -0.080 C 
HETATM   30  C34 UNL     1     -18.748  46.662 -19.641  1.00  0.00     0.263 C 
HETATM   31  O6  UNL     1     -19.638  45.619 -20.164  1.00  0.00    -0.363 OA
HETATM   32  C35 UNL     1     -19.059  44.522 -20.942  1.00  0.00     0.094 C 
HETATM   33  C36 UNL     1     -17.830  44.039 -20.129  1.00  0.00     0.044 C 
HETATM   34  C37 UNL     1     -18.491  43.398 -18.872  1.00  0.00     0.012 C 
HETATM   35  C38 UNL     1     -19.975  43.015 -19.253  1.00  0.00     0.034 C 
HETATM   36  C39 UNL     1     -20.576  41.935 -18.257  1.00  0.00     0.087 C 
HETATM   37  C40 UNL     1     -22.108  41.914 -18.361  1.00  0.00     0.049 C 
HETATM   38  C41 UNL     1     -19.904  40.497 -18.024  1.00  0.00     0.181 C 
HETATM   39  C42 UNL     1     -19.896  43.070 -20.829  1.00  0.00     0.002 C 
HETATM   40  C43 UNL     1     -19.033  41.835 -21.278  1.00  0.00     0.019 C 
ENDROOT
BRANCH  27  41
HETATM   41  C26 UNL     1     -14.023  46.424 -20.296  1.00  0.00    -0.040 A 
HETATM   42  C27 UNL     1     -12.899  47.054 -19.743  1.00  0.00     0.008 A 
HETATM   43  C28 UNL     1     -12.090  46.388 -18.817  1.00  0.00     0.001 A 
HETATM   44  C29 UNL     1     -12.384  45.079 -18.439  1.00  0.00     0.000 A 
HETATM   45  C30 UNL     1     -13.484  44.429 -18.990  1.00  0.00     0.001 A 
HETATM   46  C31 UNL     1     -14.294  45.096 -19.911  1.00  0.00     0.008 A 
ENDBRANCH  27  41
BRANCH  36  47
HETATM   47  O7  UNL     1     -20.368  42.606 -16.954  1.00  0.00    -0.387 OA
HETATM   48  H49 UNL     1     -20.886  42.131 -16.280  1.00  0.00     0.210 HD
ENDBRANCH  36  47
BRANCH  38  49
HETATM   49  O8  UNL     1     -18.814  40.230 -18.896  1.00  0.00    -0.390 OA
HETATM   50  H51 UNL     1     -18.009  40.560 -18.456  1.00  0.00     0.210 HD
ENDBRANCH  38  49
BRANCH   7  51
HETATM   51  O3  UNL     1     -21.070  37.623 -22.438  1.00  0.00    -0.381 OA
HETATM   52  H12 UNL     1     -21.233  36.678 -22.297  1.00  0.00     0.211 HD
ENDBRANCH   7  51
BRANCH   3  53
HETATM   53  C4  UNL     1     -18.906  37.652 -17.321  1.00  0.00     0.172 C 
BRANCH  53  54
HETATM   54  O1  UNL     1     -17.945  37.462 -18.353  1.00  0.00    -0.400 OA
HETATM   55  H8  UNL     1     -17.782  38.332 -18.761  1.00  0.00     0.209 HD
ENDBRANCH  53  54
ENDBRANCH   3  53
TORSDOF 6
ENDMDL
MODEL 7
REMARK minimizedAffinity -7.59151125
REMARK CNNscore 0.291584283
REMARK CNNaffinity 7.03746557
REMARK  6 active torsions:
REMARK  status: ('A' for Active; 'I' for Inactive)
REMARK    1  A    between atoms: C3_3  and  C4_4 
REMARK    2  A    between atoms: C4_4  and  O1_5 
REMARK    3  A    between atoms: C7_9  and  O3_10 
REMARK    4  A    between atoms: C25_30  and  C26_31 
REMARK    5  A    between atoms: C39_45  and  O7_47 
REMARK    6  A    between atoms: C41_48  and  O8_49 
ROOT
HETATM    1  C1  UNL     1      -4.735  55.284  -0.809  1.00  0.00     0.013 C 
HETATM    2  C2  UNL     1      -5.961  54.792  -1.574  1.00  0.00     0.023 C 
HETATM    3  C3  UNL     1      -7.270  55.216  -0.850  1.00  0.00     0.047 C 
HETATM    4  C5  UNL     1      -7.953  53.897  -0.406  1.00  0.00     0.160 C 
HETATM    5  O2  UNL     1      -6.856  52.977  -0.429  1.00  0.00    -0.373 OA
HETATM    6  C6  UNL     1      -6.093  53.273  -1.616  1.00  0.00     0.167 C 
HETATM    7  C7  UNL     1      -4.868  52.345  -1.685  1.00  0.00     0.226 C 
HETATM    8  C8  UNL     1      -5.399  50.966  -1.726  1.00  0.00    -0.072 C 
HETATM    9  C9  UNL     1      -6.099  49.991  -1.659  1.00  0.00    -0.103 C 
HETATM   10  C10 UNL     1      -7.085  48.935  -1.427  1.00  0.00     0.099 C 
HETATM   11  C11 UNL     1      -8.185  48.768  -2.484  1.00  0.00     0.009 C 
HETATM   12  C12 UNL     1      -7.529  48.298  -3.852  1.00  0.00     0.016 C 
HETATM   13  C13 UNL     1      -8.582  47.730  -4.820  1.00  0.00     0.027 C 
HETATM   14  C14 UNL     1     -10.026  47.846  -4.343  1.00  0.00    -0.036 C 
HETATM   15  C15 UNL     1     -10.656  46.641  -4.485  1.00  0.00     0.057 C 
HETATM   16  C16 UNL     1     -10.280  45.947  -5.776  1.00  0.00     0.154 C 
HETATM   17  O4  UNL     1     -10.428  44.752  -5.966  1.00  0.00    -0.293 OA
HETATM   18  C17 UNL     1      -9.829  46.963  -6.809  1.00  0.00     0.071 C 
HETATM   19  C18 UNL     1     -10.058  46.772  -8.290  1.00  0.00     0.045 C 
HETATM   20  C19 UNL     1     -10.389  48.188  -8.828  1.00  0.00     0.122 C 
HETATM   21  C20 UNL     1      -9.150  49.091  -8.559  1.00  0.00     0.033 C 
HETATM   22  C21 UNL     1      -8.696  49.146  -7.067  1.00  0.00     0.013 C 
HETATM   23  C22 UNL     1      -8.549  47.753  -6.393  1.00  0.00    -0.026 C 
HETATM   24  C23 UNL     1      -7.262  47.068  -6.882  1.00  0.00     0.016 C 
HETATM   25  O5  UNL     1     -11.507  48.811  -8.139  1.00  0.00    -0.384 OA
HETATM   26  C24 UNL     1     -12.764  48.116  -8.183  1.00  0.00     0.190 C 
HETATM   27  C25 UNL     1     -13.807  48.567  -7.107  1.00  0.00     0.121 C 
HETATM   28  C32 UNL     1     -13.407  48.314  -5.684  1.00  0.00    -0.093 C 
HETATM   29  C33 UNL     1     -13.171  48.236  -4.500  1.00  0.00    -0.080 C 
HETATM   30  C34 UNL     1     -12.861  48.330  -3.037  1.00  0.00     0.263 C 
HETATM   31  O6  UNL     1     -11.458  48.469  -2.627  1.00  0.00    -0.363 OA
HETATM   32  C35 UNL     1     -10.509  49.078  -3.561  1.00  0.00     0.094 C 
HETATM   33  C36 UNL     1     -11.205  50.359  -4.088  1.00  0.00     0.044 C 
HETATM   34  C37 UNL     1     -11.238  51.268  -2.823  1.00  0.00     0.012 C 
HETATM   35  C38 UNL     1     -10.105  50.767  -1.843  1.00  0.00     0.034 C 
HETATM   36  C39 UNL     1      -9.712  51.880  -0.783  1.00  0.00     0.087 C 
HETATM   37  C40 UNL     1      -8.968  51.245   0.401  1.00  0.00     0.049 C 
HETATM   38  C41 UNL     1      -9.178  53.333  -1.204  1.00  0.00     0.181 C 
HETATM   39  C42 UNL     1      -9.234  49.890  -2.827  1.00  0.00     0.002 C 
HETATM   40  C43 UNL     1      -8.512  50.892  -3.799  1.00  0.00     0.019 C 
ENDROOT
BRANCH  27  41
HETATM   41  C26 UNL     1     -14.370  49.978  -7.258  1.00  0.00    -0.040 A 
HETATM   42  C27 UNL     1     -15.638  50.248  -7.794  1.00  0.00     0.008 A 
HETATM   43  C28 UNL     1     -16.096  51.562  -7.918  1.00  0.00     0.001 A 
HETATM   44  C29 UNL     1     -15.291  52.628  -7.522  1.00  0.00     0.000 A 
HETATM   45  C30 UNL     1     -14.021  52.384  -7.006  1.00  0.00     0.001 A 
HETATM   46  C31 UNL     1     -13.567  51.071  -6.877  1.00  0.00     0.008 A 
ENDBRANCH  27  41
BRANCH  36  47
HETATM   47  O7  UNL     1     -11.033  52.181  -0.186  1.00  0.00    -0.387 OA
HETATM   48  H49 UNL     1     -10.891  52.702   0.624  1.00  0.00     0.210 HD
ENDBRANCH  36  47
BRANCH  38  49
HETATM   49  O8  UNL     1      -8.952  53.474  -2.600  1.00  0.00    -0.390 OA
HETATM   50  H51 UNL     1      -9.789  53.784  -2.994  1.00  0.00     0.210 HD
ENDBRANCH  38  49
BRANCH   7  51
HETATM   51  O3  UNL     1      -4.098  52.582  -2.855  1.00  0.00    -0.381 OA
HETATM   52  H12 UNL     1      -3.475  53.296  -2.648  1.00  0.00     0.211 HD
ENDBRANCH   7  51
BRANCH   3  53
HETATM   53  C4  UNL     1      -8.120  56.212  -1.626  1.00  0.00     0.172 C 
BRANCH  53  54
HETATM   54  O1  UNL     1      -7.889  57.531  -1.147  1.00  0.00    -0.400 OA
HETATM   55  H8  UNL     1      -7.029  57.821  -1.500  1.00  0.00     0.209 HD
ENDBRANCH  53  54
ENDBRANCH   3  53
TORSDOF 6
ENDMDL
MODEL 8
REMARK minimizedAffinity -7.46664953
REMARK CNNscore 0.290676266
REMARK CNNaffinity 6.51075363
REMARK  6 active torsions:
REMARK  status: ('A' for Active; 'I' for Inactive)
REMARK    1  A    between atoms: C3_3  and  C4_4 
REMARK    2  A    between atoms: C4_4  and  O1_5 
REMARK    3  A    between atoms: C7_9  and  O3_10 
REMARK    4  A    between atoms: C25_30  and  C26_31 
REMARK    5  A    between atoms: C39_45  and  O7_47 
REMARK    6  A    between atoms: C41_48  and  O8_49 
ROOT
HETATM    1  C1  UNL     1       3.050  44.459  -7.447  1.00  0.00     0.013 C 
HETATM    2  C2  UNL     1       2.587  45.870  -7.090  1.00  0.00     0.023 C 
HETATM    3  C3  UNL     1       1.045  45.912  -6.895  1.00  0.00     0.047 C 
HETATM    4  C5  UNL     1       0.502  46.831  -8.018  1.00  0.00     0.160 C 
HETATM    5  O2  UNL     1       1.577  46.803  -8.964  1.00  0.00    -0.373 OA
HETATM    6  C6  UNL     1       2.799  46.889  -8.205  1.00  0.00     0.167 C 
HETATM    7  C7  UNL     1       4.004  46.822  -9.159  1.00  0.00     0.226 C 
HETATM    8  C8  UNL     1       3.867  47.973 -10.075  1.00  0.00    -0.072 C 
HETATM    9  C9  UNL     1       3.456  48.910 -10.706  1.00  0.00    -0.103 C 
HETATM   10  C10 UNL     1       2.736  49.958 -11.432  1.00  0.00     0.099 C 
HETATM   11  C11 UNL     1       2.476  51.270 -10.680  1.00  0.00     0.009 C 
HETATM   12  C12 UNL     1       3.862  51.984 -10.378  1.00  0.00     0.016 C 
HETATM   13  C13 UNL     1       3.667  53.462  -9.998  1.00  0.00     0.027 C 
HETATM   14  C14 UNL     1       2.215  53.908  -9.863  1.00  0.00    -0.036 C 
HETATM   15  C15 UNL     1       2.021  55.066 -10.563  1.00  0.00     0.057 C 
HETATM   16  C16 UNL     1       3.182  56.025 -10.414  1.00  0.00     0.154 C 
HETATM   17  O4  UNL     1       3.402  56.942 -11.188  1.00  0.00    -0.293 OA
HETATM   18  C17 UNL     1       3.926  55.756  -9.119  1.00  0.00     0.071 C 
HETATM   19  C18 UNL     1       4.610  56.850  -8.333  1.00  0.00     0.045 C 
HETATM   20  C19 UNL     1       4.369  56.481  -6.846  1.00  0.00     0.122 C 
HETATM   21  C20 UNL     1       5.041  55.099  -6.594  1.00  0.00     0.033 C 
HETATM   22  C21 UNL     1       4.560  53.959  -7.544  1.00  0.00     0.013 C 
HETATM   23  C22 UNL     1       4.571  54.337  -9.051  1.00  0.00    -0.026 C 
HETATM   24  C23 UNL     1       6.015  54.329  -9.582  1.00  0.00     0.016 C 
HETATM   25  O5  UNL     1       2.962  56.318  -6.521  1.00  0.00    -0.384 OA
HETATM   26  C24 UNL     1       2.110  57.453  -6.742  1.00  0.00     0.190 C 
HETATM   27  C25 UNL     1       0.580  57.130  -6.797  1.00  0.00     0.121 C 
HETATM   28  C32 UNL     1       0.153  56.246  -7.930  1.00  0.00    -0.093 C 
HETATM   29  C33 UNL     1      -0.306  55.483  -8.750  1.00  0.00    -0.080 C 
HETATM   30  C34 UNL     1      -0.894  54.413  -9.619  1.00  0.00     0.263 C 
HETATM   31  O6  UNL     1      -0.021  53.325 -10.076  1.00  0.00    -0.363 OA
HETATM   32  C35 UNL     1       1.148  52.973  -9.268  1.00  0.00     0.094 C 
HETATM   33  C36 UNL     1       0.634  52.880  -7.809  1.00  0.00     0.044 C 
HETATM   34  C37 UNL     1      -0.277  51.617  -7.854  1.00  0.00     0.012 C 
HETATM   35  C38 UNL     1       0.183  50.737  -9.082  1.00  0.00     0.034 C 
HETATM   36  C39 UNL     1      -0.311  49.236  -8.946  1.00  0.00     0.087 C 
HETATM   37  C40 UNL     1      -0.253  48.533 -10.310  1.00  0.00     0.049 C 
HETATM   38  C41 UNL     1       0.073  48.303  -7.699  1.00  0.00     0.181 C 
HETATM   39  C42 UNL     1       1.605  51.360  -9.371  1.00  0.00     0.002 C 
HETATM   40  C43 UNL     1       2.538  50.915  -8.186  1.00  0.00     0.019 C 
ENDROOT
BRANCH  27  41
HETATM   41  C26 UNL     1      -0.063  56.669  -5.492  1.00  0.00    -0.040 A 
HETATM   42  C27 UNL     1      -0.306  55.321  -5.188  1.00  0.00     0.008 A 
HETATM   43  C28 UNL     1      -0.910  54.959  -3.980  1.00  0.00     0.001 A 
HETATM   44  C29 UNL     1      -1.290  55.937  -3.063  1.00  0.00     0.000 A 
HETATM   45  C30 UNL     1      -1.076  57.281  -3.354  1.00  0.00     0.001 A 
HETATM   46  C31 UNL     1      -0.469  57.641  -4.557  1.00  0.00     0.008 A 
ENDBRANCH  27  41
BRANCH  36  47
HETATM   47  O7  UNL     1      -1.768  49.432  -8.767  1.00  0.00    -0.387 OA
HETATM   48  H49 UNL     1      -2.208  48.572  -8.881  1.00  0.00     0.210 HD
ENDBRANCH  36  47
BRANCH  38  49
HETATM   49  O8  UNL     1       1.009  48.898  -6.810  1.00  0.00    -0.390 OA
HETATM   50  H51 UNL     1       0.497  49.394  -6.145  1.00  0.00     0.210 HD
ENDBRANCH  38  49
BRANCH   7  51
HETATM   51  O3  UNL     1       5.234  46.930  -8.455  1.00  0.00    -0.381 OA
HETATM   52  H12 UNL     1       5.481  46.036  -8.171  1.00  0.00     0.211 HD
ENDBRANCH   7  51
BRANCH   3  53
HETATM   53  C4  UNL     1       0.602  46.219  -5.471  1.00  0.00     0.172 C 
BRANCH  53  54
HETATM   54  O1  UNL     1       1.665  46.833  -4.750  1.00  0.00    -0.400 OA
HETATM   55  H8  UNL     1       1.722  47.758  -5.050  1.00  0.00     0.209 HD
ENDBRANCH  53  54
ENDBRANCH   3  53
TORSDOF 6
ENDMDL
MODEL 9
REMARK minimizedAffinity -9.36200047
REMARK CNNscore 0.275502384
REMARK CNNaffinity 6.90402031
REMARK  6 active torsions:
REMARK  status: ('A' for Active; 'I' for Inactive)
REMARK    1  A    between atoms: C3_3  and  C4_4 
REMARK    2  A    between atoms: C4_4  and  O1_5 
REMARK    3  A    between atoms: C7_9  and  O3_10 
REMARK    4  A    between atoms: C25_30  and  C26_31 
REMARK    5  A    between atoms: C39_45  and  O7_47 
REMARK    6  A    between atoms: C41_48  and  O8_49 
ROOT
HETATM    1  C1  UNL     1       6.260  57.765  -4.476  1.00  0.00     0.013 C 
HETATM    2  C2  UNL     1       5.690  56.437  -4.970  1.00  0.00     0.023 C 
HETATM    3  C3  UNL     1       6.827  55.409  -5.226  1.00  0.00     0.047 C 
HETATM    4  C5  UNL     1       6.802  55.122  -6.748  1.00  0.00     0.160 C 
HETATM    5  O2  UNL     1       6.105  56.268  -7.251  1.00  0.00    -0.373 OA
HETATM    6  C6  UNL     1       5.020  56.525  -6.337  1.00  0.00     0.167 C 
HETATM    7  C7  UNL     1       4.248  57.775  -6.794  1.00  0.00     0.226 C 
HETATM    8  C8  UNL     1       3.741  57.472  -8.149  1.00  0.00    -0.072 C 
HETATM    9  C9  UNL     1       3.545  56.989  -9.232  1.00  0.00    -0.103 C 
HETATM   10  C10 UNL     1       3.528  56.310 -10.529  1.00  0.00     0.099 C 
HETATM   11  C11 UNL     1       2.816  54.952 -10.591  1.00  0.00     0.009 C 
HETATM   12  C12 UNL     1       1.266  55.161 -10.319  1.00  0.00     0.016 C 
HETATM   13  C13 UNL     1       0.443  53.936 -10.756  1.00  0.00     0.027 C 
HETATM   14  C14 UNL     1       1.265  52.743 -11.232  1.00  0.00    -0.036 C 
HETATM   15  C15 UNL     1       0.772  52.288 -12.422  1.00  0.00     0.057 C 
HETATM   16  C16 UNL     1      -0.741  52.296 -12.455  1.00  0.00     0.154 C 
HETATM   17  O4  UNL     1      -1.393  52.270 -13.485  1.00  0.00    -0.293 OA
HETATM   18  C17 UNL     1      -1.300  52.210 -11.046  1.00  0.00     0.071 C 
HETATM   19  C18 UNL     1      -2.606  51.519 -10.731  1.00  0.00     0.045 C 
HETATM   20  C19 UNL     1      -2.366  50.817  -9.369  1.00  0.00     0.122 C 
HETATM   21  C20 UNL     1      -2.047  51.926  -8.324  1.00  0.00     0.033 C 
HETATM   22  C21 UNL     1      -0.848  52.850  -8.701  1.00  0.00     0.013 C 
HETATM   23  C22 UNL     1      -0.914  53.423 -10.145  1.00  0.00    -0.026 C 
HETATM   24  C23 UNL     1      -1.957  54.552 -10.213  1.00  0.00     0.016 C 
HETATM   25  O5  UNL     1      -1.219  49.925  -9.383  1.00  0.00    -0.384 OA
HETATM   26  C24 UNL     1      -1.249  48.846 -10.331  1.00  0.00     0.190 C 
HETATM   27  C25 UNL     1       0.138  48.181 -10.620  1.00  0.00     0.121 C 
HETATM   28  C32 UNL     1       1.156  49.077 -11.260  1.00  0.00    -0.093 C 
HETATM   29  C33 UNL     1       2.085  49.713 -11.702  1.00  0.00    -0.080 C 
HETATM   30  C34 UNL     1       3.313  50.490 -12.073  1.00  0.00     0.263 C 
HETATM   31  O6  UNL     1       3.377  51.910 -11.712  1.00  0.00    -0.363 OA
HETATM   32  C35 UNL     1       2.602  52.381 -10.563  1.00  0.00     0.094 C 
HETATM   33  C36 UNL     1       2.883  51.365  -9.426  1.00  0.00     0.044 C 
HETATM   34  C37 UNL     1       4.381  51.635  -9.098  1.00  0.00     0.012 C 
HETATM   35  C38 UNL     1       4.725  53.095  -9.589  1.00  0.00     0.034 C 
HETATM   36  C39 UNL     1       6.031  53.659  -8.886  1.00  0.00     0.087 C 
HETATM   37  C40 UNL     1       6.589  54.849  -9.680  1.00  0.00     0.049 C 
HETATM   38  C41 UNL     1       6.171  53.796  -7.294  1.00  0.00     0.181 C 
HETATM   39  C42 UNL     1       3.274  53.695  -9.761  1.00  0.00     0.002 C 
HETATM   40  C43 UNL     1       2.694  53.884  -8.311  1.00  0.00     0.019 C 
ENDROOT
BRANCH  27  41
HETATM   41  C26 UNL     1       0.767  47.399  -9.470  1.00  0.00    -0.040 A 
HETATM   42  C27 UNL     1       0.209  47.337  -8.185  1.00  0.00     0.008 A 
HETATM   43  C28 UNL     1       0.838  46.613  -7.167  1.00  0.00     0.001 A 
HETATM   44  C29 UNL     1       2.038  45.950  -7.414  1.00  0.00     0.000 A 
HETATM   45  C30 UNL     1       2.619  46.015  -8.677  1.00  0.00     0.001 A 
HETATM   46  C31 UNL     1       1.989  46.734  -9.693  1.00  0.00     0.008 A 
ENDBRANCH  27  41
BRANCH  36  47
HETATM   47  O7  UNL     1       7.008  52.594  -9.207  1.00  0.00    -0.387 OA
HETATM   48  H49 UNL     1       7.900  52.926  -9.006  1.00  0.00     0.210 HD
ENDBRANCH  36  47
BRANCH  38  49
HETATM   49  O8  UNL     1       4.972  53.505  -6.589  1.00  0.00    -0.390 OA
HETATM   50  H51 UNL     1       4.976  52.549  -6.401  1.00  0.00     0.210 HD
ENDBRANCH  38  49
BRANCH   7  51
HETATM   51  O3  UNL     1       3.150  58.053  -5.936  1.00  0.00    -0.381 OA
HETATM   52  H12 UNL     1       3.487  58.597  -5.207  1.00  0.00     0.211 HD
ENDBRANCH   7  51
BRANCH   3  53
HETATM   53  C4  UNL     1       6.806  54.207  -4.292  1.00  0.00     0.172 C 
BRANCH  53  54
HETATM   54  O1  UNL     1       7.765  53.243  -4.712  1.00  0.00    -0.400 OA
HETATM   55  H8  UNL     1       8.642  53.573  -4.447  1.00  0.00     0.209 HD
ENDBRANCH  53  54
ENDBRANCH   3  53
TORSDOF 6
ENDMDL
