MODEL 1
REMARK minimizedAffinity -10.0471716
REMARK  8 active torsions:
REMARK  status: ('A' for Active; 'I' for Inactive)
REMARK    1  A    between atoms: C4_4  and  C5_5 
REMARK    2  A    between atoms: C5_5  and  C6_6 
REMARK    3  A    between atoms: C6_6  and  C7_7 
REMARK    4  A    between atoms: C7_7  and  C9_9 
REMARK    5  A    between atoms: C19_19  and  C21_21 
REMARK    6  A    between atoms: C21_21  and  O2_23 
REMARK    7  A    between atoms: C22_24  and  O3_25 
REMARK    8  A    between atoms: C24_27  and  O4_28 
ROOT
HETATM    1  C9  UNL     1      -0.649  52.247 -21.381  1.00  0.00    -0.002 C 
HETATM    2  C10 UNL     1      -0.294  52.169 -22.895  1.00  0.00     0.006 C 
HETATM    3  C11 UNL     1      -1.019  50.937 -23.469  1.00  0.00     0.011 C 
HETATM    4  C12 UNL     1      -2.154  50.649 -22.468  1.00  0.00    -0.028 C 
HETATM    5  C13 UNL     1      -3.246  51.776 -22.725  1.00  0.00     0.016 C 
HETATM    6  C14 UNL     1      -2.890  49.227 -22.571  1.00  0.00    -0.028 C 
HETATM    7  C15 UNL     1      -1.939  47.995 -22.580  1.00  0.00     0.016 C 
HETATM    8  C16 UNL     1      -3.637  49.158 -23.955  1.00  0.00     0.011 C 
HETATM    9  C17 UNL     1      -4.857  48.250 -23.994  1.00  0.00     0.007 C 
HETATM   10  C18 UNL     1      -5.927  48.766 -23.018  1.00  0.00     0.018 C 
HETATM   11  C19 UNL     1      -7.266  47.928 -23.052  1.00  0.00     0.072 C 
HETATM   12  C20 UNL     1      -7.012  46.409 -23.176  1.00  0.00     0.030 C 
HETATM   13  C22 UNL     1      -8.169  48.252 -21.820  1.00  0.00     0.139 C 
HETATM   14  C23 UNL     1      -7.818  49.595 -21.194  1.00  0.00     0.065 C 
HETATM   15  C24 UNL     1      -6.387  49.610 -20.657  1.00  0.00     0.130 C 
HETATM   16  C25 UNL     1      -5.391  48.924 -21.593  1.00  0.00    -0.000 A 
HETATM   17  C26 UNL     1      -4.575  47.775 -21.065  1.00  0.00     0.024 A 
HETATM   18  C27 UNL     1      -3.861  49.096 -21.326  1.00  0.00    -0.021 A 
HETATM   19  C28 UNL     1      -3.312  49.640 -19.982  1.00  0.00     0.012 C 
HETATM   20  C29 UNL     1      -2.489  50.934 -20.015  1.00  0.00     0.011 C 
HETATM   21  C30 UNL     1      -1.398  50.892 -21.095  1.00  0.00    -0.032 C 
HETATM   22  C31 UNL     1      -0.350  49.830 -20.691  1.00  0.00     0.016 C 
ENDROOT
BRANCH   1  23
HETATM   23  C7  UNL     1       0.523  52.796 -20.507  1.00  0.00    -0.014 C 
HETATM   24  C8  UNL     1       1.310  53.880 -21.256  1.00  0.00     0.010 C 
BRANCH  23  25
HETATM   25  C6  UNL     1       0.168  53.256 -19.071  1.00  0.00     0.008 C 
BRANCH  25  26
HETATM   26  C5  UNL     1       0.649  52.292 -17.973  1.00  0.00     0.028 C 
BRANCH  26  27
HETATM   27  C4  UNL     1       2.044  52.570 -17.491  1.00  0.00    -0.025 C 
HETATM   28  C2  UNL     1       2.611  52.209 -16.323  1.00  0.00    -0.091 C 
HETATM   29  C1  UNL     1       1.947  51.395 -15.246  1.00  0.00     0.042 C 
HETATM   30  C3  UNL     1       4.030  52.606 -16.007  1.00  0.00     0.042 C 
ENDBRANCH  26  27
ENDBRANCH  25  26
ENDBRANCH  23  25
ENDBRANCH   1  23
BRANCH  15  31
HETATM   31  O4  UNL     1      -6.013  50.977 -20.490  1.00  0.00    -0.395 OA
HETATM   32  H41 UNL     1      -6.559  51.334 -19.770  1.00  0.00     0.210 HD
ENDBRANCH  15  31
BRANCH  11  33
HETATM   33  C21 UNL     1      -8.062  48.360 -24.289  1.00  0.00     0.151 C 
HETATM   34  O1  UNL     1      -8.639  47.643 -25.090  1.00  0.00    -0.649 OA
BRANCH  33  35
HETATM   35  O2  UNL     1      -8.070  49.696 -24.487  1.00  0.00    -0.776 OA
HETATM   36  H35 UNL     1      -8.618  49.809 -25.294  1.00  0.00     0.167 HD
ENDBRANCH  33  35
ENDBRANCH  11  33
BRANCH  13  37
HETATM   37  O3  UNL     1      -8.077  47.264 -20.788  1.00  0.00    -0.394 OA
HETATM   38  H37 UNL     1      -8.593  46.489 -21.074  1.00  0.00     0.210 HD
ENDBRANCH  13  37
TORSDOF 8
ENDMDL
MODEL 2
REMARK minimizedAffinity -9.46330452
REMARK  8 active torsions:
REMARK  status: ('A' for Active; 'I' for Inactive)
REMARK    1  A    between atoms: C4_4  and  C5_5 
REMARK    2  A    between atoms: C5_5  and  C6_6 
REMARK    3  A    between atoms: C6_6  and  C7_7 
REMARK    4  A    between atoms: C7_7  and  C9_9 
REMARK    5  A    between atoms: C19_19  and  C21_21 
REMARK    6  A    between atoms: C21_21  and  O2_23 
REMARK    7  A    between atoms: C22_24  and  O3_25 
REMARK    8  A    between atoms: C24_27  and  O4_28 
ROOT
HETATM    1  C9  UNL     1      -3.674  50.946 -24.105  1.00  0.00    -0.002 C 
HETATM    2  C10 UNL     1      -5.181  51.061 -23.731  1.00  0.00     0.006 C 
HETATM    3  C11 UNL     1      -5.391  50.253 -22.437  1.00  0.00     0.011 C 
HETATM    4  C12 UNL     1      -3.986  50.141 -21.814  1.00  0.00    -0.028 C 
HETATM    5  C13 UNL     1      -3.671  51.578 -21.211  1.00  0.00     0.016 C 
HETATM    6  C14 UNL     1      -3.781  49.067 -20.640  1.00  0.00    -0.028 C 
HETATM    7  C15 UNL     1      -4.269  47.628 -20.973  1.00  0.00     0.016 C 
HETATM    8  C16 UNL     1      -4.660  49.507 -19.410  1.00  0.00     0.011 C 
HETATM    9  C17 UNL     1      -4.156  49.048 -18.049  1.00  0.00     0.007 C 
HETATM   10  C18 UNL     1      -2.779  49.669 -17.763  1.00  0.00     0.018 C 
HETATM   11  C19 UNL     1      -2.214  49.312 -16.332  1.00  0.00     0.072 C 
HETATM   12  C20 UNL     1      -2.489  47.844 -15.934  1.00  0.00     0.030 C 
HETATM   13  C22 UNL     1      -0.693  49.652 -16.222  1.00  0.00     0.139 C 
HETATM   14  C23 UNL     1      -0.260  50.668 -17.269  1.00  0.00     0.065 C 
HETATM   15  C24 UNL     1      -0.449  50.133 -18.688  1.00  0.00     0.130 C 
HETATM   16  C25 UNL     1      -1.762  49.370 -18.868  1.00  0.00    -0.000 A 
HETATM   17  C26 UNL     1      -1.711  47.943 -19.347  1.00  0.00     0.024 A 
HETATM   18  C27 UNL     1      -2.232  49.001 -20.312  1.00  0.00    -0.021 A 
HETATM   19  C28 UNL     1      -1.281  49.074 -21.534  1.00  0.00     0.012 C 
HETATM   20  C29 UNL     1      -1.651  50.028 -22.676  1.00  0.00     0.011 C 
HETATM   21  C30 UNL     1      -3.115  49.862 -23.109  1.00  0.00    -0.032 C 
HETATM   22  C31 UNL     1      -3.279  48.470 -23.760  1.00  0.00     0.016 C 
ENDROOT
BRANCH   1  23
HETATM   23  C7  UNL     1      -3.428  50.921 -25.647  1.00  0.00    -0.014 C 
HETATM   24  C8  UNL     1      -3.132  52.329 -26.182  1.00  0.00     0.010 C 
BRANCH  23  25
HETATM   25  C6  UNL     1      -2.394  49.895 -26.174  1.00  0.00     0.008 C 
BRANCH  25  26
HETATM   26  C5  UNL     1      -1.342  50.501 -27.120  1.00  0.00     0.028 C 
BRANCH  26  27
HETATM   27  C4  UNL     1       0.010  50.677 -26.489  1.00  0.00    -0.025 C 
HETATM   28  C2  UNL     1       1.089  51.310 -26.990  1.00  0.00    -0.091 C 
HETATM   29  C1  UNL     1       1.145  52.021 -28.315  1.00  0.00     0.042 C 
HETATM   30  C3  UNL     1       2.377  51.361 -26.210  1.00  0.00     0.042 C 
ENDBRANCH  26  27
ENDBRANCH  25  26
ENDBRANCH  23  25
ENDBRANCH   1  23
BRANCH  15  31
HETATM   31  O4  UNL     1      -0.432  51.256 -19.569  1.00  0.00    -0.395 OA
HETATM   32  H41 UNL     1       0.470  51.615 -19.551  1.00  0.00     0.210 HD
ENDBRANCH  15  31
BRANCH  11  33
HETATM   33  C21 UNL     1      -2.924  50.204 -15.307  1.00  0.00     0.151 C 
HETATM   34  O1  UNL     1      -3.225  51.380 -15.427  1.00  0.00    -0.649 OA
BRANCH  33  35
HETATM   35  O2  UNL     1      -3.197  49.576 -14.143  1.00  0.00    -0.776 OA
HETATM   36  H35 UNL     1      -3.652  50.263 -13.608  1.00  0.00     0.167 HD
ENDBRANCH  33  35
ENDBRANCH  11  33
BRANCH  13  37
HETATM   37  O3  UNL     1       0.146  48.501 -16.373  1.00  0.00    -0.394 OA
HETATM   38  H37 UNL     1       0.108  47.997 -15.540  1.00  0.00     0.210 HD
ENDBRANCH  13  37
TORSDOF 8
ENDMDL
MODEL 3
REMARK minimizedAffinity -9.3614521
REMARK  8 active torsions:
REMARK  status: ('A' for Active; 'I' for Inactive)
REMARK    1  A    between atoms: C4_4  and  C5_5 
REMARK    2  A    between atoms: C5_5  and  C6_6 
REMARK    3  A    between atoms: C6_6  and  C7_7 
REMARK    4  A    between atoms: C7_7  and  C9_9 
REMARK    5  A    between atoms: C19_19  and  C21_21 
REMARK    6  A    between atoms: C21_21  and  O2_23 
REMARK    7  A    between atoms: C22_24  and  O3_25 
REMARK    8  A    between atoms: C24_27  and  O4_28 
ROOT
HETATM    1  C9  UNL     1      -6.132  49.542 -21.877  1.00  0.00    -0.002 C 
HETATM    2  C10 UNL     1      -5.655  50.286 -20.595  1.00  0.00     0.006 C 
HETATM    3  C11 UNL     1      -4.153  50.579 -20.773  1.00  0.00     0.011 C 
HETATM    4  C12 UNL     1      -3.915  50.495 -22.293  1.00  0.00    -0.028 C 
HETATM    5  C13 UNL     1      -4.544  51.825 -22.896  1.00  0.00     0.016 C 
HETATM    6  C14 UNL     1      -2.396  50.403 -22.801  1.00  0.00    -0.028 C 
HETATM    7  C15 UNL     1      -1.544  49.290 -22.124  1.00  0.00     0.016 C 
HETATM    8  C16 UNL     1      -1.666  51.744 -22.419  1.00  0.00     0.011 C 
HETATM    9  C17 UNL     1      -0.497  52.130 -23.315  1.00  0.00     0.007 C 
HETATM   10  C18 UNL     1      -0.994  52.371 -24.750  1.00  0.00     0.018 C 
HETATM   11  C19 UNL     1       0.141  52.857 -25.735  1.00  0.00     0.072 C 
HETATM   12  C20 UNL     1       1.483  52.125 -25.501  1.00  0.00     0.030 C 
HETATM   13  C22 UNL     1      -0.314  52.744 -27.225  1.00  0.00     0.139 C 
HETATM   14  C23 UNL     1      -1.829  52.695 -27.355  1.00  0.00     0.065 C 
HETATM   15  C24 UNL     1      -2.417  51.466 -26.662  1.00  0.00     0.130 C 
HETATM   16  C25 UNL     1      -1.760  51.171 -25.313  1.00  0.00    -0.000 A 
HETATM   17  C26 UNL     1      -1.125  49.823 -25.096  1.00  0.00     0.024 A 
HETATM   18  C27 UNL     1      -2.426  50.125 -24.360  1.00  0.00    -0.021 A 
HETATM   19  C28 UNL     1      -3.516  49.138 -24.849  1.00  0.00     0.012 C 
HETATM   20  C29 UNL     1      -4.899  49.212 -24.189  1.00  0.00     0.011 C 
HETATM   21  C30 UNL     1      -4.800  49.231 -22.656  1.00  0.00    -0.032 C 
HETATM   22  C31 UNL     1      -4.267  47.860 -22.182  1.00  0.00     0.016 C 
ENDROOT
BRANCH   1  23
HETATM   23  C7  UNL     1      -7.242  48.482 -21.589  1.00  0.00    -0.014 C 
HETATM   24  C8  UNL     1      -7.979  48.795 -20.280  1.00  0.00     0.010 C 
BRANCH  23  25
HETATM   25  C6  UNL     1      -8.241  48.188 -22.736  1.00  0.00     0.008 C 
BRANCH  25  26
HETATM   26  C5  UNL     1      -7.922  46.906 -23.525  1.00  0.00     0.028 C 
BRANCH  26  27
HETATM   27  C4  UNL     1      -7.695  47.139 -24.991  1.00  0.00    -0.025 C 
HETATM   28  C2  UNL     1      -7.843  46.268 -26.008  1.00  0.00    -0.091 C 
HETATM   29  C1  UNL     1      -8.318  44.846 -25.876  1.00  0.00     0.042 C 
HETATM   30  C3  UNL     1      -7.541  46.685 -27.424  1.00  0.00     0.042 C 
ENDBRANCH  26  27
ENDBRANCH  25  26
ENDBRANCH  23  25
ENDBRANCH   1  23
BRANCH  15  31
HETATM   31  O4  UNL     1      -3.808  51.717 -26.465  1.00  0.00    -0.395 OA
HETATM   32  H41 UNL     1      -4.219  51.733 -27.345  1.00  0.00     0.210 HD
ENDBRANCH  15  31
BRANCH  11  33
HETATM   33  C21 UNL     1       0.384  54.348 -25.477  1.00  0.00     0.151 C 
HETATM   34  O1  UNL     1       0.020  55.290 -26.160  1.00  0.00    -0.649 OA
BRANCH  33  35
HETATM   35  O2  UNL     1       1.118  54.592 -24.370  1.00  0.00    -0.776 OA
HETATM   36  H35 UNL     1       1.176  55.572 -24.338  1.00  0.00     0.167 HD
ENDBRANCH  33  35
ENDBRANCH  11  33
BRANCH  13  37
HETATM   37  O3  UNL     1       0.208  51.580 -27.878  1.00  0.00    -0.394 OA
HETATM   38  H37 UNL     1       1.144  51.752 -28.084  1.00  0.00     0.210 HD
ENDBRANCH  13  37
TORSDOF 8
ENDMDL
MODEL 4
REMARK minimizedAffinity -9.2151432
REMARK  8 active torsions:
REMARK  status: ('A' for Active; 'I' for Inactive)
REMARK    1  A    between atoms: C4_4  and  C5_5 
REMARK    2  A    between atoms: C5_5  and  C6_6 
REMARK    3  A    between atoms: C6_6  and  C7_7 
REMARK    4  A    between atoms: C7_7  and  C9_9 
REMARK    5  A    between atoms: C19_19  and  C21_21 
REMARK    6  A    between atoms: C21_21  and  O2_23 
REMARK    7  A    between atoms: C22_24  and  O3_25 
REMARK    8  A    between atoms: C24_27  and  O4_28 
ROOT
HETATM    1  C9  UNL     1      -2.090  51.338 -24.195  1.00  0.00    -0.002 C 
HETATM    2  C10 UNL     1      -3.331  52.147 -24.675  1.00  0.00     0.006 C 
HETATM    3  C11 UNL     1      -4.579  51.323 -24.307  1.00  0.00     0.011 C 
HETATM    4  C12 UNL     1      -4.104  50.366 -23.198  1.00  0.00    -0.028 C 
HETATM    5  C13 UNL     1      -3.954  51.264 -21.894  1.00  0.00     0.016 C 
HETATM    6  C14 UNL     1      -5.057  49.129 -22.829  1.00  0.00    -0.028 C 
HETATM    7  C15 UNL     1      -5.511  48.265 -24.040  1.00  0.00     0.016 C 
HETATM    8  C16 UNL     1      -6.396  49.701 -22.229  1.00  0.00     0.011 C 
HETATM    9  C17 UNL     1      -7.126  48.778 -21.263  1.00  0.00     0.007 C 
HETATM   10  C18 UNL     1      -6.249  48.509 -20.030  1.00  0.00     0.018 C 
HETATM   11  C19 UNL     1      -6.961  47.623 -18.933  1.00  0.00     0.072 C 
HETATM   12  C20 UNL     1      -7.792  46.473 -19.547  1.00  0.00     0.030 C 
HETATM   13  C22 UNL     1      -5.935  47.084 -17.885  1.00  0.00     0.139 C 
HETATM   14  C23 UNL     1      -4.658  47.911 -17.861  1.00  0.00     0.065 C 
HETATM   15  C24 UNL     1      -3.926  47.861 -19.202  1.00  0.00     0.130 C 
HETATM   16  C25 UNL     1      -4.870  47.955 -20.401  1.00  0.00    -0.000 A 
HETATM   17  C26 UNL     1      -4.858  46.849 -21.422  1.00  0.00     0.024 A 
HETATM   18  C27 UNL     1      -4.266  48.195 -21.822  1.00  0.00    -0.021 A 
HETATM   19  C28 UNL     1      -2.757  48.007 -22.121  1.00  0.00     0.012 C 
HETATM   20  C29 UNL     1      -1.966  49.225 -22.616  1.00  0.00     0.011 C 
HETATM   21  C30 UNL     1      -2.685  49.945 -23.766  1.00  0.00    -0.032 C 
HETATM   22  C31 UNL     1      -2.687  49.015 -25.001  1.00  0.00     0.016 C 
ENDROOT
BRANCH   1  23
HETATM   23  C7  UNL     1      -0.852  51.506 -25.133  1.00  0.00    -0.014 C 
HETATM   24  C8  UNL     1      -1.190  51.097 -26.573  1.00  0.00     0.010 C 
BRANCH  23  25
HETATM   25  C6  UNL     1      -0.128  52.875 -25.096  1.00  0.00     0.008 C 
BRANCH  25  26
HETATM   26  C5  UNL     1       0.596  53.161 -23.769  1.00  0.00     0.028 C 
BRANCH  26  27
HETATM   27  C4  UNL     1       0.209  52.230 -22.656  1.00  0.00    -0.025 C 
HETATM   28  C2  UNL     1       0.329  52.422 -21.327  1.00  0.00    -0.091 C 
HETATM   29  C1  UNL     1       0.861  53.667 -20.671  1.00  0.00     0.042 C 
HETATM   30  C3  UNL     1      -0.098  51.351 -20.358  1.00  0.00     0.042 C 
ENDBRANCH  26  27
ENDBRANCH  25  26
ENDBRANCH  23  25
ENDBRANCH   1  23
BRANCH  15  31
HETATM   31  O4  UNL     1      -3.017  48.960 -19.228  1.00  0.00    -0.395 OA
HETATM   32  H41 UNL     1      -2.336  48.780 -18.560  1.00  0.00     0.210 HD
ENDBRANCH  15  31
BRANCH  11  33
HETATM   33  C21 UNL     1      -7.930  48.522 -18.155  1.00  0.00     0.151 C 
HETATM   34  O1  UNL     1      -8.503  49.520 -18.558  1.00  0.00    -0.649 OA
BRANCH  33  35
HETATM   35  O2  UNL     1      -8.110  48.138 -16.873  1.00  0.00    -0.776 OA
HETATM   36  H35 UNL     1      -8.752  48.794 -16.521  1.00  0.00     0.167 HD
ENDBRANCH  33  35
ENDBRANCH  11  33
BRANCH  13  37
HETATM   37  O3  UNL     1      -5.557  45.724 -18.128  1.00  0.00    -0.394 OA
HETATM   38  H37 UNL     1      -6.291  45.156 -17.833  1.00  0.00     0.210 HD
ENDBRANCH  13  37
TORSDOF 8
ENDMDL
MODEL 5
REMARK minimizedAffinity -9.19318295
REMARK  8 active torsions:
REMARK  status: ('A' for Active; 'I' for Inactive)
REMARK    1  A    between atoms: C4_4  and  C5_5 
REMARK    2  A    between atoms: C5_5  and  C6_6 
REMARK    3  A    between atoms: C6_6  and  C7_7 
REMARK    4  A    between atoms: C7_7  and  C9_9 
REMARK    5  A    between atoms: C19_19  and  C21_21 
REMARK    6  A    between atoms: C21_21  and  O2_23 
REMARK    7  A    between atoms: C22_24  and  O3_25 
REMARK    8  A    between atoms: C24_27  and  O4_28 
ROOT
HETATM    1  C9  UNL     1      -3.935  48.246 -20.141  1.00  0.00    -0.002 C 
HETATM    2  C10 UNL     1      -4.213  47.069 -21.121  1.00  0.00     0.006 C 
HETATM    3  C11 UNL     1      -4.223  47.656 -22.545  1.00  0.00     0.011 C 
HETATM    4  C12 UNL     1      -3.454  48.985 -22.426  1.00  0.00    -0.028 C 
HETATM    5  C13 UNL     1      -1.922  48.581 -22.288  1.00  0.00     0.016 C 
HETATM    6  C14 UNL     1      -3.575  50.023 -23.643  1.00  0.00    -0.028 C 
HETATM    7  C15 UNL     1      -5.031  50.353 -24.082  1.00  0.00     0.016 C 
HETATM    8  C16 UNL     1      -2.919  49.367 -24.916  1.00  0.00     0.011 C 
HETATM    9  C17 UNL     1      -2.361  50.346 -25.940  1.00  0.00     0.007 C 
HETATM   10  C18 UNL     1      -1.222  51.167 -25.314  1.00  0.00     0.018 C 
HETATM   11  C19 UNL     1      -0.526  52.154 -26.332  1.00  0.00     0.072 C 
HETATM   12  C20 UNL     1      -1.538  52.843 -27.276  1.00  0.00     0.030 C 
HETATM   13  C22 UNL     1       0.360  53.204 -25.589  1.00  0.00     0.139 C 
HETATM   14  C23 UNL     1       0.743  52.737 -24.191  1.00  0.00     0.065 C 
HETATM   15  C24 UNL     1      -0.485  52.549 -23.302  1.00  0.00     0.130 C 
HETATM   16  C25 UNL     1      -1.653  51.883 -24.032  1.00  0.00    -0.000 A 
HETATM   17  C26 UNL     1      -2.974  52.602 -24.092  1.00  0.00     0.024 A 
HETATM   18  C27 UNL     1      -2.873  51.372 -23.199  1.00  0.00    -0.021 A 
HETATM   19  C28 UNL     1      -3.108  51.801 -21.728  1.00  0.00     0.012 C 
HETATM   20  C29 UNL     1      -3.122  50.706 -20.654  1.00  0.00     0.011 C 
HETATM   21  C30 UNL     1      -4.025  49.528 -21.050  1.00  0.00    -0.032 C 
HETATM   22  C31 UNL     1      -5.492  50.017 -21.060  1.00  0.00     0.016 C 
ENDROOT
BRANCH   1  23
HETATM   23  C7  UNL     1      -4.676  48.091 -18.775  1.00  0.00    -0.014 C 
HETATM   24  C8  UNL     1      -5.299  46.696 -18.639  1.00  0.00     0.010 C 
BRANCH  23  25
HETATM   25  C6  UNL     1      -3.882  48.475 -17.502  1.00  0.00     0.008 C 
BRANCH  25  26
HETATM   26  C5  UNL     1      -2.384  48.136 -17.577  1.00  0.00     0.028 C 
BRANCH  26  27
HETATM   27  C4  UNL     1      -1.497  49.339 -17.724  1.00  0.00    -0.025 C 
HETATM   28  C2  UNL     1      -0.360  49.625 -17.059  1.00  0.00    -0.091 C 
HETATM   29  C1  UNL     1       0.288  48.748 -16.023  1.00  0.00     0.042 C 
HETATM   30  C3  UNL     1       0.384  50.906 -17.333  1.00  0.00     0.042 C 
ENDBRANCH  26  27
ENDBRANCH  25  26
ENDBRANCH  23  25
ENDBRANCH   1  23
BRANCH  15  31
HETATM   31  O4  UNL     1      -0.089  51.731 -22.202  1.00  0.00    -0.395 OA
HETATM   32  H41 UNL     1       0.532  52.255 -21.670  1.00  0.00     0.210 HD
ENDBRANCH  15  31
BRANCH  11  33
HETATM   33  C21 UNL     1       0.430  51.335 -27.207  1.00  0.00     0.151 C 
HETATM   34  O1  UNL     1       0.647  51.471 -28.400  1.00  0.00    -0.649 OA
BRANCH  33  35
HETATM   35  O2  UNL     1       1.054  50.341 -26.540  1.00  0.00    -0.776 OA
HETATM   36  H35 UNL     1       1.626  49.925 -27.222  1.00  0.00     0.167 HD
ENDBRANCH  33  35
ENDBRANCH  11  33
BRANCH  13  37
HETATM   37  O3  UNL     1      -0.283  54.476 -25.452  1.00  0.00    -0.394 OA
HETATM   38  H37 UNL     1      -0.241  54.922 -26.317  1.00  0.00     0.210 HD
ENDBRANCH  13  37
TORSDOF 8
ENDMDL
MODEL 6
REMARK minimizedAffinity -9.12501431
REMARK  8 active torsions:
REMARK  status: ('A' for Active; 'I' for Inactive)
REMARK    1  A    between atoms: C4_4  and  C5_5 
REMARK    2  A    between atoms: C5_5  and  C6_6 
REMARK    3  A    between atoms: C6_6  and  C7_7 
REMARK    4  A    between atoms: C7_7  and  C9_9 
REMARK    5  A    between atoms: C19_19  and  C21_21 
REMARK    6  A    between atoms: C21_21  and  O2_23 
REMARK    7  A    between atoms: C22_24  and  O3_25 
REMARK    8  A    between atoms: C24_27  and  O4_28 
ROOT
HETATM    1  C9  UNL     1      -2.445  48.262 -18.841  1.00  0.00    -0.002 C 
HETATM    2  C10 UNL     1      -2.839  46.999 -19.661  1.00  0.00     0.006 C 
HETATM    3  C11 UNL     1      -3.226  47.476 -21.074  1.00  0.00     0.011 C 
HETATM    4  C12 UNL     1      -2.566  48.861 -21.213  1.00  0.00    -0.028 C 
HETATM    5  C13 UNL     1      -1.014  48.576 -21.416  1.00  0.00     0.016 C 
HETATM    6  C14 UNL     1      -3.050  49.795 -22.424  1.00  0.00    -0.028 C 
HETATM    7  C15 UNL     1      -4.591  49.990 -22.527  1.00  0.00     0.016 C 
HETATM    8  C16 UNL     1      -2.651  49.094 -23.777  1.00  0.00     0.011 C 
HETATM    9  C17 UNL     1      -2.427  50.030 -24.956  1.00  0.00     0.007 C 
HETATM   10  C18 UNL     1      -1.249  50.972 -24.662  1.00  0.00     0.018 C 
HETATM   11  C19 UNL     1      -0.892  51.927 -25.868  1.00  0.00     0.072 C 
HETATM   12  C20 UNL     1      -2.148  52.472 -26.586  1.00  0.00     0.030 C 
HETATM   13  C22 UNL     1       0.049  53.088 -25.414  1.00  0.00     0.139 C 
HETATM   14  C23 UNL     1       0.781  52.755 -24.121  1.00  0.00     0.065 C 
HETATM   15  C24 UNL     1      -0.191  52.547 -22.960  1.00  0.00     0.130 C 
HETATM   16  C25 UNL     1      -1.434  51.750 -23.356  1.00  0.00    -0.000 A 
HETATM   17  C26 UNL     1      -2.789  52.370 -23.145  1.00  0.00     0.024 A 
HETATM   18  C27 UNL     1      -2.382  51.218 -22.233  1.00  0.00    -0.021 A 
HETATM   19  C28 UNL     1      -2.309  51.739 -20.775  1.00  0.00     0.012 C 
HETATM   20  C29 UNL     1      -1.983  50.728 -19.668  1.00  0.00     0.011 C 
HETATM   21  C30 UNL     1      -2.849  49.464 -19.774  1.00  0.00    -0.032 C 
HETATM   22  C31 UNL     1      -4.315  49.848 -19.467  1.00  0.00     0.016 C 
ENDROOT
BRANCH   1  23
HETATM   23  C7  UNL     1      -2.837  48.159 -17.334  1.00  0.00    -0.014 C 
HETATM   24  C8  UNL     1      -3.552  46.834 -17.038  1.00  0.00     0.010 C 
BRANCH  23  25
HETATM   25  C6  UNL     1      -1.716  48.430 -16.299  1.00  0.00     0.008 C 
BRANCH  25  26
HETATM   26  C5  UNL     1      -0.406  48.944 -16.922  1.00  0.00     0.028 C 
BRANCH  26  27
HETATM   27  C4  UNL     1       0.405  49.807 -15.998  1.00  0.00    -0.025 C 
HETATM   28  C2  UNL     1       0.887  51.046 -16.221  1.00  0.00    -0.091 C 
HETATM   29  C1  UNL     1       0.669  51.854 -17.471  1.00  0.00     0.042 C 
HETATM   30  C3  UNL     1       1.708  51.747 -15.170  1.00  0.00     0.042 C 
ENDBRANCH  26  27
ENDBRANCH  25  26
ENDBRANCH  23  25
ENDBRANCH   1  23
BRANCH  15  31
HETATM   31  O4  UNL     1       0.516  51.843 -21.939  1.00  0.00    -0.395 OA
HETATM   32  H41 UNL     1       1.195  52.448 -21.598  1.00  0.00     0.210 HD
ENDBRANCH  15  31
BRANCH  11  33
HETATM   33  C21 UNL     1      -0.096  51.114 -26.896  1.00  0.00     0.151 C 
HETATM   34  O1  UNL     1       0.796  50.311 -26.679  1.00  0.00    -0.649 OA
BRANCH  33  35
HETATM   35  O2  UNL     1      -0.440  51.376 -28.175  1.00  0.00    -0.776 OA
HETATM   36  H35 UNL     1       0.139  50.781 -28.700  1.00  0.00     0.167 HD
ENDBRANCH  33  35
ENDBRANCH  11  33
BRANCH  13  37
HETATM   37  O3  UNL     1      -0.651  54.320 -25.202  1.00  0.00    -0.394 OA
HETATM   38  H37 UNL     1      -0.847  54.702 -26.075  1.00  0.00     0.210 HD
ENDBRANCH  13  37
TORSDOF 8
ENDMDL
MODEL 7
REMARK minimizedAffinity -9.01768684
REMARK  8 active torsions:
REMARK  status: ('A' for Active; 'I' for Inactive)
REMARK    1  A    between atoms: C4_4  and  C5_5 
REMARK    2  A    between atoms: C5_5  and  C6_6 
REMARK    3  A    between atoms: C6_6  and  C7_7 
REMARK    4  A    between atoms: C7_7  and  C9_9 
REMARK    5  A    between atoms: C19_19  and  C21_21 
REMARK    6  A    between atoms: C21_21  and  O2_23 
REMARK    7  A    between atoms: C22_24  and  O3_25 
REMARK    8  A    between atoms: C24_27  and  O4_28 
ROOT
HETATM    1  C9  UNL     1      -1.716  50.698 -22.291  1.00  0.00    -0.002 C 
HETATM    2  C10 UNL     1      -1.121  49.556 -21.416  1.00  0.00     0.006 C 
HETATM    3  C11 UNL     1      -2.305  48.711 -20.907  1.00  0.00     0.011 C 
HETATM    4  C12 UNL     1      -3.457  49.026 -21.880  1.00  0.00    -0.028 C 
HETATM    5  C13 UNL     1      -3.104  48.254 -23.224  1.00  0.00     0.016 C 
HETATM    6  C14 UNL     1      -4.937  48.587 -21.442  1.00  0.00    -0.028 C 
HETATM    7  C15 UNL     1      -5.369  49.059 -20.024  1.00  0.00     0.016 C 
HETATM    8  C16 UNL     1      -4.982  47.016 -21.365  1.00  0.00     0.011 C 
HETATM    9  C17 UNL     1      -6.349  46.389 -21.601  1.00  0.00     0.007 C 
HETATM   10  C18 UNL     1      -6.833  46.707 -23.026  1.00  0.00     0.018 C 
HETATM   11  C19 UNL     1      -8.211  46.026 -23.388  1.00  0.00     0.072 C 
HETATM   12  C20 UNL     1      -9.215  46.057 -22.214  1.00  0.00     0.030 C 
HETATM   13  C22 UNL     1      -8.830  46.650 -24.679  1.00  0.00     0.139 C 
HETATM   14  C23 UNL     1      -7.782  47.355 -25.529  1.00  0.00     0.065 C 
HETATM   15  C24 UNL     1      -7.145  48.527 -24.783  1.00  0.00     0.130 C 
HETATM   16  C25 UNL     1      -6.847  48.210 -23.317  1.00  0.00    -0.000 A 
HETATM   17  C26 UNL     1      -7.451  49.082 -22.249  1.00  0.00     0.024 A 
HETATM   18  C27 UNL     1      -5.951  49.194 -22.497  1.00  0.00    -0.021 A 
HETATM   19  C28 UNL     1      -5.633  50.628 -22.991  1.00  0.00     0.012 C 
HETATM   20  C29 UNL     1      -4.164  50.993 -23.237  1.00  0.00     0.011 C 
HETATM   21  C30 UNL     1      -3.269  50.591 -22.056  1.00  0.00    -0.032 C 
HETATM   22  C31 UNL     1      -3.640  51.469 -20.839  1.00  0.00     0.016 C 
ENDROOT
BRANCH   1  23
HETATM   23  C7  UNL     1      -0.908  52.031 -22.186  1.00  0.00    -0.014 C 
HETATM   24  C8  UNL     1       0.299  51.873 -21.252  1.00  0.00     0.010 C 
BRANCH  23  25
HETATM   25  C6  UNL     1      -0.498  52.706 -23.518  1.00  0.00     0.008 C 
BRANCH  25  26
HETATM   26  C5  UNL     1       0.497  51.883 -24.353  1.00  0.00     0.028 C 
BRANCH  26  27
HETATM   27  C4  UNL     1       0.221  51.914 -25.830  1.00  0.00    -0.025 C 
HETATM   28  C2  UNL     1       1.092  51.754 -26.846  1.00  0.00    -0.091 C 
HETATM   29  C1  UNL     1       2.561  51.468 -26.698  1.00  0.00     0.042 C 
HETATM   30  C3  UNL     1       0.623  51.843 -28.275  1.00  0.00     0.042 C 
ENDBRANCH  26  27
ENDBRANCH  25  26
ENDBRANCH  23  25
ENDBRANCH   1  23
BRANCH  15  31
HETATM   31  O4  UNL     1      -5.927  48.843 -25.455  1.00  0.00    -0.395 OA
HETATM   32  H41 UNL     1      -6.169  49.198 -26.326  1.00  0.00     0.210 HD
ENDBRANCH  15  31
BRANCH  11  33
HETATM   33  C21 UNL     1      -7.939  44.553 -23.716  1.00  0.00     0.151 C 
HETATM   34  O1  UNL     1      -7.520  43.689 -22.964  1.00  0.00    -0.649 OA
BRANCH  33  35
HETATM   35  O2  UNL     1      -8.176  44.235 -25.007  1.00  0.00    -0.776 OA
HETATM   36  H35 UNL     1      -7.969  43.276 -25.053  1.00  0.00     0.167 HD
ENDBRANCH  33  35
ENDBRANCH  11  33
BRANCH  13  37
HETATM   37  O3  UNL     1      -9.861  47.603 -24.397  1.00  0.00    -0.394 OA
HETATM   38  H37 UNL     1     -10.661  47.107 -24.146  1.00  0.00     0.210 HD
ENDBRANCH  13  37
TORSDOF 8
ENDMDL
MODEL 8
REMARK minimizedAffinity -8.85604668
REMARK  8 active torsions:
REMARK  status: ('A' for Active; 'I' for Inactive)
REMARK    1  A    between atoms: C4_4  and  C5_5 
REMARK    2  A    between atoms: C5_5  and  C6_6 
REMARK    3  A    between atoms: C6_6  and  C7_7 
REMARK    4  A    between atoms: C7_7  and  C9_9 
REMARK    5  A    between atoms: C19_19  and  C21_21 
REMARK    6  A    between atoms: C21_21  and  O2_23 
REMARK    7  A    between atoms: C22_24  and  O3_25 
REMARK    8  A    between atoms: C24_27  and  O4_28 
ROOT
HETATM    1  C9  UNL     1      -3.737  48.303 -19.933  1.00  0.00    -0.002 C 
HETATM    2  C10 UNL     1      -4.011  47.094 -20.875  1.00  0.00     0.006 C 
HETATM    3  C11 UNL     1      -4.071  47.643 -22.313  1.00  0.00     0.011 C 
HETATM    4  C12 UNL     1      -3.331  48.992 -22.247  1.00  0.00    -0.028 C 
HETATM    5  C13 UNL     1      -1.787  48.628 -22.138  1.00  0.00     0.016 C 
HETATM    6  C14 UNL     1      -3.506  49.994 -23.488  1.00  0.00    -0.028 C 
HETATM    7  C15 UNL     1      -4.980  50.279 -23.899  1.00  0.00     0.016 C 
HETATM    8  C16 UNL     1      -2.867  49.321 -24.759  1.00  0.00     0.011 C 
HETATM    9  C17 UNL     1      -2.357  50.285 -25.822  1.00  0.00     0.007 C 
HETATM   10  C18 UNL     1      -1.223  51.148 -25.247  1.00  0.00     0.018 C 
HETATM   11  C19 UNL     1      -0.576  52.124 -26.307  1.00  0.00     0.072 C 
HETATM   12  C20 UNL     1      -1.627  52.764 -27.243  1.00  0.00     0.030 C 
HETATM   13  C22 UNL     1       0.302  53.214 -25.613  1.00  0.00     0.139 C 
HETATM   14  C23 UNL     1       0.731  52.793 -24.214  1.00  0.00     0.065 C 
HETATM   15  C24 UNL     1      -0.471  52.600 -23.290  1.00  0.00     0.130 C 
HETATM   16  C25 UNL     1      -1.640  51.888 -23.973  1.00  0.00    -0.000 A 
HETATM   17  C26 UNL     1      -2.979  52.575 -24.018  1.00  0.00     0.024 A 
HETATM   18  C27 UNL     1      -2.826  51.370 -23.096  1.00  0.00    -0.021 A 
HETATM   19  C28 UNL     1      -3.035  51.833 -21.632  1.00  0.00     0.012 C 
HETATM   20  C29 UNL     1      -2.997  50.767 -20.530  1.00  0.00     0.011 C 
HETATM   21  C30 UNL     1      -3.880  49.558 -20.872  1.00  0.00    -0.032 C 
HETATM   22  C31 UNL     1      -5.358  50.012 -20.858  1.00  0.00     0.016 C 
ENDROOT
BRANCH   1  23
HETATM   23  C7  UNL     1      -4.441  48.167 -18.546  1.00  0.00    -0.014 C 
HETATM   24  C8  UNL     1      -3.729  49.011 -17.480  1.00  0.00     0.010 C 
BRANCH  23  25
HETATM   25  C6  UNL     1      -5.972  48.402 -18.512  1.00  0.00     0.008 C 
BRANCH  25  26
HETATM   26  C5  UNL     1      -6.798  47.106 -18.440  1.00  0.00     0.028 C 
BRANCH  26  27
HETATM   27  C4  UNL     1      -8.132  47.199 -19.124  1.00  0.00    -0.025 C 
HETATM   28  C2  UNL     1      -9.128  48.078 -18.897  1.00  0.00    -0.091 C 
HETATM   29  C1  UNL     1      -9.087  49.203 -17.898  1.00  0.00     0.042 C 
HETATM   30  C3  UNL     1     -10.414  47.996 -19.678  1.00  0.00     0.042 C 
ENDBRANCH  26  27
ENDBRANCH  25  26
ENDBRANCH  23  25
ENDBRANCH   1  23
BRANCH  15  31
HETATM   31  O4  UNL     1      -0.028  51.821 -22.180  1.00  0.00    -0.395 OA
HETATM   32  H41 UNL     1       0.593  52.373 -21.677  1.00  0.00     0.210 HD
ENDBRANCH  15  31
BRANCH  11  33
HETATM   33  C21 UNL     1       0.377  51.305 -27.184  1.00  0.00     0.151 C 
HETATM   34  O1  UNL     1       0.579  51.429 -28.381  1.00  0.00    -0.649 OA
BRANCH  33  35
HETATM   35  O2  UNL     1       1.019  50.324 -26.514  1.00  0.00    -0.776 OA
HETATM   36  H35 UNL     1       1.587  49.907 -27.198  1.00  0.00     0.167 HD
ENDBRANCH  33  35
ENDBRANCH  11  33
BRANCH  13  37
HETATM   37  O3  UNL     1      -0.367  54.474 -25.493  1.00  0.00    -0.394 OA
HETATM   38  H37 UNL     1      -0.358  54.898 -26.370  1.00  0.00     0.210 HD
ENDBRANCH  13  37
TORSDOF 8
ENDMDL
MODEL 9
REMARK minimizedAffinity -8.83002186
REMARK  8 active torsions:
REMARK  status: ('A' for Active; 'I' for Inactive)
REMARK    1  A    between atoms: C4_4  and  C5_5 
REMARK    2  A    between atoms: C5_5  and  C6_6 
REMARK    3  A    between atoms: C6_6  and  C7_7 
REMARK    4  A    between atoms: C7_7  and  C9_9 
REMARK    5  A    between atoms: C19_19  and  C21_21 
REMARK    6  A    between atoms: C21_21  and  O2_23 
REMARK    7  A    between atoms: C22_24  and  O3_25 
REMARK    8  A    between atoms: C24_27  and  O4_28 
ROOT
HETATM    1  C9  UNL     1      -2.411  51.674 -23.063  1.00  0.00    -0.002 C 
HETATM    2  C10 UNL     1      -3.826  52.314 -23.169  1.00  0.00     0.006 C 
HETATM    3  C11 UNL     1      -4.849  51.215 -22.825  1.00  0.00     0.011 C 
HETATM    4  C12 UNL     1      -4.044  50.164 -22.038  1.00  0.00    -0.028 C 
HETATM    5  C13 UNL     1      -3.804  50.799 -20.600  1.00  0.00     0.016 C 
HETATM    6  C14 UNL     1      -4.716  48.722 -21.826  1.00  0.00    -0.028 C 
HETATM    7  C15 UNL     1      -5.240  48.045 -23.125  1.00  0.00     0.016 C 
HETATM    8  C16 UNL     1      -5.999  48.903 -20.931  1.00  0.00     0.011 C 
HETATM    9  C17 UNL     1      -6.396  47.688 -20.106  1.00  0.00     0.007 C 
HETATM   10  C18 UNL     1      -5.284  47.350 -19.099  1.00  0.00     0.018 C 
HETATM   11  C19 UNL     1      -5.646  46.148 -18.141  1.00  0.00     0.072 C 
HETATM   12  C20 UNL     1      -6.387  45.007 -18.875  1.00  0.00     0.030 C 
HETATM   13  C22 UNL     1      -4.381  45.614 -17.397  1.00  0.00     0.139 C 
HETATM   14  C23 UNL     1      -3.262  46.645 -17.366  1.00  0.00     0.065 C 
HETATM   15  C24 UNL     1      -2.780  46.998 -18.773  1.00  0.00     0.130 C 
HETATM   16  C25 UNL     1      -3.925  47.149 -19.775  1.00  0.00    -0.000 A 
HETATM   17  C26 UNL     1      -3.925  46.288 -21.010  1.00  0.00     0.024 A 
HETATM   18  C27 UNL     1      -3.626  47.773 -21.177  1.00  0.00    -0.021 A 
HETATM   19  C28 UNL     1      -2.183  47.934 -21.719  1.00  0.00     0.012 C 
HETATM   20  C29 UNL     1      -1.688  49.352 -22.033  1.00  0.00     0.011 C 
HETATM   21  C30 UNL     1      -2.700  50.137 -22.879  1.00  0.00    -0.032 C 
HETATM   22  C31 UNL     1      -2.779  49.485 -24.279  1.00  0.00     0.016 C 
ENDROOT
BRANCH   1  23
HETATM   23  C7  UNL     1      -1.400  52.252 -24.103  1.00  0.00    -0.014 C 
HETATM   24  C8  UNL     1       0.044  51.893 -23.729  1.00  0.00     0.010 C 
BRANCH  23  25
HETATM   25  C6  UNL     1      -1.682  51.949 -25.595  1.00  0.00     0.008 C 
BRANCH  25  26
HETATM   26  C5  UNL     1      -0.945  50.708 -26.128  1.00  0.00     0.028 C 
BRANCH  26  27
HETATM   27  C4  UNL     1       0.525  50.924 -26.347  1.00  0.00    -0.025 C 
HETATM   28  C2  UNL     1       1.128  51.674 -27.290  1.00  0.00    -0.091 C 
HETATM   29  C1  UNL     1       0.421  52.502 -28.328  1.00  0.00     0.042 C 
HETATM   30  C3  UNL     1       2.631  51.748 -27.363  1.00  0.00     0.042 C 
ENDBRANCH  26  27
ENDBRANCH  25  26
ENDBRANCH  23  25
ENDBRANCH   1  23
BRANCH  15  31
HETATM   31  O4  UNL     1      -2.069  48.232 -18.679  1.00  0.00    -0.395 OA
HETATM   32  H41 UNL     1      -1.261  48.054 -18.170  1.00  0.00     0.210 HD
ENDBRANCH  15  31
BRANCH  11  33
HETATM   33  C21 UNL     1      -6.588  46.678 -17.054  1.00  0.00     0.151 C 
HETATM   34  O1  UNL     1      -7.786  46.889 -17.146  1.00  0.00    -0.649 OA
BRANCH  33  35
HETATM   35  O2  UNL     1      -5.965  46.955 -15.889  1.00  0.00    -0.776 OA
HETATM   36  H35 UNL     1      -6.690  47.268 -15.304  1.00  0.00     0.167 HD
ENDBRANCH  33  35
ENDBRANCH  11  33
BRANCH  13  37
HETATM   37  O3  UNL     1      -3.848  44.424 -17.989  1.00  0.00    -0.394 OA
HETATM   38  H37 UNL     1      -4.423  43.682 -17.729  1.00  0.00     0.210 HD
ENDBRANCH  13  37
TORSDOF 8
ENDMDL
