MODEL 1
REMARK minimizedAffinity -8.68254852
REMARK CNNscore 0.649489105
REMARK CNNaffinity 6.96263885
REMARK  4 active torsions:
REMARK  status: ('A' for Active; 'I' for Inactive)
REMARK    1  A    between atoms: C2_2  and  C3_3 
REMARK    2  A    between atoms: C2_2  and  C9_9 
REMARK    3  A    between atoms: C4_4  and  C5_5 
REMARK    4  A    between atoms: C23_23  and  O1_24 
ROOT
HETATM    1  C9  UNL     1       0.148   6.960  12.224  1.00  0.00     0.001 C 
HETATM    2  C10 UNL     1       0.452   5.541  12.795  1.00  0.00     0.006 C 
HETATM    3  C11 UNL     1      -0.825   5.048  13.490  1.00  0.00     0.009 C 
HETATM    4  C12 UNL     1      -1.863   6.105  13.135  1.00  0.00     0.036 C 
HETATM    5  C13 UNL     1      -1.066   7.434  13.088  1.00  0.00    -0.033 C 
HETATM    6  C14 UNL     1      -0.587   7.948  14.464  1.00  0.00     0.016 C 
HETATM    7  C15 UNL     1      -1.988   8.478  12.425  1.00  0.00     0.010 C 
HETATM    8  C16 UNL     1      -3.329   8.625  13.167  1.00  0.00     0.010 C 
HETATM    9  C17 UNL     1      -4.083   7.291  13.336  1.00  0.00     0.039 C 
HETATM   10  C18 UNL     1      -3.190   6.135  13.902  1.00  0.00     0.123 C 
HETATM   11  C19 UNL     1      -3.119   6.132  15.408  1.00  0.00     0.014 C 
HETATM   12  C20 UNL     1      -4.319   6.042  15.998  1.00  0.00     0.014 C 
HETATM   13  C21 UNL     1      -5.482   6.056  15.026  1.00  0.00     0.124 C 
HETATM   14  C22 UNL     1      -6.823   5.834  15.739  1.00  0.00     0.078 C 
HETATM   15  C23 UNL     1      -8.043   6.112  14.853  1.00  0.00     0.121 C 
HETATM   16  C24 UNL     1      -7.717   6.346  13.383  1.00  0.00     0.033 C 
HETATM   17  C25 UNL     1      -6.658   7.433  13.175  1.00  0.00     0.015 C 
HETATM   18  C26 UNL     1      -5.442   7.361  14.157  1.00  0.00     0.001 C 
HETATM   19  C27 UNL     1      -5.519   8.618  15.067  1.00  0.00     0.019 C 
HETATM   20  O2  UNL     1      -5.286   4.933  14.119  1.00  0.00    -0.223 OA
HETATM   21  O3  UNL     1      -3.891   4.900  13.585  1.00  0.00    -0.224 OA
ENDROOT
BRANCH   1  22
HETATM   22  C2  UNL     1       1.422   7.847  12.141  1.00  0.00     0.008 C 
HETATM   23  C1  UNL     1       1.247   9.217  12.805  1.00  0.00     0.014 C 
BRANCH  22  24
HETATM   24  C3  UNL     1       1.887   7.967  10.698  1.00  0.00    -0.026 C 
HETATM   25  C4  UNL     1       2.341   6.981   9.906  1.00  0.00    -0.025 C 
BRANCH  25  26
HETATM   26  C5  UNL     1       2.771   7.137   8.513  1.00  0.00     0.012 A 
HETATM   27  C6  UNL     1       2.920   8.535   7.965  1.00  0.00     0.013 A 
HETATM   28  C7  UNL     1       1.793   7.661   7.489  1.00  0.00    -0.010 A 
HETATM   29  C8  UNL     1       1.801   7.115   6.101  1.00  0.00     0.010 C 
ENDBRANCH  25  26
ENDBRANCH  22  24
ENDBRANCH   1  22
BRANCH  15  30
HETATM   30  O1  UNL     1      -8.715   7.265  15.369  1.00  0.00    -0.395 OA
HETATM   31  H33 UNL     1      -9.534   7.379  14.856  1.00  0.00     0.210 HD
ENDBRANCH  15  30
TORSDOF 4
ENDMDL
MODEL 2
REMARK minimizedAffinity -9.66612625
REMARK CNNscore 0.624450922
REMARK CNNaffinity 6.82664633
REMARK  4 active torsions:
REMARK  status: ('A' for Active; 'I' for Inactive)
REMARK    1  A    between atoms: C2_2  and  C3_3 
REMARK    2  A    between atoms: C2_2  and  C9_9 
REMARK    3  A    between atoms: C4_4  and  C5_5 
REMARK    4  A    between atoms: C23_23  and  O1_24 
ROOT
HETATM    1  C9  UNL     1      -5.665   7.214  13.879  1.00  0.00     0.001 C 
HETATM    2  C10 UNL     1      -5.521   8.692  14.357  1.00  0.00     0.006 C 
HETATM    3  C11 UNL     1      -4.052   9.091  14.162  1.00  0.00     0.009 C 
HETATM    4  C12 UNL     1      -3.450   7.910  13.413  1.00  0.00     0.036 C 
HETATM    5  C13 UNL     1      -4.201   6.672  13.968  1.00  0.00    -0.033 C 
HETATM    6  C14 UNL     1      -3.846   6.303  15.426  1.00  0.00     0.016 C 
HETATM    7  C15 UNL     1      -3.868   5.496  13.028  1.00  0.00     0.010 C 
HETATM    8  C16 UNL     1      -2.352   5.256  12.910  1.00  0.00     0.010 C 
HETATM    9  C17 UNL     1      -1.568   6.511  12.479  1.00  0.00     0.039 C 
HETATM   10  C18 UNL     1      -1.925   7.789  13.310  1.00  0.00     0.123 C 
HETATM   11  C19 UNL     1      -1.135   7.898  14.589  1.00  0.00     0.014 C 
HETATM   12  C20 UNL     1       0.191   7.899  14.397  1.00  0.00     0.014 C 
HETATM   13  C21 UNL     1       0.602   7.699  12.951  1.00  0.00     0.124 C 
HETATM   14  C22 UNL     1       2.120   7.823  12.768  1.00  0.00     0.078 C 
HETATM   15  C23 UNL     1       2.613   7.361  11.391  1.00  0.00     0.121 C 
HETATM   16  C24 UNL     1       1.503   7.067  10.389  1.00  0.00     0.033 C 
HETATM   17  C25 UNL     1       0.457   6.087  10.930  1.00  0.00     0.015 C 
HETATM   18  C26 UNL     1       0.012   6.351  12.406  1.00  0.00     0.001 C 
HETATM   19  C27 UNL     1       0.525   5.155  13.256  1.00  0.00     0.019 C 
HETATM   20  O2  UNL     1      -0.014   8.774  12.186  1.00  0.00    -0.223 OA
HETATM   21  O3  UNL     1      -1.464   8.920  12.519  1.00  0.00    -0.224 OA
ENDROOT
BRANCH   1  22
HETATM   22  C2  UNL     1      -6.807   6.464  14.619  1.00  0.00     0.008 C 
HETATM   23  C1  UNL     1      -6.438   6.068  16.053  1.00  0.00     0.014 C 
BRANCH  22  24
HETATM   24  C3  UNL     1      -7.272   5.269  13.800  1.00  0.00    -0.026 C 
HETATM   25  C4  UNL     1      -6.559   4.582  12.892  1.00  0.00    -0.025 C 
BRANCH  25  26
HETATM   26  C5  UNL     1      -7.041   3.426  12.129  1.00  0.00     0.012 A 
HETATM   27  C6  UNL     1      -7.586   2.244  12.893  1.00  0.00     0.013 A 
HETATM   28  C7  UNL     1      -6.268   2.130  12.178  1.00  0.00    -0.010 A 
HETATM   29  C8  UNL     1      -6.148   1.286  10.955  1.00  0.00     0.010 C 
ENDBRANCH  25  26
ENDBRANCH  22  24
ENDBRANCH   1  22
BRANCH  15  30
HETATM   30  O1  UNL     1       3.398   6.179  11.573  1.00  0.00    -0.395 OA
HETATM   31  H33 UNL     1       3.779   5.946  10.707  1.00  0.00     0.210 HD
ENDBRANCH  15  30
TORSDOF 4
ENDMDL
MODEL 3
REMARK minimizedAffinity -7.75618887
REMARK CNNscore 0.576476812
REMARK CNNaffinity 6.12703466
REMARK  4 active torsions:
REMARK  status: ('A' for Active; 'I' for Inactive)
REMARK    1  A    between atoms: C2_2  and  C3_3 
REMARK    2  A    between atoms: C2_2  and  C9_9 
REMARK    3  A    between atoms: C4_4  and  C5_5 
REMARK    4  A    between atoms: C23_23  and  O1_24 
ROOT
HETATM    1  C9  UNL     1      13.128  -4.780   6.294  1.00  0.00     0.001 C 
HETATM    2  C10 UNL     1      12.406  -5.780   7.249  1.00  0.00     0.006 C 
HETATM    3  C11 UNL     1      13.409  -6.164   8.346  1.00  0.00     0.009 C 
HETATM    4  C12 UNL     1      14.593  -5.240   8.096  1.00  0.00     0.036 C 
HETATM    5  C13 UNL     1      14.641  -5.074   6.556  1.00  0.00    -0.033 C 
HETATM    6  C14 UNL     1      15.090  -6.336   5.786  1.00  0.00     0.016 C 
HETATM    7  C15 UNL     1      15.606  -3.907   6.267  1.00  0.00     0.010 C 
HETATM    8  C16 UNL     1      17.001  -4.141   6.874  1.00  0.00     0.010 C 
HETATM    9  C17 UNL     1      16.967  -4.432   8.387  1.00  0.00     0.039 C 
HETATM   10  C18 UNL     1      15.929  -5.532   8.790  1.00  0.00     0.123 C 
HETATM   11  C19 UNL     1      16.479  -6.931   8.670  1.00  0.00     0.014 C 
HETATM   12  C20 UNL     1      17.584  -7.133   9.398  1.00  0.00     0.014 C 
HETATM   13  C21 UNL     1      18.087  -5.890  10.107  1.00  0.00     0.124 C 
HETATM   14  C22 UNL     1      19.283  -6.199  11.017  1.00  0.00     0.078 C 
HETATM   15  C23 UNL     1      19.998  -4.946  11.539  1.00  0.00     0.121 C 
HETATM   16  C24 UNL     1      19.277  -3.637  11.240  1.00  0.00     0.033 C 
HETATM   17  C25 UNL     1      18.937  -3.470   9.756  1.00  0.00     0.015 C 
HETATM   18  C26 UNL     1      18.369  -4.753   9.065  1.00  0.00     0.001 C 
HETATM   19  C27 UNL     1      19.431  -5.220   8.031  1.00  0.00     0.019 C 
HETATM   20  O2  UNL     1      17.003  -5.426  10.962  1.00  0.00    -0.223 OA
HETATM   21  O3  UNL     1      15.708  -5.367  10.219  1.00  0.00    -0.224 OA
ENDROOT
BRANCH   1  22
HETATM   22  C2  UNL     1      12.573  -4.846   4.844  1.00  0.00     0.008 C 
HETATM   23  C1  UNL     1      12.698  -6.237   4.213  1.00  0.00     0.014 C 
BRANCH  22  24
HETATM   24  C3  UNL     1      13.217  -3.770   3.983  1.00  0.00    -0.026 C 
HETATM   25  C4  UNL     1      12.830  -2.489   3.861  1.00  0.00    -0.025 C 
BRANCH  25  26
HETATM   26  C5  UNL     1      13.486  -1.477   3.026  1.00  0.00     0.012 A 
HETATM   27  C6  UNL     1      14.408  -1.947   1.928  1.00  0.00     0.013 A 
HETATM   28  C7  UNL     1      14.977  -1.271   3.145  1.00  0.00    -0.010 A 
HETATM   29  C8  UNL     1      15.552   0.101   3.041  1.00  0.00     0.010 C 
ENDBRANCH  25  26
ENDBRANCH  22  24
ENDBRANCH   1  22
BRANCH  15  30
HETATM   30  O1  UNL     1      21.302  -4.900  10.952  1.00  0.00    -0.395 OA
HETATM   31  H33 UNL     1      21.778  -4.154  11.357  1.00  0.00     0.210 HD
ENDBRANCH  15  30
TORSDOF 4
ENDMDL
MODEL 4
REMARK minimizedAffinity -9.01012897
REMARK CNNscore 0.499272406
REMARK CNNaffinity 6.54030752
REMARK  4 active torsions:
REMARK  status: ('A' for Active; 'I' for Inactive)
REMARK    1  A    between atoms: C2_2  and  C3_3 
REMARK    2  A    between atoms: C2_2  and  C9_9 
REMARK    3  A    between atoms: C4_4  and  C5_5 
REMARK    4  A    between atoms: C23_23  and  O1_24 
ROOT
HETATM    1  C9  UNL     1      -4.246   6.494  13.042  1.00  0.00     0.001 C 
HETATM    2  C10 UNL     1      -4.215   7.911  13.692  1.00  0.00     0.006 C 
HETATM    3  C11 UNL     1      -2.831   8.511  13.411  1.00  0.00     0.009 C 
HETATM    4  C12 UNL     1      -2.188   7.510  12.461  1.00  0.00     0.036 C 
HETATM    5  C13 UNL     1      -2.729   6.132  12.919  1.00  0.00    -0.033 C 
HETATM    6  C14 UNL     1      -2.176   5.640  14.275  1.00  0.00     0.016 C 
HETATM    7  C15 UNL     1      -2.373   5.125  11.806  1.00  0.00     0.010 C 
HETATM    8  C16 UNL     1      -0.862   5.092  11.513  1.00  0.00     0.010 C 
HETATM    9  C17 UNL     1      -0.276   6.477  11.175  1.00  0.00     0.039 C 
HETATM   10  C18 UNL     1      -0.679   7.593  12.196  1.00  0.00     0.123 C 
HETATM   11  C19 UNL     1       0.231   7.649  13.396  1.00  0.00     0.014 C 
HETATM   12  C20 UNL     1       1.519   7.837  13.080  1.00  0.00     0.014 C 
HETATM   13  C21 UNL     1       1.786   7.862  11.588  1.00  0.00     0.124 C 
HETATM   14  C22 UNL     1       3.251   8.196  11.277  1.00  0.00     0.078 C 
HETATM   15  C23 UNL     1       3.637   7.964   9.811  1.00  0.00     0.121 C 
HETATM   16  C24 UNL     1       2.462   7.654   8.890  1.00  0.00     0.033 C 
HETATM   17  C25 UNL     1       1.599   6.495   9.397  1.00  0.00     0.015 C 
HETATM   18  C26 UNL     1       1.294   6.525  10.931  1.00  0.00     0.001 C 
HETATM   19  C27 UNL     1       2.029   5.311  11.564  1.00  0.00     0.019 C 
HETATM   20  O2  UNL     1       0.973   8.935  11.032  1.00  0.00    -0.223 OA
HETATM   21  O3  UNL     1      -0.438   8.858  11.518  1.00  0.00    -0.224 OA
ENDROOT
BRANCH   1  22
HETATM   22  C2  UNL     1      -5.207   5.525  13.784  1.00  0.00     0.008 C 
HETATM   23  C1  UNL     1      -5.417   4.199  13.045  1.00  0.00     0.014 C 
BRANCH  22  24
HETATM   24  C3  UNL     1      -6.524   6.221  14.091  1.00  0.00    -0.026 C 
HETATM   25  C4  UNL     1      -6.768   7.097  15.080  1.00  0.00    -0.025 C 
BRANCH  25  26
HETATM   26  C5  UNL     1      -8.052   7.757  15.336  1.00  0.00     0.012 A 
HETATM   27  C6  UNL     1      -8.741   7.489  16.652  1.00  0.00     0.013 A 
HETATM   28  C7  UNL     1      -9.315   6.930  15.379  1.00  0.00    -0.010 A 
HETATM   29  C8  UNL     1     -10.586   7.479  14.825  1.00  0.00     0.010 C 
ENDBRANCH  25  26
ENDBRANCH  22  24
ENDBRANCH   1  22
BRANCH  15  30
HETATM   30  O1  UNL     1       4.565   6.876   9.760  1.00  0.00    -0.395 OA
HETATM   31  H33 UNL     1       4.870   6.796   8.840  1.00  0.00     0.210 HD
ENDBRANCH  15  30
TORSDOF 4
ENDMDL
MODEL 5
REMARK minimizedAffinity -9.51598454
REMARK CNNscore 0.477239728
REMARK CNNaffinity 6.70277643
REMARK  4 active torsions:
REMARK  status: ('A' for Active; 'I' for Inactive)
REMARK    1  A    between atoms: C2_2  and  C3_3 
REMARK    2  A    between atoms: C2_2  and  C9_9 
REMARK    3  A    between atoms: C4_4  and  C5_5 
REMARK    4  A    between atoms: C23_23  and  O1_24 
ROOT
HETATM    1  C9  UNL     1      -5.995   6.604  13.742  1.00  0.00     0.001 C 
HETATM    2  C10 UNL     1      -6.056   8.134  14.041  1.00  0.00     0.006 C 
HETATM    3  C11 UNL     1      -4.653   8.703  13.786  1.00  0.00     0.009 C 
HETATM    4  C12 UNL     1      -3.892   7.534  13.175  1.00  0.00     0.036 C 
HETATM    5  C13 UNL     1      -4.472   6.280  13.879  1.00  0.00    -0.033 C 
HETATM    6  C14 UNL     1      -4.078   6.137  15.367  1.00  0.00     0.016 C 
HETATM    7  C15 UNL     1      -3.976   5.057  13.081  1.00  0.00     0.010 C 
HETATM    8  C16 UNL     1      -2.441   5.013  12.977  1.00  0.00     0.010 C 
HETATM    9  C17 UNL     1      -1.832   6.303  12.393  1.00  0.00     0.039 C 
HETATM   10  C18 UNL     1      -2.364   7.610  13.072  1.00  0.00     0.123 C 
HETATM   11  C19 UNL     1      -1.604   7.975  14.321  1.00  0.00     0.014 C 
HETATM   12  C20 UNL     1      -0.289   8.133  14.117  1.00  0.00     0.014 C 
HETATM   13  C21 UNL     1       0.153   7.822  12.700  1.00  0.00     0.124 C 
HETATM   14  C22 UNL     1       1.642   8.128  12.488  1.00  0.00     0.078 C 
HETATM   15  C23 UNL     1       2.201   7.578  11.171  1.00  0.00     0.121 C 
HETATM   16  C24 UNL     1       1.147   7.020  10.221  1.00  0.00     0.033 C 
HETATM   17  C25 UNL     1       0.241   5.978  10.884  1.00  0.00     0.015 C 
HETATM   18  C26 UNL     1      -0.245   6.352  12.323  1.00  0.00     0.001 C 
HETATM   19  C27 UNL     1       0.421   5.345  13.302  1.00  0.00     0.019 C 
HETATM   20  O2  UNL     1      -0.598   8.706  11.820  1.00  0.00    -0.223 OA
HETATM   21  O3  UNL     1      -2.056   8.692  12.148  1.00  0.00    -0.224 OA
ENDROOT
BRANCH   1  22
HETATM   22  C2  UNL     1      -7.029   5.799  14.576  1.00  0.00     0.008 C 
HETATM   23  C1  UNL     1      -7.288   4.394  14.022  1.00  0.00     0.014 C 
BRANCH  22  24
HETATM   24  C3  UNL     1      -8.315   6.596  14.735  1.00  0.00    -0.026 C 
HETATM   25  C4  UNL     1      -9.369   6.609  13.902  1.00  0.00    -0.025 C 
BRANCH  25  26
HETATM   26  C5  UNL     1     -10.598   7.384  14.096  1.00  0.00     0.012 A 
HETATM   27  C6  UNL     1     -11.907   6.637  14.181  1.00  0.00     0.013 A 
HETATM   28  C7  UNL     1     -11.602   7.478  12.972  1.00  0.00    -0.010 A 
HETATM   29  C8  UNL     1     -12.343   8.750  12.736  1.00  0.00     0.010 C 
ENDBRANCH  25  26
ENDBRANCH  22  24
ENDBRANCH   1  22
BRANCH  15  30
HETATM   30  O1  UNL     1       3.138   6.543  11.482  1.00  0.00    -0.395 OA
HETATM   31  H33 UNL     1       3.552   6.264  10.646  1.00  0.00     0.210 HD
ENDBRANCH  15  30
TORSDOF 4
ENDMDL
MODEL 6
REMARK minimizedAffinity -9.62874508
REMARK CNNscore 0.45564875
REMARK CNNaffinity 6.50066996
REMARK  4 active torsions:
REMARK  status: ('A' for Active; 'I' for Inactive)
REMARK    1  A    between atoms: C2_2  and  C3_3 
REMARK    2  A    between atoms: C2_2  and  C9_9 
REMARK    3  A    between atoms: C4_4  and  C5_5 
REMARK    4  A    between atoms: C23_23  and  O1_24 
ROOT
HETATM    1  C9  UNL     1       1.462   7.158   9.835  1.00  0.00     0.001 C 
HETATM    2  C10 UNL     1       1.939   5.745  10.291  1.00  0.00     0.006 C 
HETATM    3  C11 UNL     1       0.994   5.285  11.410  1.00  0.00     0.009 C 
HETATM    4  C12 UNL     1      -0.092   6.352  11.429  1.00  0.00     0.036 C 
HETATM    5  C13 UNL     1       0.645   7.667  11.067  1.00  0.00    -0.033 C 
HETATM    6  C14 UNL     1       1.592   8.199  12.166  1.00  0.00     0.016 C 
HETATM    7  C15 UNL     1      -0.445   8.713  10.756  1.00  0.00     0.010 C 
HETATM    8  C16 UNL     1      -1.427   8.897  11.928  1.00  0.00     0.010 C 
HETATM    9  C17 UNL     1      -2.080   7.578  12.388  1.00  0.00     0.039 C 
HETATM   10  C18 UNL     1      -1.054   6.419  12.622  1.00  0.00     0.123 C 
HETATM   11  C19 UNL     1      -0.445   6.442  14.000  1.00  0.00     0.014 C 
HETATM   12  C20 UNL     1      -1.352   6.383  14.984  1.00  0.00     0.014 C 
HETATM   13  C21 UNL     1      -2.787   6.397  14.497  1.00  0.00     0.124 C 
HETATM   14  C22 UNL     1      -3.782   6.211  15.650  1.00  0.00     0.078 C 
HETATM   15  C23 UNL     1      -5.238   6.492  15.257  1.00  0.00     0.121 C 
HETATM   16  C24 UNL     1      -5.461   6.694  13.763  1.00  0.00     0.033 C 
HETATM   17  C25 UNL     1      -4.539   7.759  13.162  1.00  0.00     0.015 C 
HETATM   18  C26 UNL     1      -3.052   7.685  13.641  1.00  0.00     0.001 C 
HETATM   19  C27 UNL     1      -2.785   8.960  14.489  1.00  0.00     0.019 C 
HETATM   20  O2  UNL     1      -2.941   5.255  13.606  1.00  0.00    -0.223 OA
HETATM   21  O3  UNL     1      -1.832   5.189  12.606  1.00  0.00    -0.224 OA
ENDROOT
BRANCH   1  22
HETATM   22  C2  UNL     1       2.628   8.021   9.278  1.00  0.00     0.008 C 
HETATM   23  C1  UNL     1       2.613   8.141   7.750  1.00  0.00     0.014 C 
BRANCH  22  24
HETATM   24  C3  UNL     1       3.961   7.506   9.797  1.00  0.00    -0.026 C 
HETATM   25  C4  UNL     1       4.971   8.233  10.302  1.00  0.00    -0.025 C 
BRANCH  25  26
HETATM   26  C5  UNL     1       6.240   7.696  10.803  1.00  0.00     0.012 A 
HETATM   27  C6  UNL     1       6.286   6.247  11.221  1.00  0.00     0.013 A 
HETATM   28  C7  UNL     1       6.366   7.329  12.262  1.00  0.00    -0.010 A 
HETATM   29  C8  UNL     1       7.644   7.579  12.987  1.00  0.00     0.010 C 
ENDBRANCH  25  26
ENDBRANCH  22  24
ENDBRANCH   1  22
BRANCH  15  30
HETATM   30  O1  UNL     1      -5.669   7.666  15.952  1.00  0.00    -0.395 OA
HETATM   31  H33 UNL     1      -6.617   7.783  15.767  1.00  0.00     0.210 HD
ENDBRANCH  15  30
TORSDOF 4
ENDMDL
MODEL 7
REMARK minimizedAffinity -7.24577856
REMARK CNNscore 0.41754511
REMARK CNNaffinity 6.05151892
REMARK  4 active torsions:
REMARK  status: ('A' for Active; 'I' for Inactive)
REMARK    1  A    between atoms: C2_2  and  C3_3 
REMARK    2  A    between atoms: C2_2  and  C9_9 
REMARK    3  A    between atoms: C4_4  and  C5_5 
REMARK    4  A    between atoms: C23_23  and  O1_24 
ROOT
HETATM    1  C9  UNL     1       0.071   6.893  12.947  1.00  0.00     0.001 C 
HETATM    2  C10 UNL     1       0.994   7.936  12.245  1.00  0.00     0.006 C 
HETATM    3  C11 UNL     1       0.801   9.275  12.971  1.00  0.00     0.009 C 
HETATM    4  C12 UNL     1      -0.072   8.917  14.167  1.00  0.00     0.036 C 
HETATM    5  C13 UNL     1      -1.000   7.789  13.649  1.00  0.00    -0.033 C 
HETATM    6  C14 UNL     1      -2.072   8.251  12.636  1.00  0.00     0.016 C 
HETATM    7  C15 UNL     1      -1.677   7.170  14.889  1.00  0.00     0.010 C 
HETATM    8  C16 UNL     1      -2.437   8.218  15.722  1.00  0.00     0.010 C 
HETATM    9  C17 UNL     1      -1.561   9.415  16.144  1.00  0.00     0.039 C 
HETATM   10  C18 UNL     1      -0.746  10.041  14.962  1.00  0.00     0.123 C 
HETATM   11  C19 UNL     1      -1.533  11.064  14.184  1.00  0.00     0.014 C 
HETATM   12  C20 UNL     1      -1.990  12.072  14.938  1.00  0.00     0.014 C 
HETATM   13  C21 UNL     1      -1.694  11.914  16.417  1.00  0.00     0.124 C 
HETATM   14  C22 UNL     1      -2.133  13.145  17.220  1.00  0.00     0.078 C 
HETATM   15  C23 UNL     1      -2.112  12.929  18.738  1.00  0.00     0.121 C 
HETATM   16  C24 UNL     1      -1.463  11.623  19.180  1.00  0.00     0.033 C 
HETATM   17  C25 UNL     1      -2.058  10.396  18.482  1.00  0.00     0.015 C 
HETATM   18  C26 UNL     1      -2.302  10.569  16.947  1.00  0.00     0.001 C 
HETATM   19  C27 UNL     1      -3.840  10.549  16.726  1.00  0.00     0.019 C 
HETATM   20  O2  UNL     1      -0.247  11.809  16.547  1.00  0.00    -0.223 OA
HETATM   21  O3  UNL     1       0.318  10.818  15.581  1.00  0.00    -0.224 OA
ENDROOT
BRANCH   1  22
HETATM   22  C2  UNL     1      -0.387   5.767  11.979  1.00  0.00     0.008 C 
HETATM   23  C1  UNL     1      -0.210   4.361  12.563  1.00  0.00     0.014 C 
BRANCH  22  24
HETATM   24  C3  UNL     1       0.304   5.915  10.632  1.00  0.00    -0.026 C 
HETATM   25  C4  UNL     1       1.626   5.966  10.400  1.00  0.00    -0.025 C 
BRANCH  25  26
HETATM   26  C5  UNL     1       2.255   6.099   9.081  1.00  0.00     0.012 A 
HETATM   27  C6  UNL     1       3.319   7.154   8.902  1.00  0.00     0.013 A 
HETATM   28  C7  UNL     1       1.976   7.325   8.247  1.00  0.00    -0.010 A 
HETATM   29  C8  UNL     1       1.843   7.207   6.767  1.00  0.00     0.010 C 
ENDBRANCH  25  26
ENDBRANCH  22  24
ENDBRANCH   1  22
BRANCH  15  30
HETATM   30  O1  UNL     1      -3.461  12.959  19.212  1.00  0.00    -0.395 OA
HETATM   31  H33 UNL     1      -3.430  12.911  20.184  1.00  0.00     0.210 HD
ENDBRANCH  15  30
TORSDOF 4
ENDMDL
MODEL 8
REMARK minimizedAffinity -8.61158466
REMARK CNNscore 0.396630019
REMARK CNNaffinity 6.23835564
REMARK  4 active torsions:
REMARK  status: ('A' for Active; 'I' for Inactive)
REMARK    1  A    between atoms: C2_2  and  C3_3 
REMARK    2  A    between atoms: C2_2  and  C9_9 
REMARK    3  A    between atoms: C4_4  and  C5_5 
REMARK    4  A    between atoms: C23_23  and  O1_24 
ROOT
HETATM    1  C9  UNL     1      -3.787   7.618  13.874  1.00  0.00     0.001 C 
HETATM    2  C10 UNL     1      -3.247   8.808  14.726  1.00  0.00     0.006 C 
HETATM    3  C11 UNL     1      -1.769   8.996  14.358  1.00  0.00     0.009 C 
HETATM    4  C12 UNL     1      -1.562   8.045  13.187  1.00  0.00     0.036 C 
HETATM    5  C13 UNL     1      -2.486   6.838  13.495  1.00  0.00    -0.033 C 
HETATM    6  C14 UNL     1      -2.019   5.954  14.673  1.00  0.00     0.016 C 
HETATM    7  C15 UNL     1      -2.564   6.000  12.203  1.00  0.00     0.010 C 
HETATM    8  C16 UNL     1      -1.174   5.561  11.709  1.00  0.00     0.010 C 
HETATM    9  C17 UNL     1      -0.196   6.737  11.513  1.00  0.00     0.039 C 
HETATM   10  C18 UNL     1      -0.134   7.710  12.739  1.00  0.00     0.123 C 
HETATM   11  C19 UNL     1       0.835   7.255  13.801  1.00  0.00     0.014 C 
HETATM   12  C20 UNL     1       2.085   7.096  13.348  1.00  0.00     0.014 C 
HETATM   13  C21 UNL     1       2.230   7.319  11.855  1.00  0.00     0.124 C 
HETATM   14  C22 UNL     1       3.695   7.240  11.406  1.00  0.00     0.078 C 
HETATM   15  C23 UNL     1       3.869   7.183   9.884  1.00  0.00     0.121 C 
HETATM   16  C24 UNL     1       2.590   7.428   9.092  1.00  0.00     0.033 C 
HETATM   17  C25 UNL     1       1.438   6.515   9.524  1.00  0.00     0.015 C 
HETATM   18  C26 UNL     1       1.280   6.347  11.072  1.00  0.00     0.001 C 
HETATM   19  C27 UNL     1       1.626   4.870  11.406  1.00  0.00     0.019 C 
HETATM   20  O2  UNL     1       1.769   8.675  11.585  1.00  0.00    -0.223 OA
HETATM   21  O3  UNL     1       0.452   8.944  12.238  1.00  0.00    -0.224 OA
ENDROOT
BRANCH   1  22
HETATM   22  C2  UNL     1      -4.951   6.869  14.580  1.00  0.00     0.008 C 
HETATM   23  C1  UNL     1      -4.594   6.394  15.994  1.00  0.00     0.014 C 
BRANCH  22  24
HETATM   24  C3  UNL     1      -5.453   5.730  13.706  1.00  0.00    -0.026 C 
HETATM   25  C4  UNL     1      -6.729   5.448  13.395  1.00  0.00    -0.025 C 
BRANCH  25  26
HETATM   26  C5  UNL     1      -7.172   4.343  12.537  1.00  0.00     0.012 A 
HETATM   27  C6  UNL     1      -8.617   3.914  12.618  1.00  0.00     0.013 A 
HETATM   28  C7  UNL     1      -7.538   3.019  13.163  1.00  0.00    -0.010 A 
HETATM   29  C8  UNL     1      -7.197   1.745  12.467  1.00  0.00     0.010 C 
ENDBRANCH  25  26
ENDBRANCH  22  24
ENDBRANCH   1  22
BRANCH  15  30
HETATM   30  O1  UNL     1       4.385   5.893   9.542  1.00  0.00    -0.395 OA
HETATM   31  H33 UNL     1       4.576   5.898   8.588  1.00  0.00     0.210 HD
ENDBRANCH  15  30
TORSDOF 4
ENDMDL
MODEL 9
REMARK minimizedAffinity -7.67423058
REMARK CNNscore 0.386356771
REMARK CNNaffinity 6.57145452
REMARK  4 active torsions:
REMARK  status: ('A' for Active; 'I' for Inactive)
REMARK    1  A    between atoms: C2_2  and  C3_3 
REMARK    2  A    between atoms: C2_2  and  C9_9 
REMARK    3  A    between atoms: C4_4  and  C5_5 
REMARK    4  A    between atoms: C23_23  and  O1_24 
ROOT
HETATM    1  C9  UNL     1      -6.985   6.519  13.808  1.00  0.00     0.001 C 
HETATM    2  C10 UNL     1      -7.555   5.400  12.882  1.00  0.00     0.006 C 
HETATM    3  C11 UNL     1      -9.054   5.679  12.703  1.00  0.00     0.009 C 
HETATM    4  C12 UNL     1      -9.253   7.035  13.367  1.00  0.00     0.036 C 
HETATM    5  C13 UNL     1      -8.256   7.039  14.554  1.00  0.00    -0.033 C 
HETATM    6  C14 UNL     1      -8.632   6.090  15.714  1.00  0.00     0.016 C 
HETATM    7  C15 UNL     1      -8.182   8.493  15.063  1.00  0.00     0.010 C 
HETATM    8  C16 UNL     1      -9.564   9.044  15.458  1.00  0.00     0.010 C 
HETATM    9  C17 UNL     1     -10.609   8.935  14.329  1.00  0.00     0.039 C 
HETATM   10  C18 UNL     1     -10.677   7.515  13.673  1.00  0.00     0.123 C 
HETATM   11  C19 UNL     1     -11.581   6.567  14.419  1.00  0.00     0.014 C 
HETATM   12  C20 UNL     1     -12.837   7.015  14.543  1.00  0.00     0.014 C 
HETATM   13  C21 UNL     1     -13.048   8.410  13.988  1.00  0.00     0.124 C 
HETATM   14  C22 UNL     1     -14.522   8.831  14.049  1.00  0.00     0.078 C 
HETATM   15  C23 UNL     1     -14.749  10.320  13.762  1.00  0.00     0.121 C 
HETATM   16  C24 UNL     1     -13.515  11.062  13.264  1.00  0.00     0.033 C 
HETATM   17  C25 UNL     1     -12.301  10.882  14.181  1.00  0.00     0.015 C 
HETATM   18  C26 UNL     1     -12.077   9.421  14.694  1.00  0.00     0.001 C 
HETATM   19  C27 UNL     1     -12.333   9.434  16.226  1.00  0.00     0.019 C 
HETATM   20  O2  UNL     1     -12.669   8.366  12.583  1.00  0.00    -0.223 OA
HETATM   21  O3  UNL     1     -11.345   7.699  12.394  1.00  0.00    -0.224 OA
ENDROOT
BRANCH   1  22
HETATM   22  C2  UNL     1      -5.758   6.035  14.629  1.00  0.00     0.008 C 
HETATM   23  C1  UNL     1      -5.785   6.505  16.088  1.00  0.00     0.014 C 
BRANCH  22  24
HETATM   24  C3  UNL     1      -4.466   6.427  13.929  1.00  0.00    -0.026 C 
HETATM   25  C4  UNL     1      -3.489   5.605  13.509  1.00  0.00    -0.025 C 
BRANCH  25  26
HETATM   26  C5  UNL     1      -2.261   6.022  12.825  1.00  0.00     0.012 A 
HETATM   27  C6  UNL     1      -0.948   5.849  13.550  1.00  0.00     0.013 A 
HETATM   28  C7  UNL     1      -1.505   7.229  13.328  1.00  0.00    -0.010 A 
HETATM   29  C8  UNL     1      -0.850   8.156  12.362  1.00  0.00     0.010 C 
ENDBRANCH  25  26
ENDBRANCH  22  24
ENDBRANCH   1  22
BRANCH  15  30
HETATM   30  O1  UNL     1     -15.209  10.941  14.966  1.00  0.00    -0.395 OA
HETATM   31  H33 UNL     1     -15.435  11.863  14.750  1.00  0.00     0.210 HD
ENDBRANCH  15  30
TORSDOF 4
ENDMDL
