MODEL 1
REMARK minimizedAffinity -7.24160576
REMARK CNNscore 0.913558722
REMARK CNNaffinity 7.18371344
REMARK  10 active torsions:
REMARK  status: ('A' for Active; 'I' for Inactive)
REMARK    1  A    between atoms: C2_2  and  C3_3 
REMARK    2  A    between atoms: C2_2  and  C9_11 
REMARK    3  A    between atoms: C3_3  and  C4_4 
REMARK    4  A    between atoms: C4_4  and  C5_5 
REMARK    5  A    between atoms: C5_5  and  O1_6 
REMARK    6  A    between atoms: C5_5  and  C6_7 
REMARK    7  A    between atoms: C6_7  and  O2_10 
REMARK    8  A    between atoms: C12_14  and  C13_15 
REMARK    9  A    between atoms: C13_15  and  O4_17 
REMARK   10  A    between atoms: C21_25  and  O5_26 
ROOT
HETATM    1  C9  UNL     1       3.698  55.506  -7.568  1.00  0.00    -0.001 C 
HETATM    2  C10 UNL     1       2.672  56.569  -7.090  1.00  0.00     0.007 C 
HETATM    3  C11 UNL     1       1.404  56.391  -7.965  1.00  0.00     0.022 C 
HETATM    4  C12 UNL     1       1.612  55.039  -8.682  1.00  0.00     0.057 C 
HETATM    5  C14 UNL     1       0.837  54.788 -10.006  1.00  0.00     0.010 C 
HETATM    6  C15 UNL     1      -0.693  54.903  -9.892  1.00  0.00     0.010 C 
HETATM    7  C16 UNL     1      -1.460  53.587  -9.744  1.00  0.00     0.036 C 
HETATM    8  C17 UNL     1      -1.710  52.815 -11.034  1.00  0.00    -0.067 C 
HETATM    9  C18 UNL     1      -0.805  52.728 -12.042  1.00  0.00    -0.076 C 
HETATM   10  C19 UNL     1      -1.124  52.068 -13.375  1.00  0.00     0.037 C 
HETATM   11  C20 UNL     1      -2.585  51.698 -13.589  1.00  0.00     0.037 C 
HETATM   12  C21 UNL     1      -3.194  51.131 -12.317  1.00  0.00     0.130 C 
HETATM   13  C22 UNL     1      -3.113  52.148 -11.133  1.00  0.00     0.002 C 
HETATM   14  C23 UNL     1      -3.470  51.386  -9.833  1.00  0.00     0.022 C 
HETATM   15  C24 UNL     1      -4.173  53.252 -11.363  1.00  0.00     0.022 C 
HETATM   16  C25 UNL     1       0.639  53.218 -12.018  1.00  0.00     0.039 C 
HETATM   17  C26 UNL     1       1.314  53.457 -10.653  1.00  0.00    -0.005 C 
HETATM   18  C27 UNL     1       2.856  53.399 -10.822  1.00  0.00     0.006 C 
HETATM   19  C28 UNL     1       3.665  53.800  -9.576  1.00  0.00     0.011 C 
HETATM   20  C29 UNL     1       3.163  55.125  -8.980  1.00  0.00    -0.022 C 
HETATM   21  C30 UNL     1       3.554  56.242 -10.000  1.00  0.00     0.017 C 
ENDROOT
BRANCH   1  22
HETATM   22  C2  UNL     1       5.211  55.847  -7.413  1.00  0.00    -0.014 C 
HETATM   23  C1  UNL     1       5.357  57.350  -7.119  1.00  0.00     0.010 C 
BRANCH  22  24
HETATM   24  C3  UNL     1       6.108  55.459  -8.612  1.00  0.00     0.007 C 
BRANCH  24  25
HETATM   25  C4  UNL     1       7.078  54.293  -8.320  1.00  0.00     0.035 C 
BRANCH  25  26
HETATM   26  C5  UNL     1       6.492  53.241  -7.358  1.00  0.00     0.151 C 
BRANCH  26  27
HETATM   27  O1  UNL     1       7.215  53.313  -6.116  1.00  0.00    -0.393 OA
HETATM   28  H10 UNL     1       8.160  53.265  -6.347  1.00  0.00     0.210 HD
ENDBRANCH  26  27
BRANCH  26  29
HETATM   29  C6  UNL     1       6.563  51.777  -7.881  1.00  0.00     0.076 C 
HETATM   30  C7  UNL     1       7.634  50.946  -7.172  1.00  0.00     0.048 C 
HETATM   31  C8  UNL     1       6.827  51.757  -9.394  1.00  0.00     0.048 C 
BRANCH  29  32
HETATM   32  O2  UNL     1       5.299  51.136  -7.644  1.00  0.00    -0.388 OA
HETATM   33  H17 UNL     1       4.687  51.449  -8.334  1.00  0.00     0.210 HD
ENDBRANCH  29  32
ENDBRANCH  26  29
ENDBRANCH  25  26
ENDBRANCH  24  25
ENDBRANCH  22  24
ENDBRANCH   1  22
BRANCH   4  34
HETATM   34  C13 UNL     1       1.219  53.921  -7.674  1.00  0.00     0.149 C 
HETATM   35  O3  UNL     1       1.602  52.763  -7.650  1.00  0.00    -0.649 OA
BRANCH  34  36
HETATM   36  O4  UNL     1       0.304  54.306  -6.759  1.00  0.00    -0.776 OA
HETATM   37  H23 UNL     1       0.158  53.497  -6.226  1.00  0.00     0.167 HD
ENDBRANCH  34  36
ENDBRANCH   4  34
BRANCH  12  38
HETATM   38  O5  UNL     1      -2.542  49.894 -12.002  1.00  0.00    -0.394 OA
HETATM   39  H34 UNL     1      -1.648  50.111 -11.680  1.00  0.00     0.210 HD
ENDBRANCH  12  38
TORSDOF 10
ENDMDL
MODEL 2
REMARK minimizedAffinity -7.56982994
REMARK CNNscore 0.864855409
REMARK CNNaffinity 6.73923731
REMARK  10 active torsions:
REMARK  status: ('A' for Active; 'I' for Inactive)
REMARK    1  A    between atoms: C2_2  and  C3_3 
REMARK    2  A    between atoms: C2_2  and  C9_11 
REMARK    3  A    between atoms: C3_3  and  C4_4 
REMARK    4  A    between atoms: C4_4  and  C5_5 
REMARK    5  A    between atoms: C5_5  and  O1_6 
REMARK    6  A    between atoms: C5_5  and  C6_7 
REMARK    7  A    between atoms: C6_7  and  O2_10 
REMARK    8  A    between atoms: C12_14  and  C13_15 
REMARK    9  A    between atoms: C13_15  and  O4_17 
REMARK   10  A    between atoms: C21_25  and  O5_26 
ROOT
HETATM    1  C9  UNL     1       4.180  55.299  -8.450  1.00  0.00    -0.001 C 
HETATM    2  C10 UNL     1       3.246  56.372  -7.826  1.00  0.00     0.007 C 
HETATM    3  C11 UNL     1       1.858  56.198  -8.494  1.00  0.00     0.022 C 
HETATM    4  C12 UNL     1       1.945  54.841  -9.226  1.00  0.00     0.057 C 
HETATM    5  C14 UNL     1       0.973  54.589 -10.414  1.00  0.00     0.010 C 
HETATM    6  C15 UNL     1      -0.520  54.716 -10.066  1.00  0.00     0.010 C 
HETATM    7  C16 UNL     1      -1.264  53.407  -9.793  1.00  0.00     0.036 C 
HETATM    8  C17 UNL     1      -1.715  52.630 -11.025  1.00  0.00    -0.067 C 
HETATM    9  C18 UNL     1      -0.976  52.531 -12.160  1.00  0.00    -0.076 C 
HETATM   10  C19 UNL     1      -1.501  51.867 -13.424  1.00  0.00     0.037 C 
HETATM   11  C20 UNL     1      -2.980  51.506 -13.408  1.00  0.00     0.037 C 
HETATM   12  C21 UNL     1      -3.389  50.950 -12.054  1.00  0.00     0.130 C 
HETATM   13  C22 UNL     1      -3.121  51.973 -10.903  1.00  0.00     0.002 C 
HETATM   14  C23 UNL     1      -3.278  51.221  -9.558  1.00  0.00     0.022 C 
HETATM   15  C24 UNL     1      -4.196  53.083 -10.973  1.00  0.00     0.022 C 
HETATM   16  C25 UNL     1       0.457  53.011 -12.361  1.00  0.00     0.039 C 
HETATM   17  C26 UNL     1       1.336  53.251 -11.118  1.00  0.00    -0.005 C 
HETATM   18  C27 UNL     1       2.834  53.181 -11.522  1.00  0.00     0.006 C 
HETATM   19  C28 UNL     1       3.827  53.583 -10.418  1.00  0.00     0.011 C 
HETATM   20  C29 UNL     1       3.432  54.915  -9.760  1.00  0.00    -0.022 C 
HETATM   21  C30 UNL     1       3.668  56.024 -10.835  1.00  0.00     0.017 C 
ENDROOT
BRANCH   1  22
HETATM   22  C2  UNL     1       5.701  55.630  -8.532  1.00  0.00    -0.014 C 
HETATM   23  C1  UNL     1       6.412  54.521  -9.326  1.00  0.00     0.010 C 
BRANCH  22  24
HETATM   24  C3  UNL     1       6.412  55.840  -7.174  1.00  0.00     0.007 C 
BRANCH  24  25
HETATM   25  C4  UNL     1       6.302  57.278  -6.622  1.00  0.00     0.035 C 
BRANCH  25  26
HETATM   26  C5  UNL     1       6.430  57.352  -5.087  1.00  0.00     0.151 C 
BRANCH  26  27
HETATM   27  O1  UNL     1       5.326  58.123  -4.580  1.00  0.00    -0.393 OA
HETATM   28  H10 UNL     1       5.314  58.952  -5.091  1.00  0.00     0.210 HD
ENDBRANCH  26  27
BRANCH  26  29
HETATM   29  C6  UNL     1       7.751  57.997  -4.578  1.00  0.00     0.076 C 
HETATM   30  C7  UNL     1       7.879  59.471  -4.967  1.00  0.00     0.048 C 
HETATM   31  C8  UNL     1       8.968  57.227  -5.114  1.00  0.00     0.048 C 
BRANCH  29  32
HETATM   32  O2  UNL     1       7.781  57.928  -3.143  1.00  0.00    -0.388 OA
HETATM   33  H17 UNL     1       8.028  57.016  -2.907  1.00  0.00     0.210 HD
ENDBRANCH  29  32
ENDBRANCH  26  29
ENDBRANCH  25  26
ENDBRANCH  24  25
ENDBRANCH  22  24
ENDBRANCH   1  22
BRANCH   4  34
HETATM   34  C13 UNL     1       1.703  53.732  -8.163  1.00  0.00     0.149 C 
HETATM   35  O3  UNL     1       2.076  52.571  -8.193  1.00  0.00    -0.649 OA
BRANCH  34  36
HETATM   36  O4  UNL     1       0.946  54.130  -7.119  1.00  0.00    -0.776 OA
HETATM   37  H23 UNL     1       0.878  53.324  -6.565  1.00  0.00     0.167 HD
ENDBRANCH  34  36
ENDBRANCH   4  34
BRANCH  12  38
HETATM   38  O5  UNL     1      -2.704  49.711 -11.835  1.00  0.00    -0.394 OA
HETATM   39  H34 UNL     1      -1.770  49.923 -11.656  1.00  0.00     0.210 HD
ENDBRANCH  12  38
TORSDOF 10
ENDMDL
MODEL 3
REMARK minimizedAffinity -8.14308262
REMARK CNNscore 0.776058793
REMARK CNNaffinity 6.36796951
REMARK  10 active torsions:
REMARK  status: ('A' for Active; 'I' for Inactive)
REMARK    1  A    between atoms: C2_2  and  C3_3 
REMARK    2  A    between atoms: C2_2  and  C9_11 
REMARK    3  A    between atoms: C3_3  and  C4_4 
REMARK    4  A    between atoms: C4_4  and  C5_5 
REMARK    5  A    between atoms: C5_5  and  O1_6 
REMARK    6  A    between atoms: C5_5  and  C6_7 
REMARK    7  A    between atoms: C6_7  and  O2_10 
REMARK    8  A    between atoms: C12_14  and  C13_15 
REMARK    9  A    between atoms: C13_15  and  O4_17 
REMARK   10  A    between atoms: C21_25  and  O5_26 
ROOT
HETATM    1  C9  UNL     1       2.214  54.320  -9.931  1.00  0.00    -0.001 C 
HETATM    2  C10 UNL     1       3.311  53.461 -10.617  1.00  0.00     0.007 C 
HETATM    3  C11 UNL     1       4.670  53.924 -10.033  1.00  0.00     0.022 C 
HETATM    4  C12 UNL     1       4.295  54.790  -8.810  1.00  0.00     0.057 C 
HETATM    5  C14 UNL     1       5.331  55.835  -8.309  1.00  0.00     0.010 C 
HETATM    6  C15 UNL     1       6.705  55.254  -7.932  1.00  0.00     0.010 C 
HETATM    7  C16 UNL     1       6.945  55.000  -6.442  1.00  0.00     0.036 C 
HETATM    8  C17 UNL     1       7.339  56.219  -5.615  1.00  0.00    -0.067 C 
HETATM    9  C18 UNL     1       6.817  57.457  -5.810  1.00  0.00    -0.076 C 
HETATM   10  C19 UNL     1       7.321  58.686  -5.067  1.00  0.00     0.037 C 
HETATM   11  C20 UNL     1       8.588  58.481  -4.248  1.00  0.00     0.037 C 
HETATM   12  C21 UNL     1       8.560  57.141  -3.531  1.00  0.00     0.130 C 
HETATM   13  C22 UNL     1       8.426  55.950  -4.534  1.00  0.00     0.002 C 
HETATM   14  C23 UNL     1       8.104  54.677  -3.714  1.00  0.00     0.022 C 
HETATM   15  C24 UNL     1       9.789  55.748  -5.240  1.00  0.00     0.022 C 
HETATM   16  C25 UNL     1       5.662  57.826  -6.735  1.00  0.00     0.039 C 
HETATM   17  C26 UNL     1       4.699  56.712  -7.193  1.00  0.00    -0.005 C 
HETATM   18  C27 UNL     1       3.349  57.344  -7.628  1.00  0.00     0.006 C 
HETATM   19  C28 UNL     1       2.353  56.370  -8.281  1.00  0.00     0.011 C 
HETATM   20  C29 UNL     1       3.022  55.533  -9.383  1.00  0.00    -0.022 C 
HETATM   21  C30 UNL     1       3.335  56.518 -10.555  1.00  0.00     0.017 C 
ENDROOT
BRANCH   1  22
HETATM   22  C2  UNL     1       0.911  54.599 -10.739  1.00  0.00    -0.014 C 
HETATM   23  C1  UNL     1      -0.145  55.199  -9.795  1.00  0.00     0.010 C 
BRANCH  22  24
HETATM   24  C3  UNL     1       0.314  53.382 -11.485  1.00  0.00     0.007 C 
BRANCH  24  25
HETATM   25  C4  UNL     1      -0.915  52.758 -10.789  1.00  0.00     0.035 C 
BRANCH  25  26
HETATM   26  C5  UNL     1      -1.990  52.266 -11.779  1.00  0.00     0.151 C 
BRANCH  26  27
HETATM   27  O1  UNL     1      -1.573  52.621 -13.110  1.00  0.00    -0.393 OA
HETATM   28  H10 UNL     1      -1.357  53.570 -13.084  1.00  0.00     0.210 HD
ENDBRANCH  26  27
BRANCH  26  29
HETATM   29  C6  UNL     1      -3.410  52.856 -11.537  1.00  0.00     0.076 C 
HETATM   30  C7  UNL     1      -3.402  54.039 -10.568  1.00  0.00     0.048 C 
HETATM   31  C8  UNL     1      -4.360  51.772 -11.005  1.00  0.00     0.048 C 
BRANCH  29  32
HETATM   32  O2  UNL     1      -3.936  53.330 -12.787  1.00  0.00    -0.388 OA
HETATM   33  H17 UNL     1      -4.244  52.550 -13.281  1.00  0.00     0.210 HD
ENDBRANCH  29  32
ENDBRANCH  26  29
ENDBRANCH  25  26
ENDBRANCH  24  25
ENDBRANCH  22  24
ENDBRANCH   1  22
BRANCH   4  34
HETATM   34  C13 UNL     1       3.989  53.815  -7.637  1.00  0.00     0.149 C 
HETATM   35  O3  UNL     1       3.287  54.014  -6.660  1.00  0.00    -0.649 OA
BRANCH  34  36
HETATM   36  O4  UNL     1       4.635  52.633  -7.724  1.00  0.00    -0.776 OA
HETATM   37  H23 UNL     1       4.351  52.156  -6.916  1.00  0.00     0.167 HD
ENDBRANCH  34  36
ENDBRANCH   4  34
BRANCH  12  38
HETATM   38  O5  UNL     1       7.496  57.150  -2.571  1.00  0.00    -0.394 OA
HETATM   39  H34 UNL     1       6.658  57.095  -3.066  1.00  0.00     0.210 HD
ENDBRANCH  12  38
TORSDOF 10
ENDMDL
MODEL 4
REMARK minimizedAffinity -7.35649872
REMARK CNNscore 0.75950104
REMARK CNNaffinity 6.38575363
REMARK  10 active torsions:
REMARK  status: ('A' for Active; 'I' for Inactive)
REMARK    1  A    between atoms: C2_2  and  C3_3 
REMARK    2  A    between atoms: C2_2  and  C9_11 
REMARK    3  A    between atoms: C3_3  and  C4_4 
REMARK    4  A    between atoms: C4_4  and  C5_5 
REMARK    5  A    between atoms: C5_5  and  O1_6 
REMARK    6  A    between atoms: C5_5  and  C6_7 
REMARK    7  A    between atoms: C6_7  and  O2_10 
REMARK    8  A    between atoms: C12_14  and  C13_15 
REMARK    9  A    between atoms: C13_15  and  O4_17 
REMARK   10  A    between atoms: C21_25  and  O5_26 
ROOT
HETATM    1  C9  UNL     1       2.249  53.947  -9.991  1.00  0.00    -0.001 C 
HETATM    2  C10 UNL     1       3.405  53.179 -10.687  1.00  0.00     0.007 C 
HETATM    3  C11 UNL     1       4.728  53.758 -10.123  1.00  0.00     0.022 C 
HETATM    4  C12 UNL     1       4.297  54.596  -8.900  1.00  0.00     0.057 C 
HETATM    5  C14 UNL     1       5.249  55.728  -8.418  1.00  0.00     0.010 C 
HETATM    6  C15 UNL     1       6.671  55.266  -8.055  1.00  0.00     0.010 C 
HETATM    7  C16 UNL     1       6.950  55.042  -6.567  1.00  0.00     0.036 C 
HETATM    8  C17 UNL     1       7.251  56.295  -5.752  1.00  0.00    -0.067 C 
HETATM    9  C18 UNL     1       6.625  57.483  -5.947  1.00  0.00    -0.076 C 
HETATM   10  C19 UNL     1       7.033  58.754  -5.217  1.00  0.00     0.037 C 
HETATM   11  C20 UNL     1       8.323  58.661  -4.413  1.00  0.00     0.037 C 
HETATM   12  C21 UNL     1       8.417  57.328  -3.689  1.00  0.00     0.130 C 
HETATM   13  C22 UNL     1       8.371  56.124  -4.685  1.00  0.00     0.002 C 
HETATM   14  C23 UNL     1       8.167  54.833  -3.853  1.00  0.00     0.022 C 
HETATM   15  C24 UNL     1       9.736  56.033  -5.407  1.00  0.00     0.022 C 
HETATM   16  C25 UNL     1       5.431  57.749  -6.858  1.00  0.00     0.039 C 
HETATM   17  C26 UNL     1       4.559  56.556  -7.298  1.00  0.00    -0.005 C 
HETATM   18  C27 UNL     1       3.156  57.070  -7.718  1.00  0.00     0.006 C 
HETATM   19  C28 UNL     1       2.237  56.011  -8.353  1.00  0.00     0.011 C 
HETATM   20  C29 UNL     1       2.959  55.227  -9.460  1.00  0.00    -0.022 C 
HETATM   21  C30 UNL     1       3.173  56.228 -10.640  1.00  0.00     0.017 C 
ENDROOT
BRANCH   1  22
HETATM   22  C2  UNL     1       0.916  54.111 -10.783  1.00  0.00    -0.014 C 
HETATM   23  C1  UNL     1      -0.156  54.689  -9.844  1.00  0.00     0.010 C 
BRANCH  22  24
HETATM   24  C3  UNL     1       0.381  52.828 -11.462  1.00  0.00     0.007 C 
BRANCH  24  25
HETATM   25  C4  UNL     1       0.264  52.931 -12.998  1.00  0.00     0.035 C 
BRANCH  25  26
HETATM   26  C5  UNL     1       0.454  51.579 -13.715  1.00  0.00     0.151 C 
BRANCH  26  27
HETATM   27  O1  UNL     1       1.064  50.661 -12.789  1.00  0.00    -0.393 OA
HETATM   28  H10 UNL     1       1.845  51.115 -12.428  1.00  0.00     0.210 HD
ENDBRANCH  26  27
BRANCH  26  29
HETATM   29  C6  UNL     1       1.339  51.643 -14.993  1.00  0.00     0.076 C 
HETATM   30  C7  UNL     1       0.912  50.633 -16.060  1.00  0.00     0.048 C 
HETATM   31  C8  UNL     1       2.815  51.412 -14.639  1.00  0.00     0.048 C 
BRANCH  29  32
HETATM   32  O2  UNL     1       1.223  52.953 -15.574  1.00  0.00    -0.388 OA
HETATM   33  H17 UNL     1       1.784  53.549 -15.046  1.00  0.00     0.210 HD
ENDBRANCH  29  32
ENDBRANCH  26  29
ENDBRANCH  25  26
ENDBRANCH  24  25
ENDBRANCH  22  24
ENDBRANCH   1  22
BRANCH   4  34
HETATM   34  C13 UNL     1       4.089  53.606  -7.717  1.00  0.00     0.149 C 
HETATM   35  O3  UNL     1       3.386  53.753  -6.732  1.00  0.00    -0.649 OA
BRANCH  34  36
HETATM   36  O4  UNL     1       4.830  52.482  -7.808  1.00  0.00    -0.776 OA
HETATM   37  H23 UNL     1       4.597  51.988  -6.994  1.00  0.00     0.167 HD
ENDBRANCH  34  36
ENDBRANCH   4  34
BRANCH  12  38
HETATM   38  O5  UNL     1       7.368  57.254  -2.715  1.00  0.00    -0.394 OA
HETATM   39  H34 UNL     1       6.531  57.126  -3.198  1.00  0.00     0.210 HD
ENDBRANCH  12  38
TORSDOF 10
ENDMDL
MODEL 5
REMARK minimizedAffinity -8.43036556
REMARK CNNscore 0.558014274
REMARK CNNaffinity 6.62276888
REMARK  10 active torsions:
REMARK  status: ('A' for Active; 'I' for Inactive)
REMARK    1  A    between atoms: C2_2  and  C3_3 
REMARK    2  A    between atoms: C2_2  and  C9_11 
REMARK    3  A    between atoms: C3_3  and  C4_4 
REMARK    4  A    between atoms: C4_4  and  C5_5 
REMARK    5  A    between atoms: C5_5  and  O1_6 
REMARK    6  A    between atoms: C5_5  and  C6_7 
REMARK    7  A    between atoms: C6_7  and  O2_10 
REMARK    8  A    between atoms: C12_14  and  C13_15 
REMARK    9  A    between atoms: C13_15  and  O4_17 
REMARK   10  A    between atoms: C21_25  and  O5_26 
ROOT
HETATM    1  C9  UNL     1      -0.950  51.026 -16.206  1.00  0.00    -0.001 C 
HETATM    2  C10 UNL     1       0.491  51.465 -16.585  1.00  0.00     0.007 C 
HETATM    3  C11 UNL     1       0.675  51.142 -18.090  1.00  0.00     0.022 C 
HETATM    4  C12 UNL     1      -0.751  50.838 -18.601  1.00  0.00     0.057 C 
HETATM    5  C14 UNL     1      -0.897  49.974 -19.885  1.00  0.00     0.010 C 
HETATM    6  C15 UNL     1      -0.182  50.533 -21.127  1.00  0.00     0.010 C 
HETATM    7  C16 UNL     1      -1.054  51.310 -22.116  1.00  0.00     0.036 C 
HETATM    8  C17 UNL     1      -1.871  50.464 -23.087  1.00  0.00    -0.067 C 
HETATM    9  C18 UNL     1      -2.466  49.294 -22.741  1.00  0.00    -0.076 C 
HETATM   10  C19 UNL     1      -3.163  48.398 -23.756  1.00  0.00     0.037 C 
HETATM   11  C20 UNL     1      -2.968  48.788 -25.215  1.00  0.00     0.037 C 
HETATM   12  C21 UNL     1      -3.036  50.296 -25.388  1.00  0.00     0.130 C 
HETATM   13  C22 UNL     1      -1.949  51.027 -24.536  1.00  0.00     0.002 C 
HETATM   14  C23 UNL     1      -2.287  52.539 -24.537  1.00  0.00     0.022 C 
HETATM   15  C24 UNL     1      -0.575  50.830 -25.220  1.00  0.00     0.022 C 
HETATM   16  C25 UNL     1      -2.577  48.704 -21.340  1.00  0.00     0.039 C 
HETATM   17  C26 UNL     1      -2.396  49.641 -20.129  1.00  0.00    -0.005 C 
HETATM   18  C27 UNL     1      -3.074  49.010 -18.882  1.00  0.00     0.006 C 
HETATM   19  C28 UNL     1      -2.817  49.747 -17.557  1.00  0.00     0.011 C 
HETATM   20  C29 UNL     1      -1.322  50.045 -17.357  1.00  0.00    -0.022 C 
HETATM   21  C30 UNL     1      -0.628  48.667 -17.107  1.00  0.00     0.017 C 
ENDROOT
BRANCH   1  22
HETATM   22  C2  UNL     1      -1.200  50.576 -14.735  1.00  0.00    -0.014 C 
HETATM   23  C1  UNL     1      -2.667  50.135 -14.590  1.00  0.00     0.010 C 
BRANCH  22  24
HETATM   24  C3  UNL     1      -0.858  51.623 -13.649  1.00  0.00     0.007 C 
BRANCH  24  25
HETATM   25  C4  UNL     1      -2.016  51.914 -12.669  1.00  0.00     0.035 C 
BRANCH  25  26
HETATM   26  C5  UNL     1      -1.547  52.099 -11.212  1.00  0.00     0.151 C 
BRANCH  26  27
HETATM   27  O1  UNL     1      -1.807  50.877 -10.497  1.00  0.00    -0.393 OA
HETATM   28  H10 UNL     1      -2.739  50.655 -10.666  1.00  0.00     0.210 HD
ENDBRANCH  26  27
BRANCH  26  29
HETATM   29  C6  UNL     1      -2.240  53.267 -10.453  1.00  0.00     0.076 C 
HETATM   30  C7  UNL     1      -3.601  53.635 -11.047  1.00  0.00     0.048 C 
HETATM   31  C8  UNL     1      -1.340  54.512 -10.442  1.00  0.00     0.048 C 
BRANCH  29  32
HETATM   32  O2  UNL     1      -2.462  52.870  -9.090  1.00  0.00    -0.388 OA
HETATM   33  H17 UNL     1      -1.610  52.953  -8.626  1.00  0.00     0.210 HD
ENDBRANCH  29  32
ENDBRANCH  26  29
ENDBRANCH  25  26
ENDBRANCH  24  25
ENDBRANCH  22  24
ENDBRANCH   1  22
BRANCH   4  34
HETATM   34  C13 UNL     1      -1.445  52.206 -18.858  1.00  0.00     0.149 C 
HETATM   35  O3  UNL     1      -0.922  53.273 -19.130  1.00  0.00    -0.649 OA
BRANCH  34  36
HETATM   36  O4  UNL     1      -2.786  52.176 -18.708  1.00  0.00    -0.776 OA
HETATM   37  H23 UNL     1      -3.057  53.101 -18.885  1.00  0.00     0.167 HD
ENDBRANCH  34  36
ENDBRANCH   4  34
BRANCH  12  38
HETATM   38  O5  UNL     1      -4.358  50.742 -25.060  1.00  0.00    -0.394 OA
HETATM   39  H34 UNL     1      -4.454  50.678 -24.092  1.00  0.00     0.210 HD
ENDBRANCH  12  38
TORSDOF 10
ENDMDL
MODEL 6
REMARK minimizedAffinity -6.98817444
REMARK CNNscore 0.551196992
REMARK CNNaffinity 6.54517889
REMARK  10 active torsions:
REMARK  status: ('A' for Active; 'I' for Inactive)
REMARK    1  A    between atoms: C2_2  and  C3_3 
REMARK    2  A    between atoms: C2_2  and  C9_11 
REMARK    3  A    between atoms: C3_3  and  C4_4 
REMARK    4  A    between atoms: C4_4  and  C5_5 
REMARK    5  A    between atoms: C5_5  and  O1_6 
REMARK    6  A    between atoms: C5_5  and  C6_7 
REMARK    7  A    between atoms: C6_7  and  O2_10 
REMARK    8  A    between atoms: C12_14  and  C13_15 
REMARK    9  A    between atoms: C13_15  and  O4_17 
REMARK   10  A    between atoms: C21_25  and  O5_26 
ROOT
HETATM    1  C9  UNL     1      -2.846  50.238 -10.755  1.00  0.00    -0.001 C 
HETATM    2  C10 UNL     1      -2.701  50.630 -12.250  1.00  0.00     0.007 C 
HETATM    3  C11 UNL     1      -1.845  51.922 -12.292  1.00  0.00     0.022 C 
HETATM    4  C12 UNL     1      -1.258  52.047 -10.869  1.00  0.00     0.057 C 
HETATM    5  C14 UNL     1      -0.806  53.454 -10.387  1.00  0.00     0.010 C 
HETATM    6  C15 UNL     1       0.252  54.133 -11.274  1.00  0.00     0.010 C 
HETATM    7  C16 UNL     1       1.703  54.022 -10.801  1.00  0.00     0.036 C 
HETATM    8  C17 UNL     1       2.124  55.004  -9.713  1.00  0.00    -0.067 C 
HETATM    9  C18 UNL     1       1.315  55.378  -8.689  1.00  0.00    -0.076 C 
HETATM   10  C19 UNL     1       1.703  56.460  -7.691  1.00  0.00     0.037 C 
HETATM   11  C20 UNL     1       2.962  57.246  -8.034  1.00  0.00     0.037 C 
HETATM   12  C21 UNL     1       4.039  56.329  -8.591  1.00  0.00     0.130 C 
HETATM   13  C22 UNL     1       3.559  55.585  -9.878  1.00  0.00     0.002 C 
HETATM   14  C23 UNL     1       4.587  54.469 -10.189  1.00  0.00     0.022 C 
HETATM   15  C24 UNL     1       3.555  56.591 -11.053  1.00  0.00     0.022 C 
HETATM   16  C25 UNL     1      -0.049  54.792  -8.340  1.00  0.00     0.039 C 
HETATM   17  C26 UNL     1      -0.412  53.396  -8.884  1.00  0.00    -0.005 C 
HETATM   18  C27 UNL     1      -1.528  52.773  -8.003  1.00  0.00     0.006 C 
HETATM   19  C28 UNL     1      -2.119  51.455  -8.533  1.00  0.00     0.011 C 
HETATM   20  C29 UNL     1      -2.501  51.566 -10.018  1.00  0.00    -0.022 C 
HETATM   21  C30 UNL     1      -3.730  52.529 -10.086  1.00  0.00     0.017 C 
ENDROOT
BRANCH   1  22
HETATM   22  C2  UNL     1      -4.136  49.469 -10.336  1.00  0.00    -0.014 C 
HETATM   23  C1  UNL     1      -3.749  48.327  -9.380  1.00  0.00     0.010 C 
BRANCH  22  24
HETATM   24  C3  UNL     1      -4.988  48.911 -11.500  1.00  0.00     0.007 C 
BRANCH  24  25
HETATM   25  C4  UNL     1      -6.131  47.974 -11.051  1.00  0.00     0.035 C 
BRANCH  25  26
HETATM   26  C5  UNL     1      -6.721  48.350  -9.676  1.00  0.00     0.151 C 
BRANCH  26  27
HETATM   27  O1  UNL     1      -6.895  47.141  -8.916  1.00  0.00    -0.393 OA
HETATM   28  H10 UNL     1      -7.389  46.527  -9.487  1.00  0.00     0.210 HD
ENDBRANCH  26  27
BRANCH  26  29
HETATM   29  C6  UNL     1      -8.088  49.089  -9.740  1.00  0.00     0.076 C 
HETATM   30  C7  UNL     1      -8.907  48.931  -8.458  1.00  0.00     0.048 C 
HETATM   31  C8  UNL     1      -8.916  48.589 -10.933  1.00  0.00     0.048 C 
BRANCH  29  32
HETATM   32  O2  UNL     1      -7.850  50.494  -9.925  1.00  0.00    -0.388 OA
HETATM   33  H17 UNL     1      -7.632  50.624 -10.866  1.00  0.00     0.210 HD
ENDBRANCH  29  32
ENDBRANCH  26  29
ENDBRANCH  25  26
ENDBRANCH  24  25
ENDBRANCH  22  24
ENDBRANCH   1  22
BRANCH   4  34
HETATM   34  C13 UNL     1      -0.030  51.095 -10.796  1.00  0.00     0.149 C 
HETATM   35  O3  UNL     1       0.738  50.792 -11.694  1.00  0.00    -0.649 OA
BRANCH  34  36
HETATM   36  O4  UNL     1       0.146  50.519  -9.589  1.00  0.00    -0.776 OA
HETATM   37  H23 UNL     1       0.933  49.950  -9.718  1.00  0.00     0.167 HD
ENDBRANCH  34  36
ENDBRANCH   4  34
BRANCH  12  38
HETATM   38  O5  UNL     1       4.443  55.413  -7.565  1.00  0.00    -0.394 OA
HETATM   39  H34 UNL     1       3.719  54.770  -7.448  1.00  0.00     0.210 HD
ENDBRANCH  12  38
TORSDOF 10
ENDMDL
MODEL 7
REMARK minimizedAffinity -8.49183941
REMARK CNNscore 0.539756477
REMARK CNNaffinity 6.40417671
REMARK  10 active torsions:
REMARK  status: ('A' for Active; 'I' for Inactive)
REMARK    1  A    between atoms: C2_2  and  C3_3 
REMARK    2  A    between atoms: C2_2  and  C9_11 
REMARK    3  A    between atoms: C3_3  and  C4_4 
REMARK    4  A    between atoms: C4_4  and  C5_5 
REMARK    5  A    between atoms: C5_5  and  O1_6 
REMARK    6  A    between atoms: C5_5  and  C6_7 
REMARK    7  A    between atoms: C6_7  and  O2_10 
REMARK    8  A    between atoms: C12_14  and  C13_15 
REMARK    9  A    between atoms: C13_15  and  O4_17 
REMARK   10  A    between atoms: C21_25  and  O5_26 
ROOT
HETATM    1  C9  UNL     1      -9.448  47.005 -30.878  1.00  0.00    -0.001 C 
HETATM    2  C10 UNL     1     -10.180  45.984 -29.966  1.00  0.00     0.007 C 
HETATM    3  C11 UNL     1      -9.328  45.846 -28.678  1.00  0.00     0.022 C 
HETATM    4  C12 UNL     1      -8.325  47.018 -28.746  1.00  0.00     0.057 C 
HETATM    5  C14 UNL     1      -7.003  46.896 -27.936  1.00  0.00     0.010 C 
HETATM    6  C15 UNL     1      -7.188  46.667 -26.426  1.00  0.00     0.010 C 
HETATM    7  C16 UNL     1      -7.068  47.906 -25.535  1.00  0.00     0.036 C 
HETATM    8  C17 UNL     1      -5.648  48.346 -25.197  1.00  0.00    -0.067 C 
HETATM    9  C18 UNL     1      -4.618  48.291 -26.079  1.00  0.00    -0.076 C 
HETATM   10  C19 UNL     1      -3.182  48.606 -25.683  1.00  0.00     0.037 C 
HETATM   11  C20 UNL     1      -2.939  48.782 -24.191  1.00  0.00     0.037 C 
HETATM   12  C21 UNL     1      -4.074  49.558 -23.543  1.00  0.00     0.130 C 
HETATM   13  C22 UNL     1      -5.450  48.840 -23.735  1.00  0.00     0.002 C 
HETATM   14  C23 UNL     1      -6.561  49.835 -23.319  1.00  0.00     0.022 C 
HETATM   15  C24 UNL     1      -5.502  47.620 -22.786  1.00  0.00     0.022 C 
HETATM   16  C25 UNL     1      -4.703  47.955 -27.564  1.00  0.00     0.039 C 
HETATM   17  C26 UNL     1      -6.065  48.089 -28.273  1.00  0.00    -0.005 C 
HETATM   18  C27 UNL     1      -5.838  48.251 -29.801  1.00  0.00     0.006 C 
HETATM   19  C28 UNL     1      -7.116  48.213 -30.658  1.00  0.00     0.011 C 
HETATM   20  C29 UNL     1      -8.004  47.012 -30.294  1.00  0.00    -0.022 C 
HETATM   21  C30 UNL     1      -7.243  45.738 -30.782  1.00  0.00     0.017 C 
ENDROOT
BRANCH   1  22
HETATM   22  C2  UNL     1      -9.626  46.849 -32.419  1.00  0.00    -0.014 C 
HETATM   23  C1  UNL     1     -11.014  46.251 -32.704  1.00  0.00     0.010 C 
BRANCH  22  24
HETATM   24  C3  UNL     1      -8.538  46.014 -33.135  1.00  0.00     0.007 C 
BRANCH  24  25
HETATM   25  C4  UNL     1      -8.719  45.926 -34.666  1.00  0.00     0.035 C 
BRANCH  25  26
HETATM   26  C5  UNL     1      -9.335  44.591 -35.130  1.00  0.00     0.151 C 
BRANCH  26  27
HETATM   27  O1  UNL     1      -8.277  43.621 -35.239  1.00  0.00    -0.393 OA
HETATM   28  H10 UNL     1      -7.583  44.033 -35.784  1.00  0.00     0.210 HD
ENDBRANCH  26  27
BRANCH  26  29
HETATM   29  C6  UNL     1     -10.076  44.660 -36.496  1.00  0.00     0.076 C 
HETATM   30  C7  UNL     1     -11.518  45.154 -36.363  1.00  0.00     0.048 C 
HETATM   31  C8  UNL     1     -10.074  43.286 -37.181  1.00  0.00     0.048 C 
BRANCH  29  32
HETATM   32  O2  UNL     1      -9.385  45.583 -37.354  1.00  0.00    -0.388 OA
HETATM   33  H17 UNL     1      -8.602  45.119 -37.700  1.00  0.00     0.210 HD
ENDBRANCH  29  32
ENDBRANCH  26  29
ENDBRANCH  25  26
ENDBRANCH  24  25
ENDBRANCH  22  24
ENDBRANCH   1  22
BRANCH   4  34
HETATM   34  C13 UNL     1      -9.075  48.290 -28.255  1.00  0.00     0.149 C 
HETATM   35  O3  UNL     1      -9.938  48.368 -27.397  1.00  0.00    -0.649 OA
BRANCH  34  36
HETATM   36  O4  UNL     1      -8.734  49.416 -28.916  1.00  0.00    -0.776 OA
HETATM   37  H23 UNL     1      -9.298  50.103 -28.505  1.00  0.00     0.167 HD
ENDBRANCH  34  36
ENDBRANCH   4  34
BRANCH  12  38
HETATM   38  O5  UNL     1      -4.089  50.888 -24.075  1.00  0.00    -0.394 OA
HETATM   39  H34 UNL     1      -4.423  50.833 -24.989  1.00  0.00     0.210 HD
ENDBRANCH  12  38
TORSDOF 10
ENDMDL
MODEL 8
REMARK minimizedAffinity -8.18830967
REMARK CNNscore 0.511446834
REMARK CNNaffinity 6.40479422
REMARK  10 active torsions:
REMARK  status: ('A' for Active; 'I' for Inactive)
REMARK    1  A    between atoms: C2_2  and  C3_3 
REMARK    2  A    between atoms: C2_2  and  C9_11 
REMARK    3  A    between atoms: C3_3  and  C4_4 
REMARK    4  A    between atoms: C4_4  and  C5_5 
REMARK    5  A    between atoms: C5_5  and  O1_6 
REMARK    6  A    between atoms: C5_5  and  C6_7 
REMARK    7  A    between atoms: C6_7  and  O2_10 
REMARK    8  A    between atoms: C12_14  and  C13_15 
REMARK    9  A    between atoms: C13_15  and  O4_17 
REMARK   10  A    between atoms: C21_25  and  O5_26 
ROOT
HETATM    1  C9  UNL     1     -11.025  46.720 -28.730  1.00  0.00    -0.001 C 
HETATM    2  C10 UNL     1     -11.355  45.935 -27.432  1.00  0.00     0.007 C 
HETATM    3  C11 UNL     1     -10.065  45.932 -26.572  1.00  0.00     0.022 C 
HETATM    4  C12 UNL     1      -9.148  46.979 -27.241  1.00  0.00     0.057 C 
HETATM    5  C14 UNL     1      -7.616  46.869 -26.998  1.00  0.00     0.010 C 
HETATM    6  C15 UNL     1      -7.191  46.910 -25.520  1.00  0.00     0.010 C 
HETATM    7  C16 UNL     1      -6.702  48.262 -24.994  1.00  0.00     0.036 C 
HETATM    8  C17 UNL     1      -5.256  48.618 -25.321  1.00  0.00    -0.067 C 
HETATM    9  C18 UNL     1      -4.662  48.323 -26.505  1.00  0.00    -0.076 C 
HETATM   10  C19 UNL     1      -3.181  48.564 -26.762  1.00  0.00     0.037 C 
HETATM   11  C20 UNL     1      -2.361  48.960 -25.541  1.00  0.00     0.037 C 
HETATM   12  C21 UNL     1      -3.130  49.934 -24.664  1.00  0.00     0.130 C 
HETATM   13  C22 UNL     1      -4.483  49.326 -24.170  1.00  0.00     0.002 C 
HETATM   14  C23 UNL     1      -5.318  50.474 -23.552  1.00  0.00     0.022 C 
HETATM   15  C24 UNL     1      -4.179  48.288 -23.064  1.00  0.00     0.022 C 
HETATM   16  C25 UNL     1      -5.336  47.756 -27.750  1.00  0.00     0.039 C 
HETATM   17  C26 UNL     1      -6.865  47.898 -27.889  1.00  0.00    -0.005 C 
HETATM   18  C27 UNL     1      -7.260  47.784 -29.387  1.00  0.00     0.006 C 
HETATM   19  C28 UNL     1      -8.773  47.725 -29.660  1.00  0.00     0.011 C 
HETATM   20  C29 UNL     1      -9.469  46.688 -28.762  1.00  0.00    -0.022 C 
HETATM   21  C30 UNL     1      -8.989  45.286 -29.257  1.00  0.00     0.017 C 
ENDROOT
BRANCH   1  22
HETATM   22  C2  UNL     1     -11.803  46.329 -30.023  1.00  0.00    -0.014 C 
HETATM   23  C1  UNL     1     -12.074  44.815 -30.006  1.00  0.00     0.010 C 
BRANCH  22  24
HETATM   24  C3  UNL     1     -11.124  46.725 -31.356  1.00  0.00     0.007 C 
BRANCH  24  25
HETATM   25  C4  UNL     1     -10.869  45.537 -32.309  1.00  0.00     0.035 C 
BRANCH  25  26
HETATM   26  C5  UNL     1     -11.267  45.832 -33.769  1.00  0.00     0.151 C 
BRANCH  26  27
HETATM   27  O1  UNL     1     -12.350  44.955 -34.127  1.00  0.00    -0.393 OA
HETATM   28  H10 UNL     1     -12.062  44.055 -33.891  1.00  0.00     0.210 HD
ENDBRANCH  26  27
BRANCH  26  29
HETATM   29  C6  UNL     1     -10.120  45.640 -34.803  1.00  0.00     0.076 C 
HETATM   30  C7  UNL     1     -10.398  46.344 -36.133  1.00  0.00     0.048 C 
HETATM   31  C8  UNL     1      -9.875  44.147 -35.064  1.00  0.00     0.048 C 
BRANCH  29  32
HETATM   32  O2  UNL     1      -8.911  46.200 -34.267  1.00  0.00    -0.388 OA
HETATM   33  H17 UNL     1      -8.561  45.558 -33.623  1.00  0.00     0.210 HD
ENDBRANCH  29  32
ENDBRANCH  26  29
ENDBRANCH  25  26
ENDBRANCH  24  25
ENDBRANCH  22  24
ENDBRANCH   1  22
BRANCH   4  34
HETATM   34  C13 UNL     1      -9.615  48.378 -26.747  1.00  0.00     0.149 C 
HETATM   35  O3  UNL     1     -10.344  48.636 -25.804  1.00  0.00    -0.649 OA
BRANCH  34  36
HETATM   36  O4  UNL     1      -9.177  49.402 -27.510  1.00  0.00    -0.776 OA
HETATM   37  H23 UNL     1      -9.567  50.191 -27.079  1.00  0.00     0.167 HD
ENDBRANCH  34  36
ENDBRANCH   4  34
BRANCH  12  38
HETATM   38  O5  UNL     1      -3.328  51.154 -25.388  1.00  0.00    -0.394 OA
HETATM   39  H34 UNL     1      -3.998  50.980 -26.074  1.00  0.00     0.210 HD
ENDBRANCH  12  38
TORSDOF 10
ENDMDL
MODEL 9
REMARK minimizedAffinity -7.07221794
REMARK CNNscore 0.453920424
REMARK CNNaffinity 6.2378068
REMARK  10 active torsions:
REMARK  status: ('A' for Active; 'I' for Inactive)
REMARK    1  A    between atoms: C2_2  and  C3_3 
REMARK    2  A    between atoms: C2_2  and  C9_11 
REMARK    3  A    between atoms: C3_3  and  C4_4 
REMARK    4  A    between atoms: C4_4  and  C5_5 
REMARK    5  A    between atoms: C5_5  and  O1_6 
REMARK    6  A    between atoms: C5_5  and  C6_7 
REMARK    7  A    between atoms: C6_7  and  O2_10 
REMARK    8  A    between atoms: C12_14  and  C13_15 
REMARK    9  A    between atoms: C13_15  and  O4_17 
REMARK   10  A    between atoms: C21_25  and  O5_26 
ROOT
HETATM    1  C9  UNL     1      -0.178  51.095 -15.523  1.00  0.00    -0.001 C 
HETATM    2  C10 UNL     1       0.662  51.658 -16.701  1.00  0.00     0.007 C 
HETATM    3  C11 UNL     1       0.215  50.893 -17.973  1.00  0.00     0.022 C 
HETATM    4  C12 UNL     1      -1.078  50.159 -17.554  1.00  0.00     0.057 C 
HETATM    5  C14 UNL     1      -1.502  48.905 -18.368  1.00  0.00     0.010 C 
HETATM    6  C15 UNL     1      -1.699  49.147 -19.874  1.00  0.00     0.010 C 
HETATM    7  C16 UNL     1      -3.140  49.358 -20.342  1.00  0.00     0.036 C 
HETATM    8  C17 UNL     1      -3.968  48.092 -20.535  1.00  0.00    -0.067 C 
HETATM    9  C18 UNL     1      -3.885  47.012 -19.718  1.00  0.00    -0.076 C 
HETATM   10  C19 UNL     1      -4.617  45.709 -20.004  1.00  0.00     0.037 C 
HETATM   11  C20 UNL     1      -5.280  45.618 -21.372  1.00  0.00     0.037 C 
HETATM   12  C21 UNL     1      -5.939  46.936 -21.745  1.00  0.00     0.130 C 
HETATM   13  C22 UNL     1      -4.907  48.110 -21.776  1.00  0.00     0.002 C 
HETATM   14  C23 UNL     1      -5.705  49.435 -21.861  1.00  0.00     0.022 C 
HETATM   15  C24 UNL     1      -4.046  47.972 -23.054  1.00  0.00     0.022 C 
HETATM   16  C25 UNL     1      -3.111  46.915 -18.407  1.00  0.00     0.039 C 
HETATM   17  C26 UNL     1      -2.718  48.219 -17.685  1.00  0.00    -0.005 C 
HETATM   18  C27 UNL     1      -2.464  47.920 -16.182  1.00  0.00     0.006 C 
HETATM   19  C28 UNL     1      -1.887  49.094 -15.372  1.00  0.00     0.011 C 
HETATM   20  C29 UNL     1      -0.682  49.732 -16.083  1.00  0.00    -0.022 C 
HETATM   21  C30 UNL     1       0.475  48.684 -16.014  1.00  0.00     0.017 C 
ENDROOT
BRANCH   1  22
HETATM   22  C2  UNL     1       0.466  51.122 -14.104  1.00  0.00    -0.014 C 
HETATM   23  C1  UNL     1       1.608  50.093 -14.052  1.00  0.00     0.010 C 
BRANCH  22  24
HETATM   24  C3  UNL     1      -0.507  50.884 -12.924  1.00  0.00     0.007 C 
BRANCH  24  25
HETATM   25  C4  UNL     1      -1.624  51.943 -12.807  1.00  0.00     0.035 C 
BRANCH  25  26
HETATM   26  C5  UNL     1      -1.530  52.785 -11.519  1.00  0.00     0.151 C 
BRANCH  26  27
HETATM   27  O1  UNL     1      -0.332  52.405 -10.818  1.00  0.00    -0.393 OA
HETATM   28  H10 UNL     1      -0.355  51.435 -10.745  1.00  0.00     0.210 HD
ENDBRANCH  26  27
BRANCH  26  29
HETATM   29  C6  UNL     1      -2.736  52.621 -10.549  1.00  0.00     0.076 C 
HETATM   30  C7  UNL     1      -3.935  53.486 -10.943  1.00  0.00     0.048 C 
HETATM   31  C8  UNL     1      -2.320  52.959  -9.110  1.00  0.00     0.048 C 
BRANCH  29  32
HETATM   32  O2  UNL     1      -3.170  51.251 -10.574  1.00  0.00    -0.388 OA
HETATM   33  H17 UNL     1      -2.544  50.744 -10.027  1.00  0.00     0.210 HD
ENDBRANCH  29  32
ENDBRANCH  26  29
ENDBRANCH  25  26
ENDBRANCH  24  25
ENDBRANCH  22  24
ENDBRANCH   1  22
BRANCH   4  34
HETATM   34  C13 UNL     1      -2.236  51.196 -17.627  1.00  0.00     0.149 C 
HETATM   35  O3  UNL     1      -2.448  52.023 -18.497  1.00  0.00    -0.649 OA
BRANCH  34  36
HETATM   36  O4  UNL     1      -3.056  51.175 -16.555  1.00  0.00    -0.776 OA
HETATM   37  H23 UNL     1      -3.704  51.885 -16.750  1.00  0.00     0.167 HD
ENDBRANCH  34  36
ENDBRANCH   4  34
BRANCH  12  38
HETATM   38  O5  UNL     1      -7.011  47.194 -20.830  1.00  0.00    -0.394 OA
HETATM   39  H34 UNL     1      -6.612  47.440 -19.976  1.00  0.00     0.210 HD
ENDBRANCH  12  38
TORSDOF 10
ENDMDL
