MODEL 1
REMARK minimizedAffinity -7.74859524
REMARK CNNscore 0.88107425
REMARK CNNaffinity 7.31508446
REMARK  6 active torsions:
REMARK  status: ('A' for Active; 'I' for Inactive)
REMARK    1  A    between atoms: C4_4  and  C5_5 
REMARK    2  A    between atoms: C5_5  and  O1_6 
REMARK    3  A    between atoms: C5_5  and  C6_7 
REMARK    4  A    between atoms: C6_7  and  C7_8 
REMARK    5  A    between atoms: C7_8  and  C9_10 
REMARK    6  A    between atoms: C30_32  and  O3_33 
ROOT
HETATM    1  C9  UNL     1      -1.952  52.161 -11.076  1.00  0.00    -0.002 C 
HETATM    2  C10 UNL     1      -1.255  50.774 -11.188  1.00  0.00     0.007 C 
HETATM    3  C11 UNL     1       0.250  50.985 -10.931  1.00  0.00     0.015 C 
HETATM    4  C12 UNL     1       0.458  52.506 -10.992  1.00  0.00    -0.010 C 
HETATM    5  C13 UNL     1       0.620  52.874 -12.502  1.00  0.00     0.021 C 
HETATM    6  C14 UNL     1       1.675  53.138 -10.312  1.00  0.00    -0.039 C 
HETATM    7  C15 UNL     1       1.610  54.418  -9.854  1.00  0.00    -0.066 C 
HETATM    8  C16 UNL     1       0.307  55.228  -9.935  1.00  0.00     0.036 C 
HETATM    9  C17 UNL     1      -0.935  54.528 -10.521  1.00  0.00     0.015 C 
HETATM   10  C18 UNL     1      -0.879  53.009 -10.322  1.00  0.00    -0.029 C 
HETATM   11  C19 UNL     1      -0.951  52.691  -8.797  1.00  0.00     0.016 C 
HETATM   12  C20 UNL     1       2.841  55.150  -9.245  1.00  0.00    -0.015 C 
HETATM   13  C21 UNL     1       3.306  56.179 -10.305  1.00  0.00     0.020 C 
HETATM   14  C22 UNL     1       2.446  55.899  -7.941  1.00  0.00     0.021 C 
HETATM   15  C23 UNL     1       3.589  56.211  -6.977  1.00  0.00     0.080 C 
HETATM   16  C24 UNL     1       4.953  56.108  -7.616  1.00  0.00     0.135 C 
HETATM   17  O2  UNL     1       5.766  57.025  -7.503  1.00  0.00    -0.297 OA
HETATM   18  C25 UNL     1       5.293  54.787  -8.317  1.00  0.00     0.018 C 
HETATM   19  C26 UNL     1       6.369  55.034  -9.396  1.00  0.00     0.023 C 
HETATM   20  C27 UNL     1       5.921  53.868  -7.248  1.00  0.00     0.023 C 
HETATM   21  C28 UNL     1       3.974  54.132  -8.864  1.00  0.00     0.016 C 
HETATM   22  C29 UNL     1       4.208  53.124 -10.003  1.00  0.00     0.043 C 
HETATM   23  C30 UNL     1       2.942  52.315 -10.284  1.00  0.00     0.148 C 
ENDROOT
BRANCH   1  24
HETATM   24  C7  UNL     1      -3.406  52.049 -10.523  1.00  0.00    -0.011 C 
HETATM   25  C8  UNL     1      -4.189  53.361 -10.683  1.00  0.00     0.010 C 
BRANCH  24  26
HETATM   26  C6  UNL     1      -4.205  50.924 -11.253  1.00  0.00     0.040 C 
BRANCH  26  27
HETATM   27  C5  UNL     1      -4.740  49.813 -10.329  1.00  0.00     0.141 C 
BRANCH  27  28
HETATM   28  C4  UNL     1      -6.247  49.856 -10.245  1.00  0.00     0.006 C 
HETATM   29  C2  UNL     1      -7.122  49.009 -10.831  1.00  0.00    -0.089 C 
HETATM   30  C1  UNL     1      -8.607  49.218 -10.684  1.00  0.00     0.042 C 
HETATM   31  C3  UNL     1      -6.738  47.802 -11.646  1.00  0.00     0.042 C 
ENDBRANCH  27  28
BRANCH  27  32
HETATM   32  O1  UNL     1      -4.201  49.993  -9.021  1.00  0.00    -0.392 OA
HETATM   33  H9  UNL     1      -4.952  50.060  -8.398  1.00  0.00     0.210 HD
ENDBRANCH  27  32
ENDBRANCH  26  27
ENDBRANCH  24  26
ENDBRANCH   1  24
BRANCH  23  34
HETATM   34  O3  UNL     1       2.826  51.319  -9.270  1.00  0.00    -0.391 OA
HETATM   35  H48 UNL     1       2.231  51.669  -8.584  1.00  0.00     0.210 HD
ENDBRANCH  23  34
TORSDOF 6
ENDMDL
MODEL 2
REMARK minimizedAffinity -7.19578743
REMARK CNNscore 0.77656424
REMARK CNNaffinity 7.17380285
REMARK  6 active torsions:
REMARK  status: ('A' for Active; 'I' for Inactive)
REMARK    1  A    between atoms: C4_4  and  C5_5 
REMARK    2  A    between atoms: C5_5  and  O1_6 
REMARK    3  A    between atoms: C5_5  and  C6_7 
REMARK    4  A    between atoms: C6_7  and  C7_8 
REMARK    5  A    between atoms: C7_8  and  C9_10 
REMARK    6  A    between atoms: C30_32  and  O3_33 
ROOT
HETATM    1  C9  UNL     1       4.645  55.055  -8.964  1.00  0.00    -0.002 C 
HETATM    2  C10 UNL     1       3.836  56.094  -8.134  1.00  0.00     0.007 C 
HETATM    3  C11 UNL     1       2.351  55.946  -8.519  1.00  0.00     0.015 C 
HETATM    4  C12 UNL     1       2.349  55.065  -9.778  1.00  0.00    -0.010 C 
HETATM    5  C13 UNL     1       2.613  56.017 -10.989  1.00  0.00     0.021 C 
HETATM    6  C14 UNL     1       1.086  54.292 -10.167  1.00  0.00    -0.039 C 
HETATM    7  C15 UNL     1       1.189  53.130 -10.868  1.00  0.00    -0.066 C 
HETATM    8  C16 UNL     1       2.559  52.528 -11.215  1.00  0.00     0.036 C 
HETATM    9  C17 UNL     1       3.815  53.267 -10.713  1.00  0.00     0.015 C 
HETATM   10  C18 UNL     1       3.528  54.073  -9.440  1.00  0.00    -0.029 C 
HETATM   11  C19 UNL     1       3.181  53.089  -8.281  1.00  0.00     0.016 C 
HETATM   12  C20 UNL     1      -0.058  52.351 -11.379  1.00  0.00    -0.015 C 
HETATM   13  C21 UNL     1      -0.118  52.579 -12.910  1.00  0.00     0.020 C 
HETATM   14  C22 UNL     1       0.089  50.830 -11.091  1.00  0.00     0.021 C 
HETATM   15  C23 UNL     1      -1.212  50.030 -11.049  1.00  0.00     0.080 C 
HETATM   16  C24 UNL     1      -2.377  50.751 -11.683  1.00  0.00     0.135 C 
HETATM   17  O2  UNL     1      -3.077  50.187 -12.524  1.00  0.00    -0.297 OA
HETATM   18  C25 UNL     1      -2.689  52.159 -11.162  1.00  0.00     0.018 C 
HETATM   19  C26 UNL     1      -3.425  52.965 -12.253  1.00  0.00     0.023 C 
HETATM   20  C27 UNL     1      -3.667  51.987  -9.981  1.00  0.00     0.023 C 
HETATM   21  C28 UNL     1      -1.364  52.831 -10.651  1.00  0.00     0.016 C 
HETATM   22  C29 UNL     1      -1.426  54.368 -10.603  1.00  0.00     0.043 C 
HETATM   23  C30 UNL     1      -0.237  54.939  -9.830  1.00  0.00     0.148 C 
ENDROOT
BRANCH   1  24
HETATM   24  C7  UNL     1       5.893  54.524  -8.192  1.00  0.00    -0.011 C 
HETATM   25  C8  UNL     1       6.815  53.686  -9.090  1.00  0.00     0.010 C 
BRANCH  24  26
HETATM   26  C6  UNL     1       6.737  55.698  -7.603  1.00  0.00     0.040 C 
BRANCH  26  27
HETATM   27  C5  UNL     1       6.891  55.671  -6.070  1.00  0.00     0.141 C 
BRANCH  27  28
HETATM   28  C4  UNL     1       7.373  57.004  -5.551  1.00  0.00     0.006 C 
HETATM   29  C2  UNL     1       6.616  58.059  -5.177  1.00  0.00    -0.089 C 
HETATM   30  C1  UNL     1       7.259  59.343  -4.721  1.00  0.00     0.042 C 
HETATM   31  C3  UNL     1       5.110  58.072  -5.156  1.00  0.00     0.042 C 
ENDBRANCH  27  28
BRANCH  27  32
HETATM   32  O1  UNL     1       7.838  54.668  -5.712  1.00  0.00    -0.392 OA
HETATM   33  H9  UNL     1       8.542  55.098  -5.186  1.00  0.00     0.210 HD
ENDBRANCH  27  32
ENDBRANCH  26  27
ENDBRANCH  24  26
ENDBRANCH   1  24
BRANCH  23  34
HETATM   34  O3  UNL     1      -0.497  54.768  -8.439  1.00  0.00    -0.391 OA
HETATM   35  H48 UNL     1      -0.053  53.949  -8.158  1.00  0.00     0.210 HD
ENDBRANCH  23  34
TORSDOF 6
ENDMDL
MODEL 3
REMARK minimizedAffinity -7.29632378
REMARK CNNscore 0.766336262
REMARK CNNaffinity 6.93668938
REMARK  6 active torsions:
REMARK  status: ('A' for Active; 'I' for Inactive)
REMARK    1  A    between atoms: C4_4  and  C5_5 
REMARK    2  A    between atoms: C5_5  and  O1_6 
REMARK    3  A    between atoms: C5_5  and  C6_7 
REMARK    4  A    between atoms: C6_7  and  C7_8 
REMARK    5  A    between atoms: C7_8  and  C9_10 
REMARK    6  A    between atoms: C30_32  and  O3_33 
ROOT
HETATM    1  C9  UNL     1       1.538  54.576 -10.193  1.00  0.00    -0.002 C 
HETATM    2  C10 UNL     1       2.468  53.546 -10.897  1.00  0.00     0.007 C 
HETATM    3  C11 UNL     1       3.873  53.685 -10.279  1.00  0.00     0.015 C 
HETATM    4  C12 UNL     1       3.827  54.990  -9.468  1.00  0.00    -0.010 C 
HETATM    5  C13 UNL     1       4.106  56.151 -10.475  1.00  0.00     0.021 C 
HETATM    6  C14 UNL     1       4.828  55.218  -8.332  1.00  0.00    -0.039 C 
HETATM    7  C15 UNL     1       4.493  56.013  -7.280  1.00  0.00    -0.066 C 
HETATM    8  C16 UNL     1       3.091  56.630  -7.163  1.00  0.00     0.036 C 
HETATM    9  C17 UNL     1       2.065  56.292  -8.263  1.00  0.00     0.015 C 
HETATM   10  C18 UNL     1       2.353  54.931  -8.909  1.00  0.00    -0.029 C 
HETATM   11  C19 UNL     1       2.150  53.808  -7.845  1.00  0.00     0.016 C 
HETATM   12  C20 UNL     1       5.499  56.365  -6.147  1.00  0.00    -0.015 C 
HETATM   13  C21 UNL     1       5.909  57.842  -6.369  1.00  0.00     0.020 C 
HETATM   14  C22 UNL     1       4.828  56.222  -4.752  1.00  0.00     0.021 C 
HETATM   15  C23 UNL     1       5.776  56.023  -3.570  1.00  0.00     0.080 C 
HETATM   16  C24 UNL     1       7.205  56.396  -3.884  1.00  0.00     0.135 C 
HETATM   17  O2  UNL     1       7.832  57.147  -3.138  1.00  0.00    -0.297 OA
HETATM   18  C25 UNL     1       7.846  55.724  -5.104  1.00  0.00     0.018 C 
HETATM   19  C26 UNL     1       8.987  56.610  -5.645  1.00  0.00     0.023 C 
HETATM   20  C27 UNL     1       8.485  54.412  -4.602  1.00  0.00     0.023 C 
HETATM   21  C28 UNL     1       6.733  55.394  -6.163  1.00  0.00     0.016 C 
HETATM   22  C29 UNL     1       7.270  55.218  -7.594  1.00  0.00     0.043 C 
HETATM   23  C30 UNL     1       6.203  54.615  -8.507  1.00  0.00     0.148 C 
ENDROOT
BRANCH   1  24
HETATM   24  C7  UNL     1       0.067  54.068 -10.083  1.00  0.00    -0.011 C 
HETATM   25  C8  UNL     1      -0.948  55.137 -10.513  1.00  0.00     0.010 C 
BRANCH  24  26
HETATM   26  C6  UNL     1      -0.164  52.805 -10.972  1.00  0.00     0.040 C 
BRANCH  26  27
HETATM   27  C5  UNL     1      -1.402  52.882 -11.887  1.00  0.00     0.141 C 
BRANCH  27  28
HETATM   28  C4  UNL     1      -2.453  51.886 -11.461  1.00  0.00     0.006 C 
HETATM   29  C2  UNL     1      -3.650  52.152 -10.893  1.00  0.00    -0.089 C 
HETATM   30  C1  UNL     1      -4.572  51.034 -10.483  1.00  0.00     0.042 C 
HETATM   31  C3  UNL     1      -4.189  53.535 -10.632  1.00  0.00     0.042 C 
ENDBRANCH  27  28
BRANCH  27  32
HETATM   32  O1  UNL     1      -1.011  52.593 -13.227  1.00  0.00    -0.392 OA
HETATM   33  H9  UNL     1      -1.556  51.843 -13.540  1.00  0.00     0.210 HD
ENDBRANCH  27  32
ENDBRANCH  26  27
ENDBRANCH  24  26
ENDBRANCH   1  24
BRANCH  23  34
HETATM   34  O3  UNL     1       6.134  53.217  -8.237  1.00  0.00    -0.391 OA
HETATM   35  H48 UNL     1       5.410  53.078  -7.602  1.00  0.00     0.210 HD
ENDBRANCH  23  34
TORSDOF 6
ENDMDL
MODEL 4
REMARK minimizedAffinity -8.92096996
REMARK CNNscore 0.46486026
REMARK CNNaffinity 7.37552023
REMARK  6 active torsions:
REMARK  status: ('A' for Active; 'I' for Inactive)
REMARK    1  A    between atoms: C4_4  and  C5_5 
REMARK    2  A    between atoms: C5_5  and  O1_6 
REMARK    3  A    between atoms: C5_5  and  C6_7 
REMARK    4  A    between atoms: C6_7  and  C7_8 
REMARK    5  A    between atoms: C7_8  and  C9_10 
REMARK    6  A    between atoms: C30_32  and  O3_33 
ROOT
HETATM    1  C9  UNL     1      -0.454  52.509 -21.722  1.00  0.00    -0.002 C 
HETATM    2  C10 UNL     1       0.830  53.386 -21.642  1.00  0.00     0.007 C 
HETATM    3  C11 UNL     1       1.335  53.344 -20.187  1.00  0.00     0.015 C 
HETATM    4  C12 UNL     1       0.185  52.721 -19.381  1.00  0.00    -0.010 C 
HETATM    5  C13 UNL     1      -0.807  53.881 -19.048  1.00  0.00     0.021 C 
HETATM    6  C14 UNL     1       0.470  52.061 -18.029  1.00  0.00    -0.039 C 
HETATM    7  C15 UNL     1      -0.327  51.052 -17.582  1.00  0.00    -0.066 C 
HETATM    8  C16 UNL     1      -1.472  50.501 -18.445  1.00  0.00     0.036 C 
HETATM    9  C17 UNL     1      -1.666  51.106 -19.849  1.00  0.00     0.015 C 
HETATM   10  C18 UNL     1      -0.353  51.658 -20.417  1.00  0.00    -0.029 C 
HETATM   11  C19 UNL     1       0.640  50.478 -20.648  1.00  0.00     0.016 C 
HETATM   12  C20 UNL     1      -0.151  50.411 -16.176  1.00  0.00    -0.015 C 
HETATM   13  C21 UNL     1      -1.326  50.928 -15.309  1.00  0.00     0.020 C 
HETATM   14  C22 UNL     1      -0.223  48.860 -16.266  1.00  0.00     0.021 C 
HETATM   15  C23 UNL     1       0.429  48.092 -15.118  1.00  0.00     0.080 C 
HETATM   16  C24 UNL     1       0.678  48.944 -13.897  1.00  0.00     0.135 C 
HETATM   17  O2  UNL     1       0.309  48.567 -12.785  1.00  0.00    -0.297 OA
HETATM   18  C25 UNL     1       1.485  50.233 -14.102  1.00  0.00     0.018 C 
HETATM   19  C26 UNL     1       1.134  51.247 -12.993  1.00  0.00     0.023 C 
HETATM   20  C27 UNL     1       2.971  49.858 -13.925  1.00  0.00     0.023 C 
HETATM   21  C28 UNL     1       1.248  50.769 -15.560  1.00  0.00     0.016 C 
HETATM   22  C29 UNL     1       1.549  52.269 -15.726  1.00  0.00     0.043 C 
HETATM   23  C30 UNL     1       1.587  52.658 -17.204  1.00  0.00     0.148 C 
ENDROOT
BRANCH   1  24
HETATM   24  C7  UNL     1      -0.611  51.816 -23.111  1.00  0.00    -0.011 C 
HETATM   25  C8  UNL     1      -1.534  50.590 -23.045  1.00  0.00     0.010 C 
BRANCH  24  26
HETATM   26  C6  UNL     1      -1.197  52.799 -24.172  1.00  0.00     0.040 C 
BRANCH  26  27
HETATM   27  C5  UNL     1      -0.847  52.451 -25.633  1.00  0.00     0.141 C 
BRANCH  27  28
HETATM   28  C4  UNL     1       0.631  52.189 -25.788  1.00  0.00     0.006 C 
HETATM   29  C2  UNL     1       1.279  51.792 -26.906  1.00  0.00    -0.089 C 
HETATM   30  C1  UNL     1       2.762  51.530 -26.882  1.00  0.00     0.042 C 
HETATM   31  C3  UNL     1       0.629  51.591 -28.250  1.00  0.00     0.042 C 
ENDBRANCH  27  28
BRANCH  27  32
HETATM   32  O1  UNL     1      -1.213  53.542 -26.474  1.00  0.00    -0.392 OA
HETATM   33  H9  UNL     1      -0.414  53.817 -26.967  1.00  0.00     0.210 HD
ENDBRANCH  27  32
ENDBRANCH  26  27
ENDBRANCH  24  26
ENDBRANCH   1  24
BRANCH  23  34
HETATM   34  O3  UNL     1       2.838  52.229 -17.737  1.00  0.00    -0.391 OA
HETATM   35  H48 UNL     1       2.695  51.363 -18.156  1.00  0.00     0.210 HD
ENDBRANCH  23  34
TORSDOF 6
ENDMDL
MODEL 5
REMARK minimizedAffinity -8.28036213
REMARK CNNscore 0.418479323
REMARK CNNaffinity 7.22077322
REMARK  6 active torsions:
REMARK  status: ('A' for Active; 'I' for Inactive)
REMARK    1  A    between atoms: C4_4  and  C5_5 
REMARK    2  A    between atoms: C5_5  and  O1_6 
REMARK    3  A    between atoms: C5_5  and  C6_7 
REMARK    4  A    between atoms: C6_7  and  C7_8 
REMARK    5  A    between atoms: C7_8  and  C9_10 
REMARK    6  A    between atoms: C30_32  and  O3_33 
ROOT
HETATM    1  C9  UNL     1      -2.215  50.075 -21.515  1.00  0.00    -0.002 C 
HETATM    2  C10 UNL     1      -1.477  51.383 -21.926  1.00  0.00     0.007 C 
HETATM    3  C11 UNL     1      -0.761  51.928 -20.675  1.00  0.00     0.015 C 
HETATM    4  C12 UNL     1      -1.343  51.128 -19.499  1.00  0.00    -0.010 C 
HETATM    5  C13 UNL     1      -2.677  51.833 -19.096  1.00  0.00     0.021 C 
HETATM    6  C14 UNL     1      -0.558  51.016 -18.189  1.00  0.00    -0.039 C 
HETATM    7  C15 UNL     1      -0.719  49.927 -17.390  1.00  0.00    -0.066 C 
HETATM    8  C16 UNL     1      -1.621  48.757 -17.811  1.00  0.00     0.036 C 
HETATM    9  C17 UNL     1      -2.311  48.844 -19.187  1.00  0.00     0.015 C 
HETATM   10  C18 UNL     1      -1.513  49.710 -20.169  1.00  0.00    -0.029 C 
HETATM   11  C19 UNL     1      -0.150  49.013 -20.473  1.00  0.00     0.016 C 
HETATM   12  C20 UNL     1      -0.029  49.801 -16.001  1.00  0.00    -0.015 C 
HETATM   13  C21 UNL     1      -1.138  50.007 -14.940  1.00  0.00     0.020 C 
HETATM   14  C22 UNL     1       0.595  48.388 -15.824  1.00  0.00     0.021 C 
HETATM   15  C23 UNL     1       1.714  48.276 -14.790  1.00  0.00     0.080 C 
HETATM   16  C24 UNL     1       1.760  49.442 -13.832  1.00  0.00     0.135 C 
HETATM   17  O2  UNL     1       1.803  49.252 -12.617  1.00  0.00    -0.297 OA
HETATM   18  C25 UNL     1       1.845  50.845 -14.449  1.00  0.00     0.018 C 
HETATM   19  C26 UNL     1       1.273  51.882 -13.460  1.00  0.00     0.023 C 
HETATM   20  C27 UNL     1       3.345  51.160 -14.626  1.00  0.00     0.023 C 
HETATM   21  C28 UNL     1       1.140  50.840 -15.853  1.00  0.00     0.016 C 
HETATM   22  C29 UNL     1       0.693  52.233 -16.328  1.00  0.00     0.043 C 
HETATM   23  C30 UNL     1       0.292  52.205 -17.803  1.00  0.00     0.148 C 
ENDROOT
BRANCH   1  24
HETATM   24  C7  UNL     1      -2.281  49.042 -22.682  1.00  0.00    -0.011 C 
HETATM   25  C8  UNL     1      -3.218  47.868 -22.363  1.00  0.00     0.010 C 
BRANCH  24  26
HETATM   26  C6  UNL     1      -2.783  49.708 -24.002  1.00  0.00     0.040 C 
BRANCH  26  27
HETATM   27  C5  UNL     1      -4.262  49.437 -24.336  1.00  0.00     0.141 C 
BRANCH  27  28
HETATM   28  C4  UNL     1      -4.393  48.675 -25.633  1.00  0.00     0.006 C 
HETATM   29  C2  UNL     1      -3.949  49.052 -26.852  1.00  0.00    -0.089 C 
HETATM   30  C1  UNL     1      -4.201  48.191 -28.062  1.00  0.00     0.042 C 
HETATM   31  C3  UNL     1      -3.167  50.310 -27.131  1.00  0.00     0.042 C 
ENDBRANCH  27  28
BRANCH  27  32
HETATM   32  O1  UNL     1      -4.949  50.680 -24.461  1.00  0.00    -0.392 OA
HETATM   33  H9  UNL     1      -5.363  50.702 -25.348  1.00  0.00     0.210 HD
ENDBRANCH  27  32
ENDBRANCH  26  27
ENDBRANCH  24  26
ENDBRANCH   1  24
BRANCH  23  34
HETATM   34  O3  UNL     1       1.486  52.194 -18.582  1.00  0.00    -0.391 OA
HETATM   35  H48 UNL     1       1.681  51.267 -18.804  1.00  0.00     0.210 HD
ENDBRANCH  23  34
TORSDOF 6
ENDMDL
MODEL 6
REMARK minimizedAffinity -8.66727257
REMARK CNNscore 0.383409649
REMARK CNNaffinity 6.78258371
REMARK  6 active torsions:
REMARK  status: ('A' for Active; 'I' for Inactive)
REMARK    1  A    between atoms: C4_4  and  C5_5 
REMARK    2  A    between atoms: C5_5  and  O1_6 
REMARK    3  A    between atoms: C5_5  and  C6_7 
REMARK    4  A    between atoms: C6_7  and  C7_8 
REMARK    5  A    between atoms: C7_8  and  C9_10 
REMARK    6  A    between atoms: C30_32  and  O3_33 
ROOT
HETATM    1  C9  UNL     1      -3.329  51.305 -25.438  1.00  0.00    -0.002 C 
HETATM    2  C10 UNL     1      -2.865  52.452 -24.494  1.00  0.00     0.007 C 
HETATM    3  C11 UNL     1      -3.283  52.076 -23.059  1.00  0.00     0.015 C 
HETATM    4  C12 UNL     1      -4.252  50.895 -23.220  1.00  0.00    -0.010 C 
HETATM    5  C13 UNL     1      -5.658  51.509 -23.516  1.00  0.00     0.021 C 
HETATM    6  C14 UNL     1      -4.490  49.937 -22.050  1.00  0.00    -0.039 C 
HETATM    7  C15 UNL     1      -4.840  48.644 -22.289  1.00  0.00    -0.066 C 
HETATM    8  C16 UNL     1      -4.928  48.095 -23.721  1.00  0.00     0.036 C 
HETATM    9  C17 UNL     1      -4.572  49.050 -24.878  1.00  0.00     0.015 C 
HETATM   10  C18 UNL     1      -3.586  50.137 -24.434  1.00  0.00    -0.029 C 
HETATM   11  C19 UNL     1      -2.225  49.471 -24.062  1.00  0.00     0.016 C 
HETATM   12  C20 UNL     1      -5.193  47.650 -21.145  1.00  0.00    -0.015 C 
HETATM   13  C21 UNL     1      -6.729  47.455 -21.194  1.00  0.00     0.020 C 
HETATM   14  C22 UNL     1      -4.494  46.280 -21.372  1.00  0.00     0.021 C 
HETATM   15  C23 UNL     1      -4.313  45.409 -20.130  1.00  0.00     0.080 C 
HETATM   16  C24 UNL     1      -5.189  45.828 -18.974  1.00  0.00     0.135 C 
HETATM   17  O2  UNL     1      -5.885  45.001 -18.386  1.00  0.00    -0.297 OA
HETATM   18  C25 UNL     1      -5.091  47.292 -18.525  1.00  0.00     0.018 C 
HETATM   19  C26 UNL     1      -6.402  47.709 -17.826  1.00  0.00     0.023 C 
HETATM   20  C27 UNL     1      -3.969  47.355 -17.467  1.00  0.00     0.023 C 
HETATM   21  C28 UNL     1      -4.704  48.190 -19.754  1.00  0.00     0.016 C 
HETATM   22  C29 UNL     1      -5.080  49.672 -19.582  1.00  0.00     0.043 C 
HETATM   23  C30 UNL     1      -4.423  50.531 -20.662  1.00  0.00     0.148 C 
ENDROOT
BRANCH   1  24
HETATM   24  C7  UNL     1      -2.369  51.112 -26.651  1.00  0.00    -0.011 C 
HETATM   25  C8  UNL     1      -3.110  50.621 -27.904  1.00  0.00     0.010 C 
BRANCH  24  26
HETATM   26  C6  UNL     1      -1.642  52.444 -27.018  1.00  0.00     0.040 C 
BRANCH  26  27
HETATM   27  C5  UNL     1      -0.618  52.324 -28.162  1.00  0.00     0.141 C 
BRANCH  27  28
HETATM   28  C4  UNL     1       0.642  51.639 -27.691  1.00  0.00     0.006 C 
HETATM   29  C2  UNL     1       1.281  51.822 -26.515  1.00  0.00    -0.089 C 
HETATM   30  C1  UNL     1       2.563  51.088 -26.215  1.00  0.00     0.042 C 
HETATM   31  C3  UNL     1       0.803  52.723 -25.407  1.00  0.00     0.042 C 
ENDBRANCH  27  28
BRANCH  27  32
HETATM   32  O1  UNL     1      -0.285  53.628 -28.631  1.00  0.00    -0.392 OA
HETATM   33  H9  UNL     1       0.685  53.730 -28.562  1.00  0.00     0.210 HD
ENDBRANCH  27  32
ENDBRANCH  26  27
ENDBRANCH  24  26
ENDBRANCH   1  24
BRANCH  23  34
HETATM   34  O3  UNL     1      -3.056  50.716 -20.302  1.00  0.00    -0.391 OA
HETATM   35  H48 UNL     1      -2.536  50.044 -20.777  1.00  0.00     0.210 HD
ENDBRANCH  23  34
TORSDOF 6
ENDMDL
MODEL 7
REMARK minimizedAffinity -7.43983698
REMARK CNNscore 0.382059038
REMARK CNNaffinity 7.04219961
REMARK  6 active torsions:
REMARK  status: ('A' for Active; 'I' for Inactive)
REMARK    1  A    between atoms: C4_4  and  C5_5 
REMARK    2  A    between atoms: C5_5  and  O1_6 
REMARK    3  A    between atoms: C5_5  and  C6_7 
REMARK    4  A    between atoms: C6_7  and  C7_8 
REMARK    5  A    between atoms: C7_8  and  C9_10 
REMARK    6  A    between atoms: C30_32  and  O3_33 
ROOT
HETATM    1  C9  UNL     1      -1.467  49.174 -18.614  1.00  0.00    -0.002 C 
HETATM    2  C10 UNL     1      -2.996  49.464 -18.602  1.00  0.00     0.007 C 
HETATM    3  C11 UNL     1      -3.381  49.886 -17.171  1.00  0.00     0.015 C 
HETATM    4  C12 UNL     1      -2.161  49.533 -16.306  1.00  0.00    -0.010 C 
HETATM    5  C13 UNL     1      -2.296  48.019 -15.943  1.00  0.00     0.021 C 
HETATM    6  C14 UNL     1      -1.950  50.233 -14.962  1.00  0.00    -0.039 C 
HETATM    7  C15 UNL     1      -0.692  50.392 -14.467  1.00  0.00    -0.066 C 
HETATM    8  C16 UNL     1       0.541  49.951 -15.271  1.00  0.00     0.036 C 
HETATM    9  C17 UNL     1       0.306  49.353 -16.672  1.00  0.00     0.015 C 
HETATM   10  C18 UNL     1      -0.989  49.878 -17.305  1.00  0.00    -0.029 C 
HETATM   11  C19 UNL     1      -0.845  51.409 -17.567  1.00  0.00     0.016 C 
HETATM   12  C20 UNL     1      -0.419  51.003 -13.063  1.00  0.00    -0.015 C 
HETATM   13  C21 UNL     1       0.010  49.828 -12.150  1.00  0.00     0.020 C 
HETATM   14  C22 UNL     1       0.733  52.046 -13.132  1.00  0.00     0.021 C 
HETATM   15  C23 UNL     1       0.770  53.077 -12.006  1.00  0.00     0.080 C 
HETATM   16  C24 UNL     1      -0.058  52.681 -10.807  1.00  0.00     0.135 C 
HETATM   17  O2  UNL     1       0.425  52.713  -9.676  1.00  0.00    -0.297 OA
HETATM   18  C25 UNL     1      -1.531  52.335 -11.064  1.00  0.00     0.018 C 
HETATM   19  C26 UNL     1      -2.045  51.397  -9.952  1.00  0.00     0.023 C 
HETATM   20  C27 UNL     1      -2.321  53.655 -10.950  1.00  0.00     0.023 C 
HETATM   21  C28 UNL     1      -1.685  51.754 -12.515  1.00  0.00     0.016 C 
HETATM   22  C29 UNL     1      -2.951  50.903 -12.712  1.00  0.00     0.043 C 
HETATM   23  C30 UNL     1      -3.193  50.620 -14.195  1.00  0.00     0.148 C 
ENDROOT
BRANCH   1  24
HETATM   24  C7  UNL     1      -0.810  49.520 -19.986  1.00  0.00    -0.011 C 
HETATM   25  C8  UNL     1      -0.618  48.276 -20.866  1.00  0.00     0.010 C 
BRANCH  24  26
HETATM   26  C6  UNL     1      -1.675  50.543 -20.787  1.00  0.00     0.040 C 
BRANCH  26  27
HETATM   27  C5  UNL     1      -0.867  51.528 -21.655  1.00  0.00     0.141 C 
BRANCH  27  28
HETATM   28  C4  UNL     1      -0.839  51.082 -23.097  1.00  0.00     0.006 C 
HETATM   29  C2  UNL     1      -0.376  51.778 -24.159  1.00  0.00    -0.089 C 
HETATM   30  C1  UNL     1      -0.461  51.204 -25.549  1.00  0.00     0.042 C 
HETATM   31  C3  UNL     1       0.267  53.138 -24.082  1.00  0.00     0.042 C 
ENDBRANCH  27  28
BRANCH  27  32
HETATM   32  O1  UNL     1       0.471  51.591 -21.166  1.00  0.00    -0.392 OA
HETATM   33  H9  UNL     1       1.068  51.365 -21.908  1.00  0.00     0.210 HD
ENDBRANCH  27  32
ENDBRANCH  26  27
ENDBRANCH  24  26
ENDBRANCH   1  24
BRANCH  23  34
HETATM   34  O3  UNL     1      -3.752  51.795 -14.779  1.00  0.00    -0.391 OA
HETATM   35  H48 UNL     1      -3.021  52.296 -15.181  1.00  0.00     0.210 HD
ENDBRANCH  23  34
TORSDOF 6
ENDMDL
MODEL 8
REMARK minimizedAffinity -9.35962582
REMARK CNNscore 0.354022413
REMARK CNNaffinity 6.38778353
REMARK  6 active torsions:
REMARK  status: ('A' for Active; 'I' for Inactive)
REMARK    1  A    between atoms: C4_4  and  C5_5 
REMARK    2  A    between atoms: C5_5  and  O1_6 
REMARK    3  A    between atoms: C5_5  and  C6_7 
REMARK    4  A    between atoms: C6_7  and  C7_8 
REMARK    5  A    between atoms: C7_8  and  C9_10 
REMARK    6  A    between atoms: C30_32  and  O3_33 
ROOT
HETATM    1  C9  UNL     1      -1.891  51.252 -23.323  1.00  0.00    -0.002 C 
HETATM    2  C10 UNL     1      -2.926  52.174 -24.031  1.00  0.00     0.007 C 
HETATM    3  C11 UNL     1      -4.312  51.515 -23.891  1.00  0.00     0.015 C 
HETATM    4  C12 UNL     1      -4.030  50.088 -23.397  1.00  0.00    -0.010 C 
HETATM    5  C13 UNL     1      -3.704  49.234 -24.664  1.00  0.00     0.021 C 
HETATM    6  C14 UNL     1      -5.126  49.300 -22.675  1.00  0.00    -0.039 C 
HETATM    7  C15 UNL     1      -4.791  48.346 -21.764  1.00  0.00    -0.066 C 
HETATM    8  C16 UNL     1      -3.325  48.093 -21.380  1.00  0.00     0.036 C 
HETATM    9  C17 UNL     1      -2.248  48.979 -22.037  1.00  0.00     0.015 C 
HETATM   10  C18 UNL     1      -2.807  50.351 -22.435  1.00  0.00    -0.029 C 
HETATM   11  C19 UNL     1      -3.204  51.134 -21.146  1.00  0.00     0.016 C 
HETATM   12  C20 UNL     1      -5.852  47.443 -21.072  1.00  0.00    -0.015 C 
HETATM   13  C21 UNL     1      -5.714  46.039 -21.711  1.00  0.00     0.020 C 
HETATM   14  C22 UNL     1      -5.576  47.342 -19.545  1.00  0.00     0.021 C 
HETATM   15  C23 UNL     1      -6.769  46.950 -18.675  1.00  0.00     0.080 C 
HETATM   16  C24 UNL     1      -7.904  46.337 -19.460  1.00  0.00     0.135 C 
HETATM   17  O2  UNL     1      -8.405  45.270 -19.105  1.00  0.00    -0.297 OA
HETATM   18  C25 UNL     1      -8.447  47.148 -20.643  1.00  0.00     0.018 C 
HETATM   19  C26 UNL     1      -9.104  46.198 -21.666  1.00  0.00     0.023 C 
HETATM   20  C27 UNL     1      -9.561  48.057 -20.081  1.00  0.00     0.023 C 
HETATM   21  C28 UNL     1      -7.296  48.036 -21.238  1.00  0.00     0.016 C 
HETATM   22  C29 UNL     1      -7.540  48.476 -22.693  1.00  0.00     0.043 C 
HETATM   23  C30 UNL     1      -6.550  49.563 -23.109  1.00  0.00     0.148 C 
ENDROOT
BRANCH   1  24
HETATM   24  C7  UNL     1      -0.717  52.059 -22.688  1.00  0.00    -0.011 C 
HETATM   25  C8  UNL     1      -0.081  51.319 -21.502  1.00  0.00     0.010 C 
BRANCH  24  26
HETATM   26  C6  UNL     1       0.407  52.342 -23.733  1.00  0.00     0.040 C 
BRANCH  26  27
HETATM   27  C5  UNL     1       0.128  53.534 -24.670  1.00  0.00     0.141 C 
BRANCH  27  28
HETATM   28  C4  UNL     1       0.001  53.078 -26.103  1.00  0.00     0.006 C 
HETATM   29  C2  UNL     1       0.835  52.256 -26.777  1.00  0.00    -0.089 C 
HETATM   30  C1  UNL     1       0.590  51.933 -28.227  1.00  0.00     0.042 C 
HETATM   31  C3  UNL     1       2.043  51.580 -26.182  1.00  0.00     0.042 C 
ENDBRANCH  27  28
BRANCH  27  32
HETATM   32  O1  UNL     1       1.204  54.464 -24.576  1.00  0.00    -0.392 OA
HETATM   33  H9  UNL     1       1.561  54.597 -25.477  1.00  0.00     0.210 HD
ENDBRANCH  27  32
ENDBRANCH  26  27
ENDBRANCH  24  26
ENDBRANCH   1  24
BRANCH  23  34
HETATM   34  O3  UNL     1      -6.988  50.795 -22.540  1.00  0.00    -0.391 OA
HETATM   35  H48 UNL     1      -6.499  50.922 -21.709  1.00  0.00     0.210 HD
ENDBRANCH  23  34
TORSDOF 6
ENDMDL
MODEL 9
REMARK minimizedAffinity -8.57958412
REMARK CNNscore 0.3260369
REMARK CNNaffinity 6.42319679
REMARK  6 active torsions:
REMARK  status: ('A' for Active; 'I' for Inactive)
REMARK    1  A    between atoms: C4_4  and  C5_5 
REMARK    2  A    between atoms: C5_5  and  O1_6 
REMARK    3  A    between atoms: C5_5  and  C6_7 
REMARK    4  A    between atoms: C6_7  and  C7_8 
REMARK    5  A    between atoms: C7_8  and  C9_10 
REMARK    6  A    between atoms: C30_32  and  O3_33 
ROOT
HETATM    1  C9  UNL     1      -1.242  50.802 -22.445  1.00  0.00    -0.002 C 
HETATM    2  C10 UNL     1      -2.146  51.884 -23.106  1.00  0.00     0.007 C 
HETATM    3  C11 UNL     1      -3.589  51.342 -23.121  1.00  0.00     0.015 C 
HETATM    4  C12 UNL     1      -3.462  49.851 -22.773  1.00  0.00    -0.010 C 
HETATM    5  C13 UNL     1      -3.123  49.109 -24.105  1.00  0.00     0.021 C 
HETATM    6  C14 UNL     1      -4.666  49.093 -22.207  1.00  0.00    -0.039 C 
HETATM    7  C15 UNL     1      -4.474  48.023 -21.390  1.00  0.00    -0.066 C 
HETATM    8  C16 UNL     1      -3.064  47.598 -20.952  1.00  0.00     0.036 C 
HETATM    9  C17 UNL     1      -1.875  48.448 -21.443  1.00  0.00     0.015 C 
HETATM   10  C18 UNL     1      -2.289  49.899 -21.718  1.00  0.00    -0.029 C 
HETATM   11  C19 UNL     1      -2.705  50.574 -20.375  1.00  0.00     0.016 C 
HETATM   12  C20 UNL     1      -5.651  47.152 -20.865  1.00  0.00    -0.015 C 
HETATM   13  C21 UNL     1      -5.589  45.816 -21.647  1.00  0.00     0.020 C 
HETATM   14  C22 UNL     1      -5.489  46.865 -19.346  1.00  0.00     0.021 C 
HETATM   15  C23 UNL     1      -6.766  46.492 -18.595  1.00  0.00     0.080 C 
HETATM   16  C24 UNL     1      -7.893  46.071 -19.508  1.00  0.00     0.135 C 
HETATM   17  O2  UNL     1      -8.504  45.023 -19.303  1.00  0.00    -0.297 OA
HETATM   18  C25 UNL     1      -8.285  47.049 -20.623  1.00  0.00     0.018 C 
HETATM   19  C26 UNL     1      -8.948  46.276 -21.782  1.00  0.00     0.023 C 
HETATM   20  C27 UNL     1      -9.355  47.990 -20.029  1.00  0.00     0.023 C 
HETATM   21  C28 UNL     1      -7.026  47.887 -21.048  1.00  0.00     0.016 C 
HETATM   22  C29 UNL     1      -7.134  48.498 -22.457  1.00  0.00     0.043 C 
HETATM   23  C30 UNL     1      -6.030  49.529 -22.691  1.00  0.00     0.148 C 
ENDROOT
BRANCH   1  24
HETATM   24  C7  UNL     1      -0.050  51.428 -21.657  1.00  0.00    -0.011 C 
HETATM   25  C8  UNL     1       0.862  52.271 -22.560  1.00  0.00     0.010 C 
BRANCH  24  26
HETATM   26  C6  UNL     1      -0.555  52.344 -20.499  1.00  0.00     0.040 C 
BRANCH  26  27
HETATM   27  C5  UNL     1       0.514  52.697 -19.447  1.00  0.00     0.141 C 
BRANCH  27  28
HETATM   28  C4  UNL     1       0.212  52.035 -18.124  1.00  0.00     0.006 C 
HETATM   29  C2  UNL     1       1.035  51.925 -17.058  1.00  0.00    -0.089 C 
HETATM   30  C1  UNL     1       0.595  51.188 -15.820  1.00  0.00     0.042 C 
HETATM   31  C3  UNL     1       2.420  52.513 -16.976  1.00  0.00     0.042 C 
ENDBRANCH  27  28
BRANCH  27  32
HETATM   32  O1  UNL     1       0.536  54.110 -19.259  1.00  0.00    -0.392 OA
HETATM   33  H9  UNL     1       0.387  54.286 -18.308  1.00  0.00     0.210 HD
ENDBRANCH  27  32
ENDBRANCH  26  27
ENDBRANCH  24  26
ENDBRANCH   1  24
BRANCH  23  34
HETATM   34  O3  UNL     1      -6.401  50.728 -22.016  1.00  0.00    -0.391 OA
HETATM   35  H48 UNL     1      -5.960  50.722 -21.148  1.00  0.00     0.210 HD
ENDBRANCH  23  34
TORSDOF 6
ENDMDL
