MODEL 1
REMARK minimizedAffinity -8.72021389
REMARK  10 active torsions:
REMARK  status: ('A' for Active; 'I' for Inactive)
REMARK    1  A    between atoms: N1_2  and  C2_3 
REMARK    2  A    between atoms: C2_3  and  C3_4 
REMARK    3  A    between atoms: C3_4  and  O1_5 
REMARK    4  A    between atoms: O1_5  and  C4_6 
REMARK    5  A    between atoms: C4_6  and  C5_8 
REMARK    6  A    between atoms: C17_21  and  O4_22 
REMARK    7  A    between atoms: O4_22  and  C18_23 
REMARK    8  A    between atoms: C18_23  and  C19_25 
REMARK    9  A    between atoms: C19_25  and  C20_26 
REMARK   10  A    between atoms: C20_26  and  O6_29 
ROOT
HETATM    1  C5  UNL     1      -6.503   6.196  14.688  1.00  0.00     0.085 C 
HETATM    2  C6  UNL     1      -5.374   6.288  13.953  1.00  0.00    -0.070 C 
HETATM    3  C7  UNL     1      -4.886   5.241  12.975  1.00  0.00     0.035 C 
HETATM    4  C8  UNL     1      -3.387   4.942  13.117  1.00  0.00     0.010 C 
HETATM    5  C9  UNL     1      -2.524   6.222  13.095  1.00  0.00     0.006 C 
HETATM    6  C10 UNL     1      -3.020   7.142  14.254  1.00  0.00     0.068 C 
HETATM    7  C11 UNL     1      -2.133   8.357  14.527  1.00  0.00     0.132 C 
HETATM    8  O3  UNL     1      -2.594   9.403  14.989  1.00  0.00    -0.298 OA
HETATM    9  C12 UNL     1      -0.633   8.205  14.368  1.00  0.00     0.085 C 
HETATM   10  C13 UNL     1      -0.328   7.430  13.084  1.00  0.00     0.011 C 
HETATM   11  C14 UNL     1       1.149   7.482  12.558  1.00  0.00    -0.016 C 
HETATM   12  C15 UNL     1       1.645   8.950  12.479  1.00  0.00     0.018 C 
HETATM   13  C16 UNL     1       2.145   6.758  13.490  1.00  0.00     0.018 C 
HETATM   14  C17 UNL     1       1.178   6.911  11.090  1.00  0.00     0.140 C 
HETATM   15  C23 UNL     1      -0.023   6.013  10.747  1.00  0.00     0.034 C 
HETATM   16  C24 UNL     1      -0.449   5.153  11.928  1.00  0.00     0.012 C 
HETATM   17  C25 UNL     1      -0.964   5.986  13.141  1.00  0.00    -0.035 C 
HETATM   18  C26 UNL     1      -0.614   5.180  14.418  1.00  0.00     0.016 C 
HETATM   19  C27 UNL     1      -4.505   7.537  14.069  1.00  0.00     0.022 C 
HETATM   20  C28 UNL     1      -4.769   8.453  12.864  1.00  0.00     0.015 C 
ENDROOT
BRANCH   1  21
HETATM   21  C4  UNL     1      -7.528   5.131  14.657  1.00  0.00     0.283 C 
HETATM   22  O2  UNL     1      -7.778   4.439  15.634  1.00  0.00    -0.260 OA
BRANCH  21  23
HETATM   23  O1  UNL     1      -8.203   5.152  13.488  1.00  0.00    -0.316 OA
BRANCH  23  24
HETATM   24  C3  UNL     1      -8.495   3.856  12.950  1.00  0.00     0.209 C 
BRANCH  24  25
HETATM   25  C2  UNL     1      -7.375   2.872  13.330  1.00  0.00     0.295 C 
BRANCH  25  26
HETATM   26  N1  UNL     1      -7.277   1.682  12.472  1.00  0.00     0.081 N 
HETATM   27  C1  UNL     1      -6.239   1.797  11.456  1.00  0.00     0.306 C 
HETATM   28  H4  UNL     1      -8.176   1.510  12.017  1.00  0.00     0.315 HD
ENDBRANCH  25  26
ENDBRANCH  24  25
ENDBRANCH  23  24
ENDBRANCH  21  23
ENDBRANCH   1  21
BRANCH  14  29
HETATM   29  O4  UNL     1       2.394   6.159  10.893  1.00  0.00    -0.315 OA
BRANCH  29  30
HETATM   30  C18 UNL     1       2.926   6.163   9.638  1.00  0.00     0.262 C 
HETATM   31  O5  UNL     1       3.124   5.171   8.952  1.00  0.00    -0.265 OA
BRANCH  30  32
HETATM   32  C19 UNL     1       3.242   7.574   9.212  1.00  0.00     0.148 C 
BRANCH  32  33
HETATM   33  C20 UNL     1       2.464   8.019   7.970  1.00  0.00     0.059 C 
HETATM   34  C21 UNL     1       1.091   8.544   8.411  1.00  0.00     0.045 C 
HETATM   35  C22 UNL     1       2.271   6.899   6.941  1.00  0.00     0.045 C 
BRANCH  33  36
HETATM   36  O6  UNL     1       3.143   9.123   7.361  1.00  0.00    -0.390 OA
HETATM   37  H34 UNL     1       3.711   8.779   6.639  1.00  0.00     0.210 HD
ENDBRANCH  33  36
ENDBRANCH  32  33
ENDBRANCH  30  32
ENDBRANCH  29  30
ENDBRANCH  14  29
TORSDOF 10
ENDMDL
MODEL 2
REMARK minimizedAffinity -8.4595871
REMARK  10 active torsions:
REMARK  status: ('A' for Active; 'I' for Inactive)
REMARK    1  A    between atoms: N1_2  and  C2_3 
REMARK    2  A    between atoms: C2_3  and  C3_4 
REMARK    3  A    between atoms: C3_4  and  O1_5 
REMARK    4  A    between atoms: O1_5  and  C4_6 
REMARK    5  A    between atoms: C4_6  and  C5_8 
REMARK    6  A    between atoms: C17_21  and  O4_22 
REMARK    7  A    between atoms: O4_22  and  C18_23 
REMARK    8  A    between atoms: C18_23  and  C19_25 
REMARK    9  A    between atoms: C19_25  and  C20_26 
REMARK   10  A    between atoms: C20_26  and  O6_29 
ROOT
HETATM    1  C5  UNL     1      -6.271   5.878  14.812  1.00  0.00     0.085 C 
HETATM    2  C6  UNL     1      -5.170   6.092  14.061  1.00  0.00    -0.070 C 
HETATM    3  C7  UNL     1      -4.634   5.139  13.014  1.00  0.00     0.035 C 
HETATM    4  C8  UNL     1      -3.115   4.939  13.107  1.00  0.00     0.010 C 
HETATM    5  C9  UNL     1      -2.344   6.277  13.143  1.00  0.00     0.006 C 
HETATM    6  C10 UNL     1      -2.875   7.092  14.363  1.00  0.00     0.068 C 
HETATM    7  C11 UNL     1      -2.067   8.350  14.688  1.00  0.00     0.132 C 
HETATM    8  O3  UNL     1      -2.589   9.333  15.219  1.00  0.00    -0.298 OA
HETATM    9  C12 UNL     1      -0.565   8.314  14.490  1.00  0.00     0.085 C 
HETATM   10  C13 UNL     1      -0.239   7.637  13.157  1.00  0.00     0.011 C 
HETATM   11  C14 UNL     1       1.218   7.823  12.604  1.00  0.00    -0.016 C 
HETATM   12  C15 UNL     1       1.608   9.324  12.601  1.00  0.00     0.018 C 
HETATM   13  C16 UNL     1       2.285   7.120  13.473  1.00  0.00     0.018 C 
HETATM   14  C17 UNL     1       1.251   7.339  11.106  1.00  0.00     0.140 C 
HETATM   15  C23 UNL     1       0.108   6.379  10.736  1.00  0.00     0.034 C 
HETATM   16  C24 UNL     1      -0.229   5.425  11.873  1.00  0.00     0.012 C 
HETATM   17  C25 UNL     1      -0.770   6.150  13.143  1.00  0.00    -0.035 C 
HETATM   18  C26 UNL     1      -0.335   5.300  14.364  1.00  0.00     0.016 C 
HETATM   19  C27 UNL     1      -4.388   7.390  14.231  1.00  0.00     0.022 C 
HETATM   20  C28 UNL     1      -4.744   8.352  13.087  1.00  0.00     0.015 C 
ENDROOT
BRANCH   1  21
HETATM   21  C4  UNL     1      -7.220   4.747  14.740  1.00  0.00     0.283 C 
HETATM   22  O2  UNL     1      -7.842   4.356  15.717  1.00  0.00    -0.260 OA
BRANCH  21  23
HETATM   23  O1  UNL     1      -7.385   4.342  13.463  1.00  0.00    -0.316 OA
BRANCH  23  24
HETATM   24  C3  UNL     1      -8.636   4.723  12.878  1.00  0.00     0.209 C 
BRANCH  24  25
HETATM   25  C2  UNL     1      -9.008   6.145  13.332  1.00  0.00     0.295 C 
BRANCH  25  26
HETATM   26  N1  UNL     1     -10.127   6.219  14.284  1.00  0.00     0.081 N 
HETATM   27  C1  UNL     1     -10.462   7.585  14.664  1.00  0.00     0.306 C 
HETATM   28  H4  UNL     1      -9.902   5.682  15.124  1.00  0.00     0.315 HD
ENDBRANCH  25  26
ENDBRANCH  24  25
ENDBRANCH  23  24
ENDBRANCH  21  23
ENDBRANCH   1  21
BRANCH  14  29
HETATM   29  O4  UNL     1       2.511   6.688  10.840  1.00  0.00    -0.315 OA
BRANCH  29  30
HETATM   30  C18 UNL     1       3.244   7.162   9.793  1.00  0.00     0.262 C 
HETATM   31  O5  UNL     1       4.213   7.901   9.887  1.00  0.00    -0.265 OA
BRANCH  30  32
HETATM   32  C19 UNL     1       2.685   6.646   8.492  1.00  0.00     0.148 C 
BRANCH  32  33
HETATM   33  C20 UNL     1       2.170   7.756   7.572  1.00  0.00     0.059 C 
HETATM   34  C21 UNL     1       0.875   8.325   8.163  1.00  0.00     0.045 C 
HETATM   35  C22 UNL     1       1.905   7.281   6.138  1.00  0.00     0.045 C 
BRANCH  33  36
HETATM   36  O6  UNL     1       3.116   8.831   7.556  1.00  0.00    -0.390 OA
HETATM   37  H34 UNL     1       3.697   8.724   6.774  1.00  0.00     0.210 HD
ENDBRANCH  33  36
ENDBRANCH  32  33
ENDBRANCH  30  32
ENDBRANCH  29  30
ENDBRANCH  14  29
TORSDOF 10
ENDMDL
MODEL 3
REMARK minimizedAffinity -8.35361862
REMARK  10 active torsions:
REMARK  status: ('A' for Active; 'I' for Inactive)
REMARK    1  A    between atoms: N1_2  and  C2_3 
REMARK    2  A    between atoms: C2_3  and  C3_4 
REMARK    3  A    between atoms: C3_4  and  O1_5 
REMARK    4  A    between atoms: O1_5  and  C4_6 
REMARK    5  A    between atoms: C4_6  and  C5_8 
REMARK    6  A    between atoms: C17_21  and  O4_22 
REMARK    7  A    between atoms: O4_22  and  C18_23 
REMARK    8  A    between atoms: C18_23  and  C19_25 
REMARK    9  A    between atoms: C19_25  and  C20_26 
REMARK   10  A    between atoms: C20_26  and  O6_29 
ROOT
HETATM    1  C5  UNL     1      -6.651   7.299  15.901  1.00  0.00     0.085 C 
HETATM    2  C6  UNL     1      -5.561   7.499  15.130  1.00  0.00    -0.070 C 
HETATM    3  C7  UNL     1      -5.346   6.899  13.757  1.00  0.00     0.035 C 
HETATM    4  C8  UNL     1      -3.939   6.315  13.572  1.00  0.00     0.010 C 
HETATM    5  C9  UNL     1      -2.829   7.314  13.963  1.00  0.00     0.006 C 
HETATM    6  C10 UNL     1      -3.070   7.726  15.449  1.00  0.00     0.068 C 
HETATM    7  C11 UNL     1      -1.936   8.537  16.078  1.00  0.00     0.132 C 
HETATM    8  O3  UNL     1      -2.147   9.351  16.980  1.00  0.00    -0.298 OA
HETATM    9  C12 UNL     1      -0.510   8.212  15.681  1.00  0.00     0.085 C 
HETATM   10  C13 UNL     1      -0.431   8.016  14.165  1.00  0.00     0.011 C 
HETATM   11  C14 UNL     1       1.000   8.031  13.521  1.00  0.00    -0.016 C 
HETATM   12  C15 UNL     1       1.789   9.284  13.984  1.00  0.00     0.018 C 
HETATM   13  C16 UNL     1       1.862   6.820  13.943  1.00  0.00     0.018 C 
HETATM   14  C17 UNL     1       0.845   8.141  11.958  1.00  0.00     0.140 C 
HETATM   15  C23 UNL     1      -0.531   7.694  11.435  1.00  0.00     0.034 C 
HETATM   16  C24 UNL     1      -1.076   6.502  12.207  1.00  0.00     0.012 C 
HETATM   17  C25 UNL     1      -1.352   6.817  13.710  1.00  0.00    -0.035 C 
HETATM   18  C26 UNL     1      -1.124   5.498  14.492  1.00  0.00     0.016 C 
HETATM   19  C27 UNL     1      -4.446   8.410  15.632  1.00  0.00     0.022 C 
HETATM   20  C28 UNL     1      -4.564   9.782  14.949  1.00  0.00     0.015 C 
ENDROOT
BRANCH   1  21
HETATM   21  C4  UNL     1      -7.878   6.542  15.570  1.00  0.00     0.283 C 
HETATM   22  O2  UNL     1      -8.112   5.442  16.050  1.00  0.00    -0.260 OA
BRANCH  21  23
HETATM   23  O1  UNL     1      -8.711   7.289  14.815  1.00  0.00    -0.316 OA
BRANCH  23  24
HETATM   24  C3  UNL     1      -9.347   6.572  13.751  1.00  0.00     0.209 C 
BRANCH  24  25
HETATM   25  C2  UNL     1     -10.821   7.000  13.646  1.00  0.00     0.295 C 
BRANCH  25  26
HETATM   26  N1  UNL     1     -11.688   6.514  14.731  1.00  0.00     0.081 N 
HETATM   27  C1  UNL     1     -13.040   6.206  14.284  1.00  0.00     0.306 C 
HETATM   28  H4  UNL     1     -11.730   7.210  15.477  1.00  0.00     0.315 HD
ENDBRANCH  25  26
ENDBRANCH  24  25
ENDBRANCH  23  24
ENDBRANCH  21  23
ENDBRANCH   1  21
BRANCH  14  29
HETATM   29  O4  UNL     1       1.866   7.347  11.318  1.00  0.00    -0.315 OA
BRANCH  29  30
HETATM   30  C18 UNL     1       1.489   6.612  10.233  1.00  0.00     0.262 C 
HETATM   31  O5  UNL     1       1.345   5.399  10.218  1.00  0.00    -0.265 OA
BRANCH  30  32
HETATM   32  C19 UNL     1       1.274   7.514   9.045  1.00  0.00     0.148 C 
BRANCH  32  33
HETATM   33  C20 UNL     1       2.380   7.402   7.992  1.00  0.00     0.059 C 
HETATM   34  C21 UNL     1       3.197   8.700   7.996  1.00  0.00     0.045 C 
HETATM   35  C22 UNL     1       1.848   7.143   6.577  1.00  0.00     0.045 C 
BRANCH  33  36
HETATM   36  O6  UNL     1       3.281   6.354   8.367  1.00  0.00    -0.390 OA
HETATM   37  H34 UNL     1       3.021   5.535   7.894  1.00  0.00     0.210 HD
ENDBRANCH  33  36
ENDBRANCH  32  33
ENDBRANCH  30  32
ENDBRANCH  29  30
ENDBRANCH  14  29
TORSDOF 10
ENDMDL
MODEL 4
REMARK minimizedAffinity -8.27380657
REMARK  10 active torsions:
REMARK  status: ('A' for Active; 'I' for Inactive)
REMARK    1  A    between atoms: N1_2  and  C2_3 
REMARK    2  A    between atoms: C2_3  and  C3_4 
REMARK    3  A    between atoms: C3_4  and  O1_5 
REMARK    4  A    between atoms: O1_5  and  C4_6 
REMARK    5  A    between atoms: C4_6  and  C5_8 
REMARK    6  A    between atoms: C17_21  and  O4_22 
REMARK    7  A    between atoms: O4_22  and  C18_23 
REMARK    8  A    between atoms: C18_23  and  C19_25 
REMARK    9  A    between atoms: C19_25  and  C20_26 
REMARK   10  A    between atoms: C20_26  and  O6_29 
ROOT
HETATM    1  C5  UNL     1      -6.868   7.843  15.552  1.00  0.00     0.085 C 
HETATM    2  C6  UNL     1      -5.717   8.014  14.867  1.00  0.00    -0.070 C 
HETATM    3  C7  UNL     1      -5.502   7.631  13.418  1.00  0.00     0.035 C 
HETATM    4  C8  UNL     1      -4.177   6.892  13.184  1.00  0.00     0.010 C 
HETATM    5  C9  UNL     1      -2.969   7.643  13.785  1.00  0.00     0.006 C 
HETATM    6  C10 UNL     1      -3.241   7.827  15.310  1.00  0.00     0.068 C 
HETATM    7  C11 UNL     1      -2.049   8.351  16.112  1.00  0.00     0.132 C 
HETATM    8  O3  UNL     1      -2.203   9.022  17.135  1.00  0.00    -0.298 OA
HETATM    9  C12 UNL     1      -0.658   7.899  15.715  1.00  0.00     0.085 C 
HETATM   10  C13 UNL     1      -0.515   7.952  14.192  1.00  0.00     0.011 C 
HETATM   11  C14 UNL     1       0.941   7.872  13.613  1.00  0.00    -0.016 C 
HETATM   12  C15 UNL     1       1.861   8.904  14.317  1.00  0.00     0.018 C 
HETATM   13  C16 UNL     1       1.606   6.498  13.846  1.00  0.00     0.018 C 
HETATM   14  C17 UNL     1       0.896   8.266  12.089  1.00  0.00     0.140 C 
HETATM   15  C23 UNL     1      -0.494   8.115  11.447  1.00  0.00     0.034 C 
HETATM   16  C24 UNL     1      -1.239   6.899  11.978  1.00  0.00     0.012 C 
HETATM   17  C25 UNL     1      -1.559   6.991  13.501  1.00  0.00    -0.035 C 
HETATM   18  C26 UNL     1      -1.557   5.540  14.047  1.00  0.00     0.016 C 
HETATM   19  C27 UNL     1      -4.522   8.660  15.561  1.00  0.00     0.022 C 
HETATM   20  C28 UNL     1      -4.414  10.129  15.126  1.00  0.00     0.015 C 
ENDROOT
BRANCH   1  21
HETATM   21  C4  UNL     1      -8.163   7.335  15.049  1.00  0.00     0.283 C 
HETATM   22  O2  UNL     1      -9.101   8.078  14.800  1.00  0.00    -0.260 OA
BRANCH  21  23
HETATM   23  O1  UNL     1      -8.087   6.013  14.786  1.00  0.00    -0.316 OA
BRANCH  23  24
HETATM   24  C3  UNL     1      -8.571   5.639  13.490  1.00  0.00     0.209 C 
BRANCH  24  25
HETATM   25  C2  UNL     1      -8.053   4.236  13.128  1.00  0.00     0.295 C 
BRANCH  25  26
HETATM   26  N1  UNL     1      -6.640   3.992  13.461  1.00  0.00     0.081 N 
HETATM   27  C1  UNL     1      -5.816   3.739  12.286  1.00  0.00     0.306 C 
HETATM   28  H4  UNL     1      -6.569   3.199  14.101  1.00  0.00     0.315 HD
ENDBRANCH  25  26
ENDBRANCH  24  25
ENDBRANCH  23  24
ENDBRANCH  21  23
ENDBRANCH   1  21
BRANCH  14  29
HETATM   29  O4  UNL     1       1.838   7.455  11.356  1.00  0.00    -0.315 OA
BRANCH  29  30
HETATM   30  C18 UNL     1       1.356   6.760  10.288  1.00  0.00     0.262 C 
HETATM   31  O5  UNL     1       1.056   5.575  10.293  1.00  0.00    -0.265 OA
BRANCH  30  32
HETATM   32  C19 UNL     1       1.244   7.664   9.088  1.00  0.00     0.148 C 
BRANCH  32  33
HETATM   33  C20 UNL     1       2.382   7.477   8.080  1.00  0.00     0.059 C 
HETATM   34  C21 UNL     1       3.180   8.783   7.988  1.00  0.00     0.045 C 
HETATM   35  C22 UNL     1       1.894   7.082   6.680  1.00  0.00     0.045 C 
BRANCH  33  36
HETATM   36  O6  UNL     1       3.287   6.482   8.573  1.00  0.00    -0.390 OA
HETATM   37  H34 UNL     1       3.052   5.619   8.169  1.00  0.00     0.210 HD
ENDBRANCH  33  36
ENDBRANCH  32  33
ENDBRANCH  30  32
ENDBRANCH  29  30
ENDBRANCH  14  29
TORSDOF 10
ENDMDL
MODEL 5
REMARK minimizedAffinity -8.07928753
REMARK  10 active torsions:
REMARK  status: ('A' for Active; 'I' for Inactive)
REMARK    1  A    between atoms: N1_2  and  C2_3 
REMARK    2  A    between atoms: C2_3  and  C3_4 
REMARK    3  A    between atoms: C3_4  and  O1_5 
REMARK    4  A    between atoms: O1_5  and  C4_6 
REMARK    5  A    between atoms: C4_6  and  C5_8 
REMARK    6  A    between atoms: C17_21  and  O4_22 
REMARK    7  A    between atoms: O4_22  and  C18_23 
REMARK    8  A    between atoms: C18_23  and  C19_25 
REMARK    9  A    between atoms: C19_25  and  C20_26 
REMARK   10  A    between atoms: C20_26  and  O6_29 
ROOT
HETATM    1  C5  UNL     1       4.720   7.661  10.765  1.00  0.00     0.085 C 
HETATM    2  C6  UNL     1       3.393   7.688  11.009  1.00  0.00    -0.070 C 
HETATM    3  C7  UNL     1       2.633   8.878  11.554  1.00  0.00     0.035 C 
HETATM    4  C8  UNL     1       1.657   8.501  12.678  1.00  0.00     0.010 C 
HETATM    5  C9  UNL     1       0.727   7.332  12.285  1.00  0.00     0.006 C 
HETATM    6  C10 UNL     1       1.632   6.120  11.903  1.00  0.00     0.068 C 
HETATM    7  C11 UNL     1       0.881   4.802  11.704  1.00  0.00     0.132 C 
HETATM    8  O3  UNL     1       1.298   3.931  10.938  1.00  0.00    -0.298 OA
HETATM    9  C12 UNL     1      -0.314   4.512  12.589  1.00  0.00     0.085 C 
HETATM   10  C13 UNL     1      -1.184   5.767  12.705  1.00  0.00     0.011 C 
HETATM   11  C14 UNL     1      -2.635   5.574  13.271  1.00  0.00    -0.016 C 
HETATM   12  C15 UNL     1      -3.364   4.432  12.514  1.00  0.00     0.018 C 
HETATM   13  C16 UNL     1      -2.650   5.160  14.759  1.00  0.00     0.018 C 
HETATM   14  C17 UNL     1      -3.455   6.892  13.006  1.00  0.00     0.140 C 
HETATM   15  C23 UNL     1      -2.579   8.136  12.779  1.00  0.00     0.034 C 
HETATM   16  C24 UNL     1      -1.340   8.132  13.664  1.00  0.00     0.012 C 
HETATM   17  C25 UNL     1      -0.369   6.951  13.356  1.00  0.00    -0.035 C 
HETATM   18  C26 UNL     1       0.335   6.592  14.689  1.00  0.00     0.016 C 
HETATM   19  C27 UNL     1       2.551   6.453  10.703  1.00  0.00     0.022 C 
HETATM   20  C28 UNL     1       1.805   6.662   9.376  1.00  0.00     0.015 C 
ENDROOT
BRANCH   1  21
HETATM   21  C4  UNL     1       5.695   8.766  10.894  1.00  0.00     0.283 C 
HETATM   22  O2  UNL     1       5.538   9.840  10.332  1.00  0.00    -0.260 OA
BRANCH  21  23
HETATM   23  O1  UNL     1       6.648   8.459  11.799  1.00  0.00    -0.316 OA
BRANCH  23  24
HETATM   24  C3  UNL     1       6.366   7.293  12.583  1.00  0.00     0.209 C 
BRANCH  24  25
HETATM   25  C2  UNL     1       6.599   7.601  14.072  1.00  0.00     0.295 C 
BRANCH  25  26
HETATM   26  N1  UNL     1       5.577   7.063  14.984  1.00  0.00     0.081 N 
HETATM   27  C1  UNL     1       4.443   7.960  15.159  1.00  0.00     0.306 C 
HETATM   28  H4  UNL     1       5.997   6.868  15.895  1.00  0.00     0.315 HD
ENDBRANCH  25  26
ENDBRANCH  24  25
ENDBRANCH  23  24
ENDBRANCH  21  23
ENDBRANCH   1  21
BRANCH  14  29
HETATM   29  O4  UNL     1      -4.335   7.141  14.122  1.00  0.00    -0.315 OA
BRANCH  29  30
HETATM   30  C18 UNL     1      -5.675   7.086  13.877  1.00  0.00     0.262 C 
HETATM   31  O5  UNL     1      -6.479   7.965  14.147  1.00  0.00    -0.265 OA
BRANCH  30  32
HETATM   32  C19 UNL     1      -6.030   5.776  13.221  1.00  0.00     0.148 C 
BRANCH  32  33
HETATM   33  C20 UNL     1      -7.419   5.261  13.609  1.00  0.00     0.059 C 
HETATM   34  C21 UNL     1      -7.383   3.729  13.654  1.00  0.00     0.045 C 
HETATM   35  C22 UNL     1      -8.524   5.714  12.646  1.00  0.00     0.045 C 
BRANCH  33  36
HETATM   36  O6  UNL     1      -7.729   5.699  14.937  1.00  0.00    -0.390 OA
HETATM   37  H34 UNL     1      -8.266   6.518  14.878  1.00  0.00     0.210 HD
ENDBRANCH  33  36
ENDBRANCH  32  33
ENDBRANCH  30  32
ENDBRANCH  29  30
ENDBRANCH  14  29
TORSDOF 10
ENDMDL
MODEL 6
REMARK minimizedAffinity -7.88593388
REMARK  10 active torsions:
REMARK  status: ('A' for Active; 'I' for Inactive)
REMARK    1  A    between atoms: N1_2  and  C2_3 
REMARK    2  A    between atoms: C2_3  and  C3_4 
REMARK    3  A    between atoms: C3_4  and  O1_5 
REMARK    4  A    between atoms: O1_5  and  C4_6 
REMARK    5  A    between atoms: C4_6  and  C5_8 
REMARK    6  A    between atoms: C17_21  and  O4_22 
REMARK    7  A    between atoms: O4_22  and  C18_23 
REMARK    8  A    between atoms: C18_23  and  C19_25 
REMARK    9  A    between atoms: C19_25  and  C20_26 
REMARK   10  A    between atoms: C20_26  and  O6_29 
ROOT
HETATM    1  C5  UNL     1      -6.264   6.380  14.582  1.00  0.00     0.085 C 
HETATM    2  C6  UNL     1      -5.090   6.444  13.918  1.00  0.00    -0.070 C 
HETATM    3  C7  UNL     1      -4.497   5.324  13.091  1.00  0.00     0.035 C 
HETATM    4  C8  UNL     1      -3.002   5.105  13.363  1.00  0.00     0.010 C 
HETATM    5  C9  UNL     1      -2.186   6.412  13.264  1.00  0.00     0.006 C 
HETATM    6  C10 UNL     1      -2.796   7.425  14.283  1.00  0.00     0.068 C 
HETATM    7  C11 UNL     1      -1.973   8.698  14.485  1.00  0.00     0.132 C 
HETATM    8  O3  UNL     1      -2.503   9.765  14.802  1.00  0.00    -0.298 OA
HETATM    9  C12 UNL     1      -0.462   8.595  14.444  1.00  0.00     0.085 C 
HETATM   10  C13 UNL     1      -0.040   7.705  13.272  1.00  0.00     0.011 C 
HETATM   11  C14 UNL     1       1.468   7.765  12.843  1.00  0.00    -0.016 C 
HETATM   12  C15 UNL     1       1.916   9.238  12.643  1.00  0.00     0.018 C 
HETATM   13  C16 UNL     1       2.421   7.185  13.912  1.00  0.00     0.018 C 
HETATM   14  C17 UNL     1       1.622   7.048  11.450  1.00  0.00     0.140 C 
HETATM   15  C23 UNL     1       0.481   6.069  11.124  1.00  0.00     0.034 C 
HETATM   16  C24 UNL     1       0.003   5.318  12.358  1.00  0.00     0.012 C 
HETATM   17  C25 UNL     1      -0.626   6.249  13.439  1.00  0.00    -0.035 C 
HETATM   18  C26 UNL     1      -0.339   5.595  14.815  1.00  0.00     0.016 C 
HETATM   19  C27 UNL     1      -4.277   7.734  13.959  1.00  0.00     0.022 C 
HETATM   20  C28 UNL     1      -4.487   8.509  12.649  1.00  0.00     0.015 C 
ENDROOT
BRANCH   1  21
HETATM   21  C4  UNL     1      -7.247   5.275  14.595  1.00  0.00     0.283 C 
HETATM   22  O2  UNL     1      -7.451   4.598  15.592  1.00  0.00    -0.260 OA
BRANCH  21  23
HETATM   23  O1  UNL     1      -7.942   5.240  13.438  1.00  0.00    -0.316 OA
BRANCH  23  24
HETATM   24  C3  UNL     1      -7.521   4.219  12.525  1.00  0.00     0.209 C 
BRANCH  24  25
HETATM   25  C2  UNL     1      -7.603   2.844  13.212  1.00  0.00     0.295 C 
BRANCH  25  26
HETATM   26  N1  UNL     1      -7.548   1.691  12.300  1.00  0.00     0.081 N 
HETATM   27  C1  UNL     1      -6.303   1.623  11.546  1.00  0.00     0.306 C 
HETATM   28  H4  UNL     1      -8.334   1.728  11.649  1.00  0.00     0.315 HD
ENDBRANCH  25  26
ENDBRANCH  24  25
ENDBRANCH  23  24
ENDBRANCH  21  23
ENDBRANCH   1  21
BRANCH  14  29
HETATM   29  O4  UNL     1       2.875   6.332  11.415  1.00  0.00    -0.315 OA
BRANCH  29  30
HETATM   30  C18 UNL     1       3.644   6.486  10.300  1.00  0.00     0.262 C 
HETATM   31  O5  UNL     1       3.637   5.744   9.329  1.00  0.00    -0.265 OA
BRANCH  30  32
HETATM   32  C19 UNL     1       4.513   7.710  10.434  1.00  0.00     0.148 C 
BRANCH  32  33
HETATM   33  C20 UNL     1       5.803   7.453  11.219  1.00  0.00     0.059 C 
HETATM   34  C21 UNL     1       6.183   5.975  11.072  1.00  0.00     0.045 C 
HETATM   35  C22 UNL     1       5.686   7.800  12.708  1.00  0.00     0.045 C 
BRANCH  33  36
HETATM   36  O6  UNL     1       6.869   8.206  10.630  1.00  0.00    -0.390 OA
HETATM   37  H34 UNL     1       6.968   9.047  11.127  1.00  0.00     0.210 HD
ENDBRANCH  33  36
ENDBRANCH  32  33
ENDBRANCH  30  32
ENDBRANCH  29  30
ENDBRANCH  14  29
TORSDOF 10
ENDMDL
MODEL 7
REMARK minimizedAffinity -7.74583912
REMARK  10 active torsions:
REMARK  status: ('A' for Active; 'I' for Inactive)
REMARK    1  A    between atoms: N1_2  and  C2_3 
REMARK    2  A    between atoms: C2_3  and  C3_4 
REMARK    3  A    between atoms: C3_4  and  O1_5 
REMARK    4  A    between atoms: O1_5  and  C4_6 
REMARK    5  A    between atoms: C4_6  and  C5_8 
REMARK    6  A    between atoms: C17_21  and  O4_22 
REMARK    7  A    between atoms: O4_22  and  C18_23 
REMARK    8  A    between atoms: C18_23  and  C19_25 
REMARK    9  A    between atoms: C19_25  and  C20_26 
REMARK   10  A    between atoms: C20_26  and  O6_29 
ROOT
HETATM    1  C5  UNL     1       5.076   7.504  10.691  1.00  0.00     0.085 C 
HETATM    2  C6  UNL     1       3.746   7.620  10.891  1.00  0.00    -0.070 C 
HETATM    3  C7  UNL     1       3.044   8.872  11.371  1.00  0.00     0.035 C 
HETATM    4  C8  UNL     1       2.013   8.596  12.474  1.00  0.00     0.010 C 
HETATM    5  C9  UNL     1       1.025   7.472  12.090  1.00  0.00     0.006 C 
HETATM    6  C10 UNL     1       1.865   6.194  11.780  1.00  0.00     0.068 C 
HETATM    7  C11 UNL     1       1.041   4.918  11.601  1.00  0.00     0.132 C 
HETATM    8  O3  UNL     1       1.426   3.997  10.879  1.00  0.00    -0.298 OA
HETATM    9  C12 UNL     1      -0.197   4.733  12.456  1.00  0.00     0.085 C 
HETATM   10  C13 UNL     1      -0.991   6.041  12.501  1.00  0.00     0.011 C 
HETATM   11  C14 UNL     1      -2.467   5.958  13.025  1.00  0.00    -0.016 C 
HETATM   12  C15 UNL     1      -3.242   4.836  12.285  1.00  0.00     0.018 C 
HETATM   13  C16 UNL     1      -2.553   5.599  14.525  1.00  0.00     0.018 C 
HETATM   14  C17 UNL     1      -3.196   7.313  12.690  1.00  0.00     0.140 C 
HETATM   15  C23 UNL     1      -2.238   8.492  12.449  1.00  0.00     0.034 C 
HETATM   16  C24 UNL     1      -1.029   8.445  13.373  1.00  0.00     0.012 C 
HETATM   17  C25 UNL     1      -0.124   7.197  13.138  1.00  0.00    -0.035 C 
HETATM   18  C26 UNL     1       0.515   6.843  14.504  1.00  0.00     0.016 C 
HETATM   19  C27 UNL     1       2.839   6.428  10.600  1.00  0.00     0.022 C 
HETATM   20  C28 UNL     1       2.148   6.634   9.243  1.00  0.00     0.015 C 
ENDROOT
BRANCH   1  21
HETATM   21  C4  UNL     1       6.112   8.551  10.814  1.00  0.00     0.283 C 
HETATM   22  O2  UNL     1       5.957   9.677  10.362  1.00  0.00    -0.260 OA
BRANCH  21  23
HETATM   23  O1  UNL     1       7.131   8.127  11.592  1.00  0.00    -0.316 OA
BRANCH  23  24
HETATM   24  C3  UNL     1       6.802   7.026  12.449  1.00  0.00     0.209 C 
BRANCH  24  25
HETATM   25  C2  UNL     1       6.889   7.471  13.919  1.00  0.00     0.295 C 
BRANCH  25  26
HETATM   26  N1  UNL     1       5.788   7.001  14.775  1.00  0.00     0.081 N 
HETATM   27  C1  UNL     1       4.767   8.017  14.995  1.00  0.00     0.306 C 
HETATM   28  H4  UNL     1       6.159   6.695  15.677  1.00  0.00     0.315 HD
ENDBRANCH  25  26
ENDBRANCH  24  25
ENDBRANCH  23  24
ENDBRANCH  21  23
ENDBRANCH   1  21
BRANCH  14  29
HETATM   29  O4  UNL     1      -4.093   7.654  13.768  1.00  0.00    -0.315 OA
BRANCH  29  30
HETATM   30  C18 UNL     1      -3.678   7.363  15.033  1.00  0.00     0.262 C 
HETATM   31  O5  UNL     1      -2.728   7.881  15.601  1.00  0.00    -0.265 OA
BRANCH  30  32
HETATM   32  C19 UNL     1      -4.560   6.302  15.637  1.00  0.00     0.148 C 
BRANCH  32  33
HETATM   33  C20 UNL     1      -6.045   6.493  15.314  1.00  0.00     0.059 C 
HETATM   34  C21 UNL     1      -6.879   5.915  16.465  1.00  0.00     0.045 C 
HETATM   35  C22 UNL     1      -6.470   5.829  13.998  1.00  0.00     0.045 C 
BRANCH  33  36
HETATM   36  O6  UNL     1      -6.339   7.894  15.264  1.00  0.00    -0.390 OA
HETATM   37  H34 UNL     1      -6.301   8.187  14.329  1.00  0.00     0.210 HD
ENDBRANCH  33  36
ENDBRANCH  32  33
ENDBRANCH  30  32
ENDBRANCH  29  30
ENDBRANCH  14  29
TORSDOF 10
ENDMDL
MODEL 8
REMARK minimizedAffinity -7.70592165
REMARK  10 active torsions:
REMARK  status: ('A' for Active; 'I' for Inactive)
REMARK    1  A    between atoms: N1_2  and  C2_3 
REMARK    2  A    between atoms: C2_3  and  C3_4 
REMARK    3  A    between atoms: C3_4  and  O1_5 
REMARK    4  A    between atoms: O1_5  and  C4_6 
REMARK    5  A    between atoms: C4_6  and  C5_8 
REMARK    6  A    between atoms: C17_21  and  O4_22 
REMARK    7  A    between atoms: O4_22  and  C18_23 
REMARK    8  A    between atoms: C18_23  and  C19_25 
REMARK    9  A    between atoms: C19_25  and  C20_26 
REMARK   10  A    between atoms: C20_26  and  O6_29 
ROOT
HETATM    1  C5  UNL     1      -3.920   5.999  13.164  1.00  0.00     0.085 C 
HETATM    2  C6  UNL     1      -2.634   6.412  13.147  1.00  0.00    -0.070 C 
HETATM    3  C7  UNL     1      -2.159   7.791  13.547  1.00  0.00     0.035 C 
HETATM    4  C8  UNL     1      -1.150   8.388  12.556  1.00  0.00     0.010 C 
HETATM    5  C9  UNL     1       0.017   7.424  12.249  1.00  0.00     0.006 C 
HETATM    6  C10 UNL     1      -0.599   6.105  11.690  1.00  0.00     0.068 C 
HETATM    7  C11 UNL     1       0.420   5.118  11.119  1.00  0.00     0.132 C 
HETATM    8  O3  UNL     1       0.217   3.902  11.127  1.00  0.00    -0.298 OA
HETATM    9  C12 UNL     1       1.630   5.670  10.393  1.00  0.00     0.085 C 
HETATM   10  C13 UNL     1       2.209   6.848  11.180  1.00  0.00     0.011 C 
HETATM   11  C14 UNL     1       3.654   7.319  10.792  1.00  0.00    -0.016 C 
HETATM   12  C15 UNL     1       4.628   6.110  10.760  1.00  0.00     0.018 C 
HETATM   13  C16 UNL     1       3.725   7.944   9.382  1.00  0.00     0.018 C 
HETATM   14  C17 UNL     1       4.179   8.298  11.909  1.00  0.00     0.140 C 
HETATM   15  C23 UNL     1       3.062   8.938  12.751  1.00  0.00     0.034 C 
HETATM   16  C24 UNL     1       1.834   9.268  11.915  1.00  0.00     0.012 C 
HETATM   17  C25 UNL     1       1.145   8.007  11.310  1.00  0.00    -0.035 C 
HETATM   18  C26 UNL     1       0.505   8.446   9.969  1.00  0.00     0.016 C 
HETATM   19  C27 UNL     1      -1.541   5.437  12.720  1.00  0.00     0.022 C 
HETATM   20  C28 UNL     1      -0.828   4.895  13.969  1.00  0.00     0.015 C 
ENDROOT
BRANCH   1  21
HETATM   21  C4  UNL     1      -5.111   6.741  13.632  1.00  0.00     0.283 C 
HETATM   22  O2  UNL     1      -5.437   7.817  13.152  1.00  0.00    -0.260 OA
BRANCH  21  23
HETATM   23  O1  UNL     1      -5.815   6.004  14.517  1.00  0.00    -0.316 OA
BRANCH  23  24
HETATM   24  C3  UNL     1      -7.235   6.059  14.335  1.00  0.00     0.209 C 
BRANCH  24  25
HETATM   25  C2  UNL     1      -7.653   5.090  13.216  1.00  0.00     0.295 C 
BRANCH  25  26
HETATM   26  N1  UNL     1      -8.136   3.779  13.679  1.00  0.00     0.081 N 
HETATM   27  C1  UNL     1      -7.513   2.665  12.977  1.00  0.00     0.306 C 
HETATM   28  H4  UNL     1      -9.150   3.726  13.564  1.00  0.00     0.315 HD
ENDBRANCH  25  26
ENDBRANCH  24  25
ENDBRANCH  23  24
ENDBRANCH  21  23
ENDBRANCH   1  21
BRANCH  14  29
HETATM   29  O4  UNL     1       4.961   9.346  11.299  1.00  0.00    -0.315 OA
BRANCH  29  30
HETATM   30  C18 UNL     1       6.317   9.250  11.411  1.00  0.00     0.262 C 
HETATM   31  O5  UNL     1       7.100   9.201  10.475  1.00  0.00    -0.265 OA
BRANCH  30  32
HETATM   32  C19 UNL     1       6.716   9.212  12.863  1.00  0.00     0.148 C 
BRANCH  32  33
HETATM   33  C20 UNL     1       7.525   7.965  13.235  1.00  0.00     0.059 C 
HETATM   34  C21 UNL     1       6.732   7.152  14.265  1.00  0.00     0.045 C 
HETATM   35  C22 UNL     1       8.911   8.290  13.806  1.00  0.00     0.045 C 
BRANCH  33  36
HETATM   36  O6  UNL     1       7.663   7.132  12.079  1.00  0.00    -0.390 OA
HETATM   37  H34 UNL     1       8.527   7.325  11.657  1.00  0.00     0.210 HD
ENDBRANCH  33  36
ENDBRANCH  32  33
ENDBRANCH  30  32
ENDBRANCH  29  30
ENDBRANCH  14  29
TORSDOF 10
ENDMDL
MODEL 9
REMARK minimizedAffinity -7.59498167
REMARK  10 active torsions:
REMARK  status: ('A' for Active; 'I' for Inactive)
REMARK    1  A    between atoms: N1_2  and  C2_3 
REMARK    2  A    between atoms: C2_3  and  C3_4 
REMARK    3  A    between atoms: C3_4  and  O1_5 
REMARK    4  A    between atoms: O1_5  and  C4_6 
REMARK    5  A    between atoms: C4_6  and  C5_8 
REMARK    6  A    between atoms: C17_21  and  O4_22 
REMARK    7  A    between atoms: O4_22  and  C18_23 
REMARK    8  A    between atoms: C18_23  and  C19_25 
REMARK    9  A    between atoms: C19_25  and  C20_26 
REMARK   10  A    between atoms: C20_26  and  O6_29 
ROOT
HETATM    1  C5  UNL     1      -6.511   5.522  14.107  1.00  0.00     0.085 C 
HETATM    2  C6  UNL     1      -5.345   5.854  13.513  1.00  0.00    -0.070 C 
HETATM    3  C7  UNL     1      -4.690   5.080  12.390  1.00  0.00     0.035 C 
HETATM    4  C8  UNL     1      -3.184   4.873  12.604  1.00  0.00     0.010 C 
HETATM    5  C9  UNL     1      -2.447   6.191  12.925  1.00  0.00     0.006 C 
HETATM    6  C10 UNL     1      -3.111   6.803  14.197  1.00  0.00     0.068 C 
HETATM    7  C11 UNL     1      -2.364   7.997  14.794  1.00  0.00     0.132 C 
HETATM    8  O3  UNL     1      -2.954   8.883  15.416  1.00  0.00    -0.298 OA
HETATM    9  C12 UNL     1      -0.850   7.998  14.745  1.00  0.00     0.085 C 
HETATM   10  C13 UNL     1      -0.380   7.539  13.362  1.00  0.00     0.011 C 
HETATM   11  C14 UNL     1       1.121   7.815  12.995  1.00  0.00    -0.016 C 
HETATM   12  C15 UNL     1       1.481   9.300  13.265  1.00  0.00     0.018 C 
HETATM   13  C16 UNL     1       2.110   6.988  13.847  1.00  0.00     0.018 C 
HETATM   14  C17 UNL     1       1.312   7.573  11.451  1.00  0.00     0.140 C 
HETATM   15  C23 UNL     1       0.229   6.678  10.822  1.00  0.00     0.034 C 
HETATM   16  C24 UNL     1      -0.200   5.557  11.757  1.00  0.00     0.012 C 
HETATM   17  C25 UNL     1      -0.878   6.072  13.064  1.00  0.00    -0.035 C 
HETATM   18  C26 UNL     1      -0.549   5.042  14.175  1.00  0.00     0.016 C 
HETATM   19  C27 UNL     1      -4.609   7.113  13.961  1.00  0.00     0.022 C 
HETATM   20  C28 UNL     1      -4.869   8.241  12.951  1.00  0.00     0.015 C 
ENDROOT
BRANCH   1  21
HETATM   21  C4  UNL     1      -7.427   4.412  13.764  1.00  0.00     0.283 C 
HETATM   22  O2  UNL     1      -7.294   3.291  14.233  1.00  0.00    -0.260 OA
BRANCH  21  23
HETATM   23  O1  UNL     1      -8.455   4.857  13.011  1.00  0.00    -0.316 OA
BRANCH  23  24
HETATM   24  C3  UNL     1      -8.679   6.270  13.092  1.00  0.00     0.209 C 
BRANCH  24  25
HETATM   25  C2  UNL     1     -10.025   6.542  13.786  1.00  0.00     0.295 C 
BRANCH  25  26
HETATM   26  N1  UNL     1      -9.945   6.728  15.243  1.00  0.00     0.081 N 
HETATM   27  C1  UNL     1      -9.969   8.130  15.639  1.00  0.00     0.306 C 
HETATM   28  H4  UNL     1      -9.092   6.292  15.600  1.00  0.00     0.315 HD
ENDBRANCH  25  26
ENDBRANCH  24  25
ENDBRANCH  23  24
ENDBRANCH  21  23
ENDBRANCH   1  21
BRANCH  14  29
HETATM   29  O4  UNL     1       2.604   6.975  11.216  1.00  0.00    -0.315 OA
BRANCH  29  30
HETATM   30  C18 UNL     1       3.276   7.376  10.099  1.00  0.00     0.262 C 
HETATM   31  O5  UNL     1       3.062   6.975   8.965  1.00  0.00    -0.265 OA
BRANCH  30  32
HETATM   32  C19 UNL     1       4.330   8.389  10.463  1.00  0.00     0.148 C 
BRANCH  32  33
HETATM   33  C20 UNL     1       5.514   7.783  11.224  1.00  0.00     0.059 C 
HETATM   34  C21 UNL     1       5.582   6.282  10.917  1.00  0.00     0.045 C 
HETATM   35  C22 UNL     1       5.427   7.986  12.742  1.00  0.00     0.045 C 
BRANCH  33  36
HETATM   36  O6  UNL     1       6.731   8.354  10.731  1.00  0.00    -0.390 OA
HETATM   37  H34 UNL     1       6.988   9.096  11.318  1.00  0.00     0.210 HD
ENDBRANCH  33  36
ENDBRANCH  32  33
ENDBRANCH  30  32
ENDBRANCH  29  30
ENDBRANCH  14  29
TORSDOF 10
ENDMDL
