MODEL 1
REMARK minimizedAffinity -8.45105648
REMARK CNNscore 0.600363851
REMARK CNNaffinity 7.96123362
REMARK  19 active torsions:
REMARK  status: ('A' for Active; 'I' for Inactive)
REMARK    1  A    between atoms: C19_20  and  O2_21 
REMARK    2  A    between atoms: C19_20  and  C20_22 
REMARK    3  A    between atoms: C20_22  and  C21_24 
REMARK    4  A    between atoms: C21_24  and  O4_25 
REMARK    5  A    between atoms: O4_25  and  C22_26 
REMARK    6  A    between atoms: C22_26  and  C23_28 
REMARK    7  A    between atoms: C23_28  and  C24_29 
REMARK    8  A    between atoms: C24_29  and  C25_30 
REMARK       I    between atoms: C25_30  and  N1_32 
REMARK    9  A    between atoms: N1_32  and  C26_33 
REMARK   10  A    between atoms: C26_33  and  C27_34 
REMARK   11  A    between atoms: C27_34  and  C28_35 
REMARK   12  A    between atoms: C28_35  and  C29_36 
REMARK   13  A    between atoms: C29_36  and  C30_37 
REMARK   14  A    between atoms: C30_37  and  C31_38 
REMARK       I    between atoms: C31_38  and  N2_40 
REMARK   15  A    between atoms: N2_40  and  C32_41 
REMARK   16  A    between atoms: C32_41  and  C33_42 
REMARK   17  A    between atoms: C32_41  and  C40_49 
REMARK   18  A    between atoms: C33_42  and  C34_43 
REMARK   19  A    between atoms: C40_49  and  O9_51 
ROOT
HETATM    1  C22 UNL     1      -6.828   2.977  12.579  1.00  0.00     0.259 C 
HETATM    2  O5  UNL     1      -7.933   2.450  12.522  1.00  0.00    -0.265 OA
ENDROOT
BRANCH   1   3
HETATM    3  O4  UNL     1      -6.354   3.648  13.659  1.00  0.00    -0.314 OA
BRANCH   3   4
HETATM    4  C21 UNL     1      -6.174   5.047  13.446  1.00  0.00     0.260 C 
BRANCH   4   5
HETATM    5  C20 UNL     1      -6.150   5.789  14.776  1.00  0.00     0.185 C 
HETATM    6  O3  UNL     1      -5.100   6.238  15.244  1.00  0.00    -0.292 OA
BRANCH   5   7
HETATM    7  C19 UNL     1      -7.520   5.988  15.478  1.00  0.00     0.128 C 
HETATM    8  C14 UNL     1      -8.552   6.828  14.653  1.00  0.00    -0.002 C 
HETATM    9  C13 UNL     1      -9.379   6.087  13.585  1.00  0.00     0.013 C 
HETATM   10  C15 UNL     1      -7.844   8.044  13.991  1.00  0.00     0.019 C 
HETATM   11  C16 UNL     1      -9.531   7.235  15.781  1.00  0.00     0.002 C 
HETATM   12  C12 UNL     1     -10.548   6.940  13.059  1.00  0.00     0.007 C 
HETATM   13  C11 UNL     1     -11.468   7.478  14.184  1.00  0.00     0.002 C 
HETATM   14  C2  UNL     1     -12.667   8.359  13.660  1.00  0.00    -0.016 C 
HETATM   15  C10 UNL     1     -10.648   8.177  15.312  1.00  0.00    -0.004 C 
HETATM   16  C1  UNL     1     -12.180   9.569  12.831  1.00  0.00     0.020 C 
HETATM   17  C3  UNL     1     -13.574   7.464  12.763  1.00  0.00     0.022 C 
HETATM   18  C7  UNL     1     -13.478   8.888  14.849  1.00  0.00    -0.068 C 
HETATM   19  C4  UNL     1     -14.942   8.062  12.475  1.00  0.00     0.084 C 
HETATM   20  C5  UNL     1     -15.645   8.428  13.753  1.00  0.00     0.149 C 
HETATM   21  O1  UNL     1     -16.871   8.449  13.846  1.00  0.00    -0.293 OA
HETATM   22  C6  UNL     1     -14.821   8.874  14.901  1.00  0.00     0.053 C 
HETATM   23  C8  UNL     1     -12.696   9.484  15.996  1.00  0.00     0.035 C 
HETATM   24  C9  UNL     1     -11.577   8.564  16.470  1.00  0.00     0.010 C 
HETATM   25  C17 UNL     1      -8.611   7.712  16.900  1.00  0.00     0.009 C 
HETATM   26  C18 UNL     1      -7.365   6.813  16.790  1.00  0.00     0.047 C 
BRANCH   7  27
HETATM   27  O2  UNL     1      -8.065   4.730  15.886  1.00  0.00    -0.381 OA
HETATM   28  H27 UNL     1      -8.391   4.237  15.116  1.00  0.00     0.211 HD
ENDBRANCH   7  27
ENDBRANCH   5   7
ENDBRANCH   4   5
ENDBRANCH   3   4
ENDBRANCH   1   3
BRANCH   1  29
HETATM   29  C23 UNL     1      -5.873   3.053  11.410  1.00  0.00     0.120 C 
BRANCH  29  30
HETATM   30  C24 UNL     1      -4.842   1.929  11.384  1.00  0.00     0.112 C 
BRANCH  30  31
HETATM   31  C25 UNL     1      -3.457   2.422  11.750  1.00  0.00     0.217 C 
HETATM   32  O6  UNL     1      -2.440   1.764  11.560  1.00  0.00    -0.274 OA
HETATM   33  N1  UNL     1      -3.459   3.688  12.296  1.00  0.00    -0.361 N 
HETATM   34  H34 UNL     1      -4.331   4.198  12.362  1.00  0.00     0.162 HD
BRANCH  33  35
HETATM   35  C26 UNL     1      -2.228   4.390  12.599  1.00  0.00     0.122 C 
BRANCH  35  36
HETATM   36  C27 UNL     1      -2.410   5.897  12.439  1.00  0.00     0.020 C 
BRANCH  36  37
HETATM   37  C28 UNL     1      -2.132   6.684  13.721  1.00  0.00     0.002 C 
BRANCH  37  38
HETATM   38  C29 UNL     1      -0.805   7.451  13.670  1.00  0.00     0.009 C 
BRANCH  38  39
HETATM   39  C30 UNL     1       0.390   6.544  13.382  1.00  0.00     0.103 C 
BRANCH  39  40
HETATM   40  C31 UNL     1       1.511   7.239  12.628  1.00  0.00     0.218 C 
HETATM   41  O7  UNL     1       1.496   8.420  12.302  1.00  0.00    -0.274 OA
HETATM   42  N2  UNL     1       2.567   6.394  12.346  1.00  0.00    -0.346 N 
HETATM   43  H45 UNL     1       2.344   5.405  12.311  1.00  0.00     0.163 HD
BRANCH  42  44
HETATM   44  C32 UNL     1       3.649   6.838  11.457  1.00  0.00     0.186 C 
BRANCH  44  45
HETATM   45  C33 UNL     1       3.127   7.899  10.482  1.00  0.00     0.074 C 
BRANCH  45  46
HETATM   46  C34 UNL     1       2.796   7.357   9.113  1.00  0.00    -0.056 A 
HETATM   47  C35 UNL     1       3.126   6.038   8.773  1.00  0.00     0.007 A 
HETATM   48  C36 UNL     1       2.830   5.541   7.503  1.00  0.00     0.001 A 
HETATM   49  C37 UNL     1       2.203   6.356   6.562  1.00  0.00     0.000 A 
HETATM   50  C38 UNL     1       1.872   7.668   6.890  1.00  0.00     0.001 A 
HETATM   51  C39 UNL     1       2.166   8.169   8.159  1.00  0.00     0.007 A 
ENDBRANCH  45  46
ENDBRANCH  44  45
BRANCH  44  52
HETATM   52  C40 UNL     1       4.736   7.437  12.347  1.00  0.00     0.163 C 
HETATM   53  O8  UNL     1       4.694   8.541  12.877  1.00  0.00    -0.648 OA
BRANCH  52  54
HETATM   54  O9  UNL     1       5.806   6.637  12.510  1.00  0.00    -0.775 OA
HETATM   55  H54 UNL     1       6.405   7.134  13.105  1.00  0.00     0.167 HD
ENDBRANCH  52  54
ENDBRANCH  44  52
ENDBRANCH  42  44
ENDBRANCH  39  40
ENDBRANCH  38  39
ENDBRANCH  37  38
ENDBRANCH  36  37
ENDBRANCH  35  36
ENDBRANCH  33  35
ENDBRANCH  30  31
ENDBRANCH  29  30
ENDBRANCH   1  29
TORSDOF 19
ENDMDL
MODEL 2
REMARK minimizedAffinity -7.99847984
REMARK CNNscore 0.415859491
REMARK CNNaffinity 6.98322439
REMARK  19 active torsions:
REMARK  status: ('A' for Active; 'I' for Inactive)
REMARK    1  A    between atoms: C19_20  and  O2_21 
REMARK    2  A    between atoms: C19_20  and  C20_22 
REMARK    3  A    between atoms: C20_22  and  C21_24 
REMARK    4  A    between atoms: C21_24  and  O4_25 
REMARK    5  A    between atoms: O4_25  and  C22_26 
REMARK    6  A    between atoms: C22_26  and  C23_28 
REMARK    7  A    between atoms: C23_28  and  C24_29 
REMARK    8  A    between atoms: C24_29  and  C25_30 
REMARK       I    between atoms: C25_30  and  N1_32 
REMARK    9  A    between atoms: N1_32  and  C26_33 
REMARK   10  A    between atoms: C26_33  and  C27_34 
REMARK   11  A    between atoms: C27_34  and  C28_35 
REMARK   12  A    between atoms: C28_35  and  C29_36 
REMARK   13  A    between atoms: C29_36  and  C30_37 
REMARK   14  A    between atoms: C30_37  and  C31_38 
REMARK       I    between atoms: C31_38  and  N2_40 
REMARK   15  A    between atoms: N2_40  and  C32_41 
REMARK   16  A    between atoms: C32_41  and  C33_42 
REMARK   17  A    between atoms: C32_41  and  C40_49 
REMARK   18  A    between atoms: C33_42  and  C34_43 
REMARK   19  A    between atoms: C40_49  and  O9_51 
ROOT
HETATM    1  C22 UNL     1       0.053  10.583  15.425  1.00  0.00     0.259 C 
HETATM    2  O5  UNL     1       0.256  11.757  15.139  1.00  0.00    -0.265 OA
ENDROOT
BRANCH   1   3
HETATM    3  O4  UNL     1      -0.858   9.791  14.806  1.00  0.00    -0.314 OA
BRANCH   3   4
HETATM    4  C21 UNL     1      -1.230   8.632  15.551  1.00  0.00     0.260 C 
BRANCH   4   5
HETATM    5  C20 UNL     1      -1.277   7.408  14.645  1.00  0.00     0.185 C 
HETATM    6  O3  UNL     1      -0.381   6.561  14.663  1.00  0.00    -0.292 OA
BRANCH   5   7
HETATM    7  C19 UNL     1      -2.532   7.268  13.743  1.00  0.00     0.128 C 
HETATM    8  C14 UNL     1      -3.883   7.165  14.527  1.00  0.00    -0.002 C 
HETATM    9  C13 UNL     1      -4.543   8.481  14.979  1.00  0.00     0.013 C 
HETATM   10  C15 UNL     1      -3.715   6.234  15.761  1.00  0.00     0.019 C 
HETATM   11  C16 UNL     1      -4.788   6.560  13.427  1.00  0.00     0.002 C 
HETATM   12  C12 UNL     1      -5.988   8.270  15.468  1.00  0.00     0.007 C 
HETATM   13  C11 UNL     1      -6.883   7.539  14.436  1.00  0.00     0.002 C 
HETATM   14  C2  UNL     1      -8.365   7.310  14.925  1.00  0.00    -0.016 C 
HETATM   15  C10 UNL     1      -6.207   6.233  13.913  1.00  0.00    -0.004 C 
HETATM   16  C1  UNL     1      -8.423   6.512  16.248  1.00  0.00     0.020 C 
HETATM   17  C3  UNL     1      -9.026   8.703  15.146  1.00  0.00     0.022 C 
HETATM   18  C7  UNL     1      -9.146   6.530  13.861  1.00  0.00    -0.068 C 
HETATM   19  C4  UNL     1     -10.541   8.655  15.275  1.00  0.00     0.084 C 
HETATM   20  C5  UNL     1     -11.155   7.950  14.097  1.00  0.00     0.149 C 
HETATM   21  O1  UNL     1     -12.294   8.196  13.705  1.00  0.00    -0.293 OA
HETATM   22  C6  UNL     1     -10.388   6.853  13.461  1.00  0.00     0.053 C 
HETATM   23  C8  UNL     1      -8.468   5.315  13.272  1.00  0.00     0.035 C 
HETATM   24  C9  UNL     1      -7.055   5.619  12.791  1.00  0.00     0.010 C 
HETATM   25  C17 UNL     1      -3.946   5.426  12.853  1.00  0.00     0.009 C 
HETATM   26  C18 UNL     1      -2.495   5.939  12.932  1.00  0.00     0.047 C 
BRANCH   7  27
HETATM   27  O2  UNL     1      -2.566   8.308  12.761  1.00  0.00    -0.381 OA
HETATM   28  H27 UNL     1      -2.804   9.154  13.173  1.00  0.00     0.211 HD
ENDBRANCH   7  27
ENDBRANCH   5   7
ENDBRANCH   4   5
ENDBRANCH   3   4
ENDBRANCH   1   3
BRANCH   1  29
HETATM   29  C23 UNL     1       0.710   9.876  16.588  1.00  0.00     0.120 C 
BRANCH  29  30
HETATM   30  C24 UNL     1       0.901  10.758  17.817  1.00  0.00     0.112 C 
BRANCH  30  31
HETATM   31  C25 UNL     1       2.185  10.435  18.552  1.00  0.00     0.217 C 
HETATM   32  O6  UNL     1       3.276  10.368  17.997  1.00  0.00    -0.274 OA
HETATM   33  N1  UNL     1       2.001  10.244  19.906  1.00  0.00    -0.361 N 
HETATM   34  H34 UNL     1       1.082  10.380  20.305  1.00  0.00     0.162 HD
BRANCH  33  35
HETATM   35  C26 UNL     1       3.120  10.047  20.806  1.00  0.00     0.122 C 
BRANCH  35  36
HETATM   36  C27 UNL     1       2.997  10.953  22.028  1.00  0.00     0.020 C 
BRANCH  36  37
HETATM   37  C28 UNL     1       2.376  12.316  21.716  1.00  0.00     0.002 C 
BRANCH  37  38
HETATM   38  C29 UNL     1       2.962  13.445  22.572  1.00  0.00     0.009 C 
BRANCH  38  39
HETATM   39  C30 UNL     1       4.396  13.162  23.020  1.00  0.00     0.103 C 
BRANCH  39  40
HETATM   40  C31 UNL     1       5.447  13.661  22.043  1.00  0.00     0.218 C 
HETATM   41  O7  UNL     1       5.453  13.403  20.845  1.00  0.00    -0.274 OA
HETATM   42  N2  UNL     1       6.406  14.448  22.649  1.00  0.00    -0.346 N 
HETATM   43  H45 UNL     1       6.536  14.299  23.644  1.00  0.00     0.163 HD
BRANCH  42  44
HETATM   44  C32 UNL     1       7.604  14.856  21.901  1.00  0.00     0.186 C 
BRANCH  44  45
HETATM   45  C33 UNL     1       7.825  16.366  22.045  1.00  0.00     0.074 C 
BRANCH  45  46
HETATM   46  C34 UNL     1       8.188  16.797  23.445  1.00  0.00    -0.056 A 
HETATM   47  C35 UNL     1       7.223  16.790  24.463  1.00  0.00     0.007 A 
HETATM   48  C36 UNL     1       7.556  17.200  25.754  1.00  0.00     0.001 A 
HETATM   49  C37 UNL     1       8.853  17.622  26.041  1.00  0.00     0.000 A 
HETATM   50  C38 UNL     1       9.818  17.635  25.037  1.00  0.00     0.001 A 
HETATM   51  C39 UNL     1       9.489  17.225  23.745  1.00  0.00     0.007 A 
ENDBRANCH  45  46
ENDBRANCH  44  45
BRANCH  44  52
HETATM   52  C40 UNL     1       8.783  14.096  22.505  1.00  0.00     0.163 C 
HETATM   53  O8  UNL     1       8.765  13.478  23.562  1.00  0.00    -0.648 OA
BRANCH  52  54
HETATM   54  O9  UNL     1       9.906  14.163  21.767  1.00  0.00    -0.775 OA
HETATM   55  H54 UNL     1      10.564  13.628  22.259  1.00  0.00     0.167 HD
ENDBRANCH  52  54
ENDBRANCH  44  52
ENDBRANCH  42  44
ENDBRANCH  39  40
ENDBRANCH  38  39
ENDBRANCH  37  38
ENDBRANCH  36  37
ENDBRANCH  35  36
ENDBRANCH  33  35
ENDBRANCH  30  31
ENDBRANCH  29  30
ENDBRANCH   1  29
TORSDOF 19
ENDMDL
MODEL 3
REMARK minimizedAffinity -9.82093906
REMARK CNNscore 0.409310162
REMARK CNNaffinity 6.84183741
REMARK  19 active torsions:
REMARK  status: ('A' for Active; 'I' for Inactive)
REMARK    1  A    between atoms: C19_20  and  O2_21 
REMARK    2  A    between atoms: C19_20  and  C20_22 
REMARK    3  A    between atoms: C20_22  and  C21_24 
REMARK    4  A    between atoms: C21_24  and  O4_25 
REMARK    5  A    between atoms: O4_25  and  C22_26 
REMARK    6  A    between atoms: C22_26  and  C23_28 
REMARK    7  A    between atoms: C23_28  and  C24_29 
REMARK    8  A    between atoms: C24_29  and  C25_30 
REMARK       I    between atoms: C25_30  and  N1_32 
REMARK    9  A    between atoms: N1_32  and  C26_33 
REMARK   10  A    between atoms: C26_33  and  C27_34 
REMARK   11  A    between atoms: C27_34  and  C28_35 
REMARK   12  A    between atoms: C28_35  and  C29_36 
REMARK   13  A    between atoms: C29_36  and  C30_37 
REMARK   14  A    between atoms: C30_37  and  C31_38 
REMARK       I    between atoms: C31_38  and  N2_40 
REMARK   15  A    between atoms: N2_40  and  C32_41 
REMARK   16  A    between atoms: C32_41  and  C33_42 
REMARK   17  A    between atoms: C32_41  and  C40_49 
REMARK   18  A    between atoms: C33_42  and  C34_43 
REMARK   19  A    between atoms: C40_49  and  O9_51 
ROOT
HETATM    1  C22 UNL     1       5.478   6.517  11.246  1.00  0.00     0.259 C 
HETATM    2  O5  UNL     1       5.417   5.717  10.321  1.00  0.00    -0.265 OA
ENDROOT
BRANCH   1   3
HETATM    3  O4  UNL     1       4.399   7.111  11.817  1.00  0.00    -0.314 OA
BRANCH   3   4
HETATM    4  C21 UNL     1       3.667   7.964  10.939  1.00  0.00     0.260 C 
BRANCH   4   5
HETATM    5  C20 UNL     1       2.317   8.322  11.548  1.00  0.00     0.185 C 
HETATM    6  O3  UNL     1       2.193   9.275  12.321  1.00  0.00    -0.292 OA
BRANCH   5   7
HETATM    7  C19 UNL     1       1.110   7.454  11.104  1.00  0.00     0.128 C 
HETATM    8  C14 UNL     1      -0.005   7.295  12.192  1.00  0.00    -0.002 C 
HETATM    9  C13 UNL     1      -1.051   8.420  12.307  1.00  0.00     0.013 C 
HETATM   10  C15 UNL     1       0.639   7.060  13.587  1.00  0.00     0.019 C 
HETATM   11  C16 UNL     1      -0.740   6.049  11.644  1.00  0.00     0.002 C 
HETATM   12  C12 UNL     1      -2.246   8.016  13.190  1.00  0.00     0.007 C 
HETATM   13  C11 UNL     1      -2.917   6.692  12.745  1.00  0.00     0.002 C 
HETATM   14  C2  UNL     1      -4.139   6.263  13.644  1.00  0.00    -0.016 C 
HETATM   15  C10 UNL     1      -1.869   5.552  12.558  1.00  0.00    -0.004 C 
HETATM   16  C1  UNL     1      -3.742   6.113  15.130  1.00  0.00     0.020 C 
HETATM   17  C3  UNL     1      -5.242   7.358  13.524  1.00  0.00     0.022 C 
HETATM   18  C7  UNL     1      -4.692   4.917  13.158  1.00  0.00    -0.068 C 
HETATM   19  C4  UNL     1      -6.603   6.923  14.044  1.00  0.00     0.084 C 
HETATM   20  C5  UNL     1      -7.043   5.644  13.387  1.00  0.00     0.149 C 
HETATM   21  O1  UNL     1      -8.229   5.356  13.238  1.00  0.00    -0.293 OA
HETATM   22  C6  UNL     1      -6.001   4.662  13.002  1.00  0.00     0.053 C 
HETATM   23  C8  UNL     1      -3.683   3.828  12.880  1.00  0.00     0.035 C 
HETATM   24  C9  UNL     1      -2.551   4.305  11.979  1.00  0.00     0.010 C 
HETATM   25  C17 UNL     1       0.391   5.082  11.309  1.00  0.00     0.009 C 
HETATM   26  C18 UNL     1       1.544   5.984  10.830  1.00  0.00     0.047 C 
BRANCH   7  27
HETATM   27  O2  UNL     1       0.576   7.928   9.863  1.00  0.00    -0.381 OA
HETATM   28  H27 UNL     1       0.090   8.757   9.999  1.00  0.00     0.211 HD
ENDBRANCH   7  27
ENDBRANCH   5   7
ENDBRANCH   4   5
ENDBRANCH   3   4
ENDBRANCH   1   3
BRANCH   1  29
HETATM   29  C23 UNL     1       6.774   7.047  11.815  1.00  0.00     0.120 C 
BRANCH  29  30
HETATM   30  C24 UNL     1       6.657   7.545  13.252  1.00  0.00     0.112 C 
BRANCH  30  31
HETATM   31  C25 UNL     1       8.009   7.651  13.926  1.00  0.00     0.217 C 
HETATM   32  O6  UNL     1       9.065   7.710  13.305  1.00  0.00    -0.274 OA
HETATM   33  N1  UNL     1       7.927   7.694  15.302  1.00  0.00    -0.361 N 
HETATM   34  H34 UNL     1       7.017   7.707  15.744  1.00  0.00     0.162 HD
BRANCH  33  35
HETATM   35  C26 UNL     1       9.097   7.918  16.129  1.00  0.00     0.122 C 
BRANCH  35  36
HETATM   36  C27 UNL     1       9.361   9.412  16.298  1.00  0.00     0.020 C 
BRANCH  36  37
HETATM   37  C28 UNL     1       8.101  10.221  16.616  1.00  0.00     0.002 C 
BRANCH  37  38
HETATM   38  C29 UNL     1       8.361  11.354  17.615  1.00  0.00     0.009 C 
BRANCH  38  39
HETATM   39  C30 UNL     1       7.837  11.038  19.015  1.00  0.00     0.103 C 
BRANCH  39  40
HETATM   40  C31 UNL     1       8.028  12.173  20.006  1.00  0.00     0.218 C 
HETATM   41  O7  UNL     1       8.835  13.083  19.865  1.00  0.00    -0.274 OA
HETATM   42  N2  UNL     1       7.185  12.075  21.096  1.00  0.00    -0.346 N 
HETATM   43  H45 UNL     1       6.845  11.144  21.311  1.00  0.00     0.163 HD
BRANCH  42  44
HETATM   44  C32 UNL     1       7.362  12.972  22.247  1.00  0.00     0.186 C 
BRANCH  44  45
HETATM   45  C33 UNL     1       6.066  13.043  23.063  1.00  0.00     0.074 C 
BRANCH  45  46
HETATM   46  C34 UNL     1       5.040  12.009  22.667  1.00  0.00    -0.056 A 
HETATM   47  C35 UNL     1       3.979  12.350  21.816  1.00  0.00     0.007 A 
HETATM   48  C36 UNL     1       3.025  11.397  21.460  1.00  0.00     0.001 A 
HETATM   49  C37 UNL     1       3.119  10.096  21.951  1.00  0.00     0.000 A 
HETATM   50  C38 UNL     1       4.168   9.748  22.798  1.00  0.00     0.001 A 
HETATM   51  C39 UNL     1       5.125  10.698  23.156  1.00  0.00     0.007 A 
ENDBRANCH  45  46
ENDBRANCH  44  45
BRANCH  44  52
HETATM   52  C40 UNL     1       8.484  12.384  23.099  1.00  0.00     0.163 C 
HETATM   53  O8  UNL     1       8.769  11.195  23.177  1.00  0.00    -0.648 OA
BRANCH  52  54
HETATM   54  O9  UNL     1       9.167  13.302  23.806  1.00  0.00    -0.775 OA
HETATM   55  H54 UNL     1       9.853  12.793  24.286  1.00  0.00     0.167 HD
ENDBRANCH  52  54
ENDBRANCH  44  52
ENDBRANCH  42  44
ENDBRANCH  39  40
ENDBRANCH  38  39
ENDBRANCH  37  38
ENDBRANCH  36  37
ENDBRANCH  35  36
ENDBRANCH  33  35
ENDBRANCH  30  31
ENDBRANCH  29  30
ENDBRANCH   1  29
TORSDOF 19
ENDMDL
MODEL 4
REMARK minimizedAffinity -7.61976433
REMARK CNNscore 0.374290109
REMARK CNNaffinity 6.33732224
REMARK  19 active torsions:
REMARK  status: ('A' for Active; 'I' for Inactive)
REMARK    1  A    between atoms: C19_20  and  O2_21 
REMARK    2  A    between atoms: C19_20  and  C20_22 
REMARK    3  A    between atoms: C20_22  and  C21_24 
REMARK    4  A    between atoms: C21_24  and  O4_25 
REMARK    5  A    between atoms: O4_25  and  C22_26 
REMARK    6  A    between atoms: C22_26  and  C23_28 
REMARK    7  A    between atoms: C23_28  and  C24_29 
REMARK    8  A    between atoms: C24_29  and  C25_30 
REMARK       I    between atoms: C25_30  and  N1_32 
REMARK    9  A    between atoms: N1_32  and  C26_33 
REMARK   10  A    between atoms: C26_33  and  C27_34 
REMARK   11  A    between atoms: C27_34  and  C28_35 
REMARK   12  A    between atoms: C28_35  and  C29_36 
REMARK   13  A    between atoms: C29_36  and  C30_37 
REMARK   14  A    between atoms: C30_37  and  C31_38 
REMARK       I    between atoms: C31_38  and  N2_40 
REMARK   15  A    between atoms: N2_40  and  C32_41 
REMARK   16  A    between atoms: C32_41  and  C33_42 
REMARK   17  A    between atoms: C32_41  and  C40_49 
REMARK   18  A    between atoms: C33_42  and  C34_43 
REMARK   19  A    between atoms: C40_49  and  O9_51 
ROOT
HETATM    1  C22 UNL     1      -8.022   5.596  12.901  1.00  0.00     0.259 C 
HETATM    2  O5  UNL     1      -7.709   4.469  12.537  1.00  0.00    -0.265 OA
ENDROOT
BRANCH   1   3
HETATM    3  O4  UNL     1      -7.222   6.415  13.630  1.00  0.00    -0.314 OA
BRANCH   3   4
HETATM    4  C21 UNL     1      -5.874   5.964  13.747  1.00  0.00     0.260 C 
BRANCH   4   5
HETATM    5  C20 UNL     1      -4.915   7.148  13.761  1.00  0.00     0.185 C 
HETATM    6  O3  UNL     1      -5.117   8.146  13.064  1.00  0.00    -0.292 OA
BRANCH   5   7
HETATM    7  C19 UNL     1      -3.707   7.044  14.728  1.00  0.00     0.128 C 
HETATM    8  C14 UNL     1      -3.045   8.419  15.084  1.00  0.00    -0.002 C 
HETATM    9  C13 UNL     1      -3.686   9.243  16.217  1.00  0.00     0.013 C 
HETATM   10  C15 UNL     1      -2.938   9.305  13.812  1.00  0.00     0.019 C 
HETATM   11  C16 UNL     1      -1.672   7.930  15.603  1.00  0.00     0.002 C 
HETATM   12  C12 UNL     1      -2.789  10.410  16.668  1.00  0.00     0.007 C 
HETATM   13  C11 UNL     1      -1.358   9.964  17.061  1.00  0.00     0.002 C 
HETATM   14  C2  UNL     1      -0.424  11.150  17.521  1.00  0.00    -0.016 C 
HETATM   15  C10 UNL     1      -0.709   9.072  15.958  1.00  0.00    -0.004 C 
HETATM   16  C1  UNL     1      -0.295  12.241  16.434  1.00  0.00     0.020 C 
HETATM   17  C3  UNL     1      -1.038  11.785  18.804  1.00  0.00     0.022 C 
HETATM   18  C7  UNL     1       0.979  10.613  17.829  1.00  0.00    -0.068 C 
HETATM   19  C4  UNL     1      -0.084  12.697  19.560  1.00  0.00     0.084 C 
HETATM   20  C5  UNL     1       1.201  11.981  19.876  1.00  0.00     0.149 C 
HETATM   21  O1  UNL     1       1.893  12.274  20.849  1.00  0.00    -0.293 OA
HETATM   22  C6  UNL     1       1.686  10.960  18.918  1.00  0.00     0.053 C 
HETATM   23  C8  UNL     1       1.586   9.671  16.817  1.00  0.00     0.035 C 
HETATM   24  C9  UNL     1       0.642   8.534  16.447  1.00  0.00     0.010 C 
HETATM   25  C17 UNL     1      -1.229   6.918  14.551  1.00  0.00     0.009 C 
HETATM   26  C18 UNL     1      -2.535   6.248  14.081  1.00  0.00     0.047 C 
BRANCH   7  27
HETATM   27  O2  UNL     1      -4.061   6.307  15.902  1.00  0.00    -0.381 OA
HETATM   28  H27 UNL     1      -4.634   6.839  16.476  1.00  0.00     0.211 HD
ENDBRANCH   7  27
ENDBRANCH   5   7
ENDBRANCH   4   5
ENDBRANCH   3   4
ENDBRANCH   1   3
BRANCH   1  29
HETATM   29  C23 UNL     1      -9.392   6.198  12.688  1.00  0.00     0.120 C 
BRANCH  29  30
HETATM   30  C24 UNL     1     -10.072   6.653  13.975  1.00  0.00     0.112 C 
BRANCH  30  31
HETATM   31  C25 UNL     1     -11.543   6.946  13.765  1.00  0.00     0.217 C 
HETATM   32  O6  UNL     1     -11.987   7.442  12.735  1.00  0.00    -0.274 OA
HETATM   33  N1  UNL     1     -12.327   6.581  14.838  1.00  0.00    -0.361 N 
HETATM   34  H34 UNL     1     -11.900   6.117  15.629  1.00  0.00     0.162 HD
BRANCH  33  35
HETATM   35  C26 UNL     1     -13.774   6.664  14.788  1.00  0.00     0.122 C 
BRANCH  35  36
HETATM   36  C27 UNL     1     -14.381   5.309  14.433  1.00  0.00     0.020 C 
BRANCH  36  37
HETATM   37  C28 UNL     1     -15.695   5.021  15.160  1.00  0.00     0.002 C 
BRANCH  37  38
HETATM   38  C29 UNL     1     -16.136   3.558  15.031  1.00  0.00     0.009 C 
BRANCH  38  39
HETATM   39  C30 UNL     1     -14.963   2.606  14.800  1.00  0.00     0.103 C 
BRANCH  39  40
HETATM   40  C31 UNL     1     -15.125   1.264  15.492  1.00  0.00     0.218 C 
HETATM   41  O7  UNL     1     -14.243   0.708  16.135  1.00  0.00    -0.274 OA
HETATM   42  N2  UNL     1     -16.387   0.727  15.325  1.00  0.00    -0.346 N 
HETATM   43  H45 UNL     1     -16.898   1.045  14.508  1.00  0.00     0.163 HD
BRANCH  42  44
HETATM   44  C32 UNL     1     -16.665  -0.649  15.756  1.00  0.00     0.186 C 
BRANCH  44  45
HETATM   45  C33 UNL     1     -15.402  -1.509  15.622  1.00  0.00     0.074 C 
BRANCH  45  46
HETATM   46  C34 UNL     1     -15.578  -2.712  14.729  1.00  0.00    -0.056 A 
HETATM   47  C35 UNL     1     -15.987  -3.942  15.266  1.00  0.00     0.007 A 
HETATM   48  C36 UNL     1     -16.137  -5.057  14.441  1.00  0.00     0.001 A 
HETATM   49  C37 UNL     1     -15.879  -4.957  13.075  1.00  0.00     0.000 A 
HETATM   50  C38 UNL     1     -15.471  -3.740  12.533  1.00  0.00     0.001 A 
HETATM   51  C39 UNL     1     -15.320  -2.622  13.354  1.00  0.00     0.007 A 
ENDBRANCH  45  46
ENDBRANCH  44  45
BRANCH  44  52
HETATM   52  C40 UNL     1     -17.093  -0.577  17.220  1.00  0.00     0.163 C 
HETATM   53  O8  UNL     1     -18.246  -0.468  17.620  1.00  0.00    -0.648 OA
BRANCH  52  54
HETATM   54  O9  UNL     1     -16.068  -0.631  18.089  1.00  0.00    -0.775 OA
HETATM   55  H54 UNL     1     -16.484  -0.589  18.975  1.00  0.00     0.167 HD
ENDBRANCH  52  54
ENDBRANCH  44  52
ENDBRANCH  42  44
ENDBRANCH  39  40
ENDBRANCH  38  39
ENDBRANCH  37  38
ENDBRANCH  36  37
ENDBRANCH  35  36
ENDBRANCH  33  35
ENDBRANCH  30  31
ENDBRANCH  29  30
ENDBRANCH   1  29
TORSDOF 19
ENDMDL
MODEL 5
REMARK minimizedAffinity -8.37760735
REMARK CNNscore 0.326497674
REMARK CNNaffinity 7.18739653
REMARK  19 active torsions:
REMARK  status: ('A' for Active; 'I' for Inactive)
REMARK    1  A    between atoms: C19_20  and  O2_21 
REMARK    2  A    between atoms: C19_20  and  C20_22 
REMARK    3  A    between atoms: C20_22  and  C21_24 
REMARK    4  A    between atoms: C21_24  and  O4_25 
REMARK    5  A    between atoms: O4_25  and  C22_26 
REMARK    6  A    between atoms: C22_26  and  C23_28 
REMARK    7  A    between atoms: C23_28  and  C24_29 
REMARK    8  A    between atoms: C24_29  and  C25_30 
REMARK       I    between atoms: C25_30  and  N1_32 
REMARK    9  A    between atoms: N1_32  and  C26_33 
REMARK   10  A    between atoms: C26_33  and  C27_34 
REMARK   11  A    between atoms: C27_34  and  C28_35 
REMARK   12  A    between atoms: C28_35  and  C29_36 
REMARK   13  A    between atoms: C29_36  and  C30_37 
REMARK   14  A    between atoms: C30_37  and  C31_38 
REMARK       I    between atoms: C31_38  and  N2_40 
REMARK   15  A    between atoms: N2_40  and  C32_41 
REMARK   16  A    between atoms: C32_41  and  C33_42 
REMARK   17  A    between atoms: C32_41  and  C40_49 
REMARK   18  A    between atoms: C33_42  and  C34_43 
REMARK   19  A    between atoms: C40_49  and  O9_51 
ROOT
HETATM    1  C22 UNL     1      -3.205   5.329  14.213  1.00  0.00     0.259 C 
HETATM    2  O5  UNL     1      -4.193   5.535  14.908  1.00  0.00    -0.265 OA
ENDROOT
BRANCH   1   3
HETATM    3  O4  UNL     1      -1.945   5.715  14.539  1.00  0.00    -0.314 OA
BRANCH   3   4
HETATM    4  C21 UNL     1      -1.882   6.910  15.316  1.00  0.00     0.260 C 
BRANCH   4   5
HETATM    5  C20 UNL     1      -1.553   8.105  14.431  1.00  0.00     0.185 C 
HETATM    6  O3  UNL     1      -1.320   9.217  14.912  1.00  0.00    -0.292 OA
BRANCH   5   7
HETATM    7  C19 UNL     1      -1.484   7.833  12.905  1.00  0.00     0.128 C 
HETATM    8  C14 UNL     1      -0.064   7.422  12.386  1.00  0.00    -0.002 C 
HETATM    9  C13 UNL     1       0.337   5.941  12.515  1.00  0.00     0.013 C 
HETATM   10  C15 UNL     1       1.026   8.301  13.061  1.00  0.00     0.019 C 
HETATM   11  C16 UNL     1      -0.234   7.716  10.877  1.00  0.00     0.002 C 
HETATM   12  C12 UNL     1       1.610   5.611  11.713  1.00  0.00     0.007 C 
HETATM   13  C11 UNL     1       1.519   6.023  10.223  1.00  0.00     0.002 C 
HETATM   14  C2  UNL     1       2.818   5.697   9.390  1.00  0.00    -0.016 C 
HETATM   15  C10 UNL     1       1.051   7.503  10.064  1.00  0.00    -0.004 C 
HETATM   16  C1  UNL     1       4.075   6.368   9.988  1.00  0.00     0.020 C 
HETATM   17  C3  UNL     1       3.022   4.152   9.390  1.00  0.00     0.022 C 
HETATM   18  C7  UNL     1       2.649   6.196   7.950  1.00  0.00    -0.068 C 
HETATM   19  C4  UNL     1       4.017   3.660   8.350  1.00  0.00     0.084 C 
HETATM   20  C5  UNL     1       3.643   4.152   6.979  1.00  0.00     0.149 C 
HETATM   21  O1  UNL     1       3.942   3.538   5.957  1.00  0.00    -0.293 OA
HETATM   22  C6  UNL     1       2.982   5.474   6.867  1.00  0.00     0.053 C 
HETATM   23  C8  UNL     1       2.106   7.594   7.773  1.00  0.00     0.035 C 
HETATM   24  C9  UNL     1       0.834   7.826   8.579  1.00  0.00     0.010 C 
HETATM   25  C17 UNL     1      -0.881   9.096  10.849  1.00  0.00     0.009 C 
HETATM   26  C18 UNL     1      -1.795   9.122  12.089  1.00  0.00     0.047 C 
BRANCH   7  27
HETATM   27  O2  UNL     1      -2.485   6.888  12.514  1.00  0.00    -0.381 OA
HETATM   28  H27 UNL     1      -2.242   5.996  12.811  1.00  0.00     0.211 HD
ENDBRANCH   7  27
ENDBRANCH   5   7
ENDBRANCH   4   5
ENDBRANCH   3   4
ENDBRANCH   1   3
BRANCH   1  29
HETATM   29  C23 UNL     1      -3.260   4.712  12.834  1.00  0.00     0.120 C 
BRANCH  29  30
HETATM   30  C24 UNL     1      -3.655   3.239  12.835  1.00  0.00     0.112 C 
BRANCH  30  31
HETATM   31  C25 UNL     1      -5.018   3.018  12.210  1.00  0.00     0.217 C 
HETATM   32  O6  UNL     1      -5.222   2.198  11.322  1.00  0.00    -0.274 OA
HETATM   33  N1  UNL     1      -6.000   3.817  12.755  1.00  0.00    -0.361 N 
HETATM   34  H34 UNL     1      -5.771   4.425  13.531  1.00  0.00     0.162 HD
BRANCH  33  35
HETATM   35  C26 UNL     1      -7.394   3.673  12.382  1.00  0.00     0.122 C 
BRANCH  35  36
HETATM   36  C27 UNL     1      -8.252   4.724  13.081  1.00  0.00     0.020 C 
BRANCH  36  37
HETATM   37  C28 UNL     1      -7.473   5.980  13.478  1.00  0.00     0.002 C 
BRANCH  37  38
HETATM   38  C29 UNL     1      -8.368   7.064  14.091  1.00  0.00     0.009 C 
BRANCH  38  39
HETATM   39  C30 UNL     1      -9.614   6.489  14.764  1.00  0.00     0.103 C 
BRANCH  39  40
HETATM   40  C31 UNL     1     -10.914   6.929  14.112  1.00  0.00     0.218 C 
HETATM   41  O7  UNL     1     -10.996   7.393  12.982  1.00  0.00    -0.274 OA
HETATM   42  N2  UNL     1     -12.010   6.745  14.933  1.00  0.00    -0.346 N 
HETATM   43  H45 UNL     1     -11.817   6.721  15.928  1.00  0.00     0.163 HD
BRANCH  42  44
HETATM   44  C32 UNL     1     -13.319   7.291  14.548  1.00  0.00     0.186 C 
BRANCH  44  45
HETATM   45  C33 UNL     1     -14.432   6.603  15.347  1.00  0.00     0.074 C 
BRANCH  45  46
HETATM   46  C34 UNL     1     -15.456   5.905  14.488  1.00  0.00    -0.056 A 
HETATM   47  C35 UNL     1     -15.789   4.564  14.727  1.00  0.00     0.007 A 
HETATM   48  C36 UNL     1     -16.727   3.915  13.923  1.00  0.00     0.001 A 
HETATM   49  C37 UNL     1     -17.341   4.597  12.875  1.00  0.00     0.000 A 
HETATM   50  C38 UNL     1     -17.017   5.929  12.628  1.00  0.00     0.001 A 
HETATM   51  C39 UNL     1     -16.079   6.582  13.430  1.00  0.00     0.007 A 
ENDBRANCH  45  46
ENDBRANCH  44  45
BRANCH  44  52
HETATM   52  C40 UNL     1     -13.289   8.783  14.871  1.00  0.00     0.163 C 
HETATM   53  O8  UNL     1     -12.693   9.296  15.810  1.00  0.00    -0.648 OA
BRANCH  52  54
HETATM   54  O9  UNL     1     -14.009   9.537  14.020  1.00  0.00    -0.775 OA
HETATM   55  H54 UNL     1     -13.889  10.457  14.334  1.00  0.00     0.167 HD
ENDBRANCH  52  54
ENDBRANCH  44  52
ENDBRANCH  42  44
ENDBRANCH  39  40
ENDBRANCH  38  39
ENDBRANCH  37  38
ENDBRANCH  36  37
ENDBRANCH  35  36
ENDBRANCH  33  35
ENDBRANCH  30  31
ENDBRANCH  29  30
ENDBRANCH   1  29
TORSDOF 19
ENDMDL
MODEL 6
REMARK minimizedAffinity -8.0845499
REMARK CNNscore 0.266584933
REMARK CNNaffinity 6.77956247
REMARK  19 active torsions:
REMARK  status: ('A' for Active; 'I' for Inactive)
REMARK    1  A    between atoms: C19_20  and  O2_21 
REMARK    2  A    between atoms: C19_20  and  C20_22 
REMARK    3  A    between atoms: C20_22  and  C21_24 
REMARK    4  A    between atoms: C21_24  and  O4_25 
REMARK    5  A    between atoms: O4_25  and  C22_26 
REMARK    6  A    between atoms: C22_26  and  C23_28 
REMARK    7  A    between atoms: C23_28  and  C24_29 
REMARK    8  A    between atoms: C24_29  and  C25_30 
REMARK       I    between atoms: C25_30  and  N1_32 
REMARK    9  A    between atoms: N1_32  and  C26_33 
REMARK   10  A    between atoms: C26_33  and  C27_34 
REMARK   11  A    between atoms: C27_34  and  C28_35 
REMARK   12  A    between atoms: C28_35  and  C29_36 
REMARK   13  A    between atoms: C29_36  and  C30_37 
REMARK   14  A    between atoms: C30_37  and  C31_38 
REMARK       I    between atoms: C31_38  and  N2_40 
REMARK   15  A    between atoms: N2_40  and  C32_41 
REMARK   16  A    between atoms: C32_41  and  C33_42 
REMARK   17  A    between atoms: C32_41  and  C40_49 
REMARK   18  A    between atoms: C33_42  and  C34_43 
REMARK   19  A    between atoms: C40_49  and  O9_51 
ROOT
HETATM    1  C22 UNL     1      -6.374   3.393  12.485  1.00  0.00     0.259 C 
HETATM    2  O5  UNL     1      -7.130   2.465  12.742  1.00  0.00    -0.265 OA
ENDROOT
BRANCH   1   3
HETATM    3  O4  UNL     1      -5.058   3.249  12.187  1.00  0.00    -0.314 OA
BRANCH   3   4
HETATM    4  C21 UNL     1      -4.191   4.098  12.938  1.00  0.00     0.260 C 
BRANCH   4   5
HETATM    5  C20 UNL     1      -2.974   4.486  12.108  1.00  0.00     0.185 C 
HETATM    6  O3  UNL     1      -2.723   3.928  11.036  1.00  0.00    -0.292 OA
BRANCH   5   7
HETATM    7  C19 UNL     1      -2.104   5.645  12.662  1.00  0.00     0.128 C 
HETATM    8  C14 UNL     1      -0.632   5.660  12.126  1.00  0.00    -0.002 C 
HETATM    9  C13 UNL     1      -0.381   6.327  10.761  1.00  0.00     0.013 C 
HETATM   10  C15 UNL     1      -0.060   4.215  12.096  1.00  0.00     0.019 C 
HETATM   11  C16 UNL     1       0.034   6.556  13.197  1.00  0.00     0.002 C 
HETATM   12  C12 UNL     1       1.119   6.542  10.485  1.00  0.00     0.007 C 
HETATM   13  C11 UNL     1       1.843   7.319  11.613  1.00  0.00     0.002 C 
HETATM   14  C2  UNL     1       3.382   7.541  11.346  1.00  0.00    -0.016 C 
HETATM   15  C10 UNL     1       1.552   6.701  13.015  1.00  0.00    -0.004 C 
HETATM   16  C1  UNL     1       4.134   6.207  11.136  1.00  0.00     0.020 C 
HETATM   17  C3  UNL     1       3.534   8.415  10.065  1.00  0.00     0.022 C 
HETATM   18  C7  UNL     1       4.015   8.264  12.542  1.00  0.00    -0.068 C 
HETATM   19  C4  UNL     1       4.924   9.004   9.880  1.00  0.00     0.084 C 
HETATM   20  C5  UNL     1       5.347   9.768  11.104  1.00  0.00     0.149 C 
HETATM   21  O1  UNL     1       6.138  10.709  11.051  1.00  0.00    -0.293 OA
HETATM   22  C6  UNL     1       4.865   9.297  12.424  1.00  0.00     0.053 C 
HETATM   23  C8  UNL     1       3.668   7.739  13.916  1.00  0.00     0.035 C 
HETATM   24  C9  UNL     1       2.165   7.582  14.112  1.00  0.00     0.010 C 
HETATM   25  C17 UNL     1      -0.480   5.986  14.514  1.00  0.00     0.009 C 
HETATM   26  C18 UNL     1      -1.915   5.519  14.203  1.00  0.00     0.047 C 
BRANCH   7  27
HETATM   27  O2  UNL     1      -2.754   6.904  12.463  1.00  0.00    -0.381 OA
HETATM   28  H27 UNL     1      -2.718   7.159  11.527  1.00  0.00     0.211 HD
ENDBRANCH   7  27
ENDBRANCH   5   7
ENDBRANCH   4   5
ENDBRANCH   3   4
ENDBRANCH   1   3
BRANCH   1  29
HETATM   29  C23 UNL     1      -6.772   4.849  12.569  1.00  0.00     0.120 C 
BRANCH  29  30
HETATM   30  C24 UNL     1      -8.159   5.075  13.162  1.00  0.00     0.112 C 
BRANCH  30  31
HETATM   31  C25 UNL     1      -8.111   5.947  14.399  1.00  0.00     0.217 C 
HETATM   32  O6  UNL     1      -7.111   6.061  15.100  1.00  0.00    -0.274 OA
HETATM   33  N1  UNL     1      -9.296   6.610  14.641  1.00  0.00    -0.361 N 
HETATM   34  H34 UNL     1     -10.058   6.518  13.984  1.00  0.00     0.162 HD
BRANCH  33  35
HETATM   35  C26 UNL     1      -9.418   7.587  15.705  1.00  0.00     0.122 C 
BRANCH  35  36
HETATM   36  C27 UNL     1      -9.872   8.935  15.150  1.00  0.00     0.020 C 
BRANCH  36  37
HETATM   37  C28 UNL     1     -11.189   9.429  15.752  1.00  0.00     0.002 C 
BRANCH  37  38
HETATM   38  C29 UNL     1     -12.060  10.181  14.739  1.00  0.00     0.009 C 
BRANCH  38  39
HETATM   39  C30 UNL     1     -11.969   9.593  13.331  1.00  0.00     0.103 C 
BRANCH  39  40
HETATM   40  C31 UNL     1     -12.722   8.283  13.171  1.00  0.00     0.218 C 
HETATM   41  O7  UNL     1     -12.186   7.195  13.001  1.00  0.00    -0.274 OA
HETATM   42  N2  UNL     1     -14.092   8.445  13.243  1.00  0.00    -0.346 N 
HETATM   43  H45 UNL     1     -14.441   9.369  13.011  1.00  0.00     0.163 HD
BRANCH  42  44
HETATM   44  C32 UNL     1     -14.984   7.324  12.916  1.00  0.00     0.186 C 
BRANCH  44  45
HETATM   45  C33 UNL     1     -15.835   6.956  14.137  1.00  0.00     0.074 C 
BRANCH  45  46
HETATM   46  C34 UNL     1     -16.102   5.477  14.269  1.00  0.00    -0.056 A 
HETATM   47  C35 UNL     1     -17.383   4.961  14.024  1.00  0.00     0.007 A 
HETATM   48  C36 UNL     1     -17.632   3.595  14.158  1.00  0.00     0.001 A 
HETATM   49  C37 UNL     1     -16.606   2.732  14.539  1.00  0.00     0.000 A 
HETATM   50  C38 UNL     1     -15.331   3.234  14.786  1.00  0.00     0.001 A 
HETATM   51  C39 UNL     1     -15.078   4.600  14.653  1.00  0.00     0.007 A 
ENDBRANCH  45  46
ENDBRANCH  44  45
BRANCH  44  52
HETATM   52  C40 UNL     1     -15.884   7.792  11.775  1.00  0.00     0.163 C 
HETATM   53  O8  UNL     1     -15.666   8.751  11.044  1.00  0.00    -0.648 OA
BRANCH  52  54
HETATM   54  O9  UNL     1     -16.997   7.052  11.623  1.00  0.00    -0.775 OA
HETATM   55  H54 UNL     1     -17.464   7.450  10.859  1.00  0.00     0.167 HD
ENDBRANCH  52  54
ENDBRANCH  44  52
ENDBRANCH  42  44
ENDBRANCH  39  40
ENDBRANCH  38  39
ENDBRANCH  37  38
ENDBRANCH  36  37
ENDBRANCH  35  36
ENDBRANCH  33  35
ENDBRANCH  30  31
ENDBRANCH  29  30
ENDBRANCH   1  29
TORSDOF 19
ENDMDL
MODEL 7
REMARK minimizedAffinity -8.46788883
REMARK CNNscore 0.260111272
REMARK CNNaffinity 6.04855967
REMARK  19 active torsions:
REMARK  status: ('A' for Active; 'I' for Inactive)
REMARK    1  A    between atoms: C19_20  and  O2_21 
REMARK    2  A    between atoms: C19_20  and  C20_22 
REMARK    3  A    between atoms: C20_22  and  C21_24 
REMARK    4  A    between atoms: C21_24  and  O4_25 
REMARK    5  A    between atoms: O4_25  and  C22_26 
REMARK    6  A    between atoms: C22_26  and  C23_28 
REMARK    7  A    between atoms: C23_28  and  C24_29 
REMARK    8  A    between atoms: C24_29  and  C25_30 
REMARK       I    between atoms: C25_30  and  N1_32 
REMARK    9  A    between atoms: N1_32  and  C26_33 
REMARK   10  A    between atoms: C26_33  and  C27_34 
REMARK   11  A    between atoms: C27_34  and  C28_35 
REMARK   12  A    between atoms: C28_35  and  C29_36 
REMARK   13  A    between atoms: C29_36  and  C30_37 
REMARK   14  A    between atoms: C30_37  and  C31_38 
REMARK       I    between atoms: C31_38  and  N2_40 
REMARK   15  A    between atoms: N2_40  and  C32_41 
REMARK   16  A    between atoms: C32_41  and  C33_42 
REMARK   17  A    between atoms: C32_41  and  C40_49 
REMARK   18  A    between atoms: C33_42  and  C34_43 
REMARK   19  A    between atoms: C40_49  and  O9_51 
ROOT
HETATM    1  C22 UNL     1     -15.657   5.796  13.761  1.00  0.00     0.259 C 
HETATM    2  O5  UNL     1     -15.893   6.614  12.880  1.00  0.00    -0.265 OA
ENDROOT
BRANCH   1   3
HETATM    3  O4  UNL     1     -16.593   5.000  14.338  1.00  0.00    -0.314 OA
BRANCH   3   4
HETATM    4  C21 UNL     1     -16.059   4.002  15.206  1.00  0.00     0.260 C 
BRANCH   4   5
HETATM    5  C20 UNL     1     -16.650   2.637  14.876  1.00  0.00     0.185 C 
HETATM    6  O3  UNL     1     -17.795   2.524  14.430  1.00  0.00    -0.292 OA
BRANCH   5   7
HETATM    7  C19 UNL     1     -15.720   1.414  15.089  1.00  0.00     0.128 C 
HETATM    8  C14 UNL     1     -16.097   0.159  14.231  1.00  0.00    -0.002 C 
HETATM    9  C13 UNL     1     -15.580   0.109  12.781  1.00  0.00     0.013 C 
HETATM   10  C15 UNL     1     -17.639  -0.039  14.224  1.00  0.00     0.019 C 
HETATM   11  C16 UNL     1     -15.345  -0.940  15.018  1.00  0.00     0.002 C 
HETATM   12  C12 UNL     1     -15.759  -1.283  12.147  1.00  0.00     0.007 C 
HETATM   13  C11 UNL     1     -15.134  -2.424  12.988  1.00  0.00     0.002 C 
HETATM   14  C2  UNL     1     -15.315  -3.857  12.354  1.00  0.00    -0.016 C 
HETATM   15  C10 UNL     1     -15.592  -2.356  14.478  1.00  0.00    -0.004 C 
HETATM   16  C1  UNL     1     -16.802  -4.205  12.120  1.00  0.00     0.020 C 
HETATM   17  C3  UNL     1     -14.569  -3.882  10.986  1.00  0.00     0.022 C 
HETATM   18  C7  UNL     1     -14.716  -4.915  13.289  1.00  0.00    -0.068 C 
HETATM   19  C4  UNL     1     -14.354  -5.279  10.425  1.00  0.00     0.084 C 
HETATM   20  C5  UNL     1     -13.661  -6.158  11.430  1.00  0.00     0.149 C 
HETATM   21  O1  UNL     1     -12.951  -7.105  11.097  1.00  0.00    -0.293 OA
HETATM   22  C6  UNL     1     -13.934  -5.924  12.868  1.00  0.00     0.053 C 
HETATM   23  C8  UNL     1     -15.072  -4.810  14.753  1.00  0.00     0.035 C 
HETATM   24  C9  UNL     1     -14.840  -3.409  15.304  1.00  0.00     0.010 C 
HETATM   25  C17 UNL     1     -15.705  -0.653  16.471  1.00  0.00     0.009 C 
HETATM   26  C18 UNL     1     -15.815   0.882  16.549  1.00  0.00     0.047 C 
BRANCH   7  27
HETATM   27  O2  UNL     1     -14.349   1.786  14.911  1.00  0.00    -0.381 OA
HETATM   28  H27 UNL     1     -14.156   1.926  13.970  1.00  0.00     0.211 HD
ENDBRANCH   7  27
ENDBRANCH   5   7
ENDBRANCH   4   5
ENDBRANCH   3   4
ENDBRANCH   1   3
BRANCH   1  29
HETATM   29  C23 UNL     1     -14.304   5.630  14.414  1.00  0.00     0.120 C 
BRANCH  29  30
HETATM   30  C24 UNL     1     -13.608   6.950  14.731  1.00  0.00     0.112 C 
BRANCH  30  31
HETATM   31  C25 UNL     1     -12.242   7.040  14.081  1.00  0.00     0.217 C 
HETATM   32  O6  UNL     1     -12.081   7.317  12.897  1.00  0.00    -0.274 OA
HETATM   33  N1  UNL     1     -11.207   6.799  14.959  1.00  0.00    -0.361 N 
HETATM   34  H34 UNL     1     -11.413   6.640  15.936  1.00  0.00     0.162 HD
BRANCH  33  35
HETATM   35  C26 UNL     1      -9.821   6.956  14.565  1.00  0.00     0.122 C 
BRANCH  35  36
HETATM   36  C27 UNL     1      -8.889   6.661  15.737  1.00  0.00     0.020 C 
BRANCH  36  37
HETATM   37  C28 UNL     1      -7.737   7.660  15.865  1.00  0.00     0.002 C 
BRANCH  37  38
HETATM   38  C29 UNL     1      -6.364   6.978  15.912  1.00  0.00     0.009 C 
BRANCH  38  39
HETATM   39  C30 UNL     1      -5.275   7.795  15.217  1.00  0.00     0.103 C 
BRANCH  39  40
HETATM   40  C31 UNL     1      -4.523   7.020  14.149  1.00  0.00     0.218 C 
HETATM   41  O7  UNL     1      -4.411   7.382  12.984  1.00  0.00    -0.274 OA
HETATM   42  N2  UNL     1      -3.968   5.851  14.632  1.00  0.00    -0.346 N 
HETATM   43  H45 UNL     1      -4.409   5.459  15.456  1.00  0.00     0.163 HD
BRANCH  42  44
HETATM   44  C32 UNL     1      -3.373   4.880  13.703  1.00  0.00     0.186 C 
BRANCH  44  45
HETATM   45  C33 UNL     1      -4.192   4.820  12.408  1.00  0.00     0.074 C 
BRANCH  45  46
HETATM   46  C34 UNL     1      -5.316   3.814  12.446  1.00  0.00    -0.056 A 
HETATM   47  C35 UNL     1      -5.259   2.656  11.657  1.00  0.00     0.007 A 
HETATM   48  C36 UNL     1      -6.305   1.732  11.683  1.00  0.00     0.001 A 
HETATM   49  C37 UNL     1      -7.415   1.955  12.494  1.00  0.00     0.000 A 
HETATM   50  C38 UNL     1      -7.481   3.103  13.281  1.00  0.00     0.001 A 
HETATM   51  C39 UNL     1      -6.438   4.029  13.258  1.00  0.00     0.007 A 
ENDBRANCH  45  46
ENDBRANCH  44  45
BRANCH  44  52
HETATM   52  C40 UNL     1      -1.956   5.365  13.402  1.00  0.00     0.163 C 
HETATM   53  O8  UNL     1      -1.349   6.222  14.032  1.00  0.00    -0.648 OA
BRANCH  52  54
HETATM   54  O9  UNL     1      -1.393   4.767  12.336  1.00  0.00    -0.775 OA
HETATM   55  H54 UNL     1      -0.497   5.158  12.271  1.00  0.00     0.167 HD
ENDBRANCH  52  54
ENDBRANCH  44  52
ENDBRANCH  42  44
ENDBRANCH  39  40
ENDBRANCH  38  39
ENDBRANCH  37  38
ENDBRANCH  36  37
ENDBRANCH  35  36
ENDBRANCH  33  35
ENDBRANCH  30  31
ENDBRANCH  29  30
ENDBRANCH   1  29
TORSDOF 19
ENDMDL
MODEL 8
REMARK minimizedAffinity -7.83351851
REMARK CNNscore 0.255963534
REMARK CNNaffinity 6.92626715
REMARK  19 active torsions:
REMARK  status: ('A' for Active; 'I' for Inactive)
REMARK    1  A    between atoms: C19_20  and  O2_21 
REMARK    2  A    between atoms: C19_20  and  C20_22 
REMARK    3  A    between atoms: C20_22  and  C21_24 
REMARK    4  A    between atoms: C21_24  and  O4_25 
REMARK    5  A    between atoms: O4_25  and  C22_26 
REMARK    6  A    between atoms: C22_26  and  C23_28 
REMARK    7  A    between atoms: C23_28  and  C24_29 
REMARK    8  A    between atoms: C24_29  and  C25_30 
REMARK       I    between atoms: C25_30  and  N1_32 
REMARK    9  A    between atoms: N1_32  and  C26_33 
REMARK   10  A    between atoms: C26_33  and  C27_34 
REMARK   11  A    between atoms: C27_34  and  C28_35 
REMARK   12  A    between atoms: C28_35  and  C29_36 
REMARK   13  A    between atoms: C29_36  and  C30_37 
REMARK   14  A    between atoms: C30_37  and  C31_38 
REMARK       I    between atoms: C31_38  and  N2_40 
REMARK   15  A    between atoms: N2_40  and  C32_41 
REMARK   16  A    between atoms: C32_41  and  C33_42 
REMARK   17  A    between atoms: C32_41  and  C40_49 
REMARK   18  A    between atoms: C33_42  and  C34_43 
REMARK   19  A    between atoms: C40_49  and  O9_51 
ROOT
HETATM    1  C22 UNL     1      -0.859   5.064  12.417  1.00  0.00     0.259 C 
HETATM    2  O5  UNL     1      -0.330   3.962  12.341  1.00  0.00    -0.265 OA
ENDROOT
BRANCH   1   3
HETATM    3  O4  UNL     1      -2.157   5.269  12.756  1.00  0.00    -0.314 OA
BRANCH   3   4
HETATM    4  C21 UNL     1      -2.474   4.918  14.102  1.00  0.00     0.260 C 
BRANCH   4   5
HETATM    5  C20 UNL     1      -3.453   5.921  14.698  1.00  0.00     0.185 C 
HETATM    6  O3  UNL     1      -3.204   6.514  15.751  1.00  0.00    -0.292 OA
BRANCH   5   7
HETATM    7  C19 UNL     1      -4.748   6.186  13.885  1.00  0.00     0.128 C 
HETATM    8  C14 UNL     1      -5.915   6.815  14.718  1.00  0.00    -0.002 C 
HETATM    9  C13 UNL     1      -5.906   8.343  14.912  1.00  0.00     0.013 C 
HETATM   10  C15 UNL     1      -6.007   6.130  16.111  1.00  0.00     0.019 C 
HETATM   11  C16 UNL     1      -7.113   6.483  13.796  1.00  0.00     0.002 C 
HETATM   12  C12 UNL     1      -7.238   8.866  15.481  1.00  0.00     0.007 C 
HETATM   13  C11 UNL     1      -8.471   8.429  14.651  1.00  0.00     0.002 C 
HETATM   14  C2  UNL     1      -9.844   8.953  15.225  1.00  0.00    -0.016 C 
HETATM   15  C10 UNL     1      -8.470   6.892  14.385  1.00  0.00    -0.004 C 
HETATM   16  C1  UNL     1     -10.074   8.499  16.685  1.00  0.00     0.020 C 
HETATM   17  C3  UNL     1      -9.831  10.510  15.177  1.00  0.00     0.022 C 
HETATM   18  C7  UNL     1     -11.000   8.419  14.370  1.00  0.00    -0.068 C 
HETATM   19  C4  UNL     1     -11.200  11.146  15.363  1.00  0.00     0.084 C 
HETATM   20  C5  UNL     1     -12.188  10.586  14.376  1.00  0.00     0.149 C 
HETATM   21  O1  UNL     1     -13.157  11.231  13.979  1.00  0.00    -0.293 OA
HETATM   22  C6  UNL     1     -12.030   9.174  13.954  1.00  0.00     0.053 C 
HETATM   23  C8  UNL     1     -10.967   6.949  14.021  1.00  0.00     0.035 C 
HETATM   24  C9  UNL     1      -9.623   6.524  13.442  1.00  0.00     0.010 C 
HETATM   25  C17 UNL     1      -6.897   5.016  13.440  1.00  0.00     0.009 C 
HETATM   26  C18 UNL     1      -5.366   4.855  13.364  1.00  0.00     0.047 C 
BRANCH   7  27
HETATM   27  O2  UNL     1      -4.460   6.953  12.712  1.00  0.00    -0.381 OA
HETATM   28  H27 UNL     1      -4.272   7.875  12.949  1.00  0.00     0.211 HD
ENDBRANCH   7  27
ENDBRANCH   5   7
ENDBRANCH   4   5
ENDBRANCH   3   4
ENDBRANCH   1   3
BRANCH   1  29
HETATM   29  C23 UNL     1      -0.171   6.354  12.035  1.00  0.00     0.120 C 
BRANCH  29  30
HETATM   30  C24 UNL     1       1.300   6.409  12.435  1.00  0.00     0.112 C 
BRANCH  30  31
HETATM   31  C25 UNL     1       2.203   6.644  11.241  1.00  0.00     0.217 C 
HETATM   32  O6  UNL     1       1.878   7.334  10.282  1.00  0.00    -0.274 OA
HETATM   33  N1  UNL     1       3.427   6.019  11.356  1.00  0.00    -0.361 N 
HETATM   34  H34 UNL     1       3.650   5.519  12.206  1.00  0.00     0.162 HD
BRANCH  33  35
HETATM   35  C26 UNL     1       4.479   6.219  10.379  1.00  0.00     0.122 C 
BRANCH  35  36
HETATM   36  C27 UNL     1       5.594   7.088  10.955  1.00  0.00     0.020 C 
BRANCH  36  37
HETATM   37  C28 UNL     1       5.259   8.581  10.967  1.00  0.00     0.002 C 
BRANCH  37  38
HETATM   38  C29 UNL     1       5.444   9.220  12.348  1.00  0.00     0.009 C 
BRANCH  38  39
HETATM   39  C30 UNL     1       6.674  10.125  12.420  1.00  0.00     0.103 C 
BRANCH  39  40
HETATM   40  C31 UNL     1       7.261  10.242  13.816  1.00  0.00     0.218 C 
HETATM   41  O7  UNL     1       6.952  11.109  14.624  1.00  0.00    -0.274 OA
HETATM   42  N2  UNL     1       8.188   9.255  14.087  1.00  0.00    -0.346 N 
HETATM   43  H45 UNL     1       8.641   8.839  13.280  1.00  0.00     0.163 HD
BRANCH  42  44
HETATM   44  C32 UNL     1       9.000   9.323  15.310  1.00  0.00     0.186 C 
BRANCH  44  45
HETATM   45  C33 UNL     1       9.061  10.768  15.822  1.00  0.00     0.074 C 
BRANCH  45  46
HETATM   46  C34 UNL     1      10.365  11.120  16.494  1.00  0.00    -0.056 A 
HETATM   47  C35 UNL     1      11.508  11.394  15.728  1.00  0.00     0.007 A 
HETATM   48  C36 UNL     1      12.717  11.707  16.351  1.00  0.00     0.001 A 
HETATM   49  C37 UNL     1      12.796  11.750  17.742  1.00  0.00     0.000 A 
HETATM   50  C38 UNL     1      11.667  11.479  18.511  1.00  0.00     0.001 A 
HETATM   51  C39 UNL     1      10.457  11.165  17.892  1.00  0.00     0.007 A 
ENDBRANCH  45  46
ENDBRANCH  44  45
BRANCH  44  52
HETATM   52  C40 UNL     1       8.317   8.432  16.346  1.00  0.00     0.163 C 
HETATM   53  O8  UNL     1       7.147   8.519  16.699  1.00  0.00    -0.648 OA
BRANCH  52  54
HETATM   54  O9  UNL     1       9.130   7.504  16.883  1.00  0.00    -0.775 OA
HETATM   55  H54 UNL     1       8.565   7.005  17.508  1.00  0.00     0.167 HD
ENDBRANCH  52  54
ENDBRANCH  44  52
ENDBRANCH  42  44
ENDBRANCH  39  40
ENDBRANCH  38  39
ENDBRANCH  37  38
ENDBRANCH  36  37
ENDBRANCH  35  36
ENDBRANCH  33  35
ENDBRANCH  30  31
ENDBRANCH  29  30
ENDBRANCH   1  29
TORSDOF 19
ENDMDL
MODEL 9
REMARK minimizedAffinity -8.31660366
REMARK CNNscore 0.251755267
REMARK CNNaffinity 6.43319368
REMARK  19 active torsions:
REMARK  status: ('A' for Active; 'I' for Inactive)
REMARK    1  A    between atoms: C19_20  and  O2_21 
REMARK    2  A    between atoms: C19_20  and  C20_22 
REMARK    3  A    between atoms: C20_22  and  C21_24 
REMARK    4  A    between atoms: C21_24  and  O4_25 
REMARK    5  A    between atoms: O4_25  and  C22_26 
REMARK    6  A    between atoms: C22_26  and  C23_28 
REMARK    7  A    between atoms: C23_28  and  C24_29 
REMARK    8  A    between atoms: C24_29  and  C25_30 
REMARK       I    between atoms: C25_30  and  N1_32 
REMARK    9  A    between atoms: N1_32  and  C26_33 
REMARK   10  A    between atoms: C26_33  and  C27_34 
REMARK   11  A    between atoms: C27_34  and  C28_35 
REMARK   12  A    between atoms: C28_35  and  C29_36 
REMARK   13  A    between atoms: C29_36  and  C30_37 
REMARK   14  A    between atoms: C30_37  and  C31_38 
REMARK       I    between atoms: C31_38  and  N2_40 
REMARK   15  A    between atoms: N2_40  and  C32_41 
REMARK   16  A    between atoms: C32_41  and  C33_42 
REMARK   17  A    between atoms: C32_41  and  C40_49 
REMARK   18  A    between atoms: C33_42  and  C34_43 
REMARK   19  A    between atoms: C40_49  and  O9_51 
ROOT
HETATM    1  C22 UNL     1       6.001   7.260  10.902  1.00  0.00     0.259 C 
HETATM    2  O5  UNL     1       6.912   6.711  10.295  1.00  0.00    -0.265 OA
ENDROOT
BRANCH   1   3
HETATM    3  O4  UNL     1       4.707   7.273  10.493  1.00  0.00    -0.314 OA
BRANCH   3   4
HETATM    4  C21 UNL     1       3.786   6.747  11.447  1.00  0.00     0.260 C 
BRANCH   4   5
HETATM    5  C20 UNL     1       2.526   7.602  11.499  1.00  0.00     0.185 C 
HETATM    6  O3  UNL     1       2.571   8.796  11.809  1.00  0.00    -0.292 OA
BRANCH   5   7
HETATM    7  C19 UNL     1       1.201   6.901  11.097  1.00  0.00     0.128 C 
HETATM    8  C14 UNL     1       0.105   6.903  12.215  1.00  0.00    -0.002 C 
HETATM    9  C13 UNL     1      -0.777   8.159  12.343  1.00  0.00     0.013 C 
HETATM   10  C15 UNL     1       0.749   6.594  13.596  1.00  0.00     0.019 C 
HETATM   11  C16 UNL     1      -0.806   5.762  11.700  1.00  0.00     0.002 C 
HETATM   12  C12 UNL     1      -1.991   7.927  13.261  1.00  0.00     0.007 C 
HETATM   13  C11 UNL     1      -2.845   6.702  12.849  1.00  0.00     0.002 C 
HETATM   14  C2  UNL     1      -4.090   6.449  13.784  1.00  0.00    -0.016 C 
HETATM   15  C10 UNL     1      -1.966   5.429  12.649  1.00  0.00    -0.004 C 
HETATM   16  C1  UNL     1      -3.677   6.259  15.261  1.00  0.00     0.020 C 
HETATM   17  C3  UNL     1      -5.038   7.681  13.679  1.00  0.00     0.022 C 
HETATM   18  C7  UNL     1      -4.831   5.185  13.328  1.00  0.00    -0.068 C 
HETATM   19  C4  UNL     1      -6.431   7.438  14.239  1.00  0.00     0.084 C 
HETATM   20  C5  UNL     1      -7.056   6.224  13.608  1.00  0.00     0.149 C 
HETATM   21  O1  UNL     1      -8.274   6.097  13.493  1.00  0.00    -0.293 OA
HETATM   22  C6  UNL     1      -6.167   5.108  13.209  1.00  0.00     0.053 C 
HETATM   23  C8  UNL     1      -3.986   3.968  13.038  1.00  0.00     0.035 C 
HETATM   24  C9  UNL     1      -2.824   4.281  12.102  1.00  0.00     0.010 C 
HETATM   25  C17 UNL     1       0.176   4.649  11.348  1.00  0.00     0.009 C 
HETATM   26  C18 UNL     1       1.427   5.384  10.829  1.00  0.00     0.047 C 
BRANCH   7  27
HETATM   27  O2  UNL     1       0.703   7.432   9.865  1.00  0.00    -0.381 OA
HETATM   28  H27 UNL     1       0.336   8.320  10.003  1.00  0.00     0.211 HD
ENDBRANCH   7  27
ENDBRANCH   5   7
ENDBRANCH   4   5
ENDBRANCH   3   4
ENDBRANCH   1   3
BRANCH   1  29
HETATM   29  C23 UNL     1       6.203   8.101  12.142  1.00  0.00     0.120 C 
BRANCH  29  30
HETATM   30  C24 UNL     1       6.321   9.595  11.859  1.00  0.00     0.112 C 
BRANCH  30  31
HETATM   31  C25 UNL     1       5.916  10.432  13.055  1.00  0.00     0.217 C 
HETATM   32  O6  UNL     1       5.321   9.971  14.024  1.00  0.00    -0.274 OA
HETATM   33  N1  UNL     1       6.301  11.751  12.950  1.00  0.00    -0.361 N 
HETATM   34  H34 UNL     1       6.846  12.046  12.150  1.00  0.00     0.162 HD
BRANCH  33  35
HETATM   35  C26 UNL     1       6.117  12.688  14.041  1.00  0.00     0.122 C 
BRANCH  35  36
HETATM   36  C27 UNL     1       7.179  12.480  15.117  1.00  0.00     0.020 C 
BRANCH  36  37
HETATM   37  C28 UNL     1       7.164  13.556  16.204  1.00  0.00     0.002 C 
BRANCH  37  38
HETATM   38  C29 UNL     1       8.236  13.331  17.277  1.00  0.00     0.009 C 
BRANCH  38  39
HETATM   39  C30 UNL     1       7.783  12.362  18.369  1.00  0.00     0.103 C 
BRANCH  39  40
HETATM   40  C31 UNL     1       7.493  13.037  19.698  1.00  0.00     0.218 C 
HETATM   41  O7  UNL     1       7.231  14.227  19.825  1.00  0.00    -0.274 OA
HETATM   42  N2  UNL     1       7.550  12.161  20.764  1.00  0.00    -0.346 N 
HETATM   43  H45 UNL     1       8.118  11.332  20.625  1.00  0.00     0.163 HD
BRANCH  42  44
HETATM   44  C32 UNL     1       7.490  12.671  22.141  1.00  0.00     0.186 C 
BRANCH  44  45
HETATM   45  C33 UNL     1       6.377  11.958  22.918  1.00  0.00     0.074 C 
BRANCH  45  46
HETATM   46  C34 UNL     1       5.075  12.720  22.953  1.00  0.00    -0.056 A 
HETATM   47  C35 UNL     1       5.073  14.122  22.971  1.00  0.00     0.007 A 
HETATM   48  C36 UNL     1       3.869  14.826  23.016  1.00  0.00     0.001 A 
HETATM   49  C37 UNL     1       2.658  14.138  23.044  1.00  0.00     0.000 A 
HETATM   50  C38 UNL     1       2.649  12.746  23.029  1.00  0.00     0.001 A 
HETATM   51  C39 UNL     1       3.851  12.038  22.983  1.00  0.00     0.007 A 
ENDBRANCH  45  46
ENDBRANCH  44  45
BRANCH  44  52
HETATM   52  C40 UNL     1       8.844  12.377  22.782  1.00  0.00     0.163 C 
HETATM   53  O8  UNL     1       9.815  13.125  22.771  1.00  0.00    -0.648 OA
BRANCH  52  54
HETATM   54  O9  UNL     1       8.911  11.174  23.382  1.00  0.00    -0.775 OA
HETATM   55  H54 UNL     1       9.816  11.128  23.756  1.00  0.00     0.167 HD
ENDBRANCH  52  54
ENDBRANCH  44  52
ENDBRANCH  42  44
ENDBRANCH  39  40
ENDBRANCH  38  39
ENDBRANCH  37  38
ENDBRANCH  36  37
ENDBRANCH  35  36
ENDBRANCH  33  35
ENDBRANCH  30  31
ENDBRANCH  29  30
ENDBRANCH   1  29
TORSDOF 19
ENDMDL
