MODEL 1
REMARK minimizedAffinity -10.1151648
REMARK  6 active torsions:
REMARK  status: ('A' for Active; 'I' for Inactive)
REMARK    1  A    between atoms: C2_2  and  C30_31 
REMARK    2  A    between atoms: C3_3  and  C4_4 
REMARK    3  A    between atoms: C4_4  and  C5_5 
REMARK    4  A    between atoms: C5_5  and  C6_6 
REMARK    5  A    between atoms: C6_6  and  C8_8 
REMARK    6  A    between atoms: C30_31  and  O3_33 
ROOT
HETATM    1  C8  UNL     1      -2.980   7.404  14.568  1.00  0.00    -0.002 C 
HETATM    2  C9  UNL     1      -3.804   8.447  13.766  1.00  0.00     0.007 C 
HETATM    3  C10 UNL     1      -2.945   8.854  12.543  1.00  0.00     0.015 C 
HETATM    4  C11 UNL     1      -1.554   8.233  12.800  1.00  0.00    -0.013 C 
HETATM    5  C12 UNL     1      -0.782   9.249  13.700  1.00  0.00     0.021 C 
HETATM    6  C13 UNL     1      -0.643   7.958  11.610  1.00  0.00    -0.070 C 
HETATM    7  C14 UNL     1      -0.638   8.734  10.510  1.00  0.00    -0.022 C 
HETATM    8  C15 UNL     1       0.299   8.562   9.350  1.00  0.00     0.034 C 
HETATM    9  C16 UNL     1       1.142   7.267   9.406  1.00  0.00     0.013 C 
HETATM   10  C17 UNL     1       2.193   7.146   8.248  1.00  0.00     0.018 C 
HETATM   11  C18 UNL     1       1.442   6.996   6.899  1.00  0.00     0.023 C 
HETATM   12  C19 UNL     1       3.159   8.331   8.091  1.00  0.00     0.023 C 
HETATM   13  C20 UNL     1       3.038   5.881   8.467  1.00  0.00     0.135 C 
HETATM   14  O1  UNL     1       3.331   5.112   7.550  1.00  0.00    -0.297 OA
HETATM   15  C21 UNL     1       3.588   5.650   9.854  1.00  0.00     0.080 C 
HETATM   16  C22 UNL     1       2.458   5.656  10.870  1.00  0.00     0.017 C 
HETATM   17  C23 UNL     1       1.637   6.973  10.874  1.00  0.00    -0.031 C 
HETATM   18  C24 UNL     1       2.499   8.109  11.474  1.00  0.00     0.016 C 
HETATM   19  C25 UNL     1       0.323   6.772  11.742  1.00  0.00     0.024 C 
HETATM   20  C26 UNL     1       0.561   6.332  13.208  1.00  0.00     0.010 C 
HETATM   21  C27 UNL     1      -0.704   6.215  14.093  1.00  0.00     0.011 C 
HETATM   22  C28 UNL     1      -1.956   6.893  13.503  1.00  0.00    -0.029 C 
HETATM   23  C29 UNL     1      -2.673   5.881  12.555  1.00  0.00     0.016 C 
ENDROOT
BRANCH   1  24
HETATM   24  C6  UNL     1      -3.756   6.327  15.386  1.00  0.00    -0.014 C 
HETATM   25  C7  UNL     1      -3.387   4.867  15.106  1.00  0.00     0.010 C 
BRANCH  24  26
HETATM   26  C5  UNL     1      -5.292   6.524  15.271  1.00  0.00     0.008 C 
BRANCH  26  27
HETATM   27  C4  UNL     1      -5.873   6.322  13.870  1.00  0.00     0.028 C 
BRANCH  27  28
HETATM   28  C3  UNL     1      -5.719   4.897  13.409  1.00  0.00    -0.013 C 
HETATM   29  C2  UNL     1      -6.645   4.124  12.801  1.00  0.00     0.008 C 
HETATM   30  C1  UNL     1      -6.339   2.734  12.328  1.00  0.00     0.055 C 
BRANCH  29  31
HETATM   31  C30 UNL     1      -8.037   4.590  12.602  1.00  0.00     0.171 C 
HETATM   32  O2  UNL     1      -8.406   5.554  11.957  1.00  0.00    -0.646 OA
BRANCH  31  33
HETATM   33  O3  UNL     1      -8.912   3.806  13.255  1.00  0.00    -0.773 OA
HETATM   34  H46 UNL     1      -9.781   4.197  13.030  1.00  0.00     0.167 HD
ENDBRANCH  31  33
ENDBRANCH  29  31
ENDBRANCH  27  28
ENDBRANCH  26  27
ENDBRANCH  24  26
ENDBRANCH   1  24
TORSDOF 6
ENDMDL
MODEL 2
REMARK minimizedAffinity -9.81768322
REMARK  6 active torsions:
REMARK  status: ('A' for Active; 'I' for Inactive)
REMARK    1  A    between atoms: C2_2  and  C30_31 
REMARK    2  A    between atoms: C3_3  and  C4_4 
REMARK    3  A    between atoms: C4_4  and  C5_5 
REMARK    4  A    between atoms: C5_5  and  C6_6 
REMARK    5  A    between atoms: C6_6  and  C8_8 
REMARK    6  A    between atoms: C30_31  and  O3_33 
ROOT
HETATM    1  C8  UNL     1      -3.539   6.895  14.295  1.00  0.00    -0.002 C 
HETATM    2  C9  UNL     1      -4.112   8.175  13.630  1.00  0.00     0.007 C 
HETATM    3  C10 UNL     1      -3.056   8.662  12.607  1.00  0.00     0.015 C 
HETATM    4  C11 UNL     1      -1.800   7.806  12.883  1.00  0.00    -0.013 C 
HETATM    5  C12 UNL     1      -1.031   8.519  14.040  1.00  0.00     0.021 C 
HETATM    6  C13 UNL     1      -0.782   7.616  11.764  1.00  0.00    -0.070 C 
HETATM    7  C14 UNL     1      -0.536   8.566  10.844  1.00  0.00    -0.022 C 
HETATM    8  C15 UNL     1       0.516   8.468   9.778  1.00  0.00     0.034 C 
HETATM    9  C16 UNL     1       1.175   7.073   9.668  1.00  0.00     0.013 C 
HETATM   10  C17 UNL     1       2.344   7.006   8.626  1.00  0.00     0.018 C 
HETATM   11  C18 UNL     1       1.764   7.214   7.202  1.00  0.00     0.023 C 
HETATM   12  C19 UNL     1       3.465   8.044   8.806  1.00  0.00     0.023 C 
HETATM   13  C20 UNL     1       2.988   5.611   8.681  1.00  0.00     0.135 C 
HETATM   14  O1  UNL     1       3.299   4.984   7.667  1.00  0.00    -0.297 OA
HETATM   15  C21 UNL     1       3.317   5.057  10.046  1.00  0.00     0.080 C 
HETATM   16  C22 UNL     1       2.073   5.050  10.919  1.00  0.00     0.017 C 
HETATM   17  C23 UNL     1       1.431   6.451  11.094  1.00  0.00    -0.031 C 
HETATM   18  C24 UNL     1       2.343   7.321  11.992  1.00  0.00     0.016 C 
HETATM   19  C25 UNL     1       0.001   6.296  11.763  1.00  0.00     0.024 C 
HETATM   20  C26 UNL     1      -0.013   5.570  13.132  1.00  0.00     0.010 C 
HETATM   21  C27 UNL     1      -1.388   5.486  13.838  1.00  0.00     0.011 C 
HETATM   22  C28 UNL     1      -2.456   6.436  13.265  1.00  0.00    -0.029 C 
HETATM   23  C29 UNL     1      -3.164   5.728  12.067  1.00  0.00     0.016 C 
ENDROOT
BRANCH   1  24
HETATM   24  C6  UNL     1      -4.544   5.816  14.801  1.00  0.00    -0.014 C 
HETATM   25  C7  UNL     1      -5.539   5.279  13.767  1.00  0.00     0.010 C 
BRANCH  24  26
HETATM   26  C5  UNL     1      -5.297   6.293  16.072  1.00  0.00     0.008 C 
BRANCH  26  27
HETATM   27  C4  UNL     1      -6.824   6.229  15.990  1.00  0.00     0.028 C 
BRANCH  27  28
HETATM   28  C3  UNL     1      -7.427   7.602  15.854  1.00  0.00    -0.013 C 
HETATM   29  C2  UNL     1      -8.594   7.932  15.259  1.00  0.00     0.008 C 
HETATM   30  C1  UNL     1      -9.116   9.338  15.253  1.00  0.00     0.055 C 
BRANCH  29  31
HETATM   31  C30 UNL     1      -9.411   6.929  14.539  1.00  0.00     0.171 C 
HETATM   32  O2  UNL     1      -9.164   6.411  13.466  1.00  0.00    -0.646 OA
BRANCH  31  33
HETATM   33  O3  UNL     1     -10.534   6.637  15.218  1.00  0.00    -0.773 OA
HETATM   34  H46 UNL     1     -10.968   5.959  14.660  1.00  0.00     0.167 HD
ENDBRANCH  31  33
ENDBRANCH  29  31
ENDBRANCH  27  28
ENDBRANCH  26  27
ENDBRANCH  24  26
ENDBRANCH   1  24
TORSDOF 6
ENDMDL
MODEL 3
REMARK minimizedAffinity -9.36735916
REMARK  6 active torsions:
REMARK  status: ('A' for Active; 'I' for Inactive)
REMARK    1  A    between atoms: C2_2  and  C30_31 
REMARK    2  A    between atoms: C3_3  and  C4_4 
REMARK    3  A    between atoms: C4_4  and  C5_5 
REMARK    4  A    between atoms: C5_5  and  C6_6 
REMARK    5  A    between atoms: C6_6  and  C8_8 
REMARK    6  A    between atoms: C30_31  and  O3_33 
ROOT
HETATM    1  C8  UNL     1      -5.066   8.180  15.230  1.00  0.00    -0.002 C 
HETATM    2  C9  UNL     1      -4.686   9.678  15.384  1.00  0.00     0.007 C 
HETATM    3  C10 UNL     1      -3.220   9.821  14.905  1.00  0.00     0.015 C 
HETATM    4  C11 UNL     1      -2.709   8.375  14.726  1.00  0.00    -0.013 C 
HETATM    5  C12 UNL     1      -2.219   7.906  16.133  1.00  0.00     0.021 C 
HETATM    6  C13 UNL     1      -1.543   8.121  13.777  1.00  0.00    -0.070 C 
HETATM    7  C14 UNL     1      -0.556   9.017  13.591  1.00  0.00    -0.022 C 
HETATM    8  C15 UNL     1       0.658   8.783  12.740  1.00  0.00     0.034 C 
HETATM    9  C16 UNL     1       0.596   7.490  11.895  1.00  0.00     0.013 C 
HETATM   10  C17 UNL     1       1.910   7.197  11.089  1.00  0.00     0.018 C 
HETATM   11  C18 UNL     1       2.094   8.294  10.007  1.00  0.00     0.023 C 
HETATM   12  C19 UNL     1       3.208   7.161  11.912  1.00  0.00     0.023 C 
HETATM   13  C20 UNL     1       1.771   5.842  10.377  1.00  0.00     0.135 C 
HETATM   14  O1  UNL     1       2.132   5.665   9.212  1.00  0.00    -0.297 OA
HETATM   15  C21 UNL     1       1.252   4.683  11.194  1.00  0.00     0.080 C 
HETATM   16  C22 UNL     1      -0.088   5.042  11.813  1.00  0.00     0.017 C 
HETATM   17  C23 UNL     1      -0.035   6.302  12.717  1.00  0.00    -0.031 C 
HETATM   18  C24 UNL     1       0.740   5.967  14.013  1.00  0.00     0.016 C 
HETATM   19  C25 UNL     1      -1.514   6.758  13.072  1.00  0.00     0.024 C 
HETATM   20  C26 UNL     1      -2.387   5.685  13.768  1.00  0.00     0.010 C 
HETATM   21  C27 UNL     1      -3.803   6.140  14.199  1.00  0.00     0.011 C 
HETATM   22  C28 UNL     1      -4.004   7.667  14.203  1.00  0.00    -0.029 C 
HETATM   23  C29 UNL     1      -4.426   8.120  12.770  1.00  0.00     0.016 C 
ENDROOT
BRANCH   1  24
HETATM   24  C6  UNL     1      -6.558   7.826  14.950  1.00  0.00    -0.014 C 
HETATM   25  C7  UNL     1      -7.587   8.912  15.282  1.00  0.00     0.010 C 
BRANCH  24  26
HETATM   26  C5  UNL     1      -6.958   6.484  15.621  1.00  0.00     0.008 C 
BRANCH  26  27
HETATM   27  C4  UNL     1      -7.555   5.436  14.680  1.00  0.00     0.028 C 
BRANCH  27  28
HETATM   28  C3  UNL     1      -6.551   4.979  13.655  1.00  0.00    -0.013 C 
HETATM   29  C2  UNL     1      -6.638   3.906  12.840  1.00  0.00     0.008 C 
HETATM   30  C1  UNL     1      -5.592   3.600  11.809  1.00  0.00     0.055 C 
BRANCH  29  31
HETATM   31  C30 UNL     1      -7.756   2.941  12.941  1.00  0.00     0.171 C 
HETATM   32  O2  UNL     1      -7.678   1.728  13.004  1.00  0.00    -0.646 OA
BRANCH  31  33
HETATM   33  O3  UNL     1      -8.945   3.568  12.944  1.00  0.00    -0.773 OA
HETATM   34  H46 UNL     1      -9.589   2.836  13.036  1.00  0.00     0.167 HD
ENDBRANCH  31  33
ENDBRANCH  29  31
ENDBRANCH  27  28
ENDBRANCH  26  27
ENDBRANCH  24  26
ENDBRANCH   1  24
TORSDOF 6
ENDMDL
MODEL 4
REMARK minimizedAffinity -9.3511591
REMARK  6 active torsions:
REMARK  status: ('A' for Active; 'I' for Inactive)
REMARK    1  A    between atoms: C2_2  and  C30_31 
REMARK    2  A    between atoms: C3_3  and  C4_4 
REMARK    3  A    between atoms: C4_4  and  C5_5 
REMARK    4  A    between atoms: C5_5  and  C6_6 
REMARK    5  A    between atoms: C6_6  and  C8_8 
REMARK    6  A    between atoms: C30_31  and  O3_33 
ROOT
HETATM    1  C8  UNL     1      -5.421   6.911  15.317  1.00  0.00    -0.002 C 
HETATM    2  C9  UNL     1      -5.849   8.322  14.831  1.00  0.00     0.007 C 
HETATM    3  C10 UNL     1      -4.667   8.894  14.011  1.00  0.00     0.015 C 
HETATM    4  C11 UNL     1      -3.496   7.916  14.253  1.00  0.00    -0.013 C 
HETATM    5  C12 UNL     1      -2.814   8.370  15.582  1.00  0.00     0.021 C 
HETATM    6  C13 UNL     1      -2.378   7.841  13.219  1.00  0.00    -0.070 C 
HETATM    7  C14 UNL     1      -1.984   8.910  12.504  1.00  0.00    -0.022 C 
HETATM    8  C15 UNL     1      -0.833   8.913  11.540  1.00  0.00     0.034 C 
HETATM    9  C16 UNL     1      -0.244   7.512  11.255  1.00  0.00     0.013 C 
HETATM   10  C17 UNL     1       1.024   7.535  10.332  1.00  0.00     0.018 C 
HETATM   11  C18 UNL     1       0.609   8.016   8.917  1.00  0.00     0.023 C 
HETATM   12  C19 UNL     1       2.174   8.445  10.792  1.00  0.00     0.023 C 
HETATM   13  C20 UNL     1       1.580   6.107  10.207  1.00  0.00     0.135 C 
HETATM   14  O1  UNL     1       1.961   5.635   9.135  1.00  0.00    -0.297 OA
HETATM   15  C21 UNL     1       1.733   5.313  11.482  1.00  0.00     0.080 C 
HETATM   16  C22 UNL     1       0.406   5.251  12.219  1.00  0.00     0.017 C 
HETATM   17  C23 UNL     1      -0.173   6.646  12.571  1.00  0.00    -0.031 C 
HETATM   18  C24 UNL     1       0.686   7.288  13.687  1.00  0.00     0.016 C 
HETATM   19  C25 UNL     1      -1.673   6.486  13.066  1.00  0.00     0.024 C 
HETATM   20  C26 UNL     1      -1.870   5.546  14.282  1.00  0.00     0.010 C 
HETATM   21  C27 UNL     1      -3.314   5.446  14.830  1.00  0.00     0.011 C 
HETATM   22  C28 UNL     1      -4.262   6.552  14.330  1.00  0.00    -0.029 C 
HETATM   23  C29 UNL     1      -4.878   6.105  12.968  1.00  0.00     0.016 C 
ENDROOT
BRANCH   1  24
HETATM   24  C6  UNL     1      -6.531   5.839  15.533  1.00  0.00    -0.014 C 
HETATM   25  C7  UNL     1      -6.978   5.066  14.288  1.00  0.00     0.010 C 
BRANCH  24  26
HETATM   26  C5  UNL     1      -7.764   6.437  16.264  1.00  0.00     0.008 C 
BRANCH  26  27
HETATM   27  C4  UNL     1      -9.041   6.525  15.426  1.00  0.00     0.028 C 
BRANCH  27  28
HETATM   28  C3  UNL     1      -9.429   7.955  15.159  1.00  0.00    -0.013 C 
HETATM   29  C2  UNL     1     -10.548   8.404  14.552  1.00  0.00     0.008 C 
HETATM   30  C1  UNL     1     -10.847   9.867  14.410  1.00  0.00     0.055 C 
BRANCH  29  31
HETATM   31  C30 UNL     1     -11.533   7.476  13.951  1.00  0.00     0.171 C 
HETATM   32  O2  UNL     1     -12.081   7.582  12.869  1.00  0.00    -0.646 OA
BRANCH  31  33
HETATM   33  O3  UNL     1     -11.796   6.445  14.773  1.00  0.00    -0.773 OA
HETATM   34  H46 UNL     1     -12.432   5.902  14.261  1.00  0.00     0.167 HD
ENDBRANCH  31  33
ENDBRANCH  29  31
ENDBRANCH  27  28
ENDBRANCH  26  27
ENDBRANCH  24  26
ENDBRANCH   1  24
TORSDOF 6
ENDMDL
MODEL 5
REMARK minimizedAffinity -9.09565735
REMARK  6 active torsions:
REMARK  status: ('A' for Active; 'I' for Inactive)
REMARK    1  A    between atoms: C2_2  and  C30_31 
REMARK    2  A    between atoms: C3_3  and  C4_4 
REMARK    3  A    between atoms: C4_4  and  C5_5 
REMARK    4  A    between atoms: C5_5  and  C6_6 
REMARK    5  A    between atoms: C6_6  and  C8_8 
REMARK    6  A    between atoms: C30_31  and  O3_33 
ROOT
HETATM    1  C8  UNL     1      -3.164   7.398  15.107  1.00  0.00    -0.002 C 
HETATM    2  C9  UNL     1      -2.300   7.794  16.335  1.00  0.00     0.007 C 
HETATM    3  C10 UNL     1      -0.820   7.712  15.888  1.00  0.00     0.015 C 
HETATM    4  C11 UNL     1      -0.852   7.032  14.501  1.00  0.00    -0.013 C 
HETATM    5  C12 UNL     1      -0.872   5.494  14.768  1.00  0.00     0.021 C 
HETATM    6  C13 UNL     1       0.308   7.270  13.541  1.00  0.00    -0.070 C 
HETATM    7  C14 UNL     1       1.571   7.456  13.967  1.00  0.00    -0.022 C 
HETATM    8  C15 UNL     1       2.762   7.605  13.065  1.00  0.00     0.034 C 
HETATM    9  C16 UNL     1       2.405   7.748  11.567  1.00  0.00     0.013 C 
HETATM   10  C17 UNL     1       3.654   7.797  10.621  1.00  0.00     0.018 C 
HETATM   11  C18 UNL     1       4.449   9.100  10.901  1.00  0.00     0.023 C 
HETATM   12  C19 UNL     1       4.647   6.631  10.759  1.00  0.00     0.023 C 
HETATM   13  C20 UNL     1       3.178   7.833   9.161  1.00  0.00     0.135 C 
HETATM   14  O1  UNL     1       3.680   8.576   8.316  1.00  0.00    -0.297 OA
HETATM   15  C21 UNL     1       2.111   6.842   8.758  1.00  0.00     0.080 C 
HETATM   16  C22 UNL     1       0.900   6.985   9.665  1.00  0.00     0.017 C 
HETATM   17  C23 UNL     1       1.224   6.782  11.168  1.00  0.00    -0.031 C 
HETATM   18  C24 UNL     1       1.535   5.289  11.426  1.00  0.00     0.016 C 
HETATM   19  C25 UNL     1      -0.021   7.235  12.042  1.00  0.00     0.024 C 
HETATM   20  C26 UNL     1      -1.352   6.511  11.720  1.00  0.00     0.010 C 
HETATM   21  C27 UNL     1      -2.557   6.879  12.621  1.00  0.00     0.011 C 
HETATM   22  C28 UNL     1      -2.178   7.624  13.914  1.00  0.00    -0.029 C 
HETATM   23  C29 UNL     1      -2.097   9.152  13.606  1.00  0.00     0.016 C 
ENDROOT
BRANCH   1  24
HETATM   24  C6  UNL     1      -4.589   8.018  14.981  1.00  0.00    -0.014 C 
HETATM   25  C7  UNL     1      -4.841   9.306  15.771  1.00  0.00     0.010 C 
BRANCH  24  26
HETATM   26  C5  UNL     1      -5.692   6.972  15.294  1.00  0.00     0.008 C 
BRANCH  26  27
HETATM   27  C4  UNL     1      -6.518   6.514  14.090  1.00  0.00     0.028 C 
BRANCH  27  28
HETATM   28  C3  UNL     1      -5.827   5.411  13.334  1.00  0.00    -0.013 C 
HETATM   29  C2  UNL     1      -6.356   4.239  12.923  1.00  0.00     0.008 C 
HETATM   30  C1  UNL     1      -5.572   3.249  12.112  1.00  0.00     0.055 C 
BRANCH  29  31
HETATM   31  C30 UNL     1      -7.736   3.839  13.283  1.00  0.00     0.171 C 
HETATM   32  O2  UNL     1      -8.336   2.847  12.912  1.00  0.00    -0.646 OA
BRANCH  31  33
HETATM   33  O3  UNL     1      -8.308   4.741  14.099  1.00  0.00    -0.773 OA
HETATM   34  H46 UNL     1      -9.191   4.358  14.278  1.00  0.00     0.167 HD
ENDBRANCH  31  33
ENDBRANCH  29  31
ENDBRANCH  27  28
ENDBRANCH  26  27
ENDBRANCH  24  26
ENDBRANCH   1  24
TORSDOF 6
ENDMDL
MODEL 6
REMARK minimizedAffinity -9.0733757
REMARK  6 active torsions:
REMARK  status: ('A' for Active; 'I' for Inactive)
REMARK    1  A    between atoms: C2_2  and  C30_31 
REMARK    2  A    between atoms: C3_3  and  C4_4 
REMARK    3  A    between atoms: C4_4  and  C5_5 
REMARK    4  A    between atoms: C5_5  and  C6_6 
REMARK    5  A    between atoms: C6_6  and  C8_8 
REMARK    6  A    between atoms: C30_31  and  O3_33 
ROOT
HETATM    1  C8  UNL     1       0.898   7.029  12.243  1.00  0.00    -0.002 C 
HETATM    2  C9  UNL     1       1.113   5.570  11.761  1.00  0.00     0.007 C 
HETATM    3  C10 UNL     1      -0.176   4.786  12.109  1.00  0.00     0.015 C 
HETATM    4  C11 UNL     1      -0.999   5.738  13.006  1.00  0.00    -0.013 C 
HETATM    5  C12 UNL     1      -0.466   5.539  14.460  1.00  0.00     0.021 C 
HETATM    6  C13 UNL     1      -2.509   5.544  13.088  1.00  0.00    -0.070 C 
HETATM    7  C14 UNL     1      -3.087   4.333  12.999  1.00  0.00    -0.022 C 
HETATM    8  C15 UNL     1      -4.557   4.076  13.163  1.00  0.00     0.034 C 
HETATM    9  C16 UNL     1      -5.418   5.358  13.231  1.00  0.00     0.013 C 
HETATM   10  C17 UNL     1      -6.937   5.086  13.508  1.00  0.00     0.018 C 
HETATM   11  C18 UNL     1      -7.546   4.340  12.291  1.00  0.00     0.023 C 
HETATM   12  C19 UNL     1      -7.252   4.240  14.752  1.00  0.00     0.023 C 
HETATM   13  C20 UNL     1      -7.669   6.429  13.660  1.00  0.00     0.135 C 
HETATM   14  O1  UNL     1      -8.766   6.650  13.144  1.00  0.00    -0.297 OA
HETATM   15  C21 UNL     1      -7.033   7.464  14.557  1.00  0.00     0.080 C 
HETATM   16  C22 UNL     1      -5.608   7.739  14.105  1.00  0.00     0.017 C 
HETATM   17  C23 UNL     1      -4.709   6.475  14.089  1.00  0.00    -0.031 C 
HETATM   18  C24 UNL     1      -4.413   6.041  15.545  1.00  0.00     0.016 C 
HETATM   19  C25 UNL     1      -3.351   6.804  13.336  1.00  0.00     0.024 C 
HETATM   20  C26 UNL     1      -2.538   7.984  13.924  1.00  0.00     0.010 C 
HETATM   21  C27 UNL     1      -1.170   8.263  13.254  1.00  0.00     0.011 C 
HETATM   22  C28 UNL     1      -0.659   7.121  12.355  1.00  0.00    -0.029 C 
HETATM   23  C29 UNL     1      -1.259   7.303  10.926  1.00  0.00     0.016 C 
ENDROOT
BRANCH   1  24
HETATM   24  C6  UNL     1       1.626   8.173  11.474  1.00  0.00    -0.014 C 
HETATM   25  C7  UNL     1       1.135   8.452  10.050  1.00  0.00     0.010 C 
BRANCH  24  26
HETATM   26  C5  UNL     1       3.166   7.971  11.481  1.00  0.00     0.008 C 
BRANCH  26  27
HETATM   27  C4  UNL     1       3.683   6.863  10.561  1.00  0.00     0.028 C 
BRANCH  27  28
HETATM   28  C3  UNL     1       3.165   7.023   9.157  1.00  0.00    -0.013 C 
HETATM   29  C2  UNL     1       2.930   6.051   8.251  1.00  0.00     0.008 C 
HETATM   30  C1  UNL     1       2.343   6.342   6.901  1.00  0.00     0.055 C 
BRANCH  29  31
HETATM   31  C30 UNL     1       3.276   4.636   8.520  1.00  0.00     0.171 C 
HETATM   32  O2  UNL     1       3.139   4.031   9.567  1.00  0.00    -0.646 OA
BRANCH  31  33
HETATM   33  O3  UNL     1       3.804   4.048   7.433  1.00  0.00    -0.773 OA
HETATM   34  H46 UNL     1       3.966   3.128   7.728  1.00  0.00     0.167 HD
ENDBRANCH  31  33
ENDBRANCH  29  31
ENDBRANCH  27  28
ENDBRANCH  26  27
ENDBRANCH  24  26
ENDBRANCH   1  24
TORSDOF 6
ENDMDL
MODEL 7
REMARK minimizedAffinity -9.03223991
REMARK  6 active torsions:
REMARK  status: ('A' for Active; 'I' for Inactive)
REMARK    1  A    between atoms: C2_2  and  C30_31 
REMARK    2  A    between atoms: C3_3  and  C4_4 
REMARK    3  A    between atoms: C4_4  and  C5_5 
REMARK    4  A    between atoms: C5_5  and  C6_6 
REMARK    5  A    between atoms: C6_6  and  C8_8 
REMARK    6  A    between atoms: C30_31  and  O3_33 
ROOT
HETATM    1  C8  UNL     1      -2.459   8.815  15.585  1.00  0.00    -0.002 C 
HETATM    2  C9  UNL     1      -1.391   8.299  16.587  1.00  0.00     0.007 C 
HETATM    3  C10 UNL     1      -0.240   7.695  15.745  1.00  0.00     0.015 C 
HETATM    4  C11 UNL     1      -0.778   7.645  14.298  1.00  0.00    -0.013 C 
HETATM    5  C12 UNL     1      -1.586   6.315  14.177  1.00  0.00     0.021 C 
HETATM    6  C13 UNL     1       0.219   7.631  13.145  1.00  0.00    -0.070 C 
HETATM    7  C14 UNL     1       1.424   7.040  13.241  1.00  0.00    -0.022 C 
HETATM    8  C15 UNL     1       2.405   6.918  12.111  1.00  0.00     0.034 C 
HETATM    9  C16 UNL     1       2.021   7.727  10.851  1.00  0.00     0.013 C 
HETATM   10  C17 UNL     1       2.994   7.512   9.640  1.00  0.00     0.018 C 
HETATM   11  C18 UNL     1       4.385   8.097  10.000  1.00  0.00     0.023 C 
HETATM   12  C19 UNL     1       3.221   6.053   9.212  1.00  0.00     0.023 C 
HETATM   13  C20 UNL     1       2.455   8.277   8.421  1.00  0.00     0.135 C 
HETATM   14  O1  UNL     1       3.182   8.940   7.679  1.00  0.00    -0.297 OA
HETATM   15  C21 UNL     1       0.989   8.116   8.097  1.00  0.00     0.080 C 
HETATM   16  C22 UNL     1       0.146   8.482   9.307  1.00  0.00     0.017 C 
HETATM   17  C23 UNL     1       0.472   7.638  10.568  1.00  0.00    -0.031 C 
HETATM   18  C24 UNL     1      -0.034   6.191  10.358  1.00  0.00     0.016 C 
HETATM   19  C25 UNL     1      -0.238   8.283  11.832  1.00  0.00     0.024 C 
HETATM   20  C26 UNL     1      -1.776   8.434  11.721  1.00  0.00     0.010 C 
HETATM   21  C27 UNL     1      -2.494   8.981  12.979  1.00  0.00     0.011 C 
HETATM   22  C28 UNL     1      -1.639   8.953  14.260  1.00  0.00    -0.029 C 
HETATM   23  C29 UNL     1      -0.791  10.261  14.324  1.00  0.00     0.016 C 
ENDROOT
BRANCH   1  24
HETATM   24  C6  UNL     1      -3.338  10.030  16.009  1.00  0.00    -0.014 C 
HETATM   25  C7  UNL     1      -3.383  10.344  17.508  1.00  0.00     0.010 C 
BRANCH  24  26
HETATM   26  C5  UNL     1      -4.779   9.913  15.442  1.00  0.00     0.008 C 
BRANCH  26  27
HETATM   27  C4  UNL     1      -5.344   8.493  15.380  1.00  0.00     0.028 C 
BRANCH  27  28
HETATM   28  C3  UNL     1      -6.816   8.497  15.064  1.00  0.00    -0.013 C 
HETATM   29  C2  UNL     1      -7.718   7.531  15.337  1.00  0.00     0.008 C 
HETATM   30  C1  UNL     1      -9.178   7.692  15.029  1.00  0.00     0.055 C 
BRANCH  29  31
HETATM   31  C30 UNL     1      -7.315   6.233  15.924  1.00  0.00     0.171 C 
HETATM   32  O2  UNL     1      -6.252   5.961  16.451  1.00  0.00    -0.646 OA
BRANCH  31  33
HETATM   33  O3  UNL     1      -8.291   5.316  15.798  1.00  0.00    -0.773 OA
HETATM   34  H46 UNL     1      -7.917   4.524  16.236  1.00  0.00     0.167 HD
ENDBRANCH  31  33
ENDBRANCH  29  31
ENDBRANCH  27  28
ENDBRANCH  26  27
ENDBRANCH  24  26
ENDBRANCH   1  24
TORSDOF 6
ENDMDL
MODEL 8
REMARK minimizedAffinity -8.93144798
REMARK  6 active torsions:
REMARK  status: ('A' for Active; 'I' for Inactive)
REMARK    1  A    between atoms: C2_2  and  C30_31 
REMARK    2  A    between atoms: C3_3  and  C4_4 
REMARK    3  A    between atoms: C4_4  and  C5_5 
REMARK    4  A    between atoms: C5_5  and  C6_6 
REMARK    5  A    between atoms: C6_6  and  C8_8 
REMARK    6  A    between atoms: C30_31  and  O3_33 
ROOT
HETATM    1  C8  UNL     1      -4.495   6.003  14.371  1.00  0.00    -0.002 C 
HETATM    2  C9  UNL     1      -5.135   4.837  13.571  1.00  0.00     0.007 C 
HETATM    3  C10 UNL     1      -6.666   5.073  13.579  1.00  0.00     0.015 C 
HETATM    4  C11 UNL     1      -6.893   6.219  14.590  1.00  0.00    -0.013 C 
HETATM    5  C12 UNL     1      -6.973   5.551  15.999  1.00  0.00     0.021 C 
HETATM    6  C13 UNL     1      -8.153   7.069  14.463  1.00  0.00    -0.070 C 
HETATM    7  C14 UNL     1      -9.319   6.568  14.019  1.00  0.00    -0.022 C 
HETATM    8  C15 UNL     1     -10.609   7.335  13.959  1.00  0.00     0.034 C 
HETATM    9  C16 UNL     1     -10.458   8.846  14.249  1.00  0.00     0.013 C 
HETATM   10  C17 UNL     1     -11.821   9.621  14.289  1.00  0.00     0.018 C 
HETATM   11  C18 UNL     1     -12.447   9.615  12.870  1.00  0.00     0.023 C 
HETATM   12  C19 UNL     1     -12.884   9.061  15.248  1.00  0.00     0.023 C 
HETATM   13  C20 UNL     1     -11.556  11.082  14.688  1.00  0.00     0.135 C 
HETATM   14  O1  UNL     1     -12.106  12.032  14.129  1.00  0.00    -0.297 OA
HETATM   15  C21 UNL     1     -10.651  11.321  15.873  1.00  0.00     0.080 C 
HETATM   16  C22 UNL     1      -9.315  10.631  15.654  1.00  0.00     0.017 C 
HETATM   17  C23 UNL     1      -9.438   9.102  15.424  1.00  0.00    -0.031 C 
HETATM   18  C24 UNL     1      -9.842   8.417  16.752  1.00  0.00     0.016 C 
HETATM   19  C25 UNL     1      -8.045   8.530  14.921  1.00  0.00     0.024 C 
HETATM   20  C26 UNL     1      -6.844   8.795  15.863  1.00  0.00     0.010 C 
HETATM   21  C27 UNL     1      -5.495   8.171  15.429  1.00  0.00     0.011 C 
HETATM   22  C28 UNL     1      -5.617   7.091  14.337  1.00  0.00    -0.029 C 
HETATM   23  C29 UNL     1      -5.604   7.789  12.941  1.00  0.00     0.016 C 
ENDROOT
BRANCH   1  24
HETATM   24  C6  UNL     1      -3.053   6.453  13.986  1.00  0.00    -0.014 C 
HETATM   25  C7  UNL     1      -2.931   7.363  12.759  1.00  0.00     0.010 C 
BRANCH  24  26
HETATM   26  C5  UNL     1      -2.096   5.238  13.850  1.00  0.00     0.008 C 
BRANCH  26  27
HETATM   27  C4  UNL     1      -1.952   4.675  12.435  1.00  0.00     0.028 C 
BRANCH  27  28
HETATM   28  C3  UNL     1      -2.849   3.485  12.220  1.00  0.00    -0.013 C 
HETATM   29  C2  UNL     1      -2.529   2.309  11.639  1.00  0.00     0.008 C 
HETATM   30  C1  UNL     1      -3.504   1.172  11.550  1.00  0.00     0.055 C 
BRANCH  29  31
HETATM   31  C30 UNL     1      -1.205   2.083  11.017  1.00  0.00     0.171 C 
HETATM   32  O2  UNL     1      -0.124   2.468  11.424  1.00  0.00    -0.646 OA
BRANCH  31  33
HETATM   33  O3  UNL     1      -1.315   1.378   9.877  1.00  0.00    -0.773 OA
HETATM   34  H46 UNL     1      -0.387   1.278   9.580  1.00  0.00     0.167 HD
ENDBRANCH  31  33
ENDBRANCH  29  31
ENDBRANCH  27  28
ENDBRANCH  26  27
ENDBRANCH  24  26
ENDBRANCH   1  24
TORSDOF 6
ENDMDL
MODEL 9
REMARK minimizedAffinity -8.89913177
REMARK  6 active torsions:
REMARK  status: ('A' for Active; 'I' for Inactive)
REMARK    1  A    between atoms: C2_2  and  C30_31 
REMARK    2  A    between atoms: C3_3  and  C4_4 
REMARK    3  A    between atoms: C4_4  and  C5_5 
REMARK    4  A    between atoms: C5_5  and  C6_6 
REMARK    5  A    between atoms: C6_6  and  C8_8 
REMARK    6  A    between atoms: C30_31  and  O3_33 
ROOT
HETATM    1  C8  UNL     1      -1.355   6.366  12.165  1.00  0.00    -0.002 C 
HETATM    2  C9  UNL     1      -0.742   5.478  11.049  1.00  0.00     0.007 C 
HETATM    3  C10 UNL     1       0.758   5.848  10.952  1.00  0.00     0.015 C 
HETATM    4  C11 UNL     1       0.921   7.109  11.829  1.00  0.00    -0.013 C 
HETATM    5  C12 UNL     1       0.547   8.325  10.924  1.00  0.00     0.021 C 
HETATM    6  C13 UNL     1       2.297   7.429  12.404  1.00  0.00    -0.070 C 
HETATM    7  C14 UNL     1       3.437   7.133  11.753  1.00  0.00    -0.022 C 
HETATM    8  C15 UNL     1       4.811   7.505  12.230  1.00  0.00     0.034 C 
HETATM    9  C16 UNL     1       4.848   8.081  13.664  1.00  0.00     0.013 C 
HETATM   10  C17 UNL     1       6.270   8.565  14.115  1.00  0.00     0.018 C 
HETATM   11  C18 UNL     1       7.210   7.336  14.225  1.00  0.00     0.023 C 
HETATM   12  C19 UNL     1       6.962   9.574  13.185  1.00  0.00     0.023 C 
HETATM   13  C20 UNL     1       6.163   9.210  15.506  1.00  0.00     0.135 C 
HETATM   14  O1  UNL     1       6.980   8.995  16.402  1.00  0.00    -0.297 OA
HETATM   15  C21 UNL     1       5.051  10.210  15.719  1.00  0.00     0.080 C 
HETATM   16  C22 UNL     1       3.712   9.579  15.376  1.00  0.00     0.017 C 
HETATM   17  C23 UNL     1       3.632   9.051  13.919  1.00  0.00    -0.031 C 
HETATM   18  C24 UNL     1       3.584  10.251  12.943  1.00  0.00     0.016 C 
HETATM   19  C25 UNL     1       2.326   8.164  13.751  1.00  0.00     0.024 C 
HETATM   20  C26 UNL     1       0.994   8.876  14.094  1.00  0.00     0.010 C 
HETATM   21  C27 UNL     1      -0.294   8.053  13.854  1.00  0.00     0.011 C 
HETATM   22  C28 UNL     1      -0.093   6.799  12.981  1.00  0.00    -0.029 C 
HETATM   23  C29 UNL     1       0.347   5.616  13.899  1.00  0.00     0.016 C 
ENDROOT
BRANCH   1  24
HETATM   24  C6  UNL     1      -2.566   5.804  12.970  1.00  0.00    -0.014 C 
HETATM   25  C7  UNL     1      -2.282   5.378  14.413  1.00  0.00     0.010 C 
BRANCH  24  26
HETATM   26  C5  UNL     1      -3.275   4.656  12.201  1.00  0.00     0.008 C 
BRANCH  26  27
HETATM   27  C4  UNL     1      -4.305   3.867  13.011  1.00  0.00     0.028 C 
BRANCH  27  28
HETATM   28  C3  UNL     1      -5.671   4.494  12.926  1.00  0.00    -0.013 C 
HETATM   29  C2  UNL     1      -6.835   3.890  12.604  1.00  0.00     0.008 C 
HETATM   30  C1  UNL     1      -8.146   4.620  12.625  1.00  0.00     0.055 C 
BRANCH  29  31
HETATM   31  C30 UNL     1      -6.884   2.476  12.169  1.00  0.00     0.171 C 
HETATM   32  O2  UNL     1      -6.124   1.915  11.400  1.00  0.00    -0.646 OA
BRANCH  31  33
HETATM   33  O3  UNL     1      -7.922   1.829  12.727  1.00  0.00    -0.773 OA
HETATM   34  H46 UNL     1      -7.832   0.916  12.384  1.00  0.00     0.167 HD
ENDBRANCH  31  33
ENDBRANCH  29  31
ENDBRANCH  27  28
ENDBRANCH  26  27
ENDBRANCH  24  26
ENDBRANCH   1  24
TORSDOF 6
ENDMDL
