MODEL 1
REMARK minimizedAffinity -10.1535015
REMARK  8 active torsions:
REMARK  status: ('A' for Active; 'I' for Inactive)
REMARK    1  A    between atoms: C2_2  and  C3_3 
REMARK    2  A    between atoms: C2_2  and  C27_30 
REMARK    3  A    between atoms: C3_3  and  C4_4 
REMARK    4  A    between atoms: C4_4  and  C5_5 
REMARK    5  A    between atoms: C5_5  and  C7_7 
REMARK    6  A    between atoms: C26_28  and  O3_29 
REMARK    7  A    between atoms: C27_30  and  C29_32 
REMARK    8  A    between atoms: C29_32  and  O5_34 
ROOT
HETATM    1  C7  UNL     1      -1.049  51.229 -24.865  1.00  0.00    -0.002 C 
HETATM    2  C8  UNL     1      -0.250  52.552 -25.045  1.00  0.00     0.006 C 
HETATM    3  C9  UNL     1       0.209  52.982 -23.644  1.00  0.00     0.010 C 
HETATM    4  C10 UNL     1      -0.078  51.763 -22.767  1.00  0.00     0.027 C 
HETATM    5  C11 UNL     1      -0.081  51.872 -21.258  1.00  0.00    -0.036 C 
HETATM    6  C12 UNL     1      -0.766  50.983 -20.495  1.00  0.00     0.002 C 
HETATM    7  C13 UNL     1      -1.599  49.922 -21.195  1.00  0.00     0.157 C 
HETATM    8  O1  UNL     1      -2.239  49.096 -20.546  1.00  0.00    -0.293 OA
HETATM    9  C14 UNL     1      -1.621  49.853 -22.716  1.00  0.00     0.093 C 
HETATM   10  C15 UNL     1      -1.411  51.227 -23.348  1.00  0.00    -0.026 C 
HETATM   11  C16 UNL     1      -2.620  52.136 -23.023  1.00  0.00     0.016 C 
HETATM   12  C17 UNL     1      -0.758  51.011 -18.951  1.00  0.00    -0.008 C 
HETATM   13  C18 UNL     1      -2.125  51.605 -18.518  1.00  0.00     0.021 C 
HETATM   14  C19 UNL     1      -0.599  49.586 -18.327  1.00  0.00     0.022 C 
HETATM   15  C20 UNL     1       0.143  49.517 -16.991  1.00  0.00     0.080 C 
HETATM   16  C21 UNL     1      -0.007  50.785 -16.192  1.00  0.00     0.131 C 
HETATM   17  O2  UNL     1      -0.360  50.767 -15.014  1.00  0.00    -0.298 OA
HETATM   18  C22 UNL     1       0.384  52.082 -16.886  1.00  0.00     0.056 C 
HETATM   19  C23 UNL     1       1.712  52.560 -16.301  1.00  0.00     0.018 C 
HETATM   20  C24 UNL     1       0.443  51.875 -18.420  1.00  0.00     0.012 C 
HETATM   21  C25 UNL     1       0.549  53.208 -19.171  1.00  0.00     0.042 C 
HETATM   22  C26 UNL     1       0.749  52.983 -20.670  1.00  0.00     0.148 C 
ENDROOT
BRANCH   1  23
HETATM   23  C5  UNL     1      -2.091  50.991 -25.993  1.00  0.00    -0.014 C 
HETATM   24  C6  UNL     1      -3.441  51.703 -25.833  1.00  0.00     0.010 C 
BRANCH  23  25
HETATM   25  C4  UNL     1      -2.367  49.502 -26.315  1.00  0.00     0.009 C 
BRANCH  25  26
HETATM   26  C3  UNL     1      -3.107  48.699 -25.231  1.00  0.00     0.034 C 
BRANCH  26  27
HETATM   27  C2  UNL     1      -4.579  48.380 -25.454  1.00  0.00    -0.075 C 
HETATM   28  C1  UNL     1      -5.101  48.145 -26.672  1.00  0.00     0.015 C 
BRANCH  27  29
HETATM   29  C27 UNL     1      -5.489  48.365 -24.222  1.00  0.00     0.107 C 
HETATM   30  C28 UNL     1      -4.727  47.940 -22.965  1.00  0.00     0.026 C 
BRANCH  29  31
HETATM   31  C29 UNL     1      -6.214  49.696 -24.011  1.00  0.00     0.147 C 
HETATM   32  O4  UNL     1      -5.802  50.697 -23.446  1.00  0.00    -0.650 OA
BRANCH  31  33
HETATM   33  O5  UNL     1      -7.437  49.717 -24.583  1.00  0.00    -0.776 OA
HETATM   34  H42 UNL     1      -7.760  50.625 -24.402  1.00  0.00     0.167 HD
ENDBRANCH  31  33
ENDBRANCH  29  31
ENDBRANCH  27  29
ENDBRANCH  26  27
ENDBRANCH  25  26
ENDBRANCH  23  25
ENDBRANCH   1  23
BRANCH  22  35
HETATM   35  O3  UNL     1       2.119  52.688 -20.920  1.00  0.00    -0.391 OA
HETATM   36  H37 UNL     1       2.275  51.758 -20.685  1.00  0.00     0.210 HD
ENDBRANCH  22  35
TORSDOF 8
ENDMDL
MODEL 2
REMARK minimizedAffinity -10.1130304
REMARK  8 active torsions:
REMARK  status: ('A' for Active; 'I' for Inactive)
REMARK    1  A    between atoms: C2_2  and  C3_3 
REMARK    2  A    between atoms: C2_2  and  C27_30 
REMARK    3  A    between atoms: C3_3  and  C4_4 
REMARK    4  A    between atoms: C4_4  and  C5_5 
REMARK    5  A    between atoms: C5_5  and  C7_7 
REMARK    6  A    between atoms: C26_28  and  O3_29 
REMARK    7  A    between atoms: C27_30  and  C29_32 
REMARK    8  A    between atoms: C29_32  and  O5_34 
ROOT
HETATM    1  C7  UNL     1      -0.788  51.480 -25.369  1.00  0.00    -0.002 C 
HETATM    2  C8  UNL     1       0.037  52.798 -25.422  1.00  0.00     0.006 C 
HETATM    3  C9  UNL     1       0.380  53.159 -23.970  1.00  0.00     0.010 C 
HETATM    4  C10 UNL     1       0.008  51.907 -23.176  1.00  0.00     0.027 C 
HETATM    5  C11 UNL     1      -0.120  51.949 -21.669  1.00  0.00    -0.036 C 
HETATM    6  C12 UNL     1      -0.876  51.037 -21.007  1.00  0.00     0.002 C 
HETATM    7  C13 UNL     1      -1.658  50.020 -21.820  1.00  0.00     0.157 C 
HETATM    8  O1  UNL     1      -2.359  49.175 -21.266  1.00  0.00    -0.293 OA
HETATM    9  C14 UNL     1      -1.552  50.018 -23.340  1.00  0.00     0.093 C 
HETATM   10  C15 UNL     1      -1.277  51.416 -23.890  1.00  0.00    -0.026 C 
HETATM   11  C16 UNL     1      -2.499  52.326 -23.625  1.00  0.00     0.016 C 
HETATM   12  C17 UNL     1      -0.997  50.996 -19.468  1.00  0.00    -0.008 C 
HETATM   13  C18 UNL     1      -2.389  51.590 -19.124  1.00  0.00     0.021 C 
HETATM   14  C19 UNL     1      -0.906  49.542 -18.898  1.00  0.00     0.022 C 
HETATM   15  C20 UNL     1      -0.280  49.404 -17.509  1.00  0.00     0.080 C 
HETATM   16  C21 UNL     1      -0.483  50.638 -16.669  1.00  0.00     0.131 C 
HETATM   17  O2  UNL     1      -0.934  50.573 -15.526  1.00  0.00    -0.298 OA
HETATM   18  C22 UNL     1      -0.022  51.959 -17.268  1.00  0.00     0.056 C 
HETATM   19  C23 UNL     1       1.257  52.392 -16.554  1.00  0.00     0.018 C 
HETATM   20  C24 UNL     1       0.164  51.818 -18.800  1.00  0.00     0.012 C 
HETATM   21  C25 UNL     1       0.346  53.182 -19.478  1.00  0.00     0.042 C 
HETATM   22  C26 UNL     1       0.669  53.021 -20.963  1.00  0.00     0.148 C 
ENDROOT
BRANCH   1  23
HETATM   23  C5  UNL     1      -1.734  51.307 -26.590  1.00  0.00    -0.014 C 
HETATM   24  C6  UNL     1      -2.171  52.595 -27.300  1.00  0.00     0.010 C 
BRANCH  23  25
HETATM   25  C4  UNL     1      -2.998  50.457 -26.313  1.00  0.00     0.009 C 
BRANCH  25  26
HETATM   26  C3  UNL     1      -3.396  49.453 -27.409  1.00  0.00     0.034 C 
BRANCH  26  27
HETATM   27  C2  UNL     1      -4.554  48.505 -27.128  1.00  0.00    -0.075 C 
HETATM   28  C1  UNL     1      -5.025  48.272 -25.887  1.00  0.00     0.015 C 
BRANCH  27  29
HETATM   29  C27 UNL     1      -5.171  47.775 -28.324  1.00  0.00     0.107 C 
HETATM   30  C28 UNL     1      -6.578  47.263 -28.005  1.00  0.00     0.026 C 
BRANCH  29  31
HETATM   31  C29 UNL     1      -5.161  48.621 -29.598  1.00  0.00     0.147 C 
HETATM   32  O4  UNL     1      -5.827  48.468 -30.610  1.00  0.00    -0.650 OA
BRANCH  31  33
HETATM   33  O5  UNL     1      -4.327  49.680 -29.511  1.00  0.00    -0.776 OA
HETATM   34  H42 UNL     1      -4.452  50.141 -30.368  1.00  0.00     0.167 HD
ENDBRANCH  31  33
ENDBRANCH  29  31
ENDBRANCH  27  29
ENDBRANCH  26  27
ENDBRANCH  25  26
ENDBRANCH  23  25
ENDBRANCH   1  23
BRANCH  22  35
HETATM   35  O3  UNL     1       2.052  52.718 -21.112  1.00  0.00    -0.391 OA
HETATM   36  H37 UNL     1       2.179  51.776 -20.906  1.00  0.00     0.210 HD
ENDBRANCH  22  35
TORSDOF 8
ENDMDL
MODEL 3
REMARK minimizedAffinity -10.0536118
REMARK  8 active torsions:
REMARK  status: ('A' for Active; 'I' for Inactive)
REMARK    1  A    between atoms: C2_2  and  C3_3 
REMARK    2  A    between atoms: C2_2  and  C27_30 
REMARK    3  A    between atoms: C3_3  and  C4_4 
REMARK    4  A    between atoms: C4_4  and  C5_5 
REMARK    5  A    between atoms: C5_5  and  C7_7 
REMARK    6  A    between atoms: C26_28  and  O3_29 
REMARK    7  A    between atoms: C27_30  and  C29_32 
REMARK    8  A    between atoms: C29_32  and  O5_34 
ROOT
HETATM    1  C7  UNL     1      -0.109  50.400 -18.594  1.00  0.00    -0.002 C 
HETATM    2  C8  UNL     1      -1.009  49.202 -18.177  1.00  0.00     0.006 C 
HETATM    3  C9  UNL     1      -1.781  48.775 -19.434  1.00  0.00     0.010 C 
HETATM    4  C10 UNL     1      -1.090  49.529 -20.570  1.00  0.00     0.027 C 
HETATM    5  C11 UNL     1      -1.738  49.651 -21.932  1.00  0.00    -0.036 C 
HETATM    6  C12 UNL     1      -1.406  50.660 -22.775  1.00  0.00     0.002 C 
HETATM    7  C13 UNL     1      -0.427  51.716 -22.288  1.00  0.00     0.157 C 
HETATM    8  O1  UNL     1      -0.098  52.652 -23.015  1.00  0.00    -0.293 OA
HETATM    9  C14 UNL     1       0.183  51.603 -20.898  1.00  0.00     0.093 C 
HETATM   10  C15 UNL     1      -0.756  50.897 -19.922  1.00  0.00    -0.026 C 
HETATM   11  C16 UNL     1      -2.009  51.773 -19.684  1.00  0.00     0.016 C 
HETATM   12  C17 UNL     1      -1.991  50.802 -24.197  1.00  0.00    -0.008 C 
HETATM   13  C18 UNL     1      -3.044  51.940 -24.125  1.00  0.00     0.021 C 
HETATM   14  C19 UNL     1      -0.904  51.177 -25.258  1.00  0.00     0.022 C 
HETATM   15  C20 UNL     1      -1.132  50.639 -26.672  1.00  0.00     0.080 C 
HETATM   16  C21 UNL     1      -2.594  50.450 -26.979  1.00  0.00     0.131 C 
HETATM   17  O2  UNL     1      -3.102  50.909 -28.002  1.00  0.00    -0.298 OA
HETATM   18  C22 UNL     1      -3.394  49.593 -26.010  1.00  0.00     0.056 C 
HETATM   19  C23 UNL     1      -3.678  48.248 -26.678  1.00  0.00     0.018 C 
HETATM   20  C24 UNL     1      -2.634  49.447 -24.668  1.00  0.00     0.012 C 
HETATM   21  C25 UNL     1      -3.521  48.839 -23.574  1.00  0.00     0.042 C 
HETATM   22  C26 UNL     1      -2.722  48.571 -22.300  1.00  0.00     0.148 C 
ENDROOT
BRANCH   1  23
HETATM   23  C5  UNL     1       0.236  51.342 -17.407  1.00  0.00    -0.014 C 
HETATM   24  C6  UNL     1       1.029  52.610 -17.753  1.00  0.00     0.010 C 
BRANCH  23  25
HETATM   25  C4  UNL     1       0.936  50.648 -16.213  1.00  0.00     0.009 C 
BRANCH  25  26
HETATM   26  C3  UNL     1       1.374  51.564 -15.056  1.00  0.00     0.034 C 
BRANCH  26  27
HETATM   27  C2  UNL     1       2.854  51.619 -14.706  1.00  0.00    -0.075 C 
HETATM   28  C1  UNL     1       3.785  52.126 -15.537  1.00  0.00     0.015 C 
BRANCH  27  29
HETATM   29  C27 UNL     1       3.280  51.036 -13.355  1.00  0.00     0.107 C 
HETATM   30  C28 UNL     1       2.153  51.127 -12.324  1.00  0.00     0.026 C 
BRANCH  29  31
HETATM   31  C29 UNL     1       3.813  49.607 -13.474  1.00  0.00     0.147 C 
HETATM   32  O4  UNL     1       3.181  48.580 -13.663  1.00  0.00    -0.650 OA
BRANCH  31  33
HETATM   33  O5  UNL     1       5.161  49.548 -13.399  1.00  0.00    -0.776 OA
HETATM   34  H42 UNL     1       5.356  48.596 -13.525  1.00  0.00     0.167 HD
ENDBRANCH  31  33
ENDBRANCH  29  31
ENDBRANCH  27  29
ENDBRANCH  26  27
ENDBRANCH  25  26
ENDBRANCH  23  25
ENDBRANCH   1  23
BRANCH  22  35
HETATM   35  O3  UNL     1      -2.001  47.352 -22.448  1.00  0.00    -0.391 OA
HETATM   36  H37 UNL     1      -1.215  47.530 -22.992  1.00  0.00     0.210 HD
ENDBRANCH  22  35
TORSDOF 8
ENDMDL
MODEL 4
REMARK minimizedAffinity -9.99183083
REMARK  8 active torsions:
REMARK  status: ('A' for Active; 'I' for Inactive)
REMARK    1  A    between atoms: C2_2  and  C3_3 
REMARK    2  A    between atoms: C2_2  and  C27_30 
REMARK    3  A    between atoms: C3_3  and  C4_4 
REMARK    4  A    between atoms: C4_4  and  C5_5 
REMARK    5  A    between atoms: C5_5  and  C7_7 
REMARK    6  A    between atoms: C26_28  and  O3_29 
REMARK    7  A    between atoms: C27_30  and  C29_32 
REMARK    8  A    between atoms: C29_32  and  O5_34 
ROOT
HETATM    1  C7  UNL     1      -2.490  49.669 -24.561  1.00  0.00    -0.002 C 
HETATM    2  C8  UNL     1      -1.765  50.908 -25.159  1.00  0.00     0.006 C 
HETATM    3  C9  UNL     1      -1.053  51.606 -23.991  1.00  0.00     0.010 C 
HETATM    4  C10 UNL     1      -1.142  50.599 -22.844  1.00  0.00     0.027 C 
HETATM    5  C11 UNL     1      -0.856  51.015 -21.418  1.00  0.00    -0.036 C 
HETATM    6  C12 UNL     1      -1.364  50.317 -20.372  1.00  0.00     0.002 C 
HETATM    7  C13 UNL     1      -2.297  49.154 -20.664  1.00  0.00     0.157 C 
HETATM    8  O1  UNL     1      -2.785  48.492 -19.749  1.00  0.00    -0.293 OA
HETATM    9  C14 UNL     1      -2.611  48.775 -22.106  1.00  0.00     0.093 C 
HETATM   10  C15 UNL     1      -2.553  49.985 -23.035  1.00  0.00    -0.026 C 
HETATM   11  C16 UNL     1      -3.692  50.969 -22.676  1.00  0.00     0.016 C 
HETATM   12  C17 UNL     1      -1.059  50.660 -18.897  1.00  0.00    -0.008 C 
HETATM   13  C18 UNL     1      -2.327  51.360 -18.340  1.00  0.00     0.021 C 
HETATM   14  C19 UNL     1      -0.756  49.389 -18.037  1.00  0.00     0.022 C 
HETATM   15  C20 UNL     1       0.230  49.579 -16.883  1.00  0.00     0.080 C 
HETATM   16  C21 UNL     1       0.215  50.987 -16.348  1.00  0.00     0.131 C 
HETATM   17  O2  UNL     1       0.096  51.218 -15.146  1.00  0.00    -0.298 OA
HETATM   18  C22 UNL     1       0.440  52.105 -17.355  1.00  0.00     0.056 C 
HETATM   19  C23 UNL     1       1.848  52.663 -17.148  1.00  0.00     0.018 C 
HETATM   20  C24 UNL     1       0.206  51.587 -18.796  1.00  0.00     0.012 C 
HETATM   21  C25 UNL     1       0.141  52.735 -19.810  1.00  0.00     0.042 C 
HETATM   22  C26 UNL     1       0.052  52.204 -21.241  1.00  0.00     0.148 C 
ENDROOT
BRANCH   1  23
HETATM   23  C5  UNL     1      -3.726  49.228 -25.394  1.00  0.00    -0.014 C 
HETATM   24  C6  UNL     1      -4.797  48.422 -24.646  1.00  0.00     0.010 C 
BRANCH  23  25
HETATM   25  C4  UNL     1      -3.388  48.479 -26.705  1.00  0.00     0.009 C 
BRANCH  25  26
HETATM   26  C3  UNL     1      -4.208  48.876 -27.946  1.00  0.00     0.034 C 
BRANCH  26  27
HETATM   27  C2  UNL     1      -5.360  47.972 -28.362  1.00  0.00    -0.075 C 
HETATM   28  C1  UNL     1      -6.341  47.599 -27.518  1.00  0.00     0.015 C 
BRANCH  27  29
HETATM   29  C27 UNL     1      -5.362  47.454 -29.803  1.00  0.00     0.107 C 
HETATM   30  C28 UNL     1      -6.273  46.235 -29.962  1.00  0.00     0.026 C 
BRANCH  29  31
HETATM   31  C29 UNL     1      -5.708  48.544 -30.819  1.00  0.00     0.147 C 
HETATM   32  O4  UNL     1      -6.808  48.846 -31.255  1.00  0.00    -0.650 OA
BRANCH  31  33
HETATM   33  O5  UNL     1      -4.627  49.255 -31.207  1.00  0.00    -0.776 OA
HETATM   34  H42 UNL     1      -4.999  49.926 -31.816  1.00  0.00     0.167 HD
ENDBRANCH  31  33
ENDBRANCH  29  31
ENDBRANCH  27  29
ENDBRANCH  26  27
ENDBRANCH  25  26
ENDBRANCH  23  25
ENDBRANCH   1  23
BRANCH  22  35
HETATM   35  O3  UNL     1       1.353  51.833 -21.684  1.00  0.00    -0.391 OA
HETATM   36  H37 UNL     1       1.569  50.968 -21.298  1.00  0.00     0.210 HD
ENDBRANCH  22  35
TORSDOF 8
ENDMDL
MODEL 5
REMARK minimizedAffinity -9.95957088
REMARK  8 active torsions:
REMARK  status: ('A' for Active; 'I' for Inactive)
REMARK    1  A    between atoms: C2_2  and  C3_3 
REMARK    2  A    between atoms: C2_2  and  C27_30 
REMARK    3  A    between atoms: C3_3  and  C4_4 
REMARK    4  A    between atoms: C4_4  and  C5_5 
REMARK    5  A    between atoms: C5_5  and  C7_7 
REMARK    6  A    between atoms: C26_28  and  O3_29 
REMARK    7  A    between atoms: C27_30  and  C29_32 
REMARK    8  A    between atoms: C29_32  and  O5_34 
ROOT
HETATM    1  C7  UNL     1      -0.001  52.151 -21.419  1.00  0.00    -0.002 C 
HETATM    2  C8  UNL     1       0.633  53.533 -21.089  1.00  0.00     0.006 C 
HETATM    3  C9  UNL     1       0.980  53.510 -19.593  1.00  0.00     0.010 C 
HETATM    4  C10 UNL     1       0.814  52.044 -19.194  1.00  0.00     0.027 C 
HETATM    5  C11 UNL     1       0.739  51.637 -17.738  1.00  0.00    -0.036 C 
HETATM    6  C12 UNL     1       0.143  50.476 -17.368  1.00  0.00     0.002 C 
HETATM    7  C13 UNL     1      -0.523  49.632 -18.441  1.00  0.00     0.157 C 
HETATM    8  O1  UNL     1      -1.080  48.573 -18.154  1.00  0.00    -0.293 OA
HETATM    9  C14 UNL     1      -0.478  50.078 -19.897  1.00  0.00     0.093 C 
HETATM   10  C15 UNL     1      -0.418  51.599 -20.021  1.00  0.00    -0.026 C 
HETATM   11  C16 UNL     1      -1.743  52.213 -19.509  1.00  0.00     0.016 C 
HETATM   12  C17 UNL     1       0.087  49.982 -15.906  1.00  0.00    -0.008 C 
HETATM   13  C18 UNL     1      -1.358  50.248 -15.409  1.00  0.00     0.021 C 
HETATM   14  C19 UNL     1       0.400  48.455 -15.778  1.00  0.00     0.022 C 
HETATM   15  C20 UNL     1       1.092  48.017 -14.485  1.00  0.00     0.080 C 
HETATM   16  C21 UNL     1       0.755  48.919 -13.327  1.00  0.00     0.131 C 
HETATM   17  O2  UNL     1       0.361  48.467 -12.252  1.00  0.00    -0.298 OA
HETATM   18  C22 UNL     1       1.006  50.407 -13.520  1.00  0.00     0.056 C 
HETATM   19  C23 UNL     1       2.241  50.796 -12.709  1.00  0.00     0.018 C 
HETATM   20  C24 UNL     1       1.150  50.736 -15.027  1.00  0.00     0.012 C 
HETATM   21  C25 UNL     1       1.117  52.248 -15.284  1.00  0.00     0.042 C 
HETATM   22  C26 UNL     1       1.401  52.565 -16.753  1.00  0.00     0.148 C 
ENDROOT
BRANCH   1  23
HETATM   23  C5  UNL     1      -0.961  52.200 -22.640  1.00  0.00    -0.014 C 
HETATM   24  C6  UNL     1      -2.351  51.581 -22.437  1.00  0.00     0.010 C 
BRANCH  23  25
HETATM   25  C4  UNL     1      -0.368  51.631 -23.952  1.00  0.00     0.009 C 
BRANCH  25  26
HETATM   26  C3  UNL     1       0.434  52.617 -24.819  1.00  0.00     0.034 C 
BRANCH  26  27
HETATM   27  C2  UNL     1       0.955  52.130 -26.165  1.00  0.00    -0.075 C 
HETATM   28  C1  UNL     1       2.159  51.547 -26.317  1.00  0.00     0.015 C 
BRANCH  27  29
HETATM   29  C27 UNL     1       0.060  52.354 -27.387  1.00  0.00     0.107 C 
HETATM   30  C28 UNL     1      -1.081  51.336 -27.444  1.00  0.00     0.026 C 
BRANCH  29  31
HETATM   31  C29 UNL     1      -0.468  53.788 -27.474  1.00  0.00     0.147 C 
HETATM   32  O4  UNL     1       0.076  54.815 -27.101  1.00  0.00    -0.650 OA
BRANCH  31  33
HETATM   33  O5  UNL     1      -1.667  53.863 -28.092  1.00  0.00    -0.776 OA
HETATM   34  H42 UNL     1      -1.857  54.824 -28.108  1.00  0.00     0.167 HD
ENDBRANCH  31  33
ENDBRANCH  29  31
ENDBRANCH  27  29
ENDBRANCH  26  27
ENDBRANCH  25  26
ENDBRANCH  23  25
ENDBRANCH   1  23
BRANCH  22  35
HETATM   35  O3  UNL     1       2.806  52.516 -16.979  1.00  0.00    -0.391 OA
HETATM   36  H37 UNL     1       3.068  51.584 -17.052  1.00  0.00     0.210 HD
ENDBRANCH  22  35
TORSDOF 8
ENDMDL
MODEL 6
REMARK minimizedAffinity -9.80260658
REMARK  8 active torsions:
REMARK  status: ('A' for Active; 'I' for Inactive)
REMARK    1  A    between atoms: C2_2  and  C3_3 
REMARK    2  A    between atoms: C2_2  and  C27_30 
REMARK    3  A    between atoms: C3_3  and  C4_4 
REMARK    4  A    between atoms: C4_4  and  C5_5 
REMARK    5  A    between atoms: C5_5  and  C7_7 
REMARK    6  A    between atoms: C26_28  and  O3_29 
REMARK    7  A    between atoms: C27_30  and  C29_32 
REMARK    8  A    between atoms: C29_32  and  O5_34 
ROOT
HETATM    1  C7  UNL     1       0.011  50.444 -17.913  1.00  0.00    -0.002 C 
HETATM    2  C8  UNL     1      -0.822  49.178 -17.562  1.00  0.00     0.006 C 
HETATM    3  C9  UNL     1      -1.541  48.755 -18.852  1.00  0.00     0.010 C 
HETATM    4  C10 UNL     1      -0.875  49.593 -19.943  1.00  0.00     0.027 C 
HETATM    5  C11 UNL     1      -1.502  49.730 -21.313  1.00  0.00    -0.036 C 
HETATM    6  C12 UNL     1      -1.216  50.790 -22.110  1.00  0.00     0.002 C 
HETATM    7  C13 UNL     1      -0.314  51.882 -21.561  1.00  0.00     0.157 C 
HETATM    8  O1  UNL     1      -0.028  52.864 -22.244  1.00  0.00    -0.293 OA
HETATM    9  C14 UNL     1       0.275  51.752 -20.163  1.00  0.00     0.093 C 
HETATM   10  C15 UNL     1      -0.639  50.952 -19.236  1.00  0.00    -0.026 C 
HETATM   11  C16 UNL     1      -1.948  51.741 -18.993  1.00  0.00     0.016 C 
HETATM   12  C17 UNL     1      -1.780  50.952 -23.538  1.00  0.00    -0.008 C 
HETATM   13  C18 UNL     1      -2.902  52.019 -23.446  1.00  0.00     0.021 C 
HETATM   14  C19 UNL     1      -0.698  51.433 -24.559  1.00  0.00     0.022 C 
HETATM   15  C20 UNL     1      -0.863  50.938 -25.997  1.00  0.00     0.080 C 
HETATM   16  C21 UNL     1      -2.305  50.674 -26.344  1.00  0.00     0.131 C 
HETATM   17  O2  UNL     1      -2.819  51.141 -27.359  1.00  0.00    -0.298 OA
HETATM   18  C22 UNL     1      -3.070  49.732 -25.427  1.00  0.00     0.056 C 
HETATM   19  C23 UNL     1      -3.258  48.400 -26.151  1.00  0.00     0.018 C 
HETATM   20  C24 UNL     1      -2.329  49.580 -24.074  1.00  0.00     0.012 C 
HETATM   21  C25 UNL     1      -3.199  48.877 -23.025  1.00  0.00     0.042 C 
HETATM   22  C26 UNL     1      -2.410  48.607 -21.744  1.00  0.00     0.148 C 
ENDROOT
BRANCH   1  23
HETATM   23  C5  UNL     1       0.274  51.357 -16.684  1.00  0.00    -0.014 C 
HETATM   24  C6  UNL     1       1.651  52.034 -16.621  1.00  0.00     0.010 C 
BRANCH  23  25
HETATM   25  C4  UNL     1       0.002  50.691 -15.313  1.00  0.00     0.009 C 
BRANCH  25  26
HETATM   26  C3  UNL     1      -0.872  51.490 -14.330  1.00  0.00     0.034 C 
BRANCH  26  27
HETATM   27  C2  UNL     1      -2.369  51.214 -14.316  1.00  0.00    -0.075 C 
HETATM   28  C1  UNL     1      -3.072  50.929 -15.429  1.00  0.00     0.015 C 
BRANCH  27  29
HETATM   29  C27 UNL     1      -3.088  51.304 -12.966  1.00  0.00     0.107 C 
HETATM   30  C28 UNL     1      -2.193  50.826 -11.820  1.00  0.00     0.026 C 
BRANCH  29  31
HETATM   31  C29 UNL     1      -3.649  52.700 -12.691  1.00  0.00     0.147 C 
HETATM   32  O4  UNL     1      -3.761  53.268 -11.616  1.00  0.00    -0.650 OA
BRANCH  31  33
HETATM   33  O5  UNL     1      -4.001  53.351 -13.821  1.00  0.00    -0.776 OA
HETATM   34  H42 UNL     1      -4.301  54.226 -13.498  1.00  0.00     0.167 HD
ENDBRANCH  31  33
ENDBRANCH  29  31
ENDBRANCH  27  29
ENDBRANCH  26  27
ENDBRANCH  25  26
ENDBRANCH  23  25
ENDBRANCH   1  23
BRANCH  22  35
HETATM   35  O3  UNL     1      -1.613  47.441 -21.922  1.00  0.00    -0.391 OA
HETATM   36  H37 UNL     1      -0.829  47.687 -22.441  1.00  0.00     0.210 HD
ENDBRANCH  22  35
TORSDOF 8
ENDMDL
MODEL 7
REMARK minimizedAffinity -9.63861942
REMARK  8 active torsions:
REMARK  status: ('A' for Active; 'I' for Inactive)
REMARK    1  A    between atoms: C2_2  and  C3_3 
REMARK    2  A    between atoms: C2_2  and  C27_30 
REMARK    3  A    between atoms: C3_3  and  C4_4 
REMARK    4  A    between atoms: C4_4  and  C5_5 
REMARK    5  A    between atoms: C5_5  and  C7_7 
REMARK    6  A    between atoms: C26_28  and  O3_29 
REMARK    7  A    between atoms: C27_30  and  C29_32 
REMARK    8  A    between atoms: C29_32  and  O5_34 
ROOT
HETATM    1  C7  UNL     1      -0.589  51.248 -21.361  1.00  0.00    -0.002 C 
HETATM    2  C8  UNL     1      -0.982  51.887 -19.999  1.00  0.00     0.006 C 
HETATM    3  C9  UNL     1      -2.440  51.486 -19.730  1.00  0.00     0.010 C 
HETATM    4  C10 UNL     1      -2.729  50.408 -20.774  1.00  0.00     0.027 C 
HETATM    5  C11 UNL     1      -4.147  49.975 -21.076  1.00  0.00    -0.036 C 
HETATM    6  C12 UNL     1      -4.465  49.406 -22.265  1.00  0.00     0.002 C 
HETATM    7  C13 UNL     1      -3.381  49.287 -23.322  1.00  0.00     0.157 C 
HETATM    8  O1  UNL     1      -3.621  48.780 -24.417  1.00  0.00    -0.293 OA
HETATM    9  C14 UNL     1      -1.968  49.768 -23.020  1.00  0.00     0.093 C 
HETATM   10  C15 UNL     1      -1.964  50.923 -22.021  1.00  0.00    -0.026 C 
HETATM   11  C16 UNL     1      -2.626  52.165 -22.664  1.00  0.00     0.016 C 
HETATM   12  C17 UNL     1      -5.882  48.893 -22.606  1.00  0.00    -0.008 C 
HETATM   13  C18 UNL     1      -6.509  49.943 -23.561  1.00  0.00     0.021 C 
HETATM   14  C19 UNL     1      -5.859  47.501 -23.319  1.00  0.00     0.022 C 
HETATM   15  C20 UNL     1      -7.054  46.586 -23.043  1.00  0.00     0.080 C 
HETATM   16  C21 UNL     1      -8.305  47.364 -22.731  1.00  0.00     0.131 C 
HETATM   17  O2  UNL     1      -9.366  47.138 -23.311  1.00  0.00    -0.298 OA
HETATM   18  C22 UNL     1      -8.217  48.382 -21.604  1.00  0.00     0.056 C 
HETATM   19  C23 UNL     1      -8.960  47.824 -20.391  1.00  0.00     0.018 C 
HETATM   20  C24 UNL     1      -6.735  48.718 -21.298  1.00  0.00     0.012 C 
HETATM   21  C25 UNL     1      -6.606  49.938 -20.378  1.00  0.00     0.042 C 
HETATM   22  C26 UNL     1      -5.152  50.172 -19.971  1.00  0.00     0.148 C 
ENDROOT
BRANCH   1  23
HETATM   23  C5  UNL     1       0.546  52.020 -22.089  1.00  0.00    -0.014 C 
HETATM   24  C6  UNL     1       1.220  53.147 -21.294  1.00  0.00     0.010 C 
BRANCH  23  25
HETATM   25  C4  UNL     1       0.161  52.577 -23.481  1.00  0.00     0.009 C 
BRANCH  25  26
HETATM   26  C3  UNL     1       1.029  52.112 -24.663  1.00  0.00     0.034 C 
BRANCH  26  27
HETATM   27  C2  UNL     1       0.335  51.789 -25.979  1.00  0.00    -0.075 C 
HETATM   28  C1  UNL     1      -0.505  50.747 -26.127  1.00  0.00     0.015 C 
BRANCH  27  29
HETATM   29  C27 UNL     1       0.650  52.687 -27.179  1.00  0.00     0.107 C 
HETATM   30  C28 UNL     1       0.438  51.950 -28.504  1.00  0.00     0.026 C 
BRANCH  29  31
HETATM   31  C29 UNL     1      -0.124  54.006 -27.146  1.00  0.00     0.147 C 
HETATM   32  O4  UNL     1       0.155  55.028 -26.539  1.00  0.00    -0.650 OA
BRANCH  31  33
HETATM   33  O5  UNL     1      -1.215  53.988 -27.942  1.00  0.00    -0.776 OA
HETATM   34  H42 UNL     1      -1.582  54.893 -27.850  1.00  0.00     0.167 HD
ENDBRANCH  31  33
ENDBRANCH  29  31
ENDBRANCH  27  29
ENDBRANCH  26  27
ENDBRANCH  25  26
ENDBRANCH  23  25
ENDBRANCH   1  23
BRANCH  22  35
HETATM   35  O3  UNL     1      -4.815  49.286 -18.908  1.00  0.00    -0.391 OA
HETATM   36  H37 UNL     1      -4.645  48.408 -19.289  1.00  0.00     0.210 HD
ENDBRANCH  22  35
TORSDOF 8
ENDMDL
MODEL 8
REMARK minimizedAffinity -9.50728321
REMARK  8 active torsions:
REMARK  status: ('A' for Active; 'I' for Inactive)
REMARK    1  A    between atoms: C2_2  and  C3_3 
REMARK    2  A    between atoms: C2_2  and  C27_30 
REMARK    3  A    between atoms: C3_3  and  C4_4 
REMARK    4  A    between atoms: C4_4  and  C5_5 
REMARK    5  A    between atoms: C5_5  and  C7_7 
REMARK    6  A    between atoms: C26_28  and  O3_29 
REMARK    7  A    between atoms: C27_30  and  C29_32 
REMARK    8  A    between atoms: C29_32  and  O5_34 
ROOT
HETATM    1  C7  UNL     1      -1.535  52.218 -22.933  1.00  0.00    -0.002 C 
HETATM    2  C8  UNL     1      -2.333  52.410 -24.254  1.00  0.00     0.006 C 
HETATM    3  C9  UNL     1      -3.645  51.629 -24.091  1.00  0.00     0.010 C 
HETATM    4  C10 UNL     1      -3.686  51.275 -22.605  1.00  0.00     0.027 C 
HETATM    5  C11 UNL     1      -4.644  50.228 -22.079  1.00  0.00    -0.036 C 
HETATM    6  C12 UNL     1      -4.394  49.574 -20.917  1.00  0.00     0.002 C 
HETATM    7  C13 UNL     1      -3.088  49.857 -20.195  1.00  0.00     0.157 C 
HETATM    8  O1  UNL     1      -2.815  49.286 -19.140  1.00  0.00    -0.293 OA
HETATM    9  C14 UNL     1      -2.113  50.881 -20.760  1.00  0.00     0.093 C 
HETATM   10  C15 UNL     1      -2.201  50.968 -22.283  1.00  0.00    -0.026 C 
HETATM   11  C16 UNL     1      -1.711  49.639 -22.906  1.00  0.00     0.016 C 
HETATM   12  C17 UNL     1      -5.363  48.538 -20.304  1.00  0.00    -0.008 C 
HETATM   13  C18 UNL     1      -4.747  47.143 -20.587  1.00  0.00     0.021 C 
HETATM   14  C19 UNL     1      -5.533  48.719 -18.760  1.00  0.00     0.022 C 
HETATM   15  C20 UNL     1      -6.900  48.340 -18.186  1.00  0.00     0.080 C 
HETATM   16  C21 UNL     1      -7.581  47.271 -19.000  1.00  0.00     0.131 C 
HETATM   17  O2  UNL     1      -8.041  46.258 -18.476  1.00  0.00    -0.298 OA
HETATM   18  C22 UNL     1      -7.749  47.544 -20.487  1.00  0.00     0.056 C 
HETATM   19  C23 UNL     1      -9.218  47.866 -20.755  1.00  0.00     0.018 C 
HETATM   20  C24 UNL     1      -6.795  48.679 -20.937  1.00  0.00     0.012 C 
HETATM   21  C25 UNL     1      -6.723  48.790 -22.465  1.00  0.00     0.042 C 
HETATM   22  C26 UNL     1      -5.892  50.000 -22.892  1.00  0.00     0.148 C 
ENDROOT
BRANCH   1  23
HETATM   23  C5  UNL     1       0.001  52.366 -23.124  1.00  0.00    -0.014 C 
HETATM   24  C6  UNL     1       0.719  53.313 -22.154  1.00  0.00     0.010 C 
BRANCH  23  25
HETATM   25  C4  UNL     1       0.441  52.726 -24.564  1.00  0.00     0.009 C 
BRANCH  25  26
HETATM   26  C3  UNL     1       0.792  51.544 -25.484  1.00  0.00     0.034 C 
BRANCH  26  27
HETATM   27  C2  UNL     1       0.984  51.822 -26.968  1.00  0.00    -0.075 C 
HETATM   28  C1  UNL     1       2.197  51.888 -27.550  1.00  0.00     0.015 C 
BRANCH  27  29
HETATM   29  C27 UNL     1      -0.275  52.066 -27.806  1.00  0.00     0.107 C 
HETATM   30  C28 UNL     1      -1.395  51.091 -27.435  1.00  0.00     0.026 C 
BRANCH  29  31
HETATM   31  C29 UNL     1      -0.754  53.517 -27.738  1.00  0.00     0.147 C 
HETATM   32  O4  UNL     1      -0.121  54.505 -27.399  1.00  0.00    -0.650 OA
BRANCH  31  33
HETATM   33  O5  UNL     1      -2.028  53.664 -28.163  1.00  0.00    -0.776 OA
HETATM   34  H42 UNL     1      -2.181  54.630 -28.100  1.00  0.00     0.167 HD
ENDBRANCH  31  33
ENDBRANCH  29  31
ENDBRANCH  27  29
ENDBRANCH  26  27
ENDBRANCH  25  26
ENDBRANCH  23  25
ENDBRANCH   1  23
BRANCH  22  35
HETATM   35  O3  UNL     1      -6.694  51.173 -22.805  1.00  0.00    -0.391 OA
HETATM   36  H37 UNL     1      -6.738  51.440 -21.871  1.00  0.00     0.210 HD
ENDBRANCH  22  35
TORSDOF 8
ENDMDL
MODEL 9
REMARK minimizedAffinity -9.43545341
REMARK  8 active torsions:
REMARK  status: ('A' for Active; 'I' for Inactive)
REMARK    1  A    between atoms: C2_2  and  C3_3 
REMARK    2  A    between atoms: C2_2  and  C27_30 
REMARK    3  A    between atoms: C3_3  and  C4_4 
REMARK    4  A    between atoms: C4_4  and  C5_5 
REMARK    5  A    between atoms: C5_5  and  C7_7 
REMARK    6  A    between atoms: C26_28  and  O3_29 
REMARK    7  A    between atoms: C27_30  and  C29_32 
REMARK    8  A    between atoms: C29_32  and  O5_34 
ROOT
HETATM    1  C7  UNL     1      -0.838  52.335 -21.903  1.00  0.00    -0.002 C 
HETATM    2  C8  UNL     1       0.021  52.066 -23.172  1.00  0.00     0.006 C 
HETATM    3  C9  UNL     1      -0.825  51.175 -24.093  1.00  0.00     0.010 C 
HETATM    4  C10 UNL     1      -2.220  51.212 -23.469  1.00  0.00     0.027 C 
HETATM    5  C11 UNL     1      -3.280  50.210 -23.871  1.00  0.00    -0.036 C 
HETATM    6  C12 UNL     1      -4.315  49.918 -23.044  1.00  0.00     0.002 C 
HETATM    7  C13 UNL     1      -4.341  50.558 -21.666  1.00  0.00     0.157 C 
HETATM    8  O1  UNL     1      -5.256  50.322 -20.879  1.00  0.00    -0.293 OA
HETATM    9  C14 UNL     1      -3.242  51.531 -21.259  1.00  0.00     0.093 C 
HETATM   10  C15 UNL     1      -1.918  51.211 -21.949  1.00  0.00    -0.026 C 
HETATM   11  C16 UNL     1      -1.385  49.850 -21.441  1.00  0.00     0.016 C 
HETATM   12  C17 UNL     1      -5.455  48.948 -23.424  1.00  0.00    -0.008 C 
HETATM   13  C18 UNL     1      -5.180  47.628 -22.656  1.00  0.00     0.021 C 
HETATM   14  C19 UNL     1      -6.864  49.492 -23.019  1.00  0.00     0.022 C 
HETATM   15  C20 UNL     1      -8.028  49.084 -23.924  1.00  0.00     0.080 C 
HETATM   16  C21 UNL     1      -7.787  47.756 -24.595  1.00  0.00     0.131 C 
HETATM   17  O2  UNL     1      -8.625  46.857 -24.562  1.00  0.00    -0.298 OA
HETATM   18  C22 UNL     1      -6.495  47.612 -25.386  1.00  0.00     0.056 C 
HETATM   19  C23 UNL     1      -6.837  47.643 -26.875  1.00  0.00     0.018 C 
HETATM   20  C24 UNL     1      -5.489  48.717 -24.978  1.00  0.00     0.012 C 
HETATM   21  C25 UNL     1      -4.086  48.442 -25.534  1.00  0.00     0.042 C 
HETATM   22  C26 UNL     1      -3.139  49.607 -25.245  1.00  0.00     0.148 C 
ENDROOT
BRANCH   1  23
HETATM   23  C5  UNL     1       0.020  52.644 -20.644  1.00  0.00    -0.014 C 
HETATM   24  C6  UNL     1       1.472  53.072 -20.899  1.00  0.00     0.010 C 
BRANCH  23  25
HETATM   25  C4  UNL     1       0.029  51.524 -19.576  1.00  0.00     0.009 C 
BRANCH  25  26
HETATM   26  C3  UNL     1       0.042  51.984 -18.108  1.00  0.00     0.034 C 
BRANCH  26  27
HETATM   27  C2  UNL     1       0.574  51.018 -17.058  1.00  0.00    -0.075 C 
HETATM   28  C1  UNL     1       0.113  49.760 -16.919  1.00  0.00     0.015 C 
BRANCH  27  29
HETATM   29  C27 UNL     1       1.660  51.538 -16.111  1.00  0.00     0.107 C 
HETATM   30  C28 UNL     1       2.481  52.657 -16.756  1.00  0.00     0.026 C 
BRANCH  29  31
HETATM   31  C29 UNL     1       1.099  51.970 -14.754  1.00  0.00     0.147 C 
HETATM   32  O4  UNL     1      -0.069  52.017 -14.403  1.00  0.00    -0.650 OA
BRANCH  31  33
HETATM   33  O5  UNL     1       2.069  52.278 -13.866  1.00  0.00    -0.776 OA
HETATM   34  H42 UNL     1       1.571  52.496 -13.050  1.00  0.00     0.167 HD
ENDBRANCH  31  33
ENDBRANCH  29  31
ENDBRANCH  27  29
ENDBRANCH  26  27
ENDBRANCH  25  26
ENDBRANCH  23  25
ENDBRANCH   1  23
BRANCH  22  35
HETATM   35  O3  UNL     1      -3.359  50.637 -26.202  1.00  0.00    -0.391 OA
HETATM   36  H37 UNL     1      -4.158  51.125 -25.942  1.00  0.00     0.210 HD
ENDBRANCH  22  35
TORSDOF 8
ENDMDL
