MODEL 1
REMARK minimizedAffinity -7.17358446
REMARK CNNscore 0.466816068
REMARK CNNaffinity 5.93901873
REMARK  6 active torsions:
REMARK  status: ('A' for Active; 'I' for Inactive)
REMARK    1  A    between atoms: C2_2  and  C30_31 
REMARK    2  A    between atoms: C3_3  and  C4_4 
REMARK    3  A    between atoms: C4_4  and  C5_5 
REMARK    4  A    between atoms: C5_5  and  C6_6 
REMARK    5  A    between atoms: C6_6  and  C8_8 
REMARK    6  A    between atoms: C30_31  and  O3_33 
ROOT
HETATM    1  C8  UNL     1     -14.650  46.262 -25.780  1.00  0.00    -0.002 C 
HETATM    2  C9  UNL     1     -14.657  44.726 -25.591  1.00  0.00     0.007 C 
HETATM    3  C10 UNL     1     -13.632  44.154 -26.606  1.00  0.00     0.015 C 
HETATM    4  C11 UNL     1     -13.288  45.342 -27.536  1.00  0.00    -0.013 C 
HETATM    5  C12 UNL     1     -14.418  45.383 -28.615  1.00  0.00     0.021 C 
HETATM    6  C13 UNL     1     -11.958  45.409 -28.284  1.00  0.00    -0.070 C 
HETATM    7  C14 UNL     1     -11.021  44.444 -28.234  1.00  0.00    -0.022 C 
HETATM    8  C15 UNL     1      -9.644  44.574 -28.816  1.00  0.00     0.034 C 
HETATM    9  C16 UNL     1      -9.274  46.040 -29.148  1.00  0.00     0.013 C 
HETATM   10  C17 UNL     1      -7.825  46.261 -29.727  1.00  0.00     0.018 C 
HETATM   11  C18 UNL     1      -7.008  47.143 -28.753  1.00  0.00     0.023 C 
HETATM   12  C19 UNL     1      -7.034  44.947 -29.911  1.00  0.00     0.023 C 
HETATM   13  C20 UNL     1      -7.832  47.008 -31.073  1.00  0.00     0.135 C 
HETATM   14  O1  UNL     1      -7.036  46.741 -31.976  1.00  0.00    -0.297 OA
HETATM   15  C21 UNL     1      -8.780  48.174 -31.256  1.00  0.00     0.080 C 
HETATM   16  C22 UNL     1      -9.982  48.142 -30.326  1.00  0.00     0.017 C 
HETATM   17  C23 UNL     1     -10.435  46.716 -29.950  1.00  0.00    -0.031 C 
HETATM   18  C24 UNL     1     -10.780  45.929 -31.253  1.00  0.00     0.016 C 
HETATM   19  C25 UNL     1     -11.747  46.726 -29.060  1.00  0.00     0.024 C 
HETATM   20  C26 UNL     1     -11.899  47.942 -28.104  1.00  0.00     0.010 C 
HETATM   21  C27 UNL     1     -13.161  47.881 -27.209  1.00  0.00     0.011 C 
HETATM   22  C28 UNL     1     -13.290  46.526 -26.486  1.00  0.00    -0.029 C 
HETATM   23  C29 UNL     1     -12.100  46.433 -25.477  1.00  0.00     0.016 C 
ENDROOT
BRANCH   1  24
HETATM   24  C6  UNL     1     -15.051  47.123 -24.550  1.00  0.00    -0.014 C 
HETATM   25  C7  UNL     1     -16.588  47.088 -24.406  1.00  0.00     0.010 C 
BRANCH  24  26
HETATM   26  C5  UNL     1     -14.417  46.726 -23.198  1.00  0.00     0.008 C 
BRANCH  26  27
HETATM   27  C4  UNL     1     -15.449  46.552 -22.072  1.00  0.00     0.028 C 
BRANCH  27  28
HETATM   28  C3  UNL     1     -15.111  47.318 -20.821  1.00  0.00    -0.013 C 
HETATM   29  C2  UNL     1     -15.777  47.320 -19.649  1.00  0.00     0.008 C 
HETATM   30  C1  UNL     1     -15.305  48.115 -18.465  1.00  0.00     0.055 C 
BRANCH  29  31
HETATM   31  C30 UNL     1     -17.048  46.580 -19.485  1.00  0.00     0.171 C 
HETATM   32  O2  UNL     1     -17.182  45.413 -19.167  1.00  0.00    -0.646 OA
BRANCH  31  33
HETATM   33  O3  UNL     1     -18.112  47.358 -19.740  1.00  0.00    -0.773 OA
HETATM   34  H46 UNL     1     -18.871  46.758 -19.588  1.00  0.00     0.167 HD
ENDBRANCH  31  33
ENDBRANCH  29  31
ENDBRANCH  27  28
ENDBRANCH  26  27
ENDBRANCH  24  26
ENDBRANCH   1  24
TORSDOF 6
ENDMDL
MODEL 2
REMARK minimizedAffinity -7.18580818
REMARK CNNscore 0.45640102
REMARK CNNaffinity 5.87496185
REMARK  6 active torsions:
REMARK  status: ('A' for Active; 'I' for Inactive)
REMARK    1  A    between atoms: C2_2  and  C30_31 
REMARK    2  A    between atoms: C3_3  and  C4_4 
REMARK    3  A    between atoms: C4_4  and  C5_5 
REMARK    4  A    between atoms: C5_5  and  C6_6 
REMARK    5  A    between atoms: C6_6  and  C8_8 
REMARK    6  A    between atoms: C30_31  and  O3_33 
ROOT
HETATM    1  C8  UNL     1     -13.341  46.314 -26.274  1.00  0.00    -0.002 C 
HETATM    2  C9  UNL     1     -14.476  46.118 -27.308  1.00  0.00     0.007 C 
HETATM    3  C10 UNL     1     -13.808  46.170 -28.707  1.00  0.00     0.015 C 
HETATM    4  C11 UNL     1     -12.371  46.680 -28.444  1.00  0.00    -0.013 C 
HETATM    5  C12 UNL     1     -12.475  48.238 -28.375  1.00  0.00     0.021 C 
HETATM    6  C13 UNL     1     -11.223  46.354 -29.398  1.00  0.00    -0.070 C 
HETATM    7  C14 UNL     1     -11.372  45.655 -30.538  1.00  0.00    -0.022 C 
HETATM    8  C15 UNL     1     -10.232  45.176 -31.389  1.00  0.00     0.034 C 
HETATM    9  C16 UNL     1      -8.873  45.234 -30.650  1.00  0.00     0.013 C 
HETATM   10  C17 UNL     1      -7.632  44.709 -31.469  1.00  0.00     0.018 C 
HETATM   11  C18 UNL     1      -7.030  43.474 -30.758  1.00  0.00     0.023 C 
HETATM   12  C19 UNL     1      -7.990  44.268 -32.905  1.00  0.00     0.023 C 
HETATM   13  C20 UNL     1      -6.496  45.746 -31.554  1.00  0.00     0.135 C 
HETATM   14  O1  UNL     1      -5.804  45.877 -32.566  1.00  0.00    -0.297 OA
HETATM   15  C21 UNL     1      -6.155  46.558 -30.324  1.00  0.00     0.080 C 
HETATM   16  C22 UNL     1      -7.293  46.665 -29.321  1.00  0.00     0.017 C 
HETATM   17  C23 UNL     1      -8.693  46.631 -29.969  1.00  0.00    -0.031 C 
HETATM   18  C24 UNL     1      -8.809  47.800 -30.996  1.00  0.00     0.016 C 
HETATM   19  C25 UNL     1      -9.845  46.842 -28.901  1.00  0.00     0.024 C 
HETATM   20  C26 UNL     1      -9.556  46.279 -27.481  1.00  0.00     0.010 C 
HETATM   21  C27 UNL     1     -10.731  46.450 -26.488  1.00  0.00     0.011 C 
HETATM   22  C28 UNL     1     -12.063  45.945 -27.077  1.00  0.00    -0.029 C 
HETATM   23  C29 UNL     1     -11.927  44.397 -27.248  1.00  0.00     0.016 C 
ENDROOT
BRANCH   1  24
HETATM   24  C6  UNL     1     -13.562  45.699 -24.864  1.00  0.00    -0.014 C 
HETATM   25  C7  UNL     1     -13.107  46.725 -23.804  1.00  0.00     0.010 C 
BRANCH  24  26
HETATM   26  C5  UNL     1     -15.001  45.245 -24.531  1.00  0.00     0.008 C 
BRANCH  26  27
HETATM   27  C4  UNL     1     -15.865  46.364 -23.927  1.00  0.00     0.028 C 
BRANCH  27  28
HETATM   28  C3  UNL     1     -17.071  45.858 -23.181  1.00  0.00    -0.013 C 
HETATM   29  C2  UNL     1     -18.350  45.827 -23.606  1.00  0.00     0.008 C 
HETATM   30  C1  UNL     1     -19.456  45.262 -22.761  1.00  0.00     0.055 C 
BRANCH  29  31
HETATM   31  C30 UNL     1     -18.743  46.404 -24.910  1.00  0.00     0.171 C 
HETATM   32  O2  UNL     1     -18.705  45.858 -25.996  1.00  0.00    -0.646 OA
BRANCH  31  33
HETATM   33  O3  UNL     1     -19.169  47.672 -24.784  1.00  0.00    -0.773 OA
HETATM   34  H46 UNL     1     -19.402  47.924 -25.701  1.00  0.00     0.167 HD
ENDBRANCH  31  33
ENDBRANCH  29  31
ENDBRANCH  27  28
ENDBRANCH  26  27
ENDBRANCH  24  26
ENDBRANCH   1  24
TORSDOF 6
ENDMDL
MODEL 3
REMARK minimizedAffinity -7.33903742
REMARK CNNscore 0.35093236
REMARK CNNaffinity 6.1783905
REMARK  6 active torsions:
REMARK  status: ('A' for Active; 'I' for Inactive)
REMARK    1  A    between atoms: C2_2  and  C30_31 
REMARK    2  A    between atoms: C3_3  and  C4_4 
REMARK    3  A    between atoms: C4_4  and  C5_5 
REMARK    4  A    between atoms: C5_5  and  C6_6 
REMARK    5  A    between atoms: C6_6  and  C8_8 
REMARK    6  A    between atoms: C30_31  and  O3_33 
ROOT
HETATM    1  C8  UNL     1      -7.937  47.111 -19.641  1.00  0.00    -0.002 C 
HETATM    2  C9  UNL     1      -7.248  45.740 -19.431  1.00  0.00     0.007 C 
HETATM    3  C10 UNL     1      -5.829  45.864 -20.046  1.00  0.00     0.015 C 
HETATM    4  C11 UNL     1      -5.853  47.191 -20.840  1.00  0.00    -0.013 C 
HETATM    5  C12 UNL     1      -6.485  46.849 -22.228  1.00  0.00     0.021 C 
HETATM    6  C13 UNL     1      -4.572  47.977 -21.117  1.00  0.00    -0.070 C 
HETATM    7  C14 UNL     1      -3.346  47.566 -20.744  1.00  0.00    -0.022 C 
HETATM    8  C15 UNL     1      -2.107  48.406 -20.851  1.00  0.00     0.034 C 
HETATM    9  C16 UNL     1      -2.421  49.904 -21.077  1.00  0.00     0.013 C 
HETATM   10  C17 UNL     1      -1.167  50.856 -21.160  1.00  0.00     0.018 C 
HETATM   11  C18 UNL     1      -1.212  51.872 -19.994  1.00  0.00     0.023 C 
HETATM   12  C19 UNL     1       0.178  50.106 -21.048  1.00  0.00     0.023 C 
HETATM   13  C20 UNL     1      -1.142  51.694 -22.452  1.00  0.00     0.135 C 
HETATM   14  O1  UNL     1      -0.092  51.959 -23.042  1.00  0.00    -0.297 OA
HETATM   15  C21 UNL     1      -2.437  52.293 -22.959  1.00  0.00     0.080 C 
HETATM   16  C22 UNL     1      -3.682  51.573 -22.468  1.00  0.00     0.017 C 
HETATM   17  C23 UNL     1      -3.469  50.063 -22.228  1.00  0.00    -0.031 C 
HETATM   18  C24 UNL     1      -2.986  49.398 -23.554  1.00  0.00     0.016 C 
HETATM   19  C25 UNL     1      -4.814  49.334 -21.812  1.00  0.00     0.024 C 
HETATM   20  C26 UNL     1      -5.813  50.190 -20.985  1.00  0.00     0.010 C 
HETATM   21  C27 UNL     1      -7.083  49.420 -20.546  1.00  0.00     0.011 C 
HETATM   22  C28 UNL     1      -6.740  48.076 -19.874  1.00  0.00    -0.029 C 
HETATM   23  C29 UNL     1      -6.012  48.411 -18.532  1.00  0.00     0.016 C 
ENDROOT
BRANCH   1  24
HETATM   24  C6  UNL     1      -9.047  47.502 -18.628  1.00  0.00    -0.014 C 
HETATM   25  C7  UNL     1      -9.150  49.042 -18.581  1.00  0.00     0.010 C 
BRANCH  24  26
HETATM   26  C5  UNL     1     -10.454  46.920 -18.893  1.00  0.00     0.008 C 
BRANCH  26  27
HETATM   27  C4  UNL     1     -11.396  47.035 -17.684  1.00  0.00     0.028 C 
BRANCH  27  28
HETATM   28  C3  UNL     1     -12.741  47.623 -18.022  1.00  0.00    -0.013 C 
HETATM   29  C2  UNL     1     -13.931  47.341 -17.454  1.00  0.00     0.008 C 
HETATM   30  C1  UNL     1     -15.197  48.033 -17.874  1.00  0.00     0.055 C 
BRANCH  29  31
HETATM   31  C30 UNL     1     -14.061  46.289 -16.423  1.00  0.00     0.171 C 
HETATM   32  O2  UNL     1     -14.188  46.448 -15.223  1.00  0.00    -0.646 OA
BRANCH  31  33
HETATM   33  O3  UNL     1     -14.020  45.059 -16.960  1.00  0.00    -0.773 OA
HETATM   34  H46 UNL     1     -14.125  44.470 -16.185  1.00  0.00     0.167 HD
ENDBRANCH  31  33
ENDBRANCH  29  31
ENDBRANCH  27  28
ENDBRANCH  26  27
ENDBRANCH  24  26
ENDBRANCH   1  24
TORSDOF 6
ENDMDL
MODEL 4
REMARK minimizedAffinity -7.56092072
REMARK CNNscore 0.308983326
REMARK CNNaffinity 6.55348206
REMARK  6 active torsions:
REMARK  status: ('A' for Active; 'I' for Inactive)
REMARK    1  A    between atoms: C2_2  and  C30_31 
REMARK    2  A    between atoms: C3_3  and  C4_4 
REMARK    3  A    between atoms: C4_4  and  C5_5 
REMARK    4  A    between atoms: C5_5  and  C6_6 
REMARK    5  A    between atoms: C6_6  and  C8_8 
REMARK    6  A    between atoms: C30_31  and  O3_33 
ROOT
HETATM    1  C8  UNL     1      -2.619  49.194 -22.132  1.00  0.00    -0.002 C 
HETATM    2  C9  UNL     1      -1.949  47.798 -22.144  1.00  0.00     0.007 C 
HETATM    3  C10 UNL     1      -2.826  46.883 -21.250  1.00  0.00     0.015 C 
HETATM    4  C11 UNL     1      -3.797  47.845 -20.526  1.00  0.00    -0.013 C 
HETATM    5  C12 UNL     1      -3.013  48.395 -19.290  1.00  0.00     0.021 C 
HETATM    6  C13 UNL     1      -5.156  47.371 -20.013  1.00  0.00    -0.070 C 
HETATM    7  C14 UNL     1      -5.588  46.100 -20.106  1.00  0.00    -0.022 C 
HETATM    8  C15 UNL     1      -6.983  45.657 -19.771  1.00  0.00     0.034 C 
HETATM    9  C16 UNL     1      -7.975  46.841 -19.668  1.00  0.00     0.013 C 
HETATM   10  C17 UNL     1      -9.470  46.450 -19.357  1.00  0.00     0.018 C 
HETATM   11  C18 UNL     1     -10.371  46.873 -20.542  1.00  0.00     0.023 C 
HETATM   12  C19 UNL     1      -9.676  44.933 -19.158  1.00  0.00     0.023 C 
HETATM   13  C20 UNL     1     -10.028  47.176 -18.119  1.00  0.00     0.135 C 
HETATM   14  O1  UNL     1     -10.803  46.629 -17.332  1.00  0.00    -0.297 OA
HETATM   15  C21 UNL     1      -9.693  48.638 -17.918  1.00  0.00     0.080 C 
HETATM   16  C22 UNL     1      -8.428  49.085 -18.633  1.00  0.00     0.017 C 
HETATM   17  C23 UNL     1      -7.369  47.970 -18.770  1.00  0.00    -0.031 C 
HETATM   18  C24 UNL     1      -6.991  47.447 -17.349  1.00  0.00     0.016 C 
HETATM   19  C25 UNL     1      -6.031  48.502 -19.433  1.00  0.00     0.024 C 
HETATM   20  C26 UNL     1      -6.206  49.636 -20.482  1.00  0.00     0.010 C 
HETATM   21  C27 UNL     1      -4.883  50.082 -21.150  1.00  0.00     0.011 C 
HETATM   22  C28 UNL     1      -4.076  48.883 -21.687  1.00  0.00    -0.029 C 
HETATM   23  C29 UNL     1      -4.906  48.263 -22.857  1.00  0.00     0.016 C 
ENDROOT
BRANCH   1  24
HETATM   24  C6  UNL     1      -2.375  50.102 -23.369  1.00  0.00    -0.014 C 
HETATM   25  C7  UNL     1      -3.442  51.218 -23.377  1.00  0.00     0.010 C 
BRANCH  24  26
HETATM   26  C5  UNL     1      -0.977  50.751 -23.478  1.00  0.00     0.008 C 
BRANCH  26  27
HETATM   27  C4  UNL     1      -0.928  52.183 -22.919  1.00  0.00     0.028 C 
BRANCH  27  28
HETATM   28  C3  UNL     1      -0.633  52.245 -21.444  1.00  0.00    -0.013 C 
HETATM   29  C2  UNL     1       0.286  53.006 -20.817  1.00  0.00     0.008 C 
HETATM   30  C1  UNL     1       0.451  52.989 -19.325  1.00  0.00     0.055 C 
BRANCH  29  31
HETATM   31  C30 UNL     1       1.224  53.862 -21.577  1.00  0.00     0.171 C 
HETATM   32  O2  UNL     1       2.126  54.542 -21.127  1.00  0.00    -0.646 OA
BRANCH  31  33
HETATM   33  O3  UNL     1       0.974  53.823 -22.897  1.00  0.00    -0.773 OA
HETATM   34  H46 UNL     1       1.659  54.412 -23.273  1.00  0.00     0.167 HD
ENDBRANCH  31  33
ENDBRANCH  29  31
ENDBRANCH  27  28
ENDBRANCH  26  27
ENDBRANCH  24  26
ENDBRANCH   1  24
TORSDOF 6
ENDMDL
MODEL 5
REMARK minimizedAffinity -8.48379898
REMARK CNNscore 0.290653259
REMARK CNNaffinity 6.59811258
REMARK  6 active torsions:
REMARK  status: ('A' for Active; 'I' for Inactive)
REMARK    1  A    between atoms: C2_2  and  C30_31 
REMARK    2  A    between atoms: C3_3  and  C4_4 
REMARK    3  A    between atoms: C4_4  and  C5_5 
REMARK    4  A    between atoms: C5_5  and  C6_6 
REMARK    5  A    between atoms: C6_6  and  C8_8 
REMARK    6  A    between atoms: C30_31  and  O3_33 
ROOT
HETATM    1  C8  UNL     1      -3.822  47.756 -20.354  1.00  0.00    -0.002 C 
HETATM    2  C9  UNL     1      -4.903  47.204 -21.315  1.00  0.00     0.007 C 
HETATM    3  C10 UNL     1      -4.802  48.043 -22.617  1.00  0.00     0.015 C 
HETATM    4  C11 UNL     1      -3.874  49.227 -22.257  1.00  0.00    -0.013 C 
HETATM    5  C12 UNL     1      -4.787  50.295 -21.573  1.00  0.00     0.021 C 
HETATM    6  C13 UNL     1      -3.062  49.956 -23.326  1.00  0.00    -0.070 C 
HETATM    7  C14 UNL     1      -3.121  49.667 -24.639  1.00  0.00    -0.022 C 
HETATM    8  C15 UNL     1      -2.203  50.250 -25.673  1.00  0.00     0.034 C 
HETATM    9  C16 UNL     1      -0.954  50.919 -25.051  1.00  0.00     0.013 C 
HETATM   10  C17 UNL     1       0.078  51.521 -26.080  1.00  0.00     0.018 C 
HETATM   11  C18 UNL     1       1.429  50.779 -25.949  1.00  0.00     0.023 C 
HETATM   12  C19 UNL     1      -0.371  51.376 -27.550  1.00  0.00     0.023 C 
HETATM   13  C20 UNL     1       0.382  53.007 -25.815  1.00  0.00     0.135 C 
HETATM   14  O1  UNL     1       0.568  53.811 -26.731  1.00  0.00    -0.297 OA
HETATM   15  C21 UNL     1       0.556  53.473 -24.386  1.00  0.00     0.080 C 
HETATM   16  C22 UNL     1      -0.114  52.574 -23.359  1.00  0.00     0.017 C 
HETATM   17  C23 UNL     1      -1.382  51.872 -23.886  1.00  0.00    -0.031 C 
HETATM   18  C24 UNL     1      -2.405  52.951 -24.360  1.00  0.00     0.016 C 
HETATM   19  C25 UNL     1      -2.102  51.023 -22.757  1.00  0.00     0.024 C 
HETATM   20  C26 UNL     1      -1.163  50.388 -21.693  1.00  0.00     0.010 C 
HETATM   21  C27 UNL     1      -1.900  49.517 -20.647  1.00  0.00     0.011 C 
HETATM   22  C28 UNL     1      -2.841  48.492 -21.311  1.00  0.00    -0.029 C 
HETATM   23  C29 UNL     1      -1.937  47.478 -22.084  1.00  0.00     0.016 C 
ENDROOT
BRANCH   1  24
HETATM   24  C6  UNL     1      -3.259  46.773 -19.291  1.00  0.00    -0.014 C 
HETATM   25  C7  UNL     1      -2.612  47.595 -18.155  1.00  0.00     0.010 C 
BRANCH  24  26
HETATM   26  C5  UNL     1      -4.269  45.781 -18.672  1.00  0.00     0.008 C 
BRANCH  26  27
HETATM   27  C4  UNL     1      -3.870  44.309 -18.866  1.00  0.00     0.028 C 
BRANCH  27  28
HETATM   28  C3  UNL     1      -3.171  43.711 -17.674  1.00  0.00    -0.013 C 
HETATM   29  C2  UNL     1      -2.975  42.406 -17.401  1.00  0.00     0.008 C 
HETATM   30  C1  UNL     1      -2.227  41.951 -16.181  1.00  0.00     0.055 C 
BRANCH  29  31
HETATM   31  C30 UNL     1      -3.539  41.346 -18.265  1.00  0.00     0.171 C 
HETATM   32  O2  UNL     1      -4.586  40.748 -18.105  1.00  0.00    -0.646 OA
BRANCH  31  33
HETATM   33  O3  UNL     1      -2.739  41.079 -19.311  1.00  0.00    -0.773 OA
HETATM   34  H46 UNL     1      -3.227  40.382 -19.796  1.00  0.00     0.167 HD
ENDBRANCH  31  33
ENDBRANCH  29  31
ENDBRANCH  27  28
ENDBRANCH  26  27
ENDBRANCH  24  26
ENDBRANCH   1  24
TORSDOF 6
ENDMDL
MODEL 6
REMARK minimizedAffinity -7.69794655
REMARK CNNscore 0.289229929
REMARK CNNaffinity 6.90875053
REMARK  6 active torsions:
REMARK  status: ('A' for Active; 'I' for Inactive)
REMARK    1  A    between atoms: C2_2  and  C30_31 
REMARK    2  A    between atoms: C3_3  and  C4_4 
REMARK    3  A    between atoms: C4_4  and  C5_5 
REMARK    4  A    between atoms: C5_5  and  C6_6 
REMARK    5  A    between atoms: C6_6  and  C8_8 
REMARK    6  A    between atoms: C30_31  and  O3_33 
ROOT
HETATM    1  C8  UNL     1      -0.517  50.319 -14.782  1.00  0.00    -0.002 C 
HETATM    2  C9  UNL     1      -1.844  51.091 -14.584  1.00  0.00     0.007 C 
HETATM    3  C10 UNL     1      -1.660  51.961 -13.313  1.00  0.00     0.015 C 
HETATM    4  C11 UNL     1      -0.355  51.445 -12.663  1.00  0.00    -0.013 C 
HETATM    5  C12 UNL     1      -0.762  50.195 -11.817  1.00  0.00     0.021 C 
HETATM    6  C13 UNL     1       0.491  52.338 -11.756  1.00  0.00    -0.070 C 
HETATM    7  C14 UNL     1       0.154  53.596 -11.420  1.00  0.00    -0.022 C 
HETATM    8  C15 UNL     1       1.056  54.542 -10.680  1.00  0.00     0.034 C 
HETATM    9  C16 UNL     1       2.530  54.070 -10.667  1.00  0.00     0.013 C 
HETATM   10  C17 UNL     1       3.545  55.034  -9.941  1.00  0.00     0.018 C 
HETATM   11  C18 UNL     1       4.583  55.554 -10.963  1.00  0.00     0.023 C 
HETATM   12  C19 UNL     1       2.870  56.275  -9.318  1.00  0.00     0.023 C 
HETATM   13  C20 UNL     1       4.352  54.324  -8.839  1.00  0.00     0.135 C 
HETATM   14  O1  UNL     1       4.659  54.886  -7.785  1.00  0.00    -0.297 OA
HETATM   15  C21 UNL     1       4.871  52.926  -9.100  1.00  0.00     0.080 C 
HETATM   16  C22 UNL     1       4.097  52.171 -10.169  1.00  0.00     0.017 C 
HETATM   17  C23 UNL     1       2.607  52.565 -10.247  1.00  0.00    -0.031 C 
HETATM   18  C24 UNL     1       1.937  52.311  -8.861  1.00  0.00     0.016 C 
HETATM   19  C25 UNL     1       1.817  51.688 -11.306  1.00  0.00     0.024 C 
HETATM   20  C26 UNL     1       2.638  51.230 -12.544  1.00  0.00     0.010 C 
HETATM   21  C27 UNL     1       1.813  50.431 -13.582  1.00  0.00     0.011 C 
HETATM   22  C28 UNL     1       0.504  51.154 -13.959  1.00  0.00    -0.029 C 
HETATM   23  C29 UNL     1       0.908  52.461 -14.715  1.00  0.00     0.016 C 
ENDROOT
BRANCH   1  24
HETATM   24  C6  UNL     1      -0.162  49.891 -16.233  1.00  0.00    -0.014 C 
HETATM   25  C7  UNL     1      -0.582  48.419 -16.428  1.00  0.00     0.010 C 
BRANCH  24  26
HETATM   26  C5  UNL     1      -0.779  50.739 -17.368  1.00  0.00     0.008 C 
BRANCH  26  27
HETATM   27  C4  UNL     1       0.273  51.445 -18.239  1.00  0.00     0.028 C 
BRANCH  27  28
HETATM   28  C3  UNL     1      -0.084  51.485 -19.701  1.00  0.00    -0.013 C 
HETATM   29  C2  UNL     1       0.124  52.492 -20.573  1.00  0.00     0.008 C 
HETATM   30  C1  UNL     1      -0.258  52.382 -22.022  1.00  0.00     0.055 C 
BRANCH  29  31
HETATM   31  C30 UNL     1       0.691  53.786 -20.135  1.00  0.00     0.171 C 
HETATM   32  O2  UNL     1       1.728  54.299 -20.511  1.00  0.00    -0.646 OA
BRANCH  31  33
HETATM   33  O3  UNL     1      -0.089  54.385 -19.219  1.00  0.00    -0.773 OA
HETATM   34  H46 UNL     1       0.388  55.218 -19.027  1.00  0.00     0.167 HD
ENDBRANCH  31  33
ENDBRANCH  29  31
ENDBRANCH  27  28
ENDBRANCH  26  27
ENDBRANCH  24  26
ENDBRANCH   1  24
TORSDOF 6
ENDMDL
MODEL 7
REMARK minimizedAffinity -8.40314674
REMARK CNNscore 0.224449664
REMARK CNNaffinity 6.44981194
REMARK  6 active torsions:
REMARK  status: ('A' for Active; 'I' for Inactive)
REMARK    1  A    between atoms: C2_2  and  C30_31 
REMARK    2  A    between atoms: C3_3  and  C4_4 
REMARK    3  A    between atoms: C4_4  and  C5_5 
REMARK    4  A    between atoms: C5_5  and  C6_6 
REMARK    5  A    between atoms: C6_6  and  C8_8 
REMARK    6  A    between atoms: C30_31  and  O3_33 
ROOT
HETATM    1  C8  UNL     1      -0.939  51.220 -21.533  1.00  0.00    -0.002 C 
HETATM    2  C9  UNL     1      -1.636  52.227 -22.481  1.00  0.00     0.007 C 
HETATM    3  C10 UNL     1      -3.064  51.676 -22.734  1.00  0.00     0.015 C 
HETATM    4  C11 UNL     1      -3.043  50.238 -22.164  1.00  0.00    -0.013 C 
HETATM    5  C12 UNL     1      -2.436  49.340 -23.290  1.00  0.00     0.021 C 
HETATM    6  C13 UNL     1      -4.321  49.551 -21.688  1.00  0.00    -0.070 C 
HETATM    7  C14 UNL     1      -5.544  50.107 -21.766  1.00  0.00    -0.022 C 
HETATM    8  C15 UNL     1      -6.778  49.522 -21.144  1.00  0.00     0.034 C 
HETATM    9  C16 UNL     1      -6.456  48.428 -20.098  1.00  0.00     0.013 C 
HETATM   10  C17 UNL     1      -7.703  47.793 -19.372  1.00  0.00     0.018 C 
HETATM   11  C18 UNL     1      -7.630  48.100 -17.857  1.00  0.00     0.023 C 
HETATM   12  C19 UNL     1      -9.052  48.350 -19.876  1.00  0.00     0.023 C 
HETATM   13  C20 UNL     1      -7.743  46.259 -19.493  1.00  0.00     0.135 C 
HETATM   14  O1  UNL     1      -8.800  45.638 -19.623  1.00  0.00    -0.297 OA
HETATM   15  C21 UNL     1      -6.452  45.481 -19.347  1.00  0.00     0.080 C 
HETATM   16  C22 UNL     1      -5.204  46.298 -19.641  1.00  0.00     0.017 C 
HETATM   17  C23 UNL     1      -5.426  47.409 -20.689  1.00  0.00    -0.031 C 
HETATM   18  C24 UNL     1      -5.936  46.766 -22.016  1.00  0.00     0.016 C 
HETATM   19  C25 UNL     1      -4.080  48.172 -21.037  1.00  0.00     0.024 C 
HETATM   20  C26 UNL     1      -3.060  48.299 -19.872  1.00  0.00     0.010 C 
HETATM   21  C27 UNL     1      -1.789  49.105 -20.237  1.00  0.00     0.011 C 
HETATM   22  C28 UNL     1      -2.132  50.459 -20.889  1.00  0.00    -0.029 C 
HETATM   23  C29 UNL     1      -2.834  51.326 -19.795  1.00  0.00     0.016 C 
ENDROOT
BRANCH   1  24
HETATM   24  C6  UNL     1       0.192  51.777 -20.625  1.00  0.00    -0.014 C 
HETATM   25  C7  UNL     1       1.115  52.670 -21.481  1.00  0.00     0.010 C 
BRANCH  24  26
HETATM   26  C5  UNL     1      -0.258  52.577 -19.382  1.00  0.00     0.008 C 
BRANCH  26  27
HETATM   27  C4  UNL     1       0.255  51.983 -18.060  1.00  0.00     0.028 C 
BRANCH  27  28
HETATM   28  C3  UNL     1       1.632  52.458 -17.680  1.00  0.00    -0.013 C 
HETATM   29  C2  UNL     1       2.231  52.373 -16.476  1.00  0.00     0.008 C 
HETATM   30  C1  UNL     1       3.632  52.864 -16.246  1.00  0.00     0.055 C 
BRANCH  29  31
HETATM   31  C30 UNL     1       1.515  51.841 -15.295  1.00  0.00     0.171 C 
HETATM   32  O2  UNL     1       1.454  50.680 -14.935  1.00  0.00    -0.646 OA
BRANCH  31  33
HETATM   33  O3  UNL     1       0.891  52.815 -14.612  1.00  0.00    -0.773 OA
HETATM   34  H46 UNL     1       0.474  52.336 -13.867  1.00  0.00     0.167 HD
ENDBRANCH  31  33
ENDBRANCH  29  31
ENDBRANCH  27  28
ENDBRANCH  26  27
ENDBRANCH  24  26
ENDBRANCH   1  24
TORSDOF 6
ENDMDL
MODEL 8
REMARK minimizedAffinity -8.64828777
REMARK CNNscore 0.213349804
REMARK CNNaffinity 6.87461662
REMARK  6 active torsions:
REMARK  status: ('A' for Active; 'I' for Inactive)
REMARK    1  A    between atoms: C2_2  and  C30_31 
REMARK    2  A    between atoms: C3_3  and  C4_4 
REMARK    3  A    between atoms: C4_4  and  C5_5 
REMARK    4  A    between atoms: C5_5  and  C6_6 
REMARK    5  A    between atoms: C6_6  and  C8_8 
REMARK    6  A    between atoms: C30_31  and  O3_33 
ROOT
HETATM    1  C8  UNL     1      -2.538  49.649 -22.478  1.00  0.00    -0.002 C 
HETATM    2  C9  UNL     1      -3.249  48.274 -22.452  1.00  0.00     0.007 C 
HETATM    3  C10 UNL     1      -3.064  47.711 -21.019  1.00  0.00     0.015 C 
HETATM    4  C11 UNL     1      -2.014  48.637 -20.359  1.00  0.00    -0.013 C 
HETATM    5  C12 UNL     1      -0.620  48.096 -20.812  1.00  0.00     0.021 C 
HETATM    6  C13 UNL     1      -1.950  48.816 -18.843  1.00  0.00    -0.070 C 
HETATM    7  C14 UNL     1      -2.748  48.164 -17.978  1.00  0.00    -0.022 C 
HETATM    8  C15 UNL     1      -2.818  48.460 -16.508  1.00  0.00     0.034 C 
HETATM    9  C16 UNL     1      -2.172  49.818 -16.143  1.00  0.00     0.013 C 
HETATM   10  C17 UNL     1      -2.242  50.216 -14.619  1.00  0.00     0.018 C 
HETATM   11  C18 UNL     1      -3.079  51.508 -14.461  1.00  0.00     0.023 C 
HETATM   12  C19 UNL     1      -2.911  49.140 -13.737  1.00  0.00     0.023 C 
HETATM   13  C20 UNL     1      -0.858  50.531 -14.024  1.00  0.00     0.135 C 
HETATM   14  O1  UNL     1      -0.556  50.225 -12.868  1.00  0.00    -0.297 OA
HETATM   15  C21 UNL     1       0.128  51.330 -14.850  1.00  0.00     0.080 C 
HETATM   16  C22 UNL     1      -0.130  51.266 -16.347  1.00  0.00     0.017 C 
HETATM   17  C23 UNL     1      -0.761  49.936 -16.810  1.00  0.00    -0.031 C 
HETATM   18  C24 UNL     1       0.176  48.756 -16.404  1.00  0.00     0.016 C 
HETATM   19  C25 UNL     1      -0.923  49.873 -18.386  1.00  0.00     0.024 C 
HETATM   20  C26 UNL     1      -1.203  51.232 -19.086  1.00  0.00     0.010 C 
HETATM   21  C27 UNL     1      -1.417  51.116 -20.615  1.00  0.00     0.011 C 
HETATM   22  C28 UNL     1      -2.449  50.029 -20.973  1.00  0.00    -0.029 C 
HETATM   23  C29 UNL     1      -3.831  50.517 -20.429  1.00  0.00     0.016 C 
ENDROOT
BRANCH   1  24
HETATM   24  C6  UNL     1      -3.065  50.694 -23.499  1.00  0.00    -0.014 C 
HETATM   25  C7  UNL     1      -2.830  52.107 -22.923  1.00  0.00     0.010 C 
BRANCH  24  26
HETATM   26  C5  UNL     1      -2.459  50.631 -24.919  1.00  0.00     0.008 C 
BRANCH  26  27
HETATM   27  C4  UNL     1      -1.571  51.841 -25.255  1.00  0.00     0.028 C 
BRANCH  27  28
HETATM   28  C3  UNL     1      -0.164  51.468 -25.639  1.00  0.00    -0.013 C 
HETATM   29  C2  UNL     1       0.662  52.122 -26.481  1.00  0.00     0.008 C 
HETATM   30  C1  UNL     1       2.062  51.649 -26.749  1.00  0.00     0.055 C 
BRANCH  29  31
HETATM   31  C30 UNL     1       0.209  53.313 -27.233  1.00  0.00     0.171 C 
HETATM   32  O2  UNL     1       0.117  54.452 -26.817  1.00  0.00    -0.646 OA
BRANCH  31  33
HETATM   33  O3  UNL     1      -0.116  53.006 -28.499  1.00  0.00    -0.773 OA
HETATM   34  H46 UNL     1      -0.383  53.869 -28.878  1.00  0.00     0.167 HD
ENDBRANCH  31  33
ENDBRANCH  29  31
ENDBRANCH  27  28
ENDBRANCH  26  27
ENDBRANCH  24  26
ENDBRANCH   1  24
TORSDOF 6
ENDMDL
MODEL 9
REMARK minimizedAffinity -7.17266178
REMARK CNNscore 0.196384534
REMARK CNNaffinity 5.28492975
REMARK  6 active torsions:
REMARK  status: ('A' for Active; 'I' for Inactive)
REMARK    1  A    between atoms: C2_2  and  C30_31 
REMARK    2  A    between atoms: C3_3  and  C4_4 
REMARK    3  A    between atoms: C4_4  and  C5_5 
REMARK    4  A    between atoms: C5_5  and  C6_6 
REMARK    5  A    between atoms: C6_6  and  C8_8 
REMARK    6  A    between atoms: C30_31  and  O3_33 
ROOT
HETATM    1  C8  UNL     1     -12.863  45.887 -26.768  1.00  0.00    -0.002 C 
HETATM    2  C9  UNL     1     -13.468  47.286 -27.041  1.00  0.00     0.007 C 
HETATM    3  C10 UNL     1     -12.459  48.031 -27.953  1.00  0.00     0.015 C 
HETATM    4  C11 UNL     1     -11.184  47.154 -27.936  1.00  0.00    -0.013 C 
HETATM    5  C12 UNL     1     -10.402  47.560 -26.644  1.00  0.00     0.021 C 
HETATM    6  C13 UNL     1     -10.181  47.182 -29.088  1.00  0.00    -0.070 C 
HETATM    7  C14 UNL     1     -10.298  47.985 -30.162  1.00  0.00    -0.022 C 
HETATM    8  C15 UNL     1      -9.423  47.897 -31.379  1.00  0.00     0.034 C 
HETATM    9  C16 UNL     1      -8.626  46.572 -31.444  1.00  0.00     0.013 C 
HETATM   10  C17 UNL     1      -7.713  46.391 -32.717  1.00  0.00     0.018 C 
HETATM   11  C18 UNL     1      -8.206  45.175 -33.537  1.00  0.00     0.023 C 
HETATM   12  C19 UNL     1      -7.738  47.609 -33.665  1.00  0.00     0.023 C 
HETATM   13  C20 UNL     1      -6.246  46.094 -32.357  1.00  0.00     0.135 C 
HETATM   14  O1  UNL     1      -5.305  46.540 -33.018  1.00  0.00    -0.297 OA
HETATM   15  C21 UNL     1      -5.952  45.143 -31.217  1.00  0.00     0.080 C 
HETATM   16  C22 UNL     1      -7.088  45.013 -30.215  1.00  0.00     0.017 C 
HETATM   17  C23 UNL     1      -7.933  46.295 -30.069  1.00  0.00    -0.031 C 
HETATM   18  C24 UNL     1      -7.005  47.473 -29.636  1.00  0.00     0.016 C 
HETATM   19  C25 UNL     1      -9.043  46.149 -28.947  1.00  0.00     0.024 C 
HETATM   20  C26 UNL     1      -9.633  44.722 -28.768  1.00  0.00     0.010 C 
HETATM   21  C27 UNL     1     -10.757  44.637 -27.707  1.00  0.00     0.011 C 
HETATM   22  C28 UNL     1     -11.838  45.714 -27.925  1.00  0.00    -0.029 C 
HETATM   23  C29 UNL     1     -12.556  45.373 -29.271  1.00  0.00     0.016 C 
ENDROOT
BRANCH   1  24
HETATM   24  C6  UNL     1     -13.860  44.739 -26.452  1.00  0.00    -0.014 C 
HETATM   25  C7  UNL     1     -13.528  44.169 -25.056  1.00  0.00     0.010 C 
BRANCH  24  26
HETATM   26  C5  UNL     1     -15.361  45.103 -26.495  1.00  0.00     0.008 C 
BRANCH  26  27
HETATM   27  C4  UNL     1     -16.148  44.577 -25.283  1.00  0.00     0.028 C 
BRANCH  27  28
HETATM   28  C3  UNL     1     -17.195  45.536 -24.782  1.00  0.00    -0.013 C 
HETATM   29  C2  UNL     1     -18.482  45.630 -25.173  1.00  0.00     0.008 C 
HETATM   30  C1  UNL     1     -19.430  46.621 -24.560  1.00  0.00     0.055 C 
BRANCH  29  31
HETATM   31  C30 UNL     1     -19.015  44.796 -26.272  1.00  0.00     0.171 C 
HETATM   32  O2  UNL     1     -19.608  43.739 -26.171  1.00  0.00    -0.646 OA
BRANCH  31  33
HETATM   33  O3  UNL     1     -18.767  45.341 -27.475  1.00  0.00    -0.773 OA
HETATM   34  H46 UNL     1     -19.173  44.705 -28.099  1.00  0.00     0.167 HD
ENDBRANCH  31  33
ENDBRANCH  29  31
ENDBRANCH  27  28
ENDBRANCH  26  27
ENDBRANCH  24  26
ENDBRANCH   1  24
TORSDOF 6
ENDMDL
