MODEL 1
REMARK minimizedAffinity -8.13140392
REMARK CNNscore 0.423647732
REMARK CNNaffinity 7.06469393
REMARK  7 active torsions:
REMARK  status: ('A' for Active; 'I' for Inactive)
REMARK    1  A    between atoms: O1_2  and  C2_3 
REMARK    2  A    between atoms: C19_21  and  C20_22 
REMARK    3  A    between atoms: C20_22  and  C22_24 
REMARK    4  A    between atoms: C22_24  and  C23_25 
REMARK    5  A    between atoms: C23_25  and  C24_26 
REMARK    6  A    between atoms: C25_27  and  C27_29 
REMARK    7  A    between atoms: C27_29  and  O4_31 
ROOT
HETATM    1  C2  UNL     1      -4.694   4.391  12.040  1.00  0.00     0.151 C 
HETATM    2  C3  UNL     1      -3.287   4.672  11.504  1.00  0.00     0.043 C 
HETATM    3  C4  UNL     1      -2.276   4.775  12.655  1.00  0.00     0.016 C 
HETATM    4  C5  UNL     1      -0.782   4.732  12.185  1.00  0.00     0.018 C 
HETATM    5  C6  UNL     1      -0.521   5.447  10.844  1.00  0.00     0.023 C 
HETATM    6  C7  UNL     1      -0.333   3.264  12.017  1.00  0.00     0.023 C 
HETATM    7  C8  UNL     1       0.110   5.340  13.275  1.00  0.00     0.135 C 
HETATM    8  O2  UNL     1       1.212   5.832  13.028  1.00  0.00    -0.297 OA
HETATM    9  C9  UNL     1      -0.380   5.233  14.697  1.00  0.00     0.080 C 
HETATM   10  C10 UNL     1      -1.780   5.806  14.896  1.00  0.00     0.021 C 
HETATM   11  C11 UNL     1      -2.635   5.973  13.605  1.00  0.00    -0.015 C 
HETATM   12  C12 UNL     1      -2.325   7.350  12.966  1.00  0.00     0.020 C 
HETATM   13  C13 UNL     1      -4.149   5.965  13.956  1.00  0.00    -0.066 C 
HETATM   14  C14 UNL     1      -5.055   5.229  13.252  1.00  0.00    -0.039 C 
HETATM   15  C15 UNL     1      -6.521   5.213  13.698  1.00  0.00    -0.010 C 
HETATM   16  C16 UNL     1      -6.614   4.072  14.761  1.00  0.00     0.021 C 
HETATM   17  C17 UNL     1      -7.641   4.969  12.666  1.00  0.00     0.015 C 
HETATM   18  C18 UNL     1      -8.920   5.546  13.315  1.00  0.00     0.007 C 
HETATM   19  C19 UNL     1      -8.456   6.452  14.480  1.00  0.00    -0.002 C 
HETATM   20  C28 UNL     1      -6.937   6.647  14.211  1.00  0.00    -0.029 C 
HETATM   21  C29 UNL     1      -6.693   7.755  13.145  1.00  0.00     0.016 C 
HETATM   22  C30 UNL     1      -6.091   6.963  15.445  1.00  0.00     0.015 C 
HETATM   23  C31 UNL     1      -4.583   6.858  15.135  1.00  0.00     0.036 C 
ENDROOT
BRANCH  19  24
HETATM   24  C20 UNL     1      -9.374   7.637  14.894  1.00  0.00    -0.014 C 
HETATM   25  C21 UNL     1      -9.227   7.895  16.405  1.00  0.00     0.010 C 
BRANCH  24  26
HETATM   26  C22 UNL     1     -10.858   7.711  14.465  1.00  0.00     0.008 C 
BRANCH  26  27
HETATM   27  C23 UNL     1     -11.282   7.486  13.010  1.00  0.00     0.028 C 
BRANCH  27  28
HETATM   28  C24 UNL     1     -12.733   7.733  12.716  1.00  0.00    -0.013 C 
HETATM   29  C25 UNL     1     -13.789   7.059  13.214  1.00  0.00     0.008 C 
HETATM   30  C26 UNL     1     -13.718   5.883  14.141  1.00  0.00     0.055 C 
BRANCH  29  31
HETATM   31  C27 UNL     1     -15.133   7.519  12.780  1.00  0.00     0.171 C 
HETATM   32  O3  UNL     1     -15.929   8.166  13.436  1.00  0.00    -0.646 OA
BRANCH  31  33
HETATM   33  O4  UNL     1     -15.424   7.136  11.526  1.00  0.00    -0.773 OA
HETATM   34  H41 UNL     1     -16.321   7.502  11.381  1.00  0.00     0.167 HD
ENDBRANCH  31  33
ENDBRANCH  29  31
ENDBRANCH  27  28
ENDBRANCH  26  27
ENDBRANCH  24  26
ENDBRANCH  19  24
BRANCH   1  35
HETATM   35  O1  UNL     1      -4.779   3.015  12.427  1.00  0.00    -0.386 OA
HETATM   36  C1  UNL     1      -4.402   2.118  11.392  1.00  0.00     0.202 C 
ENDBRANCH   1  35
TORSDOF 7
ENDMDL
MODEL 2
REMARK minimizedAffinity -7.08559895
REMARK CNNscore 0.38981539
REMARK CNNaffinity 6.65799475
REMARK  7 active torsions:
REMARK  status: ('A' for Active; 'I' for Inactive)
REMARK    1  A    between atoms: O1_2  and  C2_3 
REMARK    2  A    between atoms: C19_21  and  C20_22 
REMARK    3  A    between atoms: C20_22  and  C22_24 
REMARK    4  A    between atoms: C22_24  and  C23_25 
REMARK    5  A    between atoms: C23_25  and  C24_26 
REMARK    6  A    between atoms: C25_27  and  C27_29 
REMARK    7  A    between atoms: C27_29  and  O4_31 
ROOT
HETATM    1  C2  UNL     1      -3.042   5.330  13.165  1.00  0.00     0.151 C 
HETATM    2  C3  UNL     1      -4.121   4.247  13.261  1.00  0.00     0.043 C 
HETATM    3  C4  UNL     1      -5.470   4.777  12.755  1.00  0.00     0.016 C 
HETATM    4  C5  UNL     1      -6.536   3.653  12.512  1.00  0.00     0.018 C 
HETATM    5  C6  UNL     1      -6.477   2.497  13.530  1.00  0.00     0.023 C 
HETATM    6  C7  UNL     1      -6.331   3.040  11.109  1.00  0.00     0.023 C 
HETATM    7  C8  UNL     1      -7.938   4.274  12.517  1.00  0.00     0.135 C 
HETATM    8  O2  UNL     1      -8.947   3.622  12.787  1.00  0.00    -0.297 OA
HETATM    9  C9  UNL     1      -8.049   5.714  12.086  1.00  0.00     0.080 C 
HETATM   10  C10 UNL     1      -7.143   6.652  12.881  1.00  0.00     0.021 C 
HETATM   11  C11 UNL     1      -5.966   5.974  13.642  1.00  0.00    -0.015 C 
HETATM   12  C12 UNL     1      -6.462   5.514  15.036  1.00  0.00     0.020 C 
HETATM   13  C13 UNL     1      -4.819   6.996  13.881  1.00  0.00    -0.066 C 
HETATM   14  C14 UNL     1      -3.512   6.692  13.639  1.00  0.00    -0.039 C 
HETATM   15  C15 UNL     1      -2.442   7.771  13.830  1.00  0.00    -0.010 C 
HETATM   16  C16 UNL     1      -2.381   8.535  12.468  1.00  0.00     0.021 C 
HETATM   17  C17 UNL     1      -0.997   7.372  14.194  1.00  0.00     0.015 C 
HETATM   18  C18 UNL     1      -0.374   8.640  14.822  1.00  0.00     0.007 C 
HETATM   19  C19 UNL     1      -1.549   9.581  15.179  1.00  0.00    -0.002 C 
HETATM   20  C28 UNL     1      -2.799   8.660  15.085  1.00  0.00    -0.029 C 
HETATM   21  C29 UNL     1      -2.974   7.817  16.382  1.00  0.00     0.016 C 
HETATM   22  C30 UNL     1      -4.117   9.376  14.788  1.00  0.00     0.015 C 
HETATM   23  C31 UNL     1      -5.235   8.374  14.433  1.00  0.00     0.036 C 
ENDROOT
BRANCH  19  24
HETATM   24  C20 UNL     1      -1.354  10.580  16.354  1.00  0.00    -0.014 C 
HETATM   25  C21 UNL     1      -0.896  11.942  15.799  1.00  0.00     0.010 C 
BRANCH  24  26
HETATM   26  C22 UNL     1      -0.552  10.205  17.622  1.00  0.00     0.008 C 
BRANCH  26  27
HETATM   27  C23 UNL     1      -0.158  11.259  18.661  1.00  0.00     0.028 C 
BRANCH  27  28
HETATM   28  C24 UNL     1       0.831  10.807  19.696  1.00  0.00    -0.013 C 
HETATM   29  C25 UNL     1       2.171  10.729  19.560  1.00  0.00     0.008 C 
HETATM   30  C26 UNL     1       2.943  11.041  18.315  1.00  0.00     0.055 C 
BRANCH  29  31
HETATM   31  C27 UNL     1       2.931  10.271  20.750  1.00  0.00     0.171 C 
HETATM   32  O3  UNL     1       4.142  10.208  20.863  1.00  0.00    -0.646 OA
BRANCH  31  33
HETATM   33  O4  UNL     1       2.127   9.902  21.761  1.00  0.00    -0.773 OA
HETATM   34  H41 UNL     1       2.754   9.628  22.461  1.00  0.00     0.167 HD
ENDBRANCH  31  33
ENDBRANCH  29  31
ENDBRANCH  27  28
ENDBRANCH  26  27
ENDBRANCH  24  26
ENDBRANCH  19  24
BRANCH   1  35
HETATM   35  O1  UNL     1      -2.638   5.466  11.798  1.00  0.00    -0.386 OA
HETATM   36  C1  UNL     1      -1.559   4.611  11.446  1.00  0.00     0.202 C 
ENDBRANCH   1  35
TORSDOF 7
ENDMDL
MODEL 3
REMARK minimizedAffinity -6.36977434
REMARK CNNscore 0.326410353
REMARK CNNaffinity 5.88251925
REMARK  7 active torsions:
REMARK  status: ('A' for Active; 'I' for Inactive)
REMARK    1  A    between atoms: O1_2  and  C2_3 
REMARK    2  A    between atoms: C19_21  and  C20_22 
REMARK    3  A    between atoms: C20_22  and  C22_24 
REMARK    4  A    between atoms: C22_24  and  C23_25 
REMARK    5  A    between atoms: C23_25  and  C24_26 
REMARK    6  A    between atoms: C25_27  and  C27_29 
REMARK    7  A    between atoms: C27_29  and  O4_31 
ROOT
HETATM    1  C2  UNL     1     -15.246  -0.070  15.677  1.00  0.00     0.151 C 
HETATM    2  C3  UNL     1     -15.414   1.440  15.486  1.00  0.00     0.043 C 
HETATM    3  C4  UNL     1     -16.883   1.795  15.216  1.00  0.00     0.016 C 
HETATM    4  C5  UNL     1     -17.193   3.327  15.335  1.00  0.00     0.018 C 
HETATM    5  C6  UNL     1     -16.058   4.241  14.832  1.00  0.00     0.023 C 
HETATM    6  C7  UNL     1     -17.452   3.689  16.814  1.00  0.00     0.023 C 
HETATM    7  C8  UNL     1     -18.486   3.644  14.574  1.00  0.00     0.135 C 
HETATM    8  O2  UNL     1     -18.733   4.766  14.131  1.00  0.00    -0.297 OA
HETATM    9  C9  UNL     1     -19.503   2.536  14.464  1.00  0.00     0.080 C 
HETATM   10  C10 UNL     1     -18.933   1.254  13.860  1.00  0.00     0.021 C 
HETATM   11  C11 UNL     1     -17.381   1.124  13.886  1.00  0.00    -0.015 C 
HETATM   12  C12 UNL     1     -16.795   1.801  12.623  1.00  0.00     0.020 C 
HETATM   13  C13 UNL     1     -16.966  -0.374  13.835  1.00  0.00    -0.066 C 
HETATM   14  C14 UNL     1     -16.018  -0.894  14.664  1.00  0.00    -0.039 C 
HETATM   15  C15 UNL     1     -15.709  -2.393  14.606  1.00  0.00    -0.010 C 
HETATM   16  C16 UNL     1     -16.738  -3.063  15.573  1.00  0.00     0.021 C 
HETATM   17  C17 UNL     1     -14.310  -2.911  14.998  1.00  0.00     0.015 C 
HETATM   18  C18 UNL     1     -14.189  -4.297  14.323  1.00  0.00     0.007 C 
HETATM   19  C19 UNL     1     -15.305  -4.369  13.254  1.00  0.00    -0.002 C 
HETATM   20  C28 UNL     1     -15.769  -2.892  13.109  1.00  0.00    -0.029 C 
HETATM   21  C29 UNL     1     -14.815  -2.092  12.175  1.00  0.00     0.016 C 
HETATM   22  C30 UNL     1     -17.204  -2.705  12.614  1.00  0.00     0.015 C 
HETATM   23  C31 UNL     1     -17.668  -1.242  12.771  1.00  0.00     0.036 C 
ENDROOT
BRANCH  19  24
HETATM   24  C20 UNL     1     -15.073  -5.281  12.016  1.00  0.00    -0.014 C 
HETATM   25  C21 UNL     1     -13.570  -5.322  11.683  1.00  0.00     0.010 C 
BRANCH  24  26
HETATM   26  C22 UNL     1     -15.918  -5.140  10.728  1.00  0.00     0.008 C 
BRANCH  26  27
HETATM   27  C23 UNL     1     -15.611  -4.064   9.683  1.00  0.00     0.028 C 
BRANCH  27  28
HETATM   28  C24 UNL     1     -14.580  -4.436   8.657  1.00  0.00    -0.013 C 
HETATM   29  C25 UNL     1     -14.784  -5.110   7.507  1.00  0.00     0.008 C 
HETATM   30  C26 UNL     1     -16.095  -5.667   7.041  1.00  0.00     0.055 C 
BRANCH  29  31
HETATM   31  C27 UNL     1     -13.593  -5.332   6.649  1.00  0.00     0.171 C 
HETATM   32  O3  UNL     1     -13.478  -5.041   5.471  1.00  0.00    -0.646 OA
BRANCH  31  33
HETATM   33  O4  UNL     1     -12.586  -5.921   7.313  1.00  0.00    -0.773 OA
HETATM   34  H41 UNL     1     -11.885  -6.003   6.635  1.00  0.00     0.167 HD
ENDBRANCH  31  33
ENDBRANCH  29  31
ENDBRANCH  27  28
ENDBRANCH  26  27
ENDBRANCH  24  26
ENDBRANCH  19  24
BRANCH   1  35
HETATM   35  O1  UNL     1     -15.722  -0.432  16.978  1.00  0.00    -0.386 OA
HETATM   36  C1  UNL     1     -17.077  -0.069  17.200  1.00  0.00     0.202 C 
ENDBRANCH   1  35
TORSDOF 7
ENDMDL
MODEL 4
REMARK minimizedAffinity -6.75253201
REMARK CNNscore 0.306172401
REMARK CNNaffinity 6.60091352
REMARK  7 active torsions:
REMARK  status: ('A' for Active; 'I' for Inactive)
REMARK    1  A    between atoms: O1_2  and  C2_3 
REMARK    2  A    between atoms: C19_21  and  C20_22 
REMARK    3  A    between atoms: C20_22  and  C22_24 
REMARK    4  A    between atoms: C22_24  and  C23_25 
REMARK    5  A    between atoms: C23_25  and  C24_26 
REMARK    6  A    between atoms: C25_27  and  C27_29 
REMARK    7  A    between atoms: C27_29  and  O4_31 
ROOT
HETATM    1  C2  UNL     1     -13.672   9.640  15.857  1.00  0.00     0.151 C 
HETATM    2  C3  UNL     1     -14.306  10.467  16.980  1.00  0.00     0.043 C 
HETATM    3  C4  UNL     1     -13.837  11.928  16.911  1.00  0.00     0.016 C 
HETATM    4  C5  UNL     1     -14.679  12.902  17.805  1.00  0.00     0.018 C 
HETATM    5  C6  UNL     1     -15.145  12.288  19.140  1.00  0.00     0.023 C 
HETATM    6  C7  UNL     1     -15.944  13.346  17.038  1.00  0.00     0.023 C 
HETATM    7  C8  UNL     1     -13.864  14.172  18.078  1.00  0.00     0.135 C 
HETATM    8  O2  UNL     1     -14.063  14.885  19.062  1.00  0.00    -0.297 OA
HETATM    9  C9  UNL     1     -12.852  14.572  17.034  1.00  0.00     0.080 C 
HETATM   10  C10 UNL     1     -11.854  13.464  16.707  1.00  0.00     0.021 C 
HETATM   11  C11 UNL     1     -12.283  12.023  17.115  1.00  0.00    -0.015 C 
HETATM   12  C12 UNL     1     -11.860  11.766  18.583  1.00  0.00     0.020 C 
HETATM   13  C13 UNL     1     -11.545  10.973  16.237  1.00  0.00    -0.066 C 
HETATM   14  C14 UNL     1     -12.194   9.921  15.664  1.00  0.00    -0.039 C 
HETATM   15  C15 UNL     1     -11.417   8.964  14.754  1.00  0.00    -0.010 C 
HETATM   16  C16 UNL     1     -11.478   9.610  13.332  1.00  0.00     0.021 C 
HETATM   17  C17 UNL     1     -11.868   7.496  14.608  1.00  0.00     0.015 C 
HETATM   18  C18 UNL     1     -10.619   6.738  14.104  1.00  0.00     0.007 C 
HETATM   19  C19 UNL     1      -9.406   7.664  14.358  1.00  0.00    -0.002 C 
HETATM   20  C28 UNL     1      -9.965   8.742  15.330  1.00  0.00    -0.029 C 
HETATM   21  C29 UNL     1      -9.978   8.223  16.798  1.00  0.00     0.016 C 
HETATM   22  C30 UNL     1      -9.240  10.089  15.297  1.00  0.00     0.015 C 
HETATM   23  C31 UNL     1     -10.026  11.170  16.068  1.00  0.00     0.036 C 
ENDROOT
BRANCH  19  24
HETATM   24  C20 UNL     1      -8.016   7.003  14.579  1.00  0.00    -0.014 C 
HETATM   25  C21 UNL     1      -6.967   8.096  14.859  1.00  0.00     0.010 C 
BRANCH  24  26
HETATM   26  C22 UNL     1      -7.454   5.936  13.610  1.00  0.00     0.008 C 
BRANCH  26  27
HETATM   27  C23 UNL     1      -7.249   4.484  14.051  1.00  0.00     0.028 C 
BRANCH  27  28
HETATM   28  C24 UNL     1      -6.979   3.506  12.945  1.00  0.00    -0.013 C 
HETATM   29  C25 UNL     1      -5.815   3.323  12.288  1.00  0.00     0.008 C 
HETATM   30  C26 UNL     1      -4.555   4.103  12.508  1.00  0.00     0.055 C 
BRANCH  29  31
HETATM   31  C27 UNL     1      -5.803   2.268  11.244  1.00  0.00     0.171 C 
HETATM   32  O3  UNL     1      -6.163   1.111  11.371  1.00  0.00    -0.646 OA
BRANCH  31  33
HETATM   33  O4  UNL     1      -5.328   2.715  10.069  1.00  0.00    -0.773 OA
HETATM   34  H41 UNL     1      -5.378   1.927   9.491  1.00  0.00     0.167 HD
ENDBRANCH  31  33
ENDBRANCH  29  31
ENDBRANCH  27  28
ENDBRANCH  26  27
ENDBRANCH  24  26
ENDBRANCH  19  24
BRANCH   1  35
HETATM   35  O1  UNL     1     -14.333   9.944  14.624  1.00  0.00    -0.386 OA
HETATM   36  C1  UNL     1     -14.454  11.338  14.382  1.00  0.00     0.202 C 
ENDBRANCH   1  35
TORSDOF 7
ENDMDL
MODEL 5
REMARK minimizedAffinity -8.49028111
REMARK CNNscore 0.292493463
REMARK CNNaffinity 6.89116526
REMARK  7 active torsions:
REMARK  status: ('A' for Active; 'I' for Inactive)
REMARK    1  A    between atoms: O1_2  and  C2_3 
REMARK    2  A    between atoms: C19_21  and  C20_22 
REMARK    3  A    between atoms: C20_22  and  C22_24 
REMARK    4  A    between atoms: C22_24  and  C23_25 
REMARK    5  A    between atoms: C23_25  and  C24_26 
REMARK    6  A    between atoms: C25_27  and  C27_29 
REMARK    7  A    between atoms: C27_29  and  O4_31 
ROOT
HETATM    1  C2  UNL     1      -1.645   5.463  11.540  1.00  0.00     0.151 C 
HETATM    2  C3  UNL     1      -0.493   6.263  10.926  1.00  0.00     0.043 C 
HETATM    3  C4  UNL     1       0.509   6.691  12.008  1.00  0.00     0.016 C 
HETATM    4  C5  UNL     1       1.868   7.221  11.433  1.00  0.00     0.018 C 
HETATM    5  C6  UNL     1       1.728   8.028  10.126  1.00  0.00     0.023 C 
HETATM    6  C7  UNL     1       2.805   6.029  11.137  1.00  0.00     0.023 C 
HETATM    7  C8  UNL     1       2.569   8.077  12.495  1.00  0.00     0.135 C 
HETATM    8  O2  UNL     1       3.388   8.949  12.204  1.00  0.00    -0.297 OA
HETATM    9  C9  UNL     1       2.282   7.745  13.937  1.00  0.00     0.080 C 
HETATM   10  C10 UNL     1       0.792   7.753  14.271  1.00  0.00     0.021 C 
HETATM   11  C11 UNL     1      -0.176   7.638  13.057  1.00  0.00    -0.015 C 
HETATM   12  C12 UNL     1      -0.449   9.053  12.490  1.00  0.00     0.020 C 
HETATM   13  C13 UNL     1      -1.545   7.058  13.512  1.00  0.00    -0.066 C 
HETATM   14  C14 UNL     1      -2.178   6.064  12.826  1.00  0.00    -0.039 C 
HETATM   15  C15 UNL     1      -3.490   5.493  13.371  1.00  0.00    -0.010 C 
HETATM   16  C16 UNL     1      -3.065   4.361  14.362  1.00  0.00     0.021 C 
HETATM   17  C17 UNL     1      -4.531   4.888  12.407  1.00  0.00     0.015 C 
HETATM   18  C18 UNL     1      -5.869   4.928  13.180  1.00  0.00     0.007 C 
HETATM   19  C19 UNL     1      -5.666   5.899  14.367  1.00  0.00    -0.002 C 
HETATM   20  C28 UNL     1      -4.354   6.652  14.005  1.00  0.00    -0.029 C 
HETATM   21  C29 UNL     1      -4.628   7.809  13.000  1.00  0.00     0.016 C 
HETATM   22  C30 UNL     1      -3.576   7.215  15.195  1.00  0.00     0.015 C 
HETATM   23  C31 UNL     1      -2.168   7.686  14.775  1.00  0.00     0.036 C 
ENDROOT
BRANCH  19  24
HETATM   24  C20 UNL     1      -6.913   6.646  14.922  1.00  0.00    -0.014 C 
HETATM   25  C21 UNL     1      -7.064   6.346  16.424  1.00  0.00     0.010 C 
BRANCH  24  26
HETATM   26  C22 UNL     1      -8.284   6.589  14.208  1.00  0.00     0.008 C 
BRANCH  26  27
HETATM   27  C23 UNL     1      -9.511   7.310  14.776  1.00  0.00     0.028 C 
BRANCH  27  28
HETATM   28  C24 UNL     1     -10.577   7.653  13.776  1.00  0.00    -0.013 C 
HETATM   29  C25 UNL     1     -11.174   8.850  13.604  1.00  0.00     0.008 C 
HETATM   30  C26 UNL     1     -10.918  10.081  14.420  1.00  0.00     0.055 C 
BRANCH  29  31
HETATM   31  C27 UNL     1     -12.188   8.935  12.522  1.00  0.00     0.171 C 
HETATM   32  O3  UNL     1     -13.320   8.485  12.546  1.00  0.00    -0.646 OA
BRANCH  31  33
HETATM   33  O4  UNL     1     -11.729   9.586  11.440  1.00  0.00    -0.773 OA
HETATM   34  H41 UNL     1     -12.489   9.563  10.823  1.00  0.00     0.167 HD
ENDBRANCH  31  33
ENDBRANCH  29  31
ENDBRANCH  27  28
ENDBRANCH  26  27
ENDBRANCH  24  26
ENDBRANCH  19  24
BRANCH   1  35
HETATM   35  O1  UNL     1      -1.187   4.140  11.841  1.00  0.00    -0.386 OA
HETATM   36  C1  UNL     1       0.080   4.119  12.483  1.00  0.00     0.202 C 
ENDBRANCH   1  35
TORSDOF 7
ENDMDL
MODEL 6
REMARK minimizedAffinity -6.51689768
REMARK CNNscore 0.250637472
REMARK CNNaffinity 6.73364019
REMARK  7 active torsions:
REMARK  status: ('A' for Active; 'I' for Inactive)
REMARK    1  A    between atoms: O1_2  and  C2_3 
REMARK    2  A    between atoms: C19_21  and  C20_22 
REMARK    3  A    between atoms: C20_22  and  C22_24 
REMARK    4  A    between atoms: C22_24  and  C23_25 
REMARK    5  A    between atoms: C23_25  and  C24_26 
REMARK    6  A    between atoms: C25_27  and  C27_29 
REMARK    7  A    between atoms: C27_29  and  O4_31 
ROOT
HETATM    1  C2  UNL     1      -3.988   4.805  12.429  1.00  0.00     0.151 C 
HETATM    2  C3  UNL     1      -2.646   5.491  12.158  1.00  0.00     0.043 C 
HETATM    3  C4  UNL     1      -2.057   6.064  13.456  1.00  0.00     0.016 C 
HETATM    4  C5  UNL     1      -0.553   6.487  13.331  1.00  0.00     0.018 C 
HETATM    5  C6  UNL     1      -0.179   7.093  11.963  1.00  0.00     0.023 C 
HETATM    6  C7  UNL     1       0.351   5.253  13.549  1.00  0.00     0.023 C 
HETATM    7  C8  UNL     1      -0.211   7.483  14.446  1.00  0.00     0.135 C 
HETATM    8  O2  UNL     1       0.712   8.292  14.348  1.00  0.00    -0.297 OA
HETATM    9  C9  UNL     1      -1.001   7.372  15.725  1.00  0.00     0.080 C 
HETATM   10  C10 UNL     1      -2.511   7.447  15.508  1.00  0.00     0.021 C 
HETATM   11  C11 UNL     1      -3.003   7.164  14.058  1.00  0.00    -0.015 C 
HETATM   12  C12 UNL     1      -2.971   8.482  13.246  1.00  0.00     0.020 C 
HETATM   13  C13 UNL     1      -4.478   6.674  14.075  1.00  0.00    -0.066 C 
HETATM   14  C14 UNL     1      -4.895   5.597  13.351  1.00  0.00    -0.039 C 
HETATM   15  C15 UNL     1      -6.348   5.128  13.471  1.00  0.00    -0.010 C 
HETATM   16  C16 UNL     1      -6.365   4.151  14.691  1.00  0.00     0.021 C 
HETATM   17  C17 UNL     1      -7.026   4.399  12.292  1.00  0.00     0.015 C 
HETATM   18  C18 UNL     1      -8.543   4.569  12.531  1.00  0.00     0.007 C 
HETATM   19  C19 UNL     1      -8.704   5.704  13.570  1.00  0.00    -0.002 C 
HETATM   20  C28 UNL     1      -7.303   6.378  13.597  1.00  0.00    -0.029 C 
HETATM   21  C29 UNL     1      -7.138   7.376  12.414  1.00  0.00     0.016 C 
HETATM   22  C30 UNL     1      -6.952   7.103  14.897  1.00  0.00     0.015 C 
HETATM   23  C31 UNL     1      -5.459   7.490  14.940  1.00  0.00     0.036 C 
ENDROOT
BRANCH  19  24
HETATM   24  C20 UNL     1     -10.016   6.539  13.544  1.00  0.00    -0.014 C 
HETATM   25  C21 UNL     1     -10.386   6.867  12.086  1.00  0.00     0.010 C 
BRANCH  24  26
HETATM   26  C22 UNL     1     -10.217   7.773  14.454  1.00  0.00     0.008 C 
BRANCH  26  27
HETATM   27  C23 UNL     1     -11.429   8.697  14.293  1.00  0.00     0.028 C 
BRANCH  27  28
HETATM   28  C24 UNL     1     -12.587   8.115  13.536  1.00  0.00    -0.013 C 
HETATM   29  C25 UNL     1     -13.881   8.105  13.914  1.00  0.00     0.008 C 
HETATM   30  C26 UNL     1     -14.420   8.643  15.205  1.00  0.00     0.055 C 
BRANCH  29  31
HETATM   31  C27 UNL     1     -14.843   7.484  12.968  1.00  0.00     0.171 C 
HETATM   32  O3  UNL     1     -15.178   7.916  11.880  1.00  0.00    -0.646 OA
BRANCH  31  33
HETATM   33  O4  UNL     1     -15.352   6.333  13.438  1.00  0.00    -0.773 OA
HETATM   34  H41 UNL     1     -15.957   6.045  12.724  1.00  0.00     0.167 HD
ENDBRANCH  31  33
ENDBRANCH  29  31
ENDBRANCH  27  28
ENDBRANCH  26  27
ENDBRANCH  24  26
ENDBRANCH  19  24
BRANCH   1  35
HETATM   35  O1  UNL     1      -3.747   3.536  13.048  1.00  0.00    -0.386 OA
HETATM   36  C1  UNL     1      -3.554   2.485  12.112  1.00  0.00     0.202 C 
ENDBRANCH   1  35
TORSDOF 7
ENDMDL
MODEL 7
REMARK minimizedAffinity -7.11273336
REMARK CNNscore 0.222538009
REMARK CNNaffinity 5.60171127
REMARK  7 active torsions:
REMARK  status: ('A' for Active; 'I' for Inactive)
REMARK    1  A    between atoms: O1_2  and  C2_3 
REMARK    2  A    between atoms: C19_21  and  C20_22 
REMARK    3  A    between atoms: C20_22  and  C22_24 
REMARK    4  A    between atoms: C22_24  and  C23_25 
REMARK    5  A    between atoms: C23_25  and  C24_26 
REMARK    6  A    between atoms: C25_27  and  C27_29 
REMARK    7  A    between atoms: C27_29  and  O4_31 
ROOT
HETATM    1  C2  UNL     1       9.436  10.554  18.210  1.00  0.00     0.151 C 
HETATM    2  C3  UNL     1       9.321   9.515  17.090  1.00  0.00     0.043 C 
HETATM    3  C4  UNL     1       8.997  10.194  15.751  1.00  0.00     0.016 C 
HETATM    4  C5  UNL     1       9.185   9.256  14.510  1.00  0.00     0.018 C 
HETATM    5  C6  UNL     1       8.791   7.787  14.763  1.00  0.00     0.023 C 
HETATM    6  C7  UNL     1      10.667   9.264  14.074  1.00  0.00     0.023 C 
HETATM    7  C8  UNL     1       8.378   9.809  13.329  1.00  0.00     0.135 C 
HETATM    8  O2  UNL     1       7.985   9.095  12.405  1.00  0.00    -0.297 OA
HETATM    9  C9  UNL     1       8.156  11.300  13.293  1.00  0.00     0.080 C 
HETATM   10  C10 UNL     1       7.512  11.843  14.566  1.00  0.00     0.021 C 
HETATM   11  C11 UNL     1       7.609  10.925  15.820  1.00  0.00    -0.015 C 
HETATM   12  C12 UNL     1       6.416   9.937  15.818  1.00  0.00     0.020 C 
HETATM   13  C13 UNL     1       7.496  11.773  17.118  1.00  0.00    -0.066 C 
HETATM   14  C14 UNL     1       8.342  11.604  18.173  1.00  0.00    -0.039 C 
HETATM   15  C15 UNL     1       8.217  12.522  19.393  1.00  0.00    -0.010 C 
HETATM   16  C16 UNL     1       9.093  13.772  19.057  1.00  0.00     0.021 C 
HETATM   17  C17 UNL     1       8.650  12.022  20.787  1.00  0.00     0.015 C 
HETATM   18  C18 UNL     1       7.907  12.933  21.791  1.00  0.00     0.007 C 
HETATM   19  C19 UNL     1       6.781  13.639  21.000  1.00  0.00    -0.002 C 
HETATM   20  C28 UNL     1       6.694  12.824  19.678  1.00  0.00    -0.029 C 
HETATM   21  C29 UNL     1       5.855  11.528  19.871  1.00  0.00     0.016 C 
HETATM   22  C30 UNL     1       6.138  13.589  18.475  1.00  0.00     0.015 C 
HETATM   23  C31 UNL     1       6.352  12.806  17.163  1.00  0.00     0.036 C 
ENDROOT
BRANCH  19  24
HETATM   24  C20 UNL     1       5.507  14.079  21.776  1.00  0.00    -0.014 C 
HETATM   25  C21 UNL     1       5.643  15.557  22.189  1.00  0.00     0.010 C 
BRANCH  24  26
HETATM   26  C22 UNL     1       4.923  13.236  22.934  1.00  0.00     0.008 C 
BRANCH  26  27
HETATM   27  C23 UNL     1       3.428  12.913  23.013  1.00  0.00     0.028 C 
BRANCH  27  28
HETATM   28  C24 UNL     1       2.969  11.769  22.159  1.00  0.00    -0.013 C 
HETATM   29  C25 UNL     1       3.262  10.463  22.323  1.00  0.00     0.008 C 
HETATM   30  C26 UNL     1       4.155   9.894  23.384  1.00  0.00     0.055 C 
BRANCH  29  31
HETATM   31  C27 UNL     1       2.658   9.520  21.347  1.00  0.00     0.171 C 
HETATM   32  O3  UNL     1       2.684   9.611  20.133  1.00  0.00    -0.646 OA
BRANCH  31  33
HETATM   33  O4  UNL     1       2.035   8.492  21.947  1.00  0.00    -0.773 OA
HETATM   34  H41 UNL     1       1.693   7.966  21.195  1.00  0.00     0.167 HD
ENDBRANCH  31  33
ENDBRANCH  29  31
ENDBRANCH  27  28
ENDBRANCH  26  27
ENDBRANCH  24  26
ENDBRANCH  19  24
BRANCH   1  35
HETATM   35  O1  UNL     1      10.690  11.235  18.088  1.00  0.00    -0.386 OA
HETATM   36  C1  UNL     1      11.610  10.904  19.120  1.00  0.00     0.202 C 
ENDBRANCH   1  35
TORSDOF 7
ENDMDL
MODEL 8
REMARK minimizedAffinity -6.49191427
REMARK CNNscore 0.209975451
REMARK CNNaffinity 5.3375473
REMARK  7 active torsions:
REMARK  status: ('A' for Active; 'I' for Inactive)
REMARK    1  A    between atoms: O1_2  and  C2_3 
REMARK    2  A    between atoms: C19_21  and  C20_22 
REMARK    3  A    between atoms: C20_22  and  C22_24 
REMARK    4  A    between atoms: C22_24  and  C23_25 
REMARK    5  A    between atoms: C23_25  and  C24_26 
REMARK    6  A    between atoms: C25_27  and  C27_29 
REMARK    7  A    between atoms: C27_29  and  O4_31 
ROOT
HETATM    1  C2  UNL     1       0.573  13.582  17.193  1.00  0.00     0.151 C 
HETATM    2  C3  UNL     1      -0.341  12.918  16.158  1.00  0.00     0.043 C 
HETATM    3  C4  UNL     1      -1.570  12.296  16.838  1.00  0.00     0.016 C 
HETATM    4  C5  UNL     1      -2.705  11.891  15.835  1.00  0.00     0.018 C 
HETATM    5  C6  UNL     1      -2.191  11.346  14.488  1.00  0.00     0.023 C 
HETATM    6  C7  UNL     1      -3.586  13.122  15.527  1.00  0.00     0.023 C 
HETATM    7  C8  UNL     1      -3.619  10.853  16.497  1.00  0.00     0.135 C 
HETATM    8  O2  UNL     1      -4.293  10.055  15.844  1.00  0.00    -0.297 OA
HETATM    9  C9  UNL     1      -3.735  10.903  17.999  1.00  0.00     0.080 C 
HETATM   10  C10 UNL     1      -2.385  10.825  18.709  1.00  0.00     0.021 C 
HETATM   11  C11 UNL     1      -1.140  11.165  17.838  1.00  0.00    -0.015 C 
HETATM   12  C12 UNL     1      -0.663   9.882  17.114  1.00  0.00     0.020 C 
HETATM   13  C13 UNL     1       0.034  11.642  18.739  1.00  0.00    -0.066 C 
HETATM   14  C14 UNL     1       0.777  12.745  18.441  1.00  0.00    -0.039 C 
HETATM   15  C15 UNL     1       1.874  13.197  19.411  1.00  0.00    -0.010 C 
HETATM   16  C16 UNL     1       1.152  14.122  20.444  1.00  0.00     0.021 C 
HETATM   17  C17 UNL     1       3.102  13.969  18.885  1.00  0.00     0.015 C 
HETATM   18  C18 UNL     1       4.191  13.777  19.965  1.00  0.00     0.007 C 
HETATM   19  C19 UNL     1       3.730  12.599  20.856  1.00  0.00    -0.002 C 
HETATM   20  C28 UNL     1       2.594  11.935  20.026  1.00  0.00    -0.029 C 
HETATM   21  C29 UNL     1       3.175  10.988  18.935  1.00  0.00     0.016 C 
HETATM   22  C30 UNL     1       1.559  11.159  20.842  1.00  0.00     0.015 C 
HETATM   23  C31 UNL     1       0.333  10.783  19.984  1.00  0.00     0.036 C 
ENDROOT
BRANCH  19  24
HETATM   24  C20 UNL     1       4.821  11.755  21.574  1.00  0.00    -0.014 C 
HETATM   25  C21 UNL     1       4.299  11.307  22.951  1.00  0.00     0.010 C 
BRANCH  24  26
HETATM   26  C22 UNL     1       6.290  12.230  21.670  1.00  0.00     0.008 C 
BRANCH  26  27
HETATM   27  C23 UNL     1       7.069  12.158  22.988  1.00  0.00     0.028 C 
BRANCH  27  28
HETATM   28  C24 UNL     1       7.941  13.342  23.287  1.00  0.00    -0.013 C 
HETATM   29  C25 UNL     1       7.541  14.612  23.502  1.00  0.00     0.008 C 
HETATM   30  C26 UNL     1       6.128  15.106  23.441  1.00  0.00     0.055 C 
BRANCH  29  31
HETATM   31  C27 UNL     1       8.608  15.600  23.804  1.00  0.00     0.171 C 
HETATM   32  O3  UNL     1       8.994  16.501  23.080  1.00  0.00    -0.646 OA
BRANCH  31  33
HETATM   33  O4  UNL     1       9.154  15.410  25.016  1.00  0.00    -0.773 OA
HETATM   34  H41 UNL     1       9.827  16.119  25.074  1.00  0.00     0.167 HD
ENDBRANCH  31  33
ENDBRANCH  29  31
ENDBRANCH  27  28
ENDBRANCH  26  27
ENDBRANCH  24  26
ENDBRANCH  19  24
BRANCH   1  35
HETATM   35  O1  UNL     1      -0.009  14.826  17.600  1.00  0.00    -0.386 OA
HETATM   36  C1  UNL     1      -1.385  14.716  17.936  1.00  0.00     0.202 C 
ENDBRANCH   1  35
TORSDOF 7
ENDMDL
MODEL 9
REMARK minimizedAffinity -7.32925653
REMARK CNNscore 0.207039624
REMARK CNNaffinity 6.61265564
REMARK  7 active torsions:
REMARK  status: ('A' for Active; 'I' for Inactive)
REMARK    1  A    between atoms: O1_2  and  C2_3 
REMARK    2  A    between atoms: C19_21  and  C20_22 
REMARK    3  A    between atoms: C20_22  and  C22_24 
REMARK    4  A    between atoms: C22_24  and  C23_25 
REMARK    5  A    between atoms: C23_25  and  C24_26 
REMARK    6  A    between atoms: C25_27  and  C27_29 
REMARK    7  A    between atoms: C27_29  and  O4_31 
ROOT
HETATM    1  C2  UNL     1      -4.671   4.384  11.924  1.00  0.00     0.151 C 
HETATM    2  C3  UNL     1      -3.253   4.679  11.425  1.00  0.00     0.043 C 
HETATM    3  C4  UNL     1      -2.263   4.732  12.598  1.00  0.00     0.016 C 
HETATM    4  C5  UNL     1      -0.760   4.700  12.155  1.00  0.00     0.018 C 
HETATM    5  C6  UNL     1      -0.471   5.465  10.848  1.00  0.00     0.023 C 
HETATM    6  C7  UNL     1      -0.315   3.237  11.938  1.00  0.00     0.023 C 
HETATM    7  C8  UNL     1       0.114   5.261  13.283  1.00  0.00     0.135 C 
HETATM    8  O2  UNL     1       1.222   5.756  13.077  1.00  0.00    -0.297 OA
HETATM    9  C9  UNL     1      -0.403   5.101  14.691  1.00  0.00     0.080 C 
HETATM   10  C10 UNL     1      -1.805   5.673  14.886  1.00  0.00     0.021 C 
HETATM   11  C11 UNL     1      -2.634   5.895  13.586  1.00  0.00    -0.015 C 
HETATM   12  C12 UNL     1      -2.306   7.293  13.008  1.00  0.00     0.020 C 
HETATM   13  C13 UNL     1      -4.155   5.880  13.909  1.00  0.00    -0.066 C 
HETATM   14  C14 UNL     1      -5.050   5.176  13.160  1.00  0.00    -0.039 C 
HETATM   15  C15 UNL     1      -6.524   5.151  13.577  1.00  0.00    -0.010 C 
HETATM   16  C16 UNL     1      -6.643   3.970  14.594  1.00  0.00     0.021 C 
HETATM   17  C17 UNL     1      -7.626   4.953  12.516  1.00  0.00     0.015 C 
HETATM   18  C18 UNL     1      -8.914   5.511  13.163  1.00  0.00     0.007 C 
HETATM   19  C19 UNL     1      -8.469   6.368  14.371  1.00  0.00    -0.002 C 
HETATM   20  C28 UNL     1      -6.944   6.566  14.138  1.00  0.00    -0.029 C 
HETATM   21  C29 UNL     1      -6.675   7.713  13.121  1.00  0.00     0.016 C 
HETATM   22  C30 UNL     1      -6.120   6.830  15.399  1.00  0.00     0.015 C 
HETATM   23  C31 UNL     1      -4.607   6.730  15.114  1.00  0.00     0.036 C 
ENDROOT
BRANCH  19  24
HETATM   24  C20 UNL     1      -9.389   7.541  14.814  1.00  0.00    -0.014 C 
HETATM   25  C21 UNL     1      -9.300   7.714  16.342  1.00  0.00     0.010 C 
BRANCH  24  26
HETATM   26  C22 UNL     1     -10.854   7.658  14.331  1.00  0.00     0.008 C 
BRANCH  26  27
HETATM   27  C23 UNL     1     -11.301   8.789  13.399  1.00  0.00     0.028 C 
BRANCH  27  28
HETATM   28  C24 UNL     1     -12.018   9.927  14.064  1.00  0.00    -0.013 C 
HETATM   29  C25 UNL     1     -11.460  10.981  14.696  1.00  0.00     0.008 C 
HETATM   30  C26 UNL     1      -9.992  11.202  14.899  1.00  0.00     0.055 C 
BRANCH  29  31
HETATM   31  C27 UNL     1     -12.397  11.990  15.252  1.00  0.00     0.171 C 
HETATM   32  O3  UNL     1     -12.867  12.008  16.376  1.00  0.00    -0.646 OA
BRANCH  31  33
HETATM   33  O4  UNL     1     -12.710  12.944  14.360  1.00  0.00    -0.773 OA
HETATM   34  H41 UNL     1     -13.322  13.526  14.857  1.00  0.00     0.167 HD
ENDBRANCH  31  33
ENDBRANCH  29  31
ENDBRANCH  27  28
ENDBRANCH  26  27
ENDBRANCH  24  26
ENDBRANCH  19  24
BRANCH   1  35
HETATM   35  O1  UNL     1      -4.769   2.995  12.256  1.00  0.00    -0.386 OA
HETATM   36  C1  UNL     1      -5.445   2.230  11.268  1.00  0.00     0.202 C 
ENDBRANCH   1  35
TORSDOF 7
ENDMDL
