MODEL 1
REMARK minimizedAffinity -9.20559978
REMARK CNNscore 0.616574943
REMARK CNNaffinity 7.4730649
REMARK  12 active torsions:
REMARK  status: ('A' for Active; 'I' for Inactive)
REMARK    1  A    between atoms: C2_2  and  O2_4 
REMARK    2  A    between atoms: O2_4  and  C3_5 
REMARK    3  A    between atoms: C4_6  and  O3_7 
REMARK    4  A    between atoms: O3_7  and  C5_8 
REMARK    5  A    between atoms: C16_19  and  O4_20 
REMARK    6  A    between atoms: C19_23  and  C20_24 
REMARK    7  A    between atoms: C24_28  and  C25_29 
REMARK    8  A    between atoms: C25_29  and  O5_32 
REMARK    9  A    between atoms: C35_42  and  C36_43 
REMARK   10  A    between atoms: C36_43  and  O8_44 
REMARK   11  A    between atoms: C37_45  and  O9_46 
REMARK   12  A    between atoms: C38_47  and  O10_48 
ROOT
HETATM    1  C5  UNL     1       3.555   7.858  11.988  1.00  0.00     0.133 C 
HETATM    2  C6  UNL     1       2.675   8.856  12.754  1.00  0.00     0.034 C 
HETATM    3  C7  UNL     1       1.412   9.261  12.008  1.00  0.00     0.012 C 
HETATM    4  C8  UNL     1       0.437   8.063  11.749  1.00  0.00    -0.033 C 
HETATM    5  C9  UNL     1      -0.340   8.393  10.438  1.00  0.00     0.016 C 
HETATM    6  C10 UNL     1       1.283   6.734  11.514  1.00  0.00     0.004 C 
HETATM    7  C11 UNL     1       1.324   5.736  12.700  1.00  0.00     0.007 C 
HETATM    8  C12 UNL     1       0.233   5.763  13.754  1.00  0.00     0.011 C 
HETATM    9  C13 UNL     1      -1.050   6.521  13.383  1.00  0.00    -0.030 C 
HETATM   10  C14 UNL     1      -1.739   5.768  12.213  1.00  0.00     0.016 C 
HETATM   11  C15 UNL     1      -0.610   7.978  12.971  1.00  0.00     0.032 C 
HETATM   12  C16 UNL     1      -1.844   8.944  12.864  1.00  0.00     0.124 C 
HETATM   13  C17 UNL     1      -2.800   8.901  14.071  1.00  0.00     0.038 C 
HETATM   14  C18 UNL     1      -3.255   7.473  14.325  1.00  0.00     0.004 C 
HETATM   15  C19 UNL     1      -4.279   7.202  15.460  1.00  0.00     0.025 C 
HETATM   16  C28 UNL     1      -3.912   5.759  15.920  1.00  0.00     0.009 C 
HETATM   17  C29 UNL     1      -2.729   5.296  15.060  1.00  0.00     0.011 C 
HETATM   18  C30 UNL     1      -2.019   6.599  14.656  1.00  0.00    -0.032 C 
HETATM   19  C31 UNL     1      -1.270   7.112  15.934  1.00  0.00     0.016 C 
HETATM   20  C32 UNL     1       2.759   6.980  10.969  1.00  0.00    -0.017 C 
HETATM   21  C33 UNL     1       2.754   7.596   9.546  1.00  0.00     0.018 C 
HETATM   22  C34 UNL     1       3.503   5.626  10.772  1.00  0.00     0.018 C 
ENDROOT
BRANCH   1  23
HETATM   23  O3  UNL     1       4.596   8.580  11.313  1.00  0.00    -0.352 OA
BRANCH  23  24
HETATM   24  C4  UNL     1       5.232   9.562  12.129  1.00  0.00     0.293 C 
HETATM   25  C3  UNL     1       4.889   9.336  13.618  1.00  0.00     0.218 C 
HETATM   26  C38 UNL     1       5.806   8.309  14.306  1.00  0.00     0.183 C 
HETATM   27  C37 UNL     1       7.273   8.524  13.919  1.00  0.00     0.180 C 
HETATM   28  C35 UNL     1       7.443   8.588  12.394  1.00  0.00     0.179 C 
HETATM   29  O7  UNL     1       6.634   9.652  11.859  1.00  0.00    -0.348 OA
BRANCH  25  30
HETATM   30  O2  UNL     1       5.029  10.621  14.280  1.00  0.00    -0.309 OA
BRANCH  30  31
HETATM   31  C2  UNL     1       4.091  10.891  15.229  1.00  0.00     0.255 C 
HETATM   32  C1  UNL     1       4.696  10.800  16.596  1.00  0.00     0.126 C 
HETATM   33  O1  UNL     1       2.917  11.153  15.006  1.00  0.00    -0.266 OA
ENDBRANCH  30  31
ENDBRANCH  25  30
BRANCH  26  34
HETATM   34  O10 UNL     1       5.419   6.962  14.011  1.00  0.00    -0.390 OA
HETATM   35  H64 UNL     1       4.526   6.830  14.382  1.00  0.00     0.210 HD
ENDBRANCH  26  34
BRANCH  27  36
HETATM   36  O9  UNL     1       7.741   9.754  14.498  1.00  0.00    -0.390 OA
HETATM   37  H62 UNL     1       7.484  10.470  13.886  1.00  0.00     0.210 HD
ENDBRANCH  27  36
BRANCH  28  38
HETATM   38  C36 UNL     1       7.259   7.244  11.670  1.00  0.00     0.198 C 
BRANCH  38  39
HETATM   39  O8  UNL     1       7.125   7.416  10.263  1.00  0.00    -0.398 OA
HETATM   40  H60 UNL     1       8.032   7.384   9.899  1.00  0.00     0.209 HD
ENDBRANCH  38  39
ENDBRANCH  28  38
ENDBRANCH  23  24
ENDBRANCH   1  23
BRANCH  12  41
HETATM   41  O4  UNL     1      -1.412  10.295  12.723  1.00  0.00    -0.395 OA
HETATM   42  H24 UNL     1      -2.201  10.852  12.630  1.00  0.00     0.210 HD
ENDBRANCH  12  41
BRANCH  15  43
HETATM   43  C20 UNL     1      -5.780   7.330  15.057  1.00  0.00     0.062 C 
HETATM   44  C21 UNL     1      -6.247   8.795  15.051  1.00  0.00     0.046 C 
HETATM   45  C22 UNL     1      -6.705   6.492  15.943  1.00  0.00     0.041 C 
HETATM   46  C23 UNL     1      -7.870   6.175  15.032  1.00  0.00     0.038 C 
HETATM   47  C24 UNL     1      -7.255   6.151  13.635  1.00  0.00     0.156 C 
HETATM   48  O6  UNL     1      -5.973   6.815  13.727  1.00  0.00    -0.372 OA
BRANCH  47  49
HETATM   49  C25 UNL     1      -7.098   4.733  13.012  1.00  0.00     0.076 C 
HETATM   50  C26 UNL     1      -7.641   3.652  13.955  1.00  0.00     0.048 C 
HETATM   51  C27 UNL     1      -5.628   4.445  12.684  1.00  0.00     0.048 C 
BRANCH  49  52
HETATM   52  O5  UNL     1      -7.833   4.656  11.783  1.00  0.00    -0.388 OA
HETATM   53  H43 UNL     1      -7.821   3.730  11.486  1.00  0.00     0.210 HD
ENDBRANCH  49  52
ENDBRANCH  47  49
ENDBRANCH  15  43
TORSDOF 12
ENDMDL
MODEL 2
REMARK minimizedAffinity -7.21530342
REMARK CNNscore 0.472913563
REMARK CNNaffinity 6.54715586
REMARK  12 active torsions:
REMARK  status: ('A' for Active; 'I' for Inactive)
REMARK    1  A    between atoms: C2_2  and  O2_4 
REMARK    2  A    between atoms: O2_4  and  C3_5 
REMARK    3  A    between atoms: C4_6  and  O3_7 
REMARK    4  A    between atoms: O3_7  and  C5_8 
REMARK    5  A    between atoms: C16_19  and  O4_20 
REMARK    6  A    between atoms: C19_23  and  C20_24 
REMARK    7  A    between atoms: C24_28  and  C25_29 
REMARK    8  A    between atoms: C25_29  and  O5_32 
REMARK    9  A    between atoms: C35_42  and  C36_43 
REMARK   10  A    between atoms: C36_43  and  O8_44 
REMARK   11  A    between atoms: C37_45  and  O9_46 
REMARK   12  A    between atoms: C38_47  and  O10_48 
ROOT
HETATM    1  C5  UNL     1     -17.375  -2.156  13.403  1.00  0.00     0.133 C 
HETATM    2  C6  UNL     1     -16.948  -1.758  11.983  1.00  0.00     0.034 C 
HETATM    3  C7  UNL     1     -15.453  -1.893  11.730  1.00  0.00     0.012 C 
HETATM    4  C8  UNL     1     -14.937  -3.366  11.850  1.00  0.00    -0.033 C 
HETATM    5  C9  UNL     1     -13.450  -3.284  12.315  1.00  0.00     0.016 C 
HETATM    6  C10 UNL     1     -15.774  -4.130  12.969  1.00  0.00     0.004 C 
HETATM    7  C11 UNL     1     -16.847  -5.124  12.456  1.00  0.00     0.007 C 
HETATM    8  C12 UNL     1     -16.733  -5.712  11.061  1.00  0.00     0.011 C 
HETATM    9  C13 UNL     1     -15.361  -5.584  10.382  1.00  0.00    -0.030 C 
HETATM   10  C14 UNL     1     -14.340  -6.435  11.186  1.00  0.00     0.016 C 
HETATM   11  C15 UNL     1     -14.993  -4.052  10.393  1.00  0.00     0.032 C 
HETATM   12  C16 UNL     1     -13.765  -3.747   9.462  1.00  0.00     0.124 C 
HETATM   13  C17 UNL     1     -13.864  -4.352   8.050  1.00  0.00     0.038 C 
HETATM   14  C18 UNL     1     -14.113  -5.849   8.140  1.00  0.00     0.004 C 
HETATM   15  C19 UNL     1     -14.184  -6.680   6.830  1.00  0.00     0.025 C 
HETATM   16  C28 UNL     1     -15.155  -7.839   7.207  1.00  0.00     0.009 C 
HETATM   17  C29 UNL     1     -15.584  -7.615   8.662  1.00  0.00     0.011 C 
HETATM   18  C30 UNL     1     -15.459  -6.096   8.868  1.00  0.00    -0.032 C 
HETATM   19  C31 UNL     1     -16.660  -5.443   8.103  1.00  0.00     0.016 C 
HETATM   20  C32 UNL     1     -16.410  -3.181  14.081  1.00  0.00    -0.017 C 
HETATM   21  C33 UNL     1     -15.321  -2.483  14.935  1.00  0.00     0.018 C 
HETATM   22  C34 UNL     1     -17.206  -4.018  15.125  1.00  0.00     0.018 C 
ENDROOT
BRANCH   1  23
HETATM   23  O3  UNL     1     -17.481  -0.970  14.206  1.00  0.00    -0.352 OA
BRANCH  23  24
HETATM   24  C4  UNL     1     -17.267   0.237  13.474  1.00  0.00     0.293 C 
HETATM   25  C3  UNL     1     -18.540   1.110  13.484  1.00  0.00     0.218 C 
HETATM   26  C38 UNL     1     -18.659   2.002  14.733  1.00  0.00     0.183 C 
HETATM   27  C37 UNL     1     -17.319   2.660  15.077  1.00  0.00     0.180 C 
HETATM   28  C35 UNL     1     -16.193   1.619  15.159  1.00  0.00     0.179 C 
HETATM   29  O7  UNL     1     -16.086   0.918  13.906  1.00  0.00    -0.348 OA
BRANCH  25  30
HETATM   30  O2  UNL     1     -18.480   1.950  12.300  1.00  0.00    -0.309 OA
BRANCH  30  31
HETATM   31  C2  UNL     1     -19.374   1.639  11.321  1.00  0.00     0.255 C 
HETATM   32  C1  UNL     1     -20.458   2.669  11.262  1.00  0.00     0.126 C 
HETATM   33  O1  UNL     1     -19.314   0.652  10.600  1.00  0.00    -0.266 OA
ENDBRANCH  30  31
ENDBRANCH  25  30
BRANCH  26  34
HETATM   34  O10 UNL     1     -19.148   1.275  15.866  1.00  0.00    -0.390 OA
HETATM   35  H64 UNL     1     -20.053   0.977  15.650  1.00  0.00     0.210 HD
ENDBRANCH  26  34
BRANCH  27  36
HETATM   36  O9  UNL     1     -16.992   3.630  14.067  1.00  0.00    -0.390 OA
HETATM   37  H62 UNL     1     -16.558   3.145  13.340  1.00  0.00     0.210 HD
ENDBRANCH  27  36
BRANCH  28  38
HETATM   38  C36 UNL     1     -16.261   0.693  16.384  1.00  0.00     0.198 C 
BRANCH  38  39
HETATM   39  O8  UNL     1     -15.187   0.931  17.288  1.00  0.00    -0.398 OA
HETATM   40  H60 UNL     1     -15.500   1.619  17.906  1.00  0.00     0.209 HD
ENDBRANCH  38  39
ENDBRANCH  28  38
ENDBRANCH  23  24
ENDBRANCH   1  23
BRANCH  12  41
HETATM   41  O4  UNL     1     -13.595  -2.341   9.302  1.00  0.00    -0.395 OA
HETATM   42  H24 UNL     1     -12.811  -2.198   8.748  1.00  0.00     0.210 HD
ENDBRANCH  12  41
BRANCH  15  43
HETATM   43  C20 UNL     1     -12.817  -7.205   6.292  1.00  0.00     0.062 C 
HETATM   44  C21 UNL     1     -12.386  -6.468   5.013  1.00  0.00     0.046 C 
HETATM   45  C22 UNL     1     -12.818  -8.715   6.047  1.00  0.00     0.041 C 
HETATM   46  C23 UNL     1     -11.369  -9.103   6.246  1.00  0.00     0.038 C 
HETATM   47  C24 UNL     1     -10.846  -8.084   7.256  1.00  0.00     0.156 C 
HETATM   48  O6  UNL     1     -11.790  -6.988   7.277  1.00  0.00    -0.372 OA
BRANCH  47  49
HETATM   49  C25 UNL     1     -10.617  -8.642   8.690  1.00  0.00     0.076 C 
HETATM   50  C26 UNL     1     -10.255 -10.132   8.653  1.00  0.00     0.048 C 
HETATM   51  C27 UNL     1     -11.862  -8.432   9.560  1.00  0.00     0.048 C 
BRANCH  49  52
HETATM   52  O5  UNL     1      -9.535  -7.941   9.319  1.00  0.00    -0.388 OA
HETATM   53  H43 UNL     1      -9.333  -8.393  10.156  1.00  0.00     0.210 HD
ENDBRANCH  49  52
ENDBRANCH  47  49
ENDBRANCH  15  43
TORSDOF 12
ENDMDL
MODEL 3
REMARK minimizedAffinity -7.85861158
REMARK CNNscore 0.415721923
REMARK CNNaffinity 6.94485617
REMARK  12 active torsions:
REMARK  status: ('A' for Active; 'I' for Inactive)
REMARK    1  A    between atoms: C2_2  and  O2_4 
REMARK    2  A    between atoms: O2_4  and  C3_5 
REMARK    3  A    between atoms: C4_6  and  O3_7 
REMARK    4  A    between atoms: O3_7  and  C5_8 
REMARK    5  A    between atoms: C16_19  and  O4_20 
REMARK    6  A    between atoms: C19_23  and  C20_24 
REMARK    7  A    between atoms: C24_28  and  C25_29 
REMARK    8  A    between atoms: C25_29  and  O5_32 
REMARK    9  A    between atoms: C35_42  and  C36_43 
REMARK   10  A    between atoms: C36_43  and  O8_44 
REMARK   11  A    between atoms: C37_45  and  O9_46 
REMARK   12  A    between atoms: C38_47  and  O10_48 
ROOT
HETATM    1  C5  UNL     1       0.441  10.867  14.483  1.00  0.00     0.133 C 
HETATM    2  C6  UNL     1      -0.890  10.314  15.012  1.00  0.00     0.034 C 
HETATM    3  C7  UNL     1      -0.910  10.097  16.518  1.00  0.00     0.012 C 
HETATM    4  C8  UNL     1      -0.732  11.419  17.336  1.00  0.00    -0.033 C 
HETATM    5  C9  UNL     1      -0.042  11.028  18.679  1.00  0.00     0.016 C 
HETATM    6  C10 UNL     1       0.234  12.406  16.541  1.00  0.00     0.004 C 
HETATM    7  C11 UNL     1      -0.453  13.590  15.814  1.00  0.00     0.007 C 
HETATM    8  C12 UNL     1      -1.821  14.069  16.265  1.00  0.00     0.011 C 
HETATM    9  C13 UNL     1      -2.278  13.603  17.655  1.00  0.00    -0.030 C 
HETATM   10  C14 UNL     1      -1.338  14.240  18.714  1.00  0.00     0.016 C 
HETATM   11  C15 UNL     1      -2.189  12.029  17.655  1.00  0.00     0.032 C 
HETATM   12  C16 UNL     1      -2.915  11.410  18.903  1.00  0.00     0.124 C 
HETATM   13  C17 UNL     1      -4.334  11.953  19.155  1.00  0.00     0.038 C 
HETATM   14  C18 UNL     1      -4.303  13.470  19.247  1.00  0.00     0.004 C 
HETATM   15  C19 UNL     1      -5.619  14.231  19.563  1.00  0.00     0.025 C 
HETATM   16  C28 UNL     1      -5.413  15.595  18.840  1.00  0.00     0.009 C 
HETATM   17  C29 UNL     1      -4.039  15.545  18.161  1.00  0.00     0.011 C 
HETATM   18  C30 UNL     1      -3.796  14.049  17.902  1.00  0.00    -0.032 C 
HETATM   19  C31 UNL     1      -4.729  13.647  16.709  1.00  0.00     0.016 C 
HETATM   20  C32 UNL     1       1.246  11.681  15.548  1.00  0.00    -0.017 C 
HETATM   21  C33 UNL     1       2.267  10.797  16.309  1.00  0.00     0.018 C 
HETATM   22  C34 UNL     1       2.143  12.725  14.820  1.00  0.00     0.018 C 
ENDROOT
BRANCH   1  23
HETATM   23  O3  UNL     1       1.234   9.776  13.990  1.00  0.00    -0.352 OA
BRANCH  23  24
HETATM   24  C4  UNL     1       0.496   8.844  13.200  1.00  0.00     0.293 C 
HETATM   25  C3  UNL     1       1.370   8.293  12.053  1.00  0.00     0.218 C 
HETATM   26  C38 UNL     1       2.245   7.098  12.472  1.00  0.00     0.183 C 
HETATM   27  C37 UNL     1       1.456   6.105  13.333  1.00  0.00     0.180 C 
HETATM   28  C35 UNL     1       0.763   6.812  14.506  1.00  0.00     0.179 C 
HETATM   29  O7  UNL     1      -0.119   7.834  14.006  1.00  0.00    -0.348 OA
BRANCH  25  30
HETATM   30  O2  UNL     1       0.462   7.874  10.999  1.00  0.00    -0.309 OA
BRANCH  30  31
HETATM   31  C2  UNL     1       0.838   8.219   9.737  1.00  0.00     0.255 C 
HETATM   32  C1  UNL     1      -0.341   8.716   8.961  1.00  0.00     0.126 C 
HETATM   33  O1  UNL     1       1.973   8.122   9.289  1.00  0.00    -0.266 OA
ENDBRANCH  30  31
ENDBRANCH  25  30
BRANCH  26  34
HETATM   34  O10 UNL     1       3.423   7.515  13.171  1.00  0.00    -0.390 OA
HETATM   35  H64 UNL     1       3.956   8.045  12.548  1.00  0.00     0.210 HD
ENDBRANCH  26  34
BRANCH  27  36
HETATM   36  O9  UNL     1       0.463   5.457  12.520  1.00  0.00    -0.390 OA
HETATM   37  H62 UNL     1      -0.315   6.045  12.501  1.00  0.00     0.210 HD
ENDBRANCH  27  36
BRANCH  28  38
HETATM   38  C36 UNL     1       1.711   7.299  15.614  1.00  0.00     0.198 C 
BRANCH  38  39
HETATM   39  O8  UNL     1       2.860   6.467  15.731  1.00  0.00    -0.398 OA
HETATM   40  H60 UNL     1       3.527   6.840  15.123  1.00  0.00     0.209 HD
ENDBRANCH  38  39
ENDBRANCH  28  38
ENDBRANCH  23  24
ENDBRANCH   1  23
BRANCH  12  41
HETATM   41  O4  UNL     1      -3.028   9.996  18.767  1.00  0.00    -0.395 OA
HETATM   42  H24 UNL     1      -3.452   9.653  19.570  1.00  0.00     0.210 HD
ENDBRANCH  12  41
BRANCH  15  43
HETATM   43  C20 UNL     1      -5.947  14.407  21.078  1.00  0.00     0.062 C 
HETATM   44  C21 UNL     1      -5.101  15.518  21.720  1.00  0.00     0.046 C 
HETATM   45  C22 UNL     1      -5.792  13.109  21.873  1.00  0.00     0.041 C 
HETATM   46  C23 UNL     1      -6.775  13.276  23.012  1.00  0.00     0.038 C 
HETATM   47  C24 UNL     1      -7.872  14.164  22.430  1.00  0.00     0.156 C 
HETATM   48  O6  UNL     1      -7.330  14.777  21.236  1.00  0.00    -0.372 OA
BRANCH  47  49
HETATM   49  C25 UNL     1      -9.209  13.433  22.115  1.00  0.00     0.076 C 
HETATM   50  C26 UNL     1      -9.420  12.239  23.053  1.00  0.00     0.048 C 
HETATM   51  C27 UNL     1      -9.239  12.961  20.657  1.00  0.00     0.048 C 
BRANCH  49  52
HETATM   52  O5  UNL     1     -10.311  14.334  22.294  1.00  0.00    -0.388 OA
HETATM   53  H43 UNL     1     -11.132  13.819  22.216  1.00  0.00     0.210 HD
ENDBRANCH  49  52
ENDBRANCH  47  49
ENDBRANCH  15  43
TORSDOF 12
ENDMDL
MODEL 4
REMARK minimizedAffinity -7.66850281
REMARK CNNscore 0.396740615
REMARK CNNaffinity 7.13586092
REMARK  12 active torsions:
REMARK  status: ('A' for Active; 'I' for Inactive)
REMARK    1  A    between atoms: C2_2  and  O2_4 
REMARK    2  A    between atoms: O2_4  and  C3_5 
REMARK    3  A    between atoms: C4_6  and  O3_7 
REMARK    4  A    between atoms: O3_7  and  C5_8 
REMARK    5  A    between atoms: C16_19  and  O4_20 
REMARK    6  A    between atoms: C19_23  and  C20_24 
REMARK    7  A    between atoms: C24_28  and  C25_29 
REMARK    8  A    between atoms: C25_29  and  O5_32 
REMARK    9  A    between atoms: C35_42  and  C36_43 
REMARK   10  A    between atoms: C36_43  and  O8_44 
REMARK   11  A    between atoms: C37_45  and  O9_46 
REMARK   12  A    between atoms: C38_47  and  O10_48 
ROOT
HETATM    1  C5  UNL     1       9.619  11.157  15.391  1.00  0.00     0.133 C 
HETATM    2  C6  UNL     1       8.971  11.401  14.020  1.00  0.00     0.034 C 
HETATM    3  C7  UNL     1       8.734  10.130  13.217  1.00  0.00     0.012 C 
HETATM    4  C8  UNL     1       7.734   9.142  13.905  1.00  0.00    -0.033 C 
HETATM    5  C9  UNL     1       8.139   7.705  13.452  1.00  0.00     0.016 C 
HETATM    6  C10 UNL     1       7.899   9.237  15.487  1.00  0.00     0.004 C 
HETATM    7  C11 UNL     1       6.794  10.022  16.240  1.00  0.00     0.007 C 
HETATM    8  C12 UNL     1       5.426  10.202  15.608  1.00  0.00     0.011 C 
HETATM    9  C13 UNL     1       5.095   9.273  14.431  1.00  0.00    -0.030 C 
HETATM   10  C14 UNL     1       5.025   7.817  14.966  1.00  0.00     0.016 C 
HETATM   11  C15 UNL     1       6.247   9.460  13.371  1.00  0.00     0.032 C 
HETATM   12  C16 UNL     1       5.875   8.803  11.994  1.00  0.00     0.124 C 
HETATM   13  C17 UNL     1       4.477   9.170  11.464  1.00  0.00     0.038 C 
HETATM   14  C18 UNL     1       3.422   8.855  12.512  1.00  0.00     0.004 C 
HETATM   15  C19 UNL     1       1.926   9.088  12.167  1.00  0.00     0.025 C 
HETATM   16  C28 UNL     1       1.299   9.423  13.553  1.00  0.00     0.009 C 
HETATM   17  C29 UNL     1       2.431   9.376  14.586  1.00  0.00     0.011 C 
HETATM   18  C30 UNL     1       3.697   9.705  13.779  1.00  0.00    -0.032 C 
HETATM   19  C31 UNL     1       3.643  11.241  13.470  1.00  0.00     0.016 C 
HETATM   20  C32 UNL     1       9.334   9.734  15.971  1.00  0.00    -0.017 C 
HETATM   21  C33 UNL     1      10.448   8.720  15.606  1.00  0.00     0.018 C 
HETATM   22  C34 UNL     1       9.397   9.795  17.525  1.00  0.00     0.018 C 
ENDROOT
BRANCH   1  23
HETATM   23  O3  UNL     1      11.034  11.372  15.280  1.00  0.00    -0.352 OA
BRANCH  23  24
HETATM   24  C4  UNL     1      11.446  12.679  15.678  1.00  0.00     0.293 C 
HETATM   25  C3  UNL     1      11.469  12.796  17.218  1.00  0.00     0.218 C 
HETATM   26  C38 UNL     1      12.781  12.295  17.848  1.00  0.00     0.183 C 
HETATM   27  C37 UNL     1      14.000  12.785  17.060  1.00  0.00     0.180 C 
HETATM   28  C35 UNL     1      13.864  12.461  15.565  1.00  0.00     0.179 C 
HETATM   29  O7  UNL     1      12.667  13.069  15.043  1.00  0.00    -0.348 OA
BRANCH  25  30
HETATM   30  O2  UNL     1      11.293  14.203  17.534  1.00  0.00    -0.309 OA
BRANCH  30  31
HETATM   31  C2  UNL     1      10.706  14.460  18.735  1.00  0.00     0.255 C 
HETATM   32  C1  UNL     1      11.179  15.774  19.273  1.00  0.00     0.126 C 
HETATM   33  O1  UNL     1       9.917  13.719  19.307  1.00  0.00    -0.266 OA
ENDBRANCH  30  31
ENDBRANCH  25  30
BRANCH  26  34
HETATM   34  O10 UNL     1      12.814  10.867  17.955  1.00  0.00    -0.390 OA
HETATM   35  H64 UNL     1      12.096  10.606  18.563  1.00  0.00     0.210 HD
ENDBRANCH  26  34
BRANCH  27  36
HETATM   36  O9  UNL     1      14.133  14.207  17.224  1.00  0.00    -0.390 OA
HETATM   37  H62 UNL     1      13.549  14.623  16.563  1.00  0.00     0.210 HD
ENDBRANCH  27  36
BRANCH  28  38
HETATM   38  C36 UNL     1      14.006  10.971  15.214  1.00  0.00     0.198 C 
BRANCH  38  39
HETATM   39  O8  UNL     1      13.578  10.697  13.884  1.00  0.00    -0.398 OA
HETATM   40  H60 UNL     1      14.366  10.813  13.317  1.00  0.00     0.209 HD
ENDBRANCH  38  39
ENDBRANCH  28  38
ENDBRANCH  23  24
ENDBRANCH   1  23
BRANCH  12  41
HETATM   41  O4  UNL     1       6.814   9.180  10.990  1.00  0.00    -0.395 OA
HETATM   42  H24 UNL     1       6.566   8.729  10.167  1.00  0.00     0.210 HD
ENDBRANCH  12  41
BRANCH  15  43
HETATM   43  C20 UNL     1       1.206   7.897  11.463  1.00  0.00     0.062 C 
HETATM   44  C21 UNL     1      -0.246   7.743  11.944  1.00  0.00     0.046 C 
HETATM   45  C22 UNL     1       1.952   6.571  11.629  1.00  0.00     0.041 C 
HETATM   46  C23 UNL     1       1.566   5.794  10.390  1.00  0.00     0.038 C 
HETATM   47  C24 UNL     1       1.319   6.871   9.336  1.00  0.00     0.156 C 
HETATM   48  O6  UNL     1       1.163   8.124  10.042  1.00  0.00    -0.372 OA
BRANCH  47  49
HETATM   49  C25 UNL     1       2.424   6.987   8.246  1.00  0.00     0.076 C 
HETATM   50  C26 UNL     1       3.200   8.302   8.382  1.00  0.00     0.048 C 
HETATM   51  C27 UNL     1       1.814   6.887   6.843  1.00  0.00     0.048 C 
BRANCH  49  52
HETATM   52  O5  UNL     1       3.359   5.907   8.382  1.00  0.00    -0.388 OA
HETATM   53  H43 UNL     1       4.100   6.076   7.776  1.00  0.00     0.210 HD
ENDBRANCH  49  52
ENDBRANCH  47  49
ENDBRANCH  15  43
TORSDOF 12
ENDMDL
MODEL 5
REMARK minimizedAffinity -10.4949512
REMARK CNNscore 0.338022321
REMARK CNNaffinity 7.00740242
REMARK  12 active torsions:
REMARK  status: ('A' for Active; 'I' for Inactive)
REMARK    1  A    between atoms: C2_2  and  O2_4 
REMARK    2  A    between atoms: O2_4  and  C3_5 
REMARK    3  A    between atoms: C4_6  and  O3_7 
REMARK    4  A    between atoms: O3_7  and  C5_8 
REMARK    5  A    between atoms: C16_19  and  O4_20 
REMARK    6  A    between atoms: C19_23  and  C20_24 
REMARK    7  A    between atoms: C24_28  and  C25_29 
REMARK    8  A    between atoms: C25_29  and  O5_32 
REMARK    9  A    between atoms: C35_42  and  C36_43 
REMARK   10  A    between atoms: C36_43  and  O8_44 
REMARK   11  A    between atoms: C37_45  and  O9_46 
REMARK   12  A    between atoms: C38_47  and  O10_48 
ROOT
HETATM    1  C5  UNL     1      -4.021   6.725  13.246  1.00  0.00     0.133 C 
HETATM    2  C6  UNL     1      -3.305   8.052  12.960  1.00  0.00     0.034 C 
HETATM    3  C7  UNL     1      -2.147   8.342  13.905  1.00  0.00     0.012 C 
HETATM    4  C8  UNL     1      -0.991   7.292  13.805  1.00  0.00    -0.033 C 
HETATM    5  C9  UNL     1      -0.314   7.235  15.209  1.00  0.00     0.016 C 
HETATM    6  C10 UNL     1      -1.604   5.858  13.482  1.00  0.00     0.004 C 
HETATM    7  C11 UNL     1      -1.445   5.364  12.022  1.00  0.00     0.007 C 
HETATM    8  C12 UNL     1      -0.349   5.935  11.141  1.00  0.00     0.011 C 
HETATM    9  C13 UNL     1       0.777   6.688  11.864  1.00  0.00    -0.030 C 
HETATM   10  C14 UNL     1       1.554   5.673  12.745  1.00  0.00     0.016 C 
HETATM   11  C15 UNL     1       0.086   7.813  12.726  1.00  0.00     0.032 C 
HETATM   12  C16 UNL     1       1.135   8.847  13.271  1.00  0.00     0.124 C 
HETATM   13  C17 UNL     1       2.114   9.388  12.213  1.00  0.00     0.038 C 
HETATM   14  C18 UNL     1       2.812   8.235  11.510  1.00  0.00     0.004 C 
HETATM   15  C19 UNL     1       3.895   8.549  10.443  1.00  0.00     0.025 C 
HETATM   16  C28 UNL     1       3.789   7.334   9.474  1.00  0.00     0.009 C 
HETATM   17  C29 UNL     1       2.682   6.420  10.011  1.00  0.00     0.011 C 
HETATM   18  C30 UNL     1       1.750   7.366  10.787  1.00  0.00    -0.032 C 
HETATM   19  C31 UNL     1       0.958   8.190   9.716  1.00  0.00     0.016 C 
HETATM   20  C32 UNL     1      -3.114   5.666  13.952  1.00  0.00    -0.017 C 
HETATM   21  C33 UNL     1      -3.249   5.718  15.496  1.00  0.00     0.018 C 
HETATM   22  C34 UNL     1      -3.623   4.238  13.594  1.00  0.00     0.018 C 
ENDROOT
BRANCH   1  23
HETATM   23  O3  UNL     1      -5.187   6.988  14.042  1.00  0.00    -0.352 OA
BRANCH  23  24
HETATM   24  C4  UNL     1      -6.402   6.545  13.440  1.00  0.00     0.293 C 
HETATM   25  C3  UNL     1      -6.834   5.184  14.026  1.00  0.00     0.218 C 
HETATM   26  C38 UNL     1      -7.640   5.309  15.332  1.00  0.00     0.183 C 
HETATM   27  C37 UNL     1      -8.682   6.428  15.238  1.00  0.00     0.180 C 
HETATM   28  C35 UNL     1      -8.046   7.744  14.769  1.00  0.00     0.179 C 
HETATM   29  O7  UNL     1      -7.418   7.552  13.488  1.00  0.00    -0.348 OA
BRANCH  25  30
HETATM   30  O2  UNL     1      -7.655   4.535  13.018  1.00  0.00    -0.309 OA
BRANCH  30  31
HETATM   31  C2  UNL     1      -7.297   3.258  12.710  1.00  0.00     0.255 C 
HETATM   32  C1  UNL     1      -6.246   3.258  11.643  1.00  0.00     0.126 C 
HETATM   33  O1  UNL     1      -7.773   2.251  13.215  1.00  0.00    -0.266 OA
ENDBRANCH  30  31
ENDBRANCH  25  30
BRANCH  26  34
HETATM   34  O10 UNL     1      -6.792   5.530  16.465  1.00  0.00    -0.390 OA
HETATM   35  H64 UNL     1      -6.227   4.739  16.562  1.00  0.00     0.210 HD
ENDBRANCH  26  34
BRANCH  27  36
HETATM   36  O9  UNL     1      -9.709   6.043  14.308  1.00  0.00    -0.390 OA
HETATM   37  H62 UNL     1      -9.387   6.280  13.418  1.00  0.00     0.210 HD
ENDBRANCH  27  36
BRANCH  28  38
HETATM   38  C36 UNL     1      -7.140   8.427  15.807  1.00  0.00     0.198 C 
BRANCH  38  39
HETATM   39  O8  UNL     1      -6.277   9.387  15.207  1.00  0.00    -0.398 OA
HETATM   40  H60 UNL     1      -6.766  10.232  15.213  1.00  0.00     0.209 HD
ENDBRANCH  38  39
ENDBRANCH  28  38
ENDBRANCH  23  24
ENDBRANCH   1  23
BRANCH  12  41
HETATM   41  O4  UNL     1       0.476   9.974  13.844  1.00  0.00    -0.395 OA
HETATM   42  H24 UNL     1       1.157  10.570  14.195  1.00  0.00     0.210 HD
ENDBRANCH  12  41
BRANCH  15  43
HETATM   43  C20 UNL     1       5.342   8.745  10.991  1.00  0.00     0.062 C 
HETATM   44  C21 UNL     1       6.100   9.842  10.225  1.00  0.00     0.046 C 
HETATM   45  C22 UNL     1       6.157   7.450  10.987  1.00  0.00     0.041 C 
HETATM   46  C23 UNL     1       7.134   7.648  12.126  1.00  0.00     0.038 C 
HETATM   47  C24 UNL     1       6.390   8.556  13.102  1.00  0.00     0.156 C 
HETATM   48  O6  UNL     1       5.289   9.147  12.372  1.00  0.00    -0.372 OA
BRANCH  47  49
HETATM   49  C25 UNL     1       5.881   7.852  14.393  1.00  0.00     0.076 C 
HETATM   50  C26 UNL     1       4.372   8.057  14.576  1.00  0.00     0.048 C 
HETATM   51  C27 UNL     1       6.629   8.374  15.626  1.00  0.00     0.048 C 
BRANCH  49  52
HETATM   52  O5  UNL     1       6.128   6.442  14.310  1.00  0.00    -0.388 OA
HETATM   53  H43 UNL     1       5.688   6.017  15.066  1.00  0.00     0.210 HD
ENDBRANCH  49  52
ENDBRANCH  47  49
ENDBRANCH  15  43
TORSDOF 12
ENDMDL
MODEL 6
REMARK minimizedAffinity -9.95897961
REMARK CNNscore 0.327988446
REMARK CNNaffinity 7.43111038
REMARK  12 active torsions:
REMARK  status: ('A' for Active; 'I' for Inactive)
REMARK    1  A    between atoms: C2_2  and  O2_4 
REMARK    2  A    between atoms: O2_4  and  C3_5 
REMARK    3  A    between atoms: C4_6  and  O3_7 
REMARK    4  A    between atoms: O3_7  and  C5_8 
REMARK    5  A    between atoms: C16_19  and  O4_20 
REMARK    6  A    between atoms: C19_23  and  C20_24 
REMARK    7  A    between atoms: C24_28  and  C25_29 
REMARK    8  A    between atoms: C25_29  and  O5_32 
REMARK    9  A    between atoms: C35_42  and  C36_43 
REMARK   10  A    between atoms: C36_43  and  O8_44 
REMARK   11  A    between atoms: C37_45  and  O9_46 
REMARK   12  A    between atoms: C38_47  and  O10_48 
ROOT
HETATM    1  C5  UNL     1       3.699   7.961  13.675  1.00  0.00     0.133 C 
HETATM    2  C6  UNL     1       2.883   7.558  14.911  1.00  0.00     0.034 C 
HETATM    3  C7  UNL     1       1.895   8.621  15.369  1.00  0.00     0.012 C 
HETATM    4  C8  UNL     1       0.788   8.934  14.306  1.00  0.00    -0.033 C 
HETATM    5  C9  UNL     1       0.368  10.421  14.521  1.00  0.00     0.016 C 
HETATM    6  C10 UNL     1       1.402   8.789  12.844  1.00  0.00     0.004 C 
HETATM    7  C11 UNL     1       1.016   7.503  12.069  1.00  0.00     0.007 C 
HETATM    8  C12 UNL     1      -0.242   6.741  12.442  1.00  0.00     0.011 C 
HETATM    9  C13 UNL     1      -1.259   7.494  13.310  1.00  0.00    -0.030 C 
HETATM   10  C14 UNL     1      -1.824   8.679  12.481  1.00  0.00     0.016 C 
HETATM   11  C15 UNL     1      -0.483   7.985  14.591  1.00  0.00     0.032 C 
HETATM   12  C16 UNL     1      -1.468   8.500  15.701  1.00  0.00     0.124 C 
HETATM   13  C17 UNL     1      -2.640   7.551  16.010  1.00  0.00     0.038 C 
HETATM   14  C18 UNL     1      -3.394   7.219  14.733  1.00  0.00     0.004 C 
HETATM   15  C19 UNL     1      -4.659   6.323  14.818  1.00  0.00     0.025 C 
HETATM   16  C28 UNL     1      -4.667   5.603  13.436  1.00  0.00     0.009 C 
HETATM   17  C29 UNL     1      -3.441   6.099  12.659  1.00  0.00     0.011 C 
HETATM   18  C30 UNL     1      -2.435   6.499  13.750  1.00  0.00    -0.032 C 
HETATM   19  C31 UNL     1      -1.879   5.165  14.356  1.00  0.00     0.016 C 
HETATM   20  C32 UNL     1       2.979   9.009  12.766  1.00  0.00    -0.017 C 
HETATM   21  C33 UNL     1       3.376  10.464  13.124  1.00  0.00     0.018 C 
HETATM   22  C34 UNL     1       3.483   8.847  11.302  1.00  0.00     0.018 C 
ENDROOT
BRANCH   1  23
HETATM   23  O3  UNL     1       4.972   8.470  14.104  1.00  0.00    -0.352 OA
BRANCH  23  24
HETATM   24  C4  UNL     1       6.081   7.713  13.621  1.00  0.00     0.293 C 
HETATM   25  C3  UNL     1       6.732   8.416  12.410  1.00  0.00     0.218 C 
HETATM   26  C38 UNL     1       7.760   9.491  12.807  1.00  0.00     0.183 C 
HETATM   27  C37 UNL     1       8.666   9.002  13.941  1.00  0.00     0.180 C 
HETATM   28  C35 UNL     1       7.842   8.462  15.119  1.00  0.00     0.179 C 
HETATM   29  O7  UNL     1       6.998   7.386  14.669  1.00  0.00    -0.348 OA
BRANCH  25  30
HETATM   30  O2  UNL     1       7.395   7.384  11.633  1.00  0.00    -0.309 OA
BRANCH  30  31
HETATM   31  C2  UNL     1       6.571   6.602  10.882  1.00  0.00     0.255 C 
HETATM   32  C1  UNL     1       7.013   5.173  10.945  1.00  0.00     0.126 C 
HETATM   33  O1  UNL     1       5.616   7.005  10.232  1.00  0.00    -0.266 OA
ENDBRANCH  30  31
ENDBRANCH  25  30
BRANCH  26  34
HETATM   34  O10 UNL     1       7.131  10.721  13.184  1.00  0.00    -0.390 OA
HETATM   35  H64 UNL     1       6.664  11.061  12.397  1.00  0.00     0.210 HD
ENDBRANCH  26  34
BRANCH  27  36
HETATM   36  O9  UNL     1       9.524   7.959  13.448  1.00  0.00    -0.390 OA
HETATM   37  H62 UNL     1       9.018   7.126  13.505  1.00  0.00     0.210 HD
ENDBRANCH  27  36
BRANCH  28  38
HETATM   38  C36 UNL     1       7.099   9.536  15.930  1.00  0.00     0.198 C 
BRANCH  38  39
HETATM   39  O8  UNL     1       7.333   9.399  17.328  1.00  0.00    -0.398 OA
HETATM   40  H60 UNL     1       8.128   9.933  17.523  1.00  0.00     0.209 HD
ENDBRANCH  38  39
ENDBRANCH  28  38
ENDBRANCH  23  24
ENDBRANCH   1  23
BRANCH  12  41
HETATM   41  O4  UNL     1      -0.773   8.718  16.926  1.00  0.00    -0.395 OA
HETATM   42  H24 UNL     1      -1.410   9.064  17.572  1.00  0.00     0.210 HD
ENDBRANCH  12  41
BRANCH  15  43
HETATM   43  C20 UNL     1      -5.997   7.074  15.101  1.00  0.00     0.062 C 
HETATM   44  C21 UNL     1      -5.756   8.528  15.536  1.00  0.00     0.046 C 
HETATM   45  C22 UNL     1      -6.869   6.359  16.136  1.00  0.00     0.041 C 
HETATM   46  C23 UNL     1      -8.274   6.766  15.751  1.00  0.00     0.038 C 
HETATM   47  C24 UNL     1      -8.198   6.988  14.242  1.00  0.00     0.156 C 
HETATM   48  O6  UNL     1      -6.796   7.112  13.905  1.00  0.00    -0.372 OA
BRANCH  47  49
HETATM   49  C25 UNL     1      -8.876   5.882  13.382  1.00  0.00     0.076 C 
HETATM   50  C26 UNL     1      -8.214   4.518  13.613  1.00  0.00     0.048 C 
HETATM   51  C27 UNL     1      -8.817   6.241  11.893  1.00  0.00     0.048 C 
BRANCH  49  52
HETATM   52  O5  UNL     1     -10.260   5.767  13.739  1.00  0.00    -0.388 OA
HETATM   53  H43 UNL     1     -10.622   4.989  13.280  1.00  0.00     0.210 HD
ENDBRANCH  49  52
ENDBRANCH  47  49
ENDBRANCH  15  43
TORSDOF 12
ENDMDL
MODEL 7
REMARK minimizedAffinity -9.38904095
REMARK CNNscore 0.307921499
REMARK CNNaffinity 6.00181532
REMARK  12 active torsions:
REMARK  status: ('A' for Active; 'I' for Inactive)
REMARK    1  A    between atoms: C2_2  and  O2_4 
REMARK    2  A    between atoms: O2_4  and  C3_5 
REMARK    3  A    between atoms: C4_6  and  O3_7 
REMARK    4  A    between atoms: O3_7  and  C5_8 
REMARK    5  A    between atoms: C16_19  and  O4_20 
REMARK    6  A    between atoms: C19_23  and  C20_24 
REMARK    7  A    between atoms: C24_28  and  C25_29 
REMARK    8  A    between atoms: C25_29  and  O5_32 
REMARK    9  A    between atoms: C35_42  and  C36_43 
REMARK   10  A    between atoms: C36_43  and  O8_44 
REMARK   11  A    between atoms: C37_45  and  O9_46 
REMARK   12  A    between atoms: C38_47  and  O10_48 
ROOT
HETATM    1  C5  UNL     1       4.816   8.923  12.311  1.00  0.00     0.133 C 
HETATM    2  C6  UNL     1       4.955   8.794  13.834  1.00  0.00     0.034 C 
HETATM    3  C7  UNL     1       6.226   8.081  14.276  1.00  0.00     0.012 C 
HETATM    4  C8  UNL     1       7.533   8.839  13.868  1.00  0.00    -0.033 C 
HETATM    5  C9  UNL     1       8.640   7.756  13.680  1.00  0.00     0.016 C 
HETATM    6  C10 UNL     1       7.305   9.575  12.474  1.00  0.00     0.004 C 
HETATM    7  C11 UNL     1       7.087  11.109  12.542  1.00  0.00     0.007 C 
HETATM    8  C12 UNL     1       7.585  11.894  13.742  1.00  0.00     0.011 C 
HETATM    9  C13 UNL     1       8.610  11.186  14.638  1.00  0.00    -0.030 C 
HETATM   10  C14 UNL     1       9.911  10.976  13.816  1.00  0.00     0.016 C 
HETATM   11  C15 UNL     1       7.959   9.818  15.075  1.00  0.00     0.032 C 
HETATM   12  C16 UNL     1       8.771   9.138  16.235  1.00  0.00     0.124 C 
HETATM   13  C17 UNL     1       9.112  10.069  17.413  1.00  0.00     0.038 C 
HETATM   14  C18 UNL     1       9.833  11.308  16.907  1.00  0.00     0.004 C 
HETATM   15  C19 UNL     1      10.331  12.360  17.934  1.00  0.00     0.025 C 
HETATM   16  C28 UNL     1      10.264  13.691  17.126  1.00  0.00     0.009 C 
HETATM   17  C29 UNL     1       9.740  13.347  15.727  1.00  0.00     0.011 C 
HETATM   18  C30 UNL     1       8.899  12.077  15.937  1.00  0.00    -0.032 C 
HETATM   19  C31 UNL     1       7.575  12.530  16.644  1.00  0.00     0.016 C 
HETATM   20  C32 UNL     1       6.184   8.914  11.555  1.00  0.00    -0.017 C 
HETATM   21  C33 UNL     1       6.585   7.491  11.090  1.00  0.00     0.018 C 
HETATM   22  C34 UNL     1       6.035   9.702  10.220  1.00  0.00     0.018 C 
ENDROOT
BRANCH   1  23
HETATM   23  O3  UNL     1       3.977   7.861  11.829  1.00  0.00    -0.352 OA
BRANCH  23  24
HETATM   24  C4  UNL     1       2.835   8.318  11.106  1.00  0.00     0.293 C 
HETATM   25  C3  UNL     1       2.431   7.291  10.026  1.00  0.00     0.218 C 
HETATM   26  C38 UNL     1       1.524   6.168  10.560  1.00  0.00     0.183 C 
HETATM   27  C37 UNL     1       0.435   6.724  11.485  1.00  0.00     0.180 C 
HETATM   28  C35 UNL     1       1.037   7.613  12.581  1.00  0.00     0.179 C 
HETATM   29  O7  UNL     1       1.769   8.698  11.981  1.00  0.00    -0.348 OA
BRANCH  25  30
HETATM   30  O2  UNL     1       1.722   8.028   8.993  1.00  0.00    -0.309 OA
BRANCH  30  31
HETATM   31  C2  UNL     1       2.394   8.173   7.818  1.00  0.00     0.255 C 
HETATM   32  C1  UNL     1       1.952   7.134   6.836  1.00  0.00     0.126 C 
HETATM   33  O1  UNL     1       3.251   9.018   7.596  1.00  0.00    -0.266 OA
ENDBRANCH  30  31
ENDBRANCH  25  30
BRANCH  26  34
HETATM   34  O10 UNL     1       2.271   5.156  11.244  1.00  0.00    -0.390 OA
HETATM   35  H64 UNL     1       2.867   4.744  10.589  1.00  0.00     0.210 HD
ENDBRANCH  26  34
BRANCH  27  36
HETATM   36  O9  UNL     1      -0.498   7.496  10.710  1.00  0.00    -0.390 OA
HETATM   37  H62 UNL     1      -0.122   8.393  10.627  1.00  0.00     0.210 HD
ENDBRANCH  27  36
BRANCH  28  38
HETATM   38  C36 UNL     1       1.826   6.857  13.663  1.00  0.00     0.198 C 
BRANCH  38  39
HETATM   39  O8  UNL     1       1.198   5.629  14.014  1.00  0.00    -0.398 OA
HETATM   40  H60 UNL     1       1.562   4.956  13.407  1.00  0.00     0.209 HD
ENDBRANCH  38  39
ENDBRANCH  28  38
ENDBRANCH  23  24
ENDBRANCH   1  23
BRANCH  12  41
HETATM   41  O4  UNL     1       8.048   8.034  16.772  1.00  0.00    -0.395 OA
HETATM   42  H24 UNL     1       8.597   7.625  17.461  1.00  0.00     0.210 HD
ENDBRANCH  12  41
BRANCH  15  43
HETATM   43  C20 UNL     1      11.748  12.100  18.530  1.00  0.00     0.062 C 
HETATM   44  C21 UNL     1      11.674  11.417  19.905  1.00  0.00     0.046 C 
HETATM   45  C22 UNL     1      12.593  13.373  18.626  1.00  0.00     0.041 C 
HETATM   46  C23 UNL     1      14.012  12.861  18.510  1.00  0.00     0.038 C 
HETATM   47  C24 UNL     1      13.886  11.606  17.651  1.00  0.00     0.156 C 
HETATM   48  O6  UNL     1      12.490  11.227  17.658  1.00  0.00    -0.372 OA
BRANCH  47  49
HETATM   49  C25 UNL     1      14.409  11.755  16.192  1.00  0.00     0.076 C 
HETATM   50  C26 UNL     1      14.927  13.175  15.933  1.00  0.00     0.048 C 
HETATM   51  C27 UNL     1      13.307  11.413  15.183  1.00  0.00     0.048 C 
BRANCH  49  52
HETATM   52  O5  UNL     1      15.492  10.842  15.967  1.00  0.00    -0.388 OA
HETATM   53  H43 UNL     1      15.878  11.047  15.098  1.00  0.00     0.210 HD
ENDBRANCH  49  52
ENDBRANCH  47  49
ENDBRANCH  15  43
TORSDOF 12
ENDMDL
MODEL 8
REMARK minimizedAffinity -7.00656986
REMARK CNNscore 0.295248508
REMARK CNNaffinity 6.49224997
REMARK  12 active torsions:
REMARK  status: ('A' for Active; 'I' for Inactive)
REMARK    1  A    between atoms: C2_2  and  O2_4 
REMARK    2  A    between atoms: O2_4  and  C3_5 
REMARK    3  A    between atoms: C4_6  and  O3_7 
REMARK    4  A    between atoms: O3_7  and  C5_8 
REMARK    5  A    between atoms: C16_19  and  O4_20 
REMARK    6  A    between atoms: C19_23  and  C20_24 
REMARK    7  A    between atoms: C24_28  and  C25_29 
REMARK    8  A    between atoms: C25_29  and  O5_32 
REMARK    9  A    between atoms: C35_42  and  C36_43 
REMARK   10  A    between atoms: C36_43  and  O8_44 
REMARK   11  A    between atoms: C37_45  and  O9_46 
REMARK   12  A    between atoms: C38_47  and  O10_48 
ROOT
HETATM    1  C5  UNL     1       1.136  10.635  14.843  1.00  0.00     0.133 C 
HETATM    2  C6  UNL     1      -0.255  10.116  15.234  1.00  0.00     0.034 C 
HETATM    3  C7  UNL     1      -0.430   9.894  16.730  1.00  0.00     0.012 C 
HETATM    4  C8  UNL     1      -0.298  11.209  17.569  1.00  0.00    -0.033 C 
HETATM    5  C9  UNL     1       0.245  10.794  18.971  1.00  0.00     0.016 C 
HETATM    6  C10 UNL     1       0.767  12.172  16.880  1.00  0.00     0.004 C 
HETATM    7  C11 UNL     1       0.186  13.377  16.096  1.00  0.00     0.007 C 
HETATM    8  C12 UNL     1      -1.206  13.890  16.412  1.00  0.00     0.011 C 
HETATM    9  C13 UNL     1      -1.810  13.432  17.748  1.00  0.00    -0.030 C 
HETATM   10  C14 UNL     1      -0.963  14.039  18.898  1.00  0.00     0.016 C 
HETATM   11  C15 UNL     1      -1.763  11.856  17.747  1.00  0.00     0.032 C 
HETATM   12  C16 UNL     1      -2.625  11.253  18.913  1.00  0.00     0.124 C 
HETATM   13  C17 UNL     1      -4.047  11.832  19.028  1.00  0.00     0.038 C 
HETATM   14  C18 UNL     1      -3.986  13.348  19.132  1.00  0.00     0.004 C 
HETATM   15  C19 UNL     1      -5.306  14.142  19.321  1.00  0.00     0.025 C 
HETATM   16  C28 UNL     1      -4.993  15.504  18.630  1.00  0.00     0.009 C 
HETATM   17  C29 UNL     1      -3.561  15.419  18.090  1.00  0.00     0.011 C 
HETATM   18  C30 UNL     1      -3.333  13.918  17.846  1.00  0.00    -0.032 C 
HETATM   19  C31 UNL     1      -4.153  13.544  16.564  1.00  0.00     0.016 C 
HETATM   20  C32 UNL     1       1.853  11.423  15.987  1.00  0.00    -0.017 C 
HETATM   21  C33 UNL     1       2.771  10.510  16.839  1.00  0.00     0.018 C 
HETATM   22  C34 UNL     1       2.845  12.445  15.358  1.00  0.00     0.018 C 
ENDROOT
BRANCH   1  23
HETATM   23  O3  UNL     1       1.945   9.525  14.424  1.00  0.00    -0.352 OA
BRANCH  23  24
HETATM   24  C4  UNL     1       2.562   9.715  13.152  1.00  0.00     0.293 C 
HETATM   25  C3  UNL     1       4.090   9.524  13.255  1.00  0.00     0.218 C 
HETATM   26  C38 UNL     1       4.531   8.054  13.142  1.00  0.00     0.183 C 
HETATM   27  C37 UNL     1       3.779   7.332  12.019  1.00  0.00     0.180 C 
HETATM   28  C35 UNL     1       2.261   7.519  12.155  1.00  0.00     0.179 C 
HETATM   29  O7  UNL     1       1.940   8.923  12.136  1.00  0.00    -0.348 OA
BRANCH  25  30
HETATM   30  O2  UNL     1       4.682  10.286  12.169  1.00  0.00    -0.309 OA
BRANCH  30  31
HETATM   31  C2  UNL     1       5.715  11.098  12.524  1.00  0.00     0.255 C 
HETATM   32  C1  UNL     1       5.352  12.532  12.294  1.00  0.00     0.126 C 
HETATM   33  O1  UNL     1       6.796  10.717  12.954  1.00  0.00    -0.266 OA
ENDBRANCH  30  31
ENDBRANCH  25  30
BRANCH  26  34
HETATM   34  O10 UNL     1       4.358   7.346  14.374  1.00  0.00    -0.390 OA
HETATM   35  H64 UNL     1       4.947   7.762  15.033  1.00  0.00     0.210 HD
ENDBRANCH  26  34
BRANCH  27  36
HETATM   36  O9  UNL     1       4.206   7.854  10.749  1.00  0.00    -0.390 OA
HETATM   37  H62 UNL     1       3.675   8.655  10.579  1.00  0.00     0.210 HD
ENDBRANCH  27  36
BRANCH  28  38
HETATM   38  C36 UNL     1       1.621   6.753  13.324  1.00  0.00     0.198 C 
BRANCH  38  39
HETATM   39  O8  UNL     1       0.222   6.567  13.133  1.00  0.00    -0.398 OA
HETATM   40  H60 UNL     1       0.125   5.725  12.647  1.00  0.00     0.209 HD
ENDBRANCH  38  39
ENDBRANCH  28  38
ENDBRANCH  23  24
ENDBRANCH   1  23
BRANCH  12  41
HETATM   41  O4  UNL     1      -2.761   9.843  18.758  1.00  0.00    -0.395 OA
HETATM   42  H24 UNL     1      -3.271   9.508  19.513  1.00  0.00     0.210 HD
ENDBRANCH  12  41
BRANCH  15  43
HETATM   43  C20 UNL     1      -5.778  14.322  20.797  1.00  0.00     0.062 C 
HETATM   44  C21 UNL     1      -4.964  15.402  21.529  1.00  0.00     0.046 C 
HETATM   45  C22 UNL     1      -5.743  13.016  21.593  1.00  0.00     0.041 C 
HETATM   46  C23 UNL     1      -6.828  13.209  22.630  1.00  0.00     0.038 C 
HETATM   47  C24 UNL     1      -7.833  14.135  21.949  1.00  0.00     0.156 C 
HETATM   48  O6  UNL     1      -7.156  14.736  20.820  1.00  0.00    -0.372 OA
BRANCH  47  49
HETATM   49  C25 UNL     1      -9.155  13.449  21.497  1.00  0.00     0.076 C 
HETATM   50  C26 UNL     1      -9.165  13.210  19.983  1.00  0.00     0.048 C 
HETATM   51  C27 UNL     1     -10.370  14.297  21.897  1.00  0.00     0.048 C 
BRANCH  49  52
HETATM   52  O5  UNL     1      -9.291  12.177  22.146  1.00  0.00    -0.388 OA
HETATM   53  H43 UNL     1     -10.054  11.722  21.751  1.00  0.00     0.210 HD
ENDBRANCH  49  52
ENDBRANCH  47  49
ENDBRANCH  15  43
TORSDOF 12
ENDMDL
MODEL 9
REMARK minimizedAffinity -8.11648941
REMARK CNNscore 0.290136367
REMARK CNNaffinity 6.20723867
REMARK  12 active torsions:
REMARK  status: ('A' for Active; 'I' for Inactive)
REMARK    1  A    between atoms: C2_2  and  O2_4 
REMARK    2  A    between atoms: O2_4  and  C3_5 
REMARK    3  A    between atoms: C4_6  and  O3_7 
REMARK    4  A    between atoms: O3_7  and  C5_8 
REMARK    5  A    between atoms: C16_19  and  O4_20 
REMARK    6  A    between atoms: C19_23  and  C20_24 
REMARK    7  A    between atoms: C24_28  and  C25_29 
REMARK    8  A    between atoms: C25_29  and  O5_32 
REMARK    9  A    between atoms: C35_42  and  C36_43 
REMARK   10  A    between atoms: C36_43  and  O8_44 
REMARK   11  A    between atoms: C37_45  and  O9_46 
REMARK   12  A    between atoms: C38_47  and  O10_48 
ROOT
HETATM    1  C5  UNL     1       4.714  13.260  21.302  1.00  0.00     0.133 C 
HETATM    2  C6  UNL     1       4.771  12.763  19.851  1.00  0.00     0.034 C 
HETATM    3  C7  UNL     1       4.295  11.328  19.674  1.00  0.00     0.012 C 
HETATM    4  C8  UNL     1       2.790  11.125  20.054  1.00  0.00    -0.033 C 
HETATM    5  C9  UNL     1       2.648   9.652  20.547  1.00  0.00     0.016 C 
HETATM    6  C10 UNL     1       2.413  12.098  21.257  1.00  0.00     0.004 C 
HETATM    7  C11 UNL     1       1.584  13.353  20.881  1.00  0.00     0.007 C 
HETATM    8  C12 UNL     1       0.757  13.364  19.609  1.00  0.00     0.011 C 
HETATM    9  C13 UNL     1       0.487  11.998  18.963  1.00  0.00    -0.030 C 
HETATM   10  C14 UNL     1      -0.404  11.171  19.930  1.00  0.00     0.016 C 
HETATM   11  C15 UNL     1       1.892  11.323  18.731  1.00  0.00     0.032 C 
HETATM   12  C16 UNL     1       1.780  10.061  17.803  1.00  0.00     0.124 C 
HETATM   13  C17 UNL     1       0.976  10.285  16.509  1.00  0.00     0.038 C 
HETATM   14  C18 UNL     1      -0.402  10.834  16.839  1.00  0.00     0.004 C 
HETATM   15  C19 UNL     1      -1.411  11.077  15.685  1.00  0.00     0.025 C 
HETATM   16  C28 UNL     1      -2.269  12.264  16.218  1.00  0.00     0.009 C 
HETATM   17  C29 UNL     1      -1.719  12.635  17.600  1.00  0.00     0.011 C 
HETATM   18  C30 UNL     1      -0.245  12.201  17.553  1.00  0.00    -0.032 C 
HETATM   19  C31 UNL     1       0.499  13.245  16.651  1.00  0.00     0.016 C 
HETATM   20  C32 UNL     1       3.645  12.524  22.173  1.00  0.00    -0.017 C 
HETATM   21  C33 UNL     1       4.244  11.313  22.934  1.00  0.00     0.018 C 
HETATM   22  C34 UNL     1       3.177  13.473  23.316  1.00  0.00     0.018 C 
ENDROOT
BRANCH   1  23
HETATM   23  O3  UNL     1       6.016  13.119  21.893  1.00  0.00    -0.352 OA
BRANCH  23  24
HETATM   24  C4  UNL     1       6.821  14.292  21.788  1.00  0.00     0.293 C 
HETATM   25  C3  UNL     1       7.767  14.411  23.003  1.00  0.00     0.218 C 
HETATM   26  C38 UNL     1       9.074  13.616  22.839  1.00  0.00     0.183 C 
HETATM   27  C37 UNL     1       9.662  13.793  21.435  1.00  0.00     0.180 C 
HETATM   28  C35 UNL     1       8.614  13.500  20.352  1.00  0.00     0.179 C 
HETATM   29  O7  UNL     1       7.482  14.373  20.522  1.00  0.00    -0.348 OA
BRANCH  25  30
HETATM   30  O2  UNL     1       8.080  15.822  23.152  1.00  0.00    -0.309 OA
BRANCH  30  31
HETATM   31  C2  UNL     1       8.840  16.137  24.238  1.00  0.00     0.255 C 
HETATM   32  C1  UNL     1       9.619  17.389  23.980  1.00  0.00     0.126 C 
HETATM   33  O1  UNL     1       8.896  15.484  25.272  1.00  0.00    -0.266 OA
ENDBRANCH  30  31
ENDBRANCH  25  30
BRANCH  26  34
HETATM   34  O10 UNL     1       8.893  12.223  23.116  1.00  0.00    -0.390 OA
HETATM   35  H64 UNL     1       8.636  12.146  24.055  1.00  0.00     0.210 HD
ENDBRANCH  26  34
BRANCH  27  36
HETATM   36  O9  UNL     1      10.132  15.144  21.284  1.00  0.00    -0.390 OA
HETATM   37  H62 UNL     1       9.362  15.683  21.021  1.00  0.00     0.210 HD
ENDBRANCH  27  36
BRANCH  28  38
HETATM   38  C36 UNL     1       8.238  12.017  20.205  1.00  0.00     0.198 C 
BRANCH  38  39
HETATM   39  O8  UNL     1       9.334  11.236  19.742  1.00  0.00    -0.398 OA
HETATM   40  H60 UNL     1       9.813  10.941  20.540  1.00  0.00     0.209 HD
ENDBRANCH  38  39
ENDBRANCH  28  38
ENDBRANCH  23  24
ENDBRANCH   1  23
BRANCH  12  41
HETATM   41  O4  UNL     1       3.074   9.606  17.416  1.00  0.00    -0.395 OA
HETATM   42  H24 UNL     1       2.960   8.810  16.872  1.00  0.00     0.210 HD
ENDBRANCH  12  41
BRANCH  15  43
HETATM   43  C20 UNL     1      -2.286   9.848  15.286  1.00  0.00     0.062 C 
HETATM   44  C21 UNL     1      -3.667  10.275  14.764  1.00  0.00     0.046 C 
HETATM   45  C22 UNL     1      -2.449   8.842  16.427  1.00  0.00     0.041 C 
HETATM   46  C23 UNL     1      -2.645   7.525  15.708  1.00  0.00     0.038 C 
HETATM   47  C24 UNL     1      -1.871   7.695  14.403  1.00  0.00     0.156 C 
HETATM   48  O6  UNL     1      -1.639   9.112  14.231  1.00  0.00    -0.372 OA
BRANCH  47  49
HETATM   49  C25 UNL     1      -0.533   6.903  14.327  1.00  0.00     0.076 C 
HETATM   50  C26 UNL     1       0.643   7.835  14.014  1.00  0.00     0.048 C 
HETATM   51  C27 UNL     1      -0.617   5.798  13.267  1.00  0.00     0.048 C 
BRANCH  49  52
HETATM   52  O5  UNL     1      -0.270   6.268  15.586  1.00  0.00    -0.388 OA
HETATM   53  H43 UNL     1       0.625   5.892  15.548  1.00  0.00     0.210 HD
ENDBRANCH  49  52
ENDBRANCH  47  49
ENDBRANCH  15  43
TORSDOF 12
ENDMDL
