MODEL 1
REMARK minimizedAffinity -9.26286602
REMARK  3 active torsions:
REMARK  status: ('A' for Active; 'I' for Inactive)
REMARK    1  A    between atoms: N2_7  and  C6_8 
REMARK    2  A    between atoms: C9_11  and  C10_12 
REMARK    3  A    between atoms: C13_15  and  N3_16 
ROOT
HETATM    1  C6  UNL     1      -0.961  51.054 -22.627  1.00  0.00     0.030 A 
HETATM    2  C7  UNL     1      -0.892  51.440 -23.975  1.00  0.00     0.030 A 
HETATM    3  C8  UNL     1      -1.694  50.850 -24.966  1.00  0.00     0.014 A 
HETATM    4  C9  UNL     1      -2.600  49.832 -24.655  1.00  0.00    -0.026 A 
HETATM    5  C20 UNL     1      -2.668  49.426 -23.319  1.00  0.00     0.014 A 
HETATM    6  C21 UNL     1      -1.862  50.021 -22.334  1.00  0.00     0.030 A 
ENDROOT
BRANCH   4   7
HETATM    7  C10 UNL     1      -3.442  49.212 -25.689  1.00  0.00    -0.026 A 
HETATM    8  C11 UNL     1      -4.684  48.648 -25.375  1.00  0.00     0.014 A 
HETATM    9  C12 UNL     1      -5.492  48.055 -26.360  1.00  0.00     0.032 A 
HETATM   10  C13 UNL     1      -5.091  47.999 -27.701  1.00  0.00     0.060 A 
HETATM   11  C18 UNL     1      -3.841  48.570 -28.009  1.00  0.00     0.032 A 
HETATM   12  C19 UNL     1      -3.034  49.163 -27.026  1.00  0.00     0.014 A 
BRANCH  10  13
HETATM   13  N3  UNL     1      -5.890  47.399 -28.741  1.00  0.00    -0.221 N 
HETATM   14  N4  UNL     1      -6.873  46.541 -28.259  1.00  0.00    -0.302 N 
HETATM   15  C14 UNL     1      -7.640  45.952 -29.110  1.00  0.00     0.108 A 
ATOM     16  H4  UNL     1      -6.984  46.383 -27.257  1.00  0.00     0.186 HD
HETATM   17  C15 UNL     1      -7.579  46.097 -30.563  1.00  0.00     0.024 A 
HETATM   18  C16 UNL     1      -6.639  46.919 -31.023  1.00  0.00     0.077 A 
HETATM   19  C17 UNL     1      -5.713  47.640 -30.113  1.00  0.00     0.266 A 
HETATM   20  O1  UNL     1      -4.892  48.374 -30.656  1.00  0.00    -0.266 OA
ENDBRANCH  10  13
ENDBRANCH   4   7
BRANCH   1  21
HETATM   21  N2  UNL     1      -0.153  51.627 -21.659  1.00  0.00    -0.374 N 
HETATM   22  C5  UNL     1       0.873  52.611 -22.005  1.00  0.00     0.124 C 
HETATM   23  C4  UNL     1       1.467  53.003 -20.659  1.00  0.00     0.028 C 
HETATM   24  C3  UNL     1       0.265  52.971 -19.720  1.00  0.00     0.040 C 
HETATM   25  C2  UNL     1       0.610  52.561 -18.288  1.00  0.00     0.278 C 
HETATM   26  C22 UNL     1      -0.613  51.839 -20.278  1.00  0.00     0.118 C 
HETATM   27  N1  UNL     1      -0.187  51.356 -18.035  1.00  0.00     0.086 N 
HETATM   28  C1  UNL     1       0.401  50.499 -17.015  1.00  0.00     0.310 C 
HETATM   29  C23 UNL     1      -0.307  50.678 -19.333  1.00  0.00     0.297 C 
ENDBRANCH   1  21
TORSDOF 3
ENDMDL
MODEL 2
REMARK minimizedAffinity -9.12075615
REMARK  3 active torsions:
REMARK  status: ('A' for Active; 'I' for Inactive)
REMARK    1  A    between atoms: N2_7  and  C6_8 
REMARK    2  A    between atoms: C9_11  and  C10_12 
REMARK    3  A    between atoms: C13_15  and  N3_16 
ROOT
HETATM    1  C6  UNL     1       0.444  51.329 -16.419  1.00  0.00     0.030 A 
HETATM    2  C7  UNL     1       1.119  52.378 -17.061  1.00  0.00     0.030 A 
HETATM    3  C8  UNL     1       1.049  52.577 -18.450  1.00  0.00     0.014 A 
HETATM    4  C9  UNL     1       0.303  51.724 -19.268  1.00  0.00    -0.026 A 
HETATM    5  C20 UNL     1      -0.363  50.665 -18.645  1.00  0.00     0.014 A 
HETATM    6  C21 UNL     1      -0.288  50.472 -17.255  1.00  0.00     0.030 A 
ENDROOT
BRANCH   4   7
HETATM    7  C10 UNL     1       0.226  51.929 -20.722  1.00  0.00    -0.026 A 
HETATM    8  C11 UNL     1       0.971  52.931 -21.357  1.00  0.00     0.014 A 
HETATM    9  C12 UNL     1       0.900  53.130 -22.746  1.00  0.00     0.032 A 
HETATM   10  C13 UNL     1       0.080  52.338 -23.559  1.00  0.00     0.060 A 
HETATM   11  C18 UNL     1      -0.664  51.332 -22.914  1.00  0.00     0.032 A 
HETATM   12  C19 UNL     1      -0.594  51.131 -21.527  1.00  0.00     0.014 A 
BRANCH  10  13
HETATM   13  N3  UNL     1      -0.021  52.510 -24.988  1.00  0.00    -0.221 N 
HETATM   14  N4  UNL     1      -0.206  51.317 -25.678  1.00  0.00    -0.302 N 
HETATM   15  C14 UNL     1      -0.306  51.364 -26.962  1.00  0.00     0.108 A 
ATOM     16  H4  UNL     1      -0.260  50.428 -25.181  1.00  0.00     0.186 HD
HETATM   17  C15 UNL     1      -0.243  52.570 -27.783  1.00  0.00     0.024 A 
HETATM   18  C16 UNL     1      -0.068  53.712 -27.122  1.00  0.00     0.077 A 
HETATM   19  C17 UNL     1       0.055  53.750 -25.642  1.00  0.00     0.266 A 
HETATM   20  O1  UNL     1       0.208  54.864 -25.146  1.00  0.00    -0.266 OA
ENDBRANCH  10  13
ENDBRANCH   4   7
BRANCH   1  21
HETATM   21  N2  UNL     1       0.534  51.127 -15.052  1.00  0.00    -0.374 N 
HETATM   22  C5  UNL     1       1.635  50.365 -14.463  1.00  0.00     0.124 C 
HETATM   23  C4  UNL     1       1.367  50.441 -12.966  1.00  0.00     0.028 C 
HETATM   24  C3  UNL     1       0.797  51.844 -12.781  1.00  0.00     0.040 C 
HETATM   25  C2  UNL     1      -0.229  51.950 -11.652  1.00  0.00     0.278 C 
HETATM   26  C22 UNL     1       0.016  52.102 -14.080  1.00  0.00     0.118 C 
HETATM   27  N1  UNL     1      -1.461  52.414 -12.299  1.00  0.00     0.086 N 
HETATM   28  C1  UNL     1      -2.659  52.028 -11.567  1.00  0.00     0.310 C 
HETATM   29  C23 UNL     1      -1.432  51.855 -13.658  1.00  0.00     0.297 C 
ENDBRANCH   1  21
TORSDOF 3
ENDMDL
MODEL 3
REMARK minimizedAffinity -9.05100727
REMARK  3 active torsions:
REMARK  status: ('A' for Active; 'I' for Inactive)
REMARK    1  A    between atoms: N2_7  and  C6_8 
REMARK    2  A    between atoms: C9_11  and  C10_12 
REMARK    3  A    between atoms: C13_15  and  N3_16 
ROOT
HETATM    1  C6  UNL     1      -0.946  51.067 -22.605  1.00  0.00     0.030 A 
HETATM    2  C7  UNL     1      -0.792  51.332 -23.974  1.00  0.00     0.030 A 
HETATM    3  C8  UNL     1      -1.603  50.731 -24.951  1.00  0.00     0.014 A 
HETATM    4  C9  UNL     1      -2.606  49.823 -24.601  1.00  0.00    -0.026 A 
HETATM    5  C20 UNL     1      -2.762  49.537 -23.242  1.00  0.00     0.014 A 
HETATM    6  C21 UNL     1      -1.946  50.142 -22.271  1.00  0.00     0.030 A 
ENDROOT
BRANCH   4   7
HETATM    7  C10 UNL     1      -3.459  49.192 -25.620  1.00  0.00    -0.026 A 
HETATM    8  C11 UNL     1      -3.062  49.125 -26.962  1.00  0.00     0.014 A 
HETATM    9  C12 UNL     1      -3.874  48.523 -27.938  1.00  0.00     0.032 A 
HETATM   10  C13 UNL     1      -5.116  47.963 -27.615  1.00  0.00     0.060 A 
HETATM   11  C18 UNL     1      -5.506  48.033 -26.265  1.00  0.00     0.032 A 
HETATM   12  C19 UNL     1      -4.697  48.633 -25.288  1.00  0.00     0.014 A 
BRANCH  10  13
HETATM   13  N3  UNL     1      -5.978  47.337 -28.588  1.00  0.00    -0.221 N 
HETATM   14  N4  UNL     1      -5.529  47.477 -29.897  1.00  0.00    -0.302 N 
HETATM   15  C14 UNL     1      -6.232  46.953 -30.842  1.00  0.00     0.108 A 
ATOM     16  H4  UNL     1      -4.667  47.981 -30.103  1.00  0.00     0.186 HD
HETATM   17  C15 UNL     1      -7.480  46.213 -30.673  1.00  0.00     0.024 A 
HETATM   18  C16 UNL     1      -7.908  46.078 -29.420  1.00  0.00     0.077 A 
HETATM   19  C17 UNL     1      -7.159  46.648 -28.270  1.00  0.00     0.266 A 
HETATM   20  O1  UNL     1      -7.652  46.453 -27.162  1.00  0.00    -0.266 OA
ENDBRANCH  10  13
ENDBRANCH   4   7
BRANCH   1  21
HETATM   21  N2  UNL     1      -0.129  51.649 -21.649  1.00  0.00    -0.374 N 
HETATM   22  C5  UNL     1       0.893  52.630 -22.013  1.00  0.00     0.124 C 
HETATM   23  C4  UNL     1       1.500  53.033 -20.677  1.00  0.00     0.028 C 
HETATM   24  C3  UNL     1       0.306  53.011 -19.727  1.00  0.00     0.040 C 
HETATM   25  C2  UNL     1       0.664  52.615 -18.294  1.00  0.00     0.278 C 
HETATM   26  C22 UNL     1      -0.578  51.875 -20.266  1.00  0.00     0.118 C 
HETATM   27  N1  UNL     1      -0.131  51.413 -18.022  1.00  0.00     0.086 N 
HETATM   28  C1  UNL     1       0.465  50.565 -17.000  1.00  0.00     0.310 C 
HETATM   29  C23 UNL     1      -0.264  50.722 -19.313  1.00  0.00     0.297 C 
ENDBRANCH   1  21
TORSDOF 3
ENDMDL
MODEL 4
REMARK minimizedAffinity -8.93540573
REMARK  3 active torsions:
REMARK  status: ('A' for Active; 'I' for Inactive)
REMARK    1  A    between atoms: N2_7  and  C6_8 
REMARK    2  A    between atoms: C9_11  and  C10_12 
REMARK    3  A    between atoms: C13_15  and  N3_16 
ROOT
HETATM    1  C6  UNL     1       0.016  52.468 -22.835  1.00  0.00     0.030 A 
HETATM    2  C7  UNL     1       0.847  53.308 -22.079  1.00  0.00     0.030 A 
HETATM    3  C8  UNL     1       1.001  53.160 -20.691  1.00  0.00     0.014 A 
HETATM    4  C9  UNL     1       0.319  52.164 -19.988  1.00  0.00    -0.026 A 
HETATM    5  C20 UNL     1      -0.526  51.328 -20.725  1.00  0.00     0.014 A 
HETATM    6  C21 UNL     1      -0.675  51.483 -22.113  1.00  0.00     0.030 A 
ENDROOT
BRANCH   4   7
HETATM    7  C10 UNL     1       0.478  52.004 -18.534  1.00  0.00    -0.026 A 
HETATM    8  C11 UNL     1      -0.321  51.113 -17.808  1.00  0.00     0.014 A 
HETATM    9  C12 UNL     1      -0.172  50.957 -16.420  1.00  0.00     0.032 A 
HETATM   10  C13 UNL     1       0.781  51.687 -15.698  1.00  0.00     0.060 A 
HETATM   11  C18 UNL     1       1.581  52.579 -16.436  1.00  0.00     0.032 A 
HETATM   12  C19 UNL     1       1.434  52.735 -17.823  1.00  0.00     0.014 A 
BRANCH  10  13
HETATM   13  N3  UNL     1       0.964  51.557 -14.274  1.00  0.00    -0.221 N 
HETATM   14  N4  UNL     1       0.495  52.650 -13.552  1.00  0.00    -0.302 N 
HETATM   15  C14 UNL     1       0.615  52.631 -12.269  1.00  0.00     0.108 A 
ATOM     16  H4  UNL     1       0.067  53.445 -14.027  1.00  0.00     0.186 HD
HETATM   17  C15 UNL     1       1.208  51.555 -11.479  1.00  0.00     0.024 A 
HETATM   18  C16 UNL     1       1.655  50.509 -12.170  1.00  0.00     0.077 A 
HETATM   19  C17 UNL     1       1.555  50.446 -13.650  1.00  0.00     0.266 A 
HETATM   20  O1  UNL     1       1.998  49.427 -14.174  1.00  0.00    -0.266 OA
ENDBRANCH  10  13
ENDBRANCH   4   7
BRANCH   1  21
HETATM   21  N2  UNL     1      -0.146  52.633 -24.201  1.00  0.00    -0.374 N 
HETATM   22  C5  UNL     1       0.390  53.802 -24.898  1.00  0.00     0.124 C 
HETATM   23  C4  UNL     1       0.034  53.548 -26.356  1.00  0.00     0.028 C 
HETATM   24  C3  UNL     1       0.184  52.036 -26.498  1.00  0.00     0.040 C 
HETATM   25  C2  UNL     1      -0.781  51.412 -27.506  1.00  0.00     0.278 C 
HETATM   26  C22 UNL     1      -0.238  51.491 -25.123  1.00  0.00     0.118 C 
HETATM   27  N1  UNL     1      -1.568  50.446 -26.732  1.00  0.00     0.086 N 
HETATM   28  C1  UNL     1      -2.875  50.188 -27.319  1.00  0.00     0.310 C 
HETATM   29  C23 UNL     1      -1.665  51.006 -25.377  1.00  0.00     0.297 C 
ENDBRANCH   1  21
TORSDOF 3
ENDMDL
MODEL 5
REMARK minimizedAffinity -8.87195587
REMARK  3 active torsions:
REMARK  status: ('A' for Active; 'I' for Inactive)
REMARK    1  A    between atoms: N2_7  and  C6_8 
REMARK    2  A    between atoms: C9_11  and  C10_12 
REMARK    3  A    between atoms: C13_15  and  N3_16 
ROOT
HETATM    1  C6  UNL     1      -1.973  50.175 -26.271  1.00  0.00     0.030 A 
HETATM    2  C7  UNL     1      -2.487  50.576 -27.513  1.00  0.00     0.030 A 
HETATM    3  C8  UNL     1      -3.556  49.909 -28.135  1.00  0.00     0.014 A 
HETATM    4  C9  UNL     1      -4.156  48.794 -27.543  1.00  0.00    -0.026 A 
HETATM    5  C20 UNL     1      -3.645  48.373 -26.312  1.00  0.00     0.014 A 
HETATM    6  C21 UNL     1      -2.576  49.046 -25.698  1.00  0.00     0.030 A 
ENDROOT
BRANCH   4   7
HETATM    7  C10 UNL     1      -5.276  48.092 -28.190  1.00  0.00    -0.026 A 
HETATM    8  C11 UNL     1      -5.349  47.966 -29.582  1.00  0.00     0.014 A 
HETATM    9  C12 UNL     1      -6.416  47.296 -30.203  1.00  0.00     0.032 A 
HETATM   10  C13 UNL     1      -7.457  46.726 -29.459  1.00  0.00     0.060 A 
HETATM   11  C18 UNL     1      -7.375  46.857 -28.060  1.00  0.00     0.032 A 
HETATM   12  C19 UNL     1      -6.309  47.524 -27.438  1.00  0.00     0.014 A 
BRANCH  10  13
HETATM   13  N3  UNL     1      -8.570  46.032 -30.059  1.00  0.00    -0.221 N 
HETATM   14  N4  UNL     1      -8.454  44.647 -30.001  1.00  0.00    -0.302 N 
HETATM   15  C14 UNL     1      -9.398  43.934 -30.512  1.00  0.00     0.108 A 
ATOM     16  H4  UNL     1      -7.643  44.207 -29.566  1.00  0.00     0.186 HD
HETATM   17  C15 UNL     1     -10.603  44.445 -31.162  1.00  0.00     0.024 A 
HETATM   18  C16 UNL     1     -10.714  45.770 -31.215  1.00  0.00     0.077 A 
HETATM   19  C17 UNL     1      -9.674  46.667 -30.648  1.00  0.00     0.266 A 
HETATM   20  O1  UNL     1      -9.892  47.872 -30.754  1.00  0.00    -0.266 OA
ENDBRANCH  10  13
ENDBRANCH   4   7
BRANCH   1  21
HETATM   21  N2  UNL     1      -0.907  50.827 -25.674  1.00  0.00    -0.374 N 
HETATM   22  C5  UNL     1       0.297  51.172 -26.430  1.00  0.00     0.124 C 
HETATM   23  C4  UNL     1       1.163  51.907 -25.415  1.00  0.00     0.028 C 
HETATM   24  C3  UNL     1       0.147  52.679 -24.579  1.00  0.00     0.040 C 
HETATM   25  C2  UNL     1       0.559  52.860 -23.118  1.00  0.00     0.278 C 
HETATM   26  C22 UNL     1      -1.088  51.763 -24.554  1.00  0.00     0.118 C 
HETATM   27  N1  UNL     1      -0.504  52.216 -22.339  1.00  0.00     0.086 N 
HETATM   28  C1  UNL     1      -0.048  51.763 -21.034  1.00  0.00     0.310 C 
HETATM   29  C23 UNL     1      -0.996  51.111 -23.175  1.00  0.00     0.297 C 
ENDBRANCH   1  21
TORSDOF 3
ENDMDL
MODEL 6
REMARK minimizedAffinity -8.84038353
REMARK  3 active torsions:
REMARK  status: ('A' for Active; 'I' for Inactive)
REMARK    1  A    between atoms: N2_7  and  C6_8 
REMARK    2  A    between atoms: C9_11  and  C10_12 
REMARK    3  A    between atoms: C13_15  and  N3_16 
ROOT
HETATM    1  C6  UNL     1      -1.036  50.816 -22.627  1.00  0.00     0.030 A 
HETATM    2  C7  UNL     1      -1.122  49.778 -21.687  1.00  0.00     0.030 A 
HETATM    3  C8  UNL     1      -0.739  49.946 -20.346  1.00  0.00     0.014 A 
HETATM    4  C9  UNL     1      -0.238  51.166 -19.883  1.00  0.00    -0.026 A 
HETATM    5  C20 UNL     1      -0.132  52.206 -20.812  1.00  0.00     0.014 A 
HETATM    6  C21 UNL     1      -0.517  52.029 -22.151  1.00  0.00     0.030 A 
ENDROOT
BRANCH   4   7
HETATM    7  C10 UNL     1       0.163  51.348 -18.479  1.00  0.00    -0.026 A 
HETATM    8  C11 UNL     1      -0.180  50.411 -17.497  1.00  0.00     0.014 A 
HETATM    9  C12 UNL     1       0.202  50.581 -16.155  1.00  0.00     0.032 A 
HETATM   10  C13 UNL     1       0.942  51.695 -15.739  1.00  0.00     0.060 A 
HETATM   11  C18 UNL     1       1.284  52.631 -16.733  1.00  0.00     0.032 A 
HETATM   12  C19 UNL     1       0.904  52.463 -18.074  1.00  0.00     0.014 A 
BRANCH  10  13
HETATM   13  N3  UNL     1       1.352  51.906 -14.373  1.00  0.00    -0.221 N 
HETATM   14  N4  UNL     1       0.384  52.533 -13.594  1.00  0.00    -0.302 N 
HETATM   15  C14 UNL     1       0.656  52.768 -12.356  1.00  0.00     0.108 A 
ATOM     16  H4  UNL     1      -0.516  52.799 -13.992  1.00  0.00     0.186 HD
HETATM   17  C15 UNL     1       1.905  52.438 -11.675  1.00  0.00     0.024 A 
HETATM   18  C16 UNL     1       2.830  51.837 -12.420  1.00  0.00     0.077 A 
HETATM   19  C17 UNL     1       2.600  51.526 -13.854  1.00  0.00     0.266 A 
HETATM   20  O1  UNL     1       3.526  50.965 -14.435  1.00  0.00    -0.266 OA
ENDBRANCH  10  13
ENDBRANCH   4   7
BRANCH   1  21
HETATM   21  N2  UNL     1      -1.398  50.636 -23.952  1.00  0.00    -0.374 N 
HETATM   22  C5  UNL     1      -2.562  49.832 -24.324  1.00  0.00     0.124 C 
HETATM   23  C4  UNL     1      -2.613  49.948 -25.841  1.00  0.00     0.028 C 
HETATM   24  C3  UNL     1      -2.155  51.381 -26.100  1.00  0.00     0.040 C 
HETATM   25  C2  UNL     1      -1.391  51.557 -27.412  1.00  0.00     0.278 C 
HETATM   26  C22 UNL     1      -1.135  51.652 -24.982  1.00  0.00     0.118 C 
HETATM   27  N1  UNL     1      -0.073  52.068 -27.019  1.00  0.00     0.086 N 
HETATM   28  C1  UNL     1       0.964  51.755 -27.992  1.00  0.00     0.310 C 
HETATM   29  C23 UNL     1       0.204  51.483 -25.699  1.00  0.00     0.297 C 
ENDBRANCH   1  21
TORSDOF 3
ENDMDL
MODEL 7
REMARK minimizedAffinity -8.83461189
REMARK  3 active torsions:
REMARK  status: ('A' for Active; 'I' for Inactive)
REMARK    1  A    between atoms: N2_7  and  C6_8 
REMARK    2  A    between atoms: C9_11  and  C10_12 
REMARK    3  A    between atoms: C13_15  and  N3_16 
ROOT
HETATM    1  C6  UNL     1      -5.250  48.047 -27.604  1.00  0.00     0.030 A 
HETATM    2  C7  UNL     1      -5.574  47.964 -26.241  1.00  0.00     0.030 A 
HETATM    3  C8  UNL     1      -4.817  48.609 -25.249  1.00  0.00     0.014 A 
HETATM    4  C9  UNL     1      -3.686  49.363 -25.576  1.00  0.00    -0.026 A 
HETATM    5  C20 UNL     1      -3.342  49.442 -26.929  1.00  0.00     0.014 A 
HETATM    6  C21 UNL     1      -4.104  48.793 -27.915  1.00  0.00     0.030 A 
ENDROOT
BRANCH   4   7
HETATM    7  C10 UNL     1      -2.891  50.041 -24.541  1.00  0.00    -0.026 A 
HETATM    8  C11 UNL     1      -2.592  51.406 -24.630  1.00  0.00     0.014 A 
HETATM    9  C12 UNL     1      -1.832  52.057 -23.644  1.00  0.00     0.032 A 
HETATM   10  C13 UNL     1      -1.338  51.371 -22.528  1.00  0.00     0.060 A 
HETATM   11  C18 UNL     1      -1.644  50.000 -22.445  1.00  0.00     0.032 A 
HETATM   12  C19 UNL     1      -2.403  49.348 -23.428  1.00  0.00     0.014 A 
BRANCH  10  13
HETATM   13  N3  UNL     1      -0.554  52.002 -21.494  1.00  0.00    -0.221 N 
HETATM   14  N4  UNL     1      -0.919  51.616 -20.209  1.00  0.00    -0.302 N 
HETATM   15  C14 UNL     1      -0.279  52.126 -19.213  1.00  0.00     0.108 A 
ATOM     16  H4  UNL     1      -1.673  50.945 -20.058  1.00  0.00     0.186 HD
HETATM   17  C15 UNL     1       0.813  53.092 -19.301  1.00  0.00     0.024 A 
HETATM   18  C16 UNL     1       1.163  53.461 -20.532  1.00  0.00     0.077 A 
HETATM   19  C17 UNL     1       0.481  52.920 -21.735  1.00  0.00     0.266 A 
HETATM   20  O1  UNL     1       0.896  53.332 -22.816  1.00  0.00    -0.266 OA
ENDBRANCH  10  13
ENDBRANCH   4   7
BRANCH   1  21
HETATM   21  N2  UNL     1      -5.991  47.392 -28.574  1.00  0.00    -0.374 N 
HETATM   22  C5  UNL     1      -6.966  46.360 -28.223  1.00  0.00     0.124 C 
HETATM   23  C4  UNL     1      -7.569  45.961 -29.563  1.00  0.00     0.028 C 
HETATM   24  C3  UNL     1      -7.610  47.275 -30.337  1.00  0.00     0.040 C 
HETATM   25  C2  UNL     1      -7.420  47.111 -31.845  1.00  0.00     0.278 C 
HETATM   26  C22 UNL     1      -6.370  48.037 -29.840  1.00  0.00     0.118 C 
HETATM   27  N1  UNL     1      -6.224  47.898 -32.166  1.00  0.00     0.086 N 
HETATM   28  C1  UNL     1      -5.547  47.425 -33.365  1.00  0.00     0.310 C 
HETATM   29  C23 UNL     1      -5.368  47.825 -30.974  1.00  0.00     0.297 C 
ENDBRANCH   1  21
TORSDOF 3
ENDMDL
MODEL 8
REMARK minimizedAffinity -8.67629147
REMARK  3 active torsions:
REMARK  status: ('A' for Active; 'I' for Inactive)
REMARK    1  A    between atoms: N2_7  and  C6_8 
REMARK    2  A    between atoms: C9_11  and  C10_12 
REMARK    3  A    between atoms: C13_15  and  N3_16 
ROOT
HETATM    1  C6  UNL     1       0.126  51.066 -17.109  1.00  0.00     0.030 A 
HETATM    2  C7  UNL     1       0.640  52.245 -17.670  1.00  0.00     0.030 A 
HETATM    3  C8  UNL     1       0.608  52.495 -19.052  1.00  0.00     0.014 A 
HETATM    4  C9  UNL     1       0.066  51.566 -19.944  1.00  0.00    -0.026 A 
HETATM    5  C20 UNL     1      -0.437  50.379 -19.402  1.00  0.00     0.014 A 
HETATM    6  C21 UNL     1      -0.400  50.137 -18.018  1.00  0.00     0.030 A 
ENDROOT
BRANCH   4   7
HETATM    7  C10 UNL     1       0.029  51.823 -21.392  1.00  0.00    -0.026 A 
HETATM    8  C11 UNL     1      -0.763  51.049 -22.249  1.00  0.00     0.014 A 
HETATM    9  C12 UNL     1      -0.800  51.292 -23.632  1.00  0.00     0.032 A 
HETATM   10  C13 UNL     1      -0.047  52.317 -24.218  1.00  0.00     0.060 A 
HETATM   11  C18 UNL     1       0.745  53.091 -23.349  1.00  0.00     0.032 A 
HETATM   12  C19 UNL     1       0.783  52.851 -21.967  1.00  0.00     0.014 A 
BRANCH  10  13
HETATM   13  N3  UNL     1      -0.058  52.598 -25.632  1.00  0.00    -0.221 N 
HETATM   14  N4  UNL     1      -0.218  53.947 -25.928  1.00  0.00    -0.302 N 
HETATM   15  C14 UNL     1      -0.243  54.302 -27.167  1.00  0.00     0.108 A 
ATOM     16  H4  UNL     1      -0.314  54.638 -25.184  1.00  0.00     0.186 HD
HETATM   17  C15 UNL     1      -0.118  53.410 -28.317  1.00  0.00     0.024 A 
HETATM   18  C16 UNL     1       0.037  52.118 -28.033  1.00  0.00     0.077 A 
HETATM   19  C17 UNL     1       0.080  51.623 -26.634  1.00  0.00     0.266 A 
HETATM   20  O1  UNL     1       0.233  50.411 -26.499  1.00  0.00    -0.266 OA
ENDBRANCH  10  13
ENDBRANCH   4   7
BRANCH   1  21
HETATM   21  N2  UNL     1       0.179  50.819 -15.747  1.00  0.00    -0.374 N 
HETATM   22  C5  UNL     1       0.482  51.882 -14.789  1.00  0.00     0.124 C 
HETATM   23  C4  UNL     1       0.383  51.190 -13.437  1.00  0.00     0.028 C 
HETATM   24  C3  UNL     1      -0.759  50.196 -13.632  1.00  0.00     0.040 C 
HETATM   25  C2  UNL     1      -0.603  48.910 -12.821  1.00  0.00     0.278 C 
HETATM   26  C22 UNL     1      -0.640  49.778 -15.106  1.00  0.00     0.118 C 
HETATM   27  N1  UNL     1      -0.578  47.833 -13.817  1.00  0.00     0.086 N 
HETATM   28  C1  UNL     1       0.128  46.650 -13.347  1.00  0.00     0.310 C 
HETATM   29  C23 UNL     1       0.043  48.414 -15.016  1.00  0.00     0.297 C 
ENDBRANCH   1  21
TORSDOF 3
ENDMDL
MODEL 9
REMARK minimizedAffinity -8.60684681
REMARK  3 active torsions:
REMARK  status: ('A' for Active; 'I' for Inactive)
REMARK    1  A    between atoms: N2_7  and  C6_8 
REMARK    2  A    between atoms: C9_11  and  C10_12 
REMARK    3  A    between atoms: C13_15  and  N3_16 
ROOT
HETATM    1  C6  UNL     1      -3.451  48.810 -23.501  1.00  0.00     0.030 A 
HETATM    2  C7  UNL     1      -2.728  48.827 -24.704  1.00  0.00     0.030 A 
HETATM    3  C8  UNL     1      -3.334  48.585 -25.947  1.00  0.00     0.014 A 
HETATM    4  C9  UNL     1      -4.699  48.302 -26.045  1.00  0.00    -0.026 A 
HETATM    5  C20 UNL     1      -5.430  48.266 -24.854  1.00  0.00     0.014 A 
HETATM    6  C21 UNL     1      -4.816  48.509 -23.614  1.00  0.00     0.030 A 
ENDROOT
BRANCH   4   7
HETATM    7  C10 UNL     1      -5.339  48.049 -27.346  1.00  0.00    -0.026 A 
HETATM    8  C11 UNL     1      -6.595  47.437 -27.432  1.00  0.00     0.014 A 
HETATM    9  C12 UNL     1      -7.209  47.193 -28.672  1.00  0.00     0.032 A 
HETATM   10  C13 UNL     1      -6.593  47.549 -29.878  1.00  0.00     0.060 A 
HETATM   11  C18 UNL     1      -5.331  48.166 -29.782  1.00  0.00     0.032 A 
HETATM   12  C19 UNL     1      -4.717  48.411 -28.545  1.00  0.00     0.014 A 
BRANCH  10  13
HETATM   13  N3  UNL     1      -7.190  47.316 -31.170  1.00  0.00    -0.221 N 
HETATM   14  N4  UNL     1      -6.813  46.106 -31.744  1.00  0.00    -0.302 N 
HETATM   15  C14 UNL     1      -7.292  45.805 -32.902  1.00  0.00     0.108 A 
ATOM     16  H4  UNL     1      -6.174  45.474 -31.261  1.00  0.00     0.186 HD
HETATM   17  C15 UNL     1      -8.208  46.625 -33.691  1.00  0.00     0.024 A 
HETATM   18  C16 UNL     1      -8.570  47.781 -33.140  1.00  0.00     0.077 A 
HETATM   19  C17 UNL     1      -8.068  48.206 -31.808  1.00  0.00     0.266 A 
HETATM   20  O1  UNL     1      -8.477  49.292 -31.404  1.00  0.00    -0.266 OA
ENDBRANCH  10  13
ENDBRANCH   4   7
BRANCH   1  21
HETATM   21  N2  UNL     1      -2.842  49.030 -22.276  1.00  0.00    -0.374 N 
HETATM   22  C5  UNL     1      -3.173  48.223 -21.102  1.00  0.00     0.124 C 
HETATM   23  C4  UNL     1      -2.249  48.764 -20.019  1.00  0.00     0.028 C 
HETATM   24  C3  UNL     1      -0.970  49.098 -20.782  1.00  0.00     0.040 C 
HETATM   25  C2  UNL     1      -0.205  50.291 -20.210  1.00  0.00     0.278 C 
HETATM   26  C22 UNL     1      -1.469  49.547 -22.165  1.00  0.00     0.118 C 
HETATM   27  N1  UNL     1      -0.147  51.267 -21.304  1.00  0.00     0.086 N 
HETATM   28  C1  UNL     1      -0.004  52.635 -20.829  1.00  0.00     0.310 C 
HETATM   29  C23 UNL     1      -1.380  51.070 -22.078  1.00  0.00     0.297 C 
ENDBRANCH   1  21
TORSDOF 3
ENDMDL
