MODEL 1
REMARK minimizedAffinity -7.07836151
REMARK CNNscore 0.240596235
REMARK CNNaffinity 5.6719532
REMARK  11 active torsions:
REMARK  status: ('A' for Active; 'I' for Inactive)
REMARK    1  A    between atoms: C2_2  and  C4_4 
REMARK    2  A    between atoms: C12_13  and  C13_14 
REMARK    3  A    between atoms: C13_14  and  C15_16 
REMARK    4  A    between atoms: C15_16  and  C16_17 
REMARK    5  A    between atoms: C16_17  and  C17_18 
REMARK    6  A    between atoms: C18_19  and  C20_21 
REMARK    7  A    between atoms: C20_21  and  O3_23 
REMARK    8  A    between atoms: C27_30  and  C28_31 
REMARK    9  A    between atoms: C28_31  and  C29_32 
REMARK   10  A    between atoms: C29_32  and  C30_33 
REMARK   11  A    between atoms: C30_33  and  O5_35 
ROOT
HETATM    1  C4  UNL     1      -8.185  46.022 -31.228  1.00  0.00     0.054 C 
HETATM    2  C5  UNL     1      -9.525  45.723 -31.847  1.00  0.00     0.160 A 
HETATM    3  O1  UNL     1     -10.497  46.778 -31.817  1.00  0.00    -0.374 OA
HETATM    4  C6  UNL     1     -10.775  45.613 -31.029  1.00  0.00     0.157 A 
HETATM    5  C7  UNL     1     -10.740  45.760 -29.532  1.00  0.00     0.035 C 
HETATM    6  C8  UNL     1     -12.081  46.332 -28.929  1.00  0.00    -0.029 C 
HETATM    7  C9  UNL     1     -12.586  47.565 -29.715  1.00  0.00     0.016 C 
HETATM    8  C10 UNL     1     -13.200  45.237 -29.031  1.00  0.00     0.011 C 
HETATM    9  C11 UNL     1     -13.613  44.870 -27.613  1.00  0.00     0.006 C 
HETATM   10  C12 UNL     1     -13.341  46.138 -26.812  1.00  0.00    -0.002 C 
HETATM   11  C21 UNL     1     -11.960  46.629 -27.364  1.00  0.00    -0.032 C 
HETATM   12  C22 UNL     1     -11.784  48.124 -27.005  1.00  0.00     0.016 C 
HETATM   13  C23 UNL     1     -10.759  45.854 -26.779  1.00  0.00     0.011 C 
HETATM   14  C24 UNL     1      -9.417  46.228 -27.419  1.00  0.00     0.011 C 
HETATM   15  C25 UNL     1      -9.506  46.439 -28.929  1.00  0.00    -0.024 A 
HETATM   16  C26 UNL     1      -9.048  47.785 -29.444  1.00  0.00     0.022 A 
HETATM   17  C27 UNL     1      -8.199  46.568 -29.772  1.00  0.00    -0.021 A 
ENDROOT
BRANCH  10  18
HETATM   18  C13 UNL     1     -13.520  46.006 -25.269  1.00  0.00    -0.014 C 
HETATM   19  C14 UNL     1     -13.822  44.586 -24.782  1.00  0.00     0.010 C 
BRANCH  18  20
HETATM   20  C15 UNL     1     -14.623  47.001 -24.810  1.00  0.00     0.008 C 
BRANCH  20  21
HETATM   21  C16 UNL     1     -16.071  46.490 -24.909  1.00  0.00     0.028 C 
BRANCH  21  22
HETATM   22  C17 UNL     1     -16.783  46.431 -23.583  1.00  0.00    -0.013 C 
HETATM   23  C18 UNL     1     -18.106  46.297 -23.358  1.00  0.00     0.008 C 
HETATM   24  C19 UNL     1     -18.684  46.332 -21.974  1.00  0.00     0.055 C 
BRANCH  23  25
HETATM   25  C20 UNL     1     -19.118  46.126 -24.423  1.00  0.00     0.171 C 
HETATM   26  O2  UNL     1     -19.528  45.058 -24.843  1.00  0.00    -0.646 OA
BRANCH  25  27
HETATM   27  O3  UNL     1     -19.495  47.287 -24.982  1.00  0.00    -0.773 OA
HETATM   28  H30 UNL     1     -20.116  47.014 -25.687  1.00  0.00     0.167 HD
ENDBRANCH  25  27
ENDBRANCH  23  25
ENDBRANCH  21  22
ENDBRANCH  20  21
ENDBRANCH  18  20
ENDBRANCH  10  18
BRANCH  17  29
HETATM   29  C28 UNL     1      -6.845  46.347 -29.065  1.00  0.00     0.021 C 
BRANCH  29  30
HETATM   30  C29 UNL     1      -6.276  47.518 -28.274  1.00  0.00     0.111 C 
BRANCH  30  31
HETATM   31  C30 UNL     1      -5.148  48.210 -28.983  1.00  0.00     0.139 C 
HETATM   32  O4  UNL     1      -3.967  48.156 -28.680  1.00  0.00    -0.650 OA
BRANCH  31  33
HETATM   33  O5  UNL     1      -5.547  48.894 -30.072  1.00  0.00    -0.776 OA
HETATM   34  H44 UNL     1      -4.725  49.319 -30.390  1.00  0.00     0.167 HD
ENDBRANCH  31  33
ENDBRANCH  30  31
ENDBRANCH  29  30
ENDBRANCH  17  29
BRANCH   1  35
HETATM   35  C2  UNL     1      -7.272  46.791 -32.193  1.00  0.00    -0.086 C 
HETATM   36  C1  UNL     1      -7.641  47.925 -32.812  1.00  0.00     0.014 C 
HETATM   37  C3  UNL     1      -5.919  46.181 -32.445  1.00  0.00     0.043 C 
ENDBRANCH   1  35
TORSDOF 11
ENDMDL
MODEL 2
REMARK minimizedAffinity -6.67112112
REMARK CNNscore 0.237258419
REMARK CNNaffinity 6.43445444
REMARK  11 active torsions:
REMARK  status: ('A' for Active; 'I' for Inactive)
REMARK    1  A    between atoms: C2_2  and  C4_4 
REMARK    2  A    between atoms: C12_13  and  C13_14 
REMARK    3  A    between atoms: C13_14  and  C15_16 
REMARK    4  A    between atoms: C15_16  and  C16_17 
REMARK    5  A    between atoms: C16_17  and  C17_18 
REMARK    6  A    between atoms: C18_19  and  C20_21 
REMARK    7  A    between atoms: C20_21  and  O3_23 
REMARK    8  A    between atoms: C27_30  and  C28_31 
REMARK    9  A    between atoms: C28_31  and  C29_32 
REMARK   10  A    between atoms: C29_32  and  C30_33 
REMARK   11  A    between atoms: C30_33  and  O5_35 
ROOT
HETATM    1  C4  UNL     1      -2.165  51.890  -9.942  1.00  0.00     0.054 C 
HETATM    2  C5  UNL     1      -1.879  52.288  -8.518  1.00  0.00     0.160 A 
HETATM    3  O1  UNL     1      -1.532  53.661  -8.292  1.00  0.00    -0.374 OA
HETATM    4  C6  UNL     1      -0.509  52.684  -8.060  1.00  0.00     0.157 A 
HETATM    5  C7  UNL     1       0.662  52.664  -9.004  1.00  0.00     0.035 C 
HETATM    6  C8  UNL     1       1.773  53.726  -8.644  1.00  0.00    -0.029 C 
HETATM    7  C9  UNL     1       1.165  55.119  -8.355  1.00  0.00     0.016 C 
HETATM    8  C10 UNL     1       2.515  53.272  -7.339  1.00  0.00     0.011 C 
HETATM    9  C11 UNL     1       3.969  53.006  -7.706  1.00  0.00     0.006 C 
HETATM   10  C12 UNL     1       4.223  53.935  -8.888  1.00  0.00    -0.002 C 
HETATM   11  C21 UNL     1       2.923  53.793  -9.750  1.00  0.00    -0.032 C 
HETATM   12  C22 UNL     1       2.826  55.007 -10.706  1.00  0.00     0.016 C 
HETATM   13  C23 UNL     1       2.897  52.508 -10.607  1.00  0.00     0.011 C 
HETATM   14  C24 UNL     1       1.570  52.289 -11.343  1.00  0.00     0.011 C 
HETATM   15  C25 UNL     1       0.347  52.652 -10.503  1.00  0.00    -0.024 A 
HETATM   16  C26 UNL     1      -0.587  53.684 -11.094  1.00  0.00     0.022 A 
HETATM   17  C27 UNL     1      -1.078  52.249 -10.996  1.00  0.00    -0.021 A 
ENDROOT
BRANCH  10  18
HETATM   18  C13 UNL     1       5.603  53.761  -9.591  1.00  0.00    -0.014 C 
HETATM   19  C14 UNL     1       6.388  52.519  -9.156  1.00  0.00     0.010 C 
BRANCH  18  20
HETATM   20  C15 UNL     1       6.439  55.054  -9.373  1.00  0.00     0.008 C 
BRANCH  20  21
HETATM   21  C16 UNL     1       6.988  55.267  -7.952  1.00  0.00     0.028 C 
BRANCH  21  22
HETATM   22  C17 UNL     1       6.279  56.352  -7.186  1.00  0.00    -0.013 C 
HETATM   23  C18 UNL     1       6.628  56.894  -6.001  1.00  0.00     0.008 C 
HETATM   24  C19 UNL     1       5.777  57.923  -5.316  1.00  0.00     0.055 C 
BRANCH  23  25
HETATM   25  C20 UNL     1       7.848  56.531  -5.247  1.00  0.00     0.171 C 
HETATM   26  O2  UNL     1       7.983  55.533  -4.561  1.00  0.00    -0.646 OA
BRANCH  25  27
HETATM   27  O3  UNL     1       8.800  57.476  -5.301  1.00  0.00    -0.773 OA
HETATM   28  H30 UNL     1       9.510  57.123  -4.727  1.00  0.00     0.167 HD
ENDBRANCH  25  27
ENDBRANCH  23  25
ENDBRANCH  21  22
ENDBRANCH  20  21
ENDBRANCH  18  20
ENDBRANCH  10  18
BRANCH  17  29
HETATM   29  C28 UNL     1      -1.198  51.375 -12.262  1.00  0.00     0.021 C 
BRANCH  29  30
HETATM   30  C29 UNL     1      -1.737  52.046 -13.519  1.00  0.00     0.111 C 
BRANCH  30  31
HETATM   31  C30 UNL     1      -2.931  51.340 -14.093  1.00  0.00     0.139 C 
HETATM   32  O4  UNL     1      -3.548  51.667 -15.093  1.00  0.00    -0.650 OA
BRANCH  31  33
HETATM   33  O5  UNL     1      -3.263  50.224 -13.415  1.00  0.00    -0.776 OA
HETATM   34  H44 UNL     1      -4.071  49.910 -13.871  1.00  0.00     0.167 HD
ENDBRANCH  31  33
ENDBRANCH  30  31
ENDBRANCH  29  30
ENDBRANCH  17  29
BRANCH   1  35
HETATM   35  C2  UNL     1      -3.600  52.243 -10.354  1.00  0.00    -0.086 C 
HETATM   36  C1  UNL     1      -4.574  51.328 -10.494  1.00  0.00     0.014 C 
HETATM   37  C3  UNL     1      -3.866  53.699 -10.631  1.00  0.00     0.043 C 
ENDBRANCH   1  35
TORSDOF 11
ENDMDL
MODEL 3
REMARK minimizedAffinity -7.147192
REMARK CNNscore 0.148750633
REMARK CNNaffinity 6.49219275
REMARK  11 active torsions:
REMARK  status: ('A' for Active; 'I' for Inactive)
REMARK    1  A    between atoms: C2_2  and  C4_4 
REMARK    2  A    between atoms: C12_13  and  C13_14 
REMARK    3  A    between atoms: C13_14  and  C15_16 
REMARK    4  A    between atoms: C15_16  and  C16_17 
REMARK    5  A    between atoms: C16_17  and  C17_18 
REMARK    6  A    between atoms: C18_19  and  C20_21 
REMARK    7  A    between atoms: C20_21  and  O3_23 
REMARK    8  A    between atoms: C27_30  and  C28_31 
REMARK    9  A    between atoms: C28_31  and  C29_32 
REMARK   10  A    between atoms: C29_32  and  C30_33 
REMARK   11  A    between atoms: C30_33  and  O5_35 
ROOT
HETATM    1  C4  UNL     1       1.509  51.096 -15.040  1.00  0.00     0.054 C 
HETATM    2  C5  UNL     1       1.910  52.078 -16.109  1.00  0.00     0.160 A 
HETATM    3  O1  UNL     1       0.886  52.963 -16.585  1.00  0.00    -0.374 OA
HETATM    4  C6  UNL     1       1.388  51.990 -17.510  1.00  0.00     0.157 A 
HETATM    5  C7  UNL     1       0.460  50.881 -17.926  1.00  0.00     0.035 C 
HETATM    6  C8  UNL     1      -0.524  51.291 -19.088  1.00  0.00    -0.029 C 
HETATM    7  C9  UNL     1      -1.190  52.662 -18.821  1.00  0.00     0.016 C 
HETATM    8  C10 UNL     1       0.287  51.431 -20.423  1.00  0.00     0.011 C 
HETATM    9  C11 UNL     1      -0.232  50.375 -21.389  1.00  0.00     0.006 C 
HETATM   10  C12 UNL     1      -1.681  50.169 -20.961  1.00  0.00    -0.002 C 
HETATM   11  C21 UNL     1      -1.601  50.153 -19.397  1.00  0.00    -0.032 C 
HETATM   12  C22 UNL     1      -3.012  50.430 -18.825  1.00  0.00     0.016 C 
HETATM   13  C23 UNL     1      -1.111  48.804 -18.825  1.00  0.00     0.011 C 
HETATM   14  C24 UNL     1      -0.892  48.825 -17.309  1.00  0.00     0.011 C 
HETATM   15  C25 UNL     1      -0.261  50.122 -16.807  1.00  0.00    -0.024 A 
HETATM   16  C26 UNL     1      -1.037  50.877 -15.751  1.00  0.00     0.022 A 
HETATM   17  C27 UNL     1       0.266  50.211 -15.340  1.00  0.00    -0.021 A 
ENDROOT
BRANCH  10  18
HETATM   18  C13 UNL     1      -2.432  49.006 -21.679  1.00  0.00    -0.014 C 
HETATM   19  C14 UNL     1      -1.698  47.661 -21.651  1.00  0.00     0.010 C 
BRANCH  18  20
HETATM   20  C15 UNL     1      -2.744  49.442 -23.138  1.00  0.00     0.008 C 
BRANCH  20  21
HETATM   21  C16 UNL     1      -3.961  48.766 -23.794  1.00  0.00     0.028 C 
BRANCH  21  22
HETATM   22  C17 UNL     1      -3.840  48.623 -25.288  1.00  0.00    -0.013 C 
HETATM   23  C18 UNL     1      -4.803  48.283 -26.169  1.00  0.00     0.008 C 
HETATM   24  C19 UNL     1      -4.516  48.103 -27.630  1.00  0.00     0.055 C 
BRANCH  23  25
HETATM   25  C20 UNL     1      -6.215  48.034 -25.803  1.00  0.00     0.171 C 
HETATM   26  O2  UNL     1      -6.968  47.267 -26.376  1.00  0.00    -0.646 OA
BRANCH  25  27
HETATM   27  O3  UNL     1      -6.648  48.826 -24.809  1.00  0.00    -0.773 OA
HETATM   28  H30 UNL     1      -7.592  48.585 -24.716  1.00  0.00     0.167 HD
ENDBRANCH  25  27
ENDBRANCH  23  25
ENDBRANCH  21  22
ENDBRANCH  20  21
ENDBRANCH  18  20
ENDBRANCH  10  18
BRANCH  17  29
HETATM   29  C28 UNL     1       0.252  48.933 -14.476  1.00  0.00     0.021 C 
BRANCH  29  30
HETATM   30  C29 UNL     1       1.597  48.281 -14.180  1.00  0.00     0.111 C 
BRANCH  30  31
HETATM   31  C30 UNL     1       1.526  46.781 -14.149  1.00  0.00     0.139 C 
HETATM   32  O4  UNL     1       2.092  46.019 -14.915  1.00  0.00    -0.650 OA
BRANCH  31  33
HETATM   33  O5  UNL     1       0.791  46.307 -13.125  1.00  0.00    -0.776 OA
HETATM   34  H44 UNL     1       0.800  45.338 -13.266  1.00  0.00     0.167 HD
ENDBRANCH  31  33
ENDBRANCH  30  31
ENDBRANCH  29  30
ENDBRANCH  17  29
BRANCH   1  35
HETATM   35  C2  UNL     1       1.519  51.738 -13.646  1.00  0.00    -0.086 C 
HETATM   36  C1  UNL     1       2.543  51.617 -12.785  1.00  0.00     0.014 C 
HETATM   37  C3  UNL     1       0.280  52.504 -13.266  1.00  0.00     0.043 C 
ENDBRANCH   1  35
TORSDOF 11
ENDMDL
MODEL 4
REMARK minimizedAffinity -9.7838726
REMARK CNNscore 0.140433446
REMARK CNNaffinity 6.28843451
REMARK  11 active torsions:
REMARK  status: ('A' for Active; 'I' for Inactive)
REMARK    1  A    between atoms: C2_2  and  C4_4 
REMARK    2  A    between atoms: C12_13  and  C13_14 
REMARK    3  A    between atoms: C13_14  and  C15_16 
REMARK    4  A    between atoms: C15_16  and  C16_17 
REMARK    5  A    between atoms: C16_17  and  C17_18 
REMARK    6  A    between atoms: C18_19  and  C20_21 
REMARK    7  A    between atoms: C20_21  and  O3_23 
REMARK    8  A    between atoms: C27_30  and  C28_31 
REMARK    9  A    between atoms: C28_31  and  C29_32 
REMARK   10  A    between atoms: C29_32  and  C30_33 
REMARK   11  A    between atoms: C30_33  and  O5_35 
ROOT
HETATM    1  C4  UNL     1       0.602  52.063 -22.115  1.00  0.00     0.054 C 
HETATM    2  C5  UNL     1       0.697  52.549 -23.538  1.00  0.00     0.160 A 
HETATM    3  O1  UNL     1      -0.421  53.296 -24.038  1.00  0.00    -0.374 OA
HETATM    4  C6  UNL     1      -0.182  52.010 -24.625  1.00  0.00     0.157 A 
HETATM    5  C7  UNL     1      -1.182  50.921 -24.349  1.00  0.00     0.035 C 
HETATM    6  C8  UNL     1      -2.444  50.977 -25.294  1.00  0.00    -0.029 C 
HETATM    7  C9  UNL     1      -3.020  52.409 -25.402  1.00  0.00     0.016 C 
HETATM    8  C10 UNL     1      -2.022  50.545 -26.742  1.00  0.00     0.011 C 
HETATM    9  C11 UNL     1      -2.777  49.267 -27.078  1.00  0.00     0.006 C 
HETATM   10  C12 UNL     1      -4.056  49.371 -26.256  1.00  0.00    -0.002 C 
HETATM   11  C21 UNL     1      -3.560  49.913 -24.874  1.00  0.00    -0.032 C 
HETATM   12  C22 UNL     1      -4.766  50.514 -24.113  1.00  0.00     0.016 C 
HETATM   13  C23 UNL     1      -2.928  48.822 -23.981  1.00  0.00     0.011 C 
HETATM   14  C24 UNL     1      -2.311  49.369 -22.689  1.00  0.00     0.011 C 
HETATM   15  C25 UNL     1      -1.574  50.693 -22.885  1.00  0.00    -0.024 A 
HETATM   16  C26 UNL     1      -2.041  51.850 -22.031  1.00  0.00     0.022 A 
HETATM   17  C27 UNL     1      -0.673  51.254 -21.741  1.00  0.00    -0.021 A 
ENDROOT
BRANCH  10  18
HETATM   18  C13 UNL     1      -4.967  48.105 -26.273  1.00  0.00    -0.014 C 
HETATM   19  C14 UNL     1      -5.437  47.678 -27.668  1.00  0.00     0.010 C 
BRANCH  18  20
HETATM   20  C15 UNL     1      -6.177  48.350 -25.328  1.00  0.00     0.008 C 
BRANCH  20  21
HETATM   21  C16 UNL     1      -7.372  47.398 -25.506  1.00  0.00     0.028 C 
BRANCH  21  22
HETATM   22  C17 UNL     1      -7.995  47.460 -26.875  1.00  0.00    -0.013 C 
HETATM   23  C18 UNL     1      -9.151  48.055 -27.235  1.00  0.00     0.008 C 
HETATM   24  C19 UNL     1      -9.689  47.968 -28.632  1.00  0.00     0.055 C 
BRANCH  23  25
HETATM   25  C20 UNL     1     -10.013  48.825 -26.310  1.00  0.00     0.171 C 
HETATM   26  O2  UNL     1     -11.117  48.484 -25.926  1.00  0.00    -0.646 OA
BRANCH  25  27
HETATM   27  O3  UNL     1      -9.501  50.025 -25.992  1.00  0.00    -0.773 OA
HETATM   28  H30 UNL     1     -10.192  50.428 -25.427  1.00  0.00     0.167 HD
ENDBRANCH  25  27
ENDBRANCH  23  25
ENDBRANCH  21  22
ENDBRANCH  20  21
ENDBRANCH  18  20
ENDBRANCH  10  18
BRANCH  17  29
HETATM   29  C28 UNL     1      -0.449  50.383 -20.487  1.00  0.00     0.021 C 
BRANCH  29  30
HETATM   30  C29 UNL     1      -1.658  50.128 -19.595  1.00  0.00     0.111 C 
BRANCH  30  31
HETATM   31  C30 UNL     1      -1.827  51.171 -18.528  1.00  0.00     0.139 C 
HETATM   32  O4  UNL     1      -2.737  51.979 -18.451  1.00  0.00    -0.650 OA
BRANCH  31  33
HETATM   33  O5  UNL     1      -0.875  51.116 -17.577  1.00  0.00    -0.776 OA
HETATM   34  H44 UNL     1      -1.089  51.871 -16.993  1.00  0.00     0.167 HD
ENDBRANCH  31  33
ENDBRANCH  30  31
ENDBRANCH  29  30
ENDBRANCH  17  29
BRANCH   1  35
HETATM   35  C2  UNL     1       0.983  53.162 -21.114  1.00  0.00    -0.086 C 
HETATM   36  C1  UNL     1       0.797  53.048 -19.788  1.00  0.00     0.014 C 
HETATM   37  C3  UNL     1       1.561  54.419 -21.705  1.00  0.00     0.043 C 
ENDBRANCH   1  35
TORSDOF 11
ENDMDL
MODEL 5
REMARK minimizedAffinity -7.88480616
REMARK CNNscore 0.132436544
REMARK CNNaffinity 5.13797808
REMARK  11 active torsions:
REMARK  status: ('A' for Active; 'I' for Inactive)
REMARK    1  A    between atoms: C2_2  and  C4_4 
REMARK    2  A    between atoms: C12_13  and  C13_14 
REMARK    3  A    between atoms: C13_14  and  C15_16 
REMARK    4  A    between atoms: C15_16  and  C16_17 
REMARK    5  A    between atoms: C16_17  and  C17_18 
REMARK    6  A    between atoms: C18_19  and  C20_21 
REMARK    7  A    between atoms: C20_21  and  O3_23 
REMARK    8  A    between atoms: C27_30  and  C28_31 
REMARK    9  A    between atoms: C28_31  and  C29_32 
REMARK   10  A    between atoms: C29_32  and  C30_33 
REMARK   11  A    between atoms: C30_33  and  O5_35 
ROOT
HETATM    1  C4  UNL     1       6.109  63.928 -35.578  1.00  0.00     0.054 C 
HETATM    2  C5  UNL     1       6.760  64.531 -36.794  1.00  0.00     0.160 A 
HETATM    3  O1  UNL     1       7.143  65.911 -36.701  1.00  0.00    -0.374 OA
HETATM    4  C6  UNL     1       6.089  65.588 -37.618  1.00  0.00     0.157 A 
HETATM    5  C7  UNL     1       4.704  66.070 -37.284  1.00  0.00     0.035 C 
HETATM    6  C8  UNL     1       4.443  67.567 -37.711  1.00  0.00    -0.029 C 
HETATM    7  C9  UNL     1       5.602  68.497 -37.281  1.00  0.00     0.016 C 
HETATM    8  C10 UNL     1       4.349  67.647 -39.274  1.00  0.00     0.011 C 
HETATM    9  C11 UNL     1       2.940  68.103 -39.627  1.00  0.00     0.006 C 
HETATM   10  C12 UNL     1       2.513  68.935 -38.423  1.00  0.00    -0.002 C 
HETATM   11  C21 UNL     1       3.026  68.101 -37.201  1.00  0.00    -0.032 C 
HETATM   12  C22 UNL     1       3.096  69.025 -35.962  1.00  0.00     0.016 C 
HETATM   13  C23 UNL     1       2.113  66.904 -36.853  1.00  0.00     0.011 C 
HETATM   14  C24 UNL     1       2.681  66.000 -35.754  1.00  0.00     0.011 C 
HETATM   15  C25 UNL     1       4.188  65.780 -35.870  1.00  0.00    -0.024 A 
HETATM   16  C26 UNL     1       5.015  66.165 -34.664  1.00  0.00     0.022 A 
HETATM   17  C27 UNL     1       4.882  64.688 -34.997  1.00  0.00    -0.021 A 
ENDROOT
BRANCH  10  18
HETATM   18  C13 UNL     1       1.027  69.407 -38.429  1.00  0.00    -0.014 C 
HETATM   19  C14 UNL     1       0.047  68.433 -37.767  1.00  0.00     0.010 C 
BRANCH  18  20
HETATM   20  C15 UNL     1       0.608  69.711 -39.895  1.00  0.00     0.008 C 
BRANCH  20  21
HETATM   21  C16 UNL     1      -0.887  69.535 -40.215  1.00  0.00     0.028 C 
BRANCH  21  22
HETATM   22  C17 UNL     1      -1.147  68.750 -41.474  1.00  0.00    -0.013 C 
HETATM   23  C18 UNL     1      -2.289  68.684 -42.188  1.00  0.00     0.008 C 
HETATM   24  C19 UNL     1      -2.425  67.793 -43.388  1.00  0.00     0.055 C 
BRANCH  23  25
HETATM   25  C20 UNL     1      -3.516  69.446 -41.869  1.00  0.00     0.171 C 
HETATM   26  O2  UNL     1      -4.461  69.025 -41.225  1.00  0.00    -0.646 OA
BRANCH  25  27
HETATM   27  O3  UNL     1      -3.550  70.656 -42.450  1.00  0.00    -0.773 OA
HETATM   28  H30 UNL     1      -4.424  71.012 -42.192  1.00  0.00     0.167 HD
ENDBRANCH  25  27
ENDBRANCH  23  25
ENDBRANCH  21  22
ENDBRANCH  20  21
ENDBRANCH  18  20
ENDBRANCH  10  18
BRANCH  17  29
HETATM   29  C28 UNL     1       3.997  63.767 -34.132  1.00  0.00     0.021 C 
BRANCH  29  30
HETATM   30  C29 UNL     1       4.498  63.441 -32.730  1.00  0.00     0.111 C 
BRANCH  30  31
HETATM   31  C30 UNL     1       4.306  64.574 -31.763  1.00  0.00     0.139 C 
HETATM   32  O4  UNL     1       5.120  65.445 -31.505  1.00  0.00    -0.650 OA
BRANCH  31  33
HETATM   33  O5  UNL     1       3.081  64.591 -31.203  1.00  0.00    -0.776 OA
HETATM   34  H44 UNL     1       3.126  65.340 -30.575  1.00  0.00     0.167 HD
ENDBRANCH  31  33
ENDBRANCH  30  31
ENDBRANCH  29  30
ENDBRANCH  17  29
BRANCH   1  35
HETATM   35  C2  UNL     1       7.147  63.493 -34.535  1.00  0.00    -0.086 C 
HETATM   36  C1  UNL     1       7.449  62.208 -34.286  1.00  0.00     0.014 C 
HETATM   37  C3  UNL     1       7.806  64.602 -33.760  1.00  0.00     0.043 C 
ENDBRANCH   1  35
TORSDOF 11
ENDMDL
MODEL 6
REMARK minimizedAffinity -7.64162779
REMARK CNNscore 0.131806523
REMARK CNNaffinity 6.33049965
REMARK  11 active torsions:
REMARK  status: ('A' for Active; 'I' for Inactive)
REMARK    1  A    between atoms: C2_2  and  C4_4 
REMARK    2  A    between atoms: C12_13  and  C13_14 
REMARK    3  A    between atoms: C13_14  and  C15_16 
REMARK    4  A    between atoms: C15_16  and  C16_17 
REMARK    5  A    between atoms: C16_17  and  C17_18 
REMARK    6  A    between atoms: C18_19  and  C20_21 
REMARK    7  A    between atoms: C20_21  and  O3_23 
REMARK    8  A    between atoms: C27_30  and  C28_31 
REMARK    9  A    between atoms: C28_31  and  C29_32 
REMARK   10  A    between atoms: C29_32  and  C30_33 
REMARK   11  A    between atoms: C30_33  and  O5_35 
ROOT
HETATM    1  C4  UNL     1      -1.731  52.152 -25.973  1.00  0.00     0.054 C 
HETATM    2  C5  UNL     1      -1.325  52.835 -24.694  1.00  0.00     0.160 A 
HETATM    3  O1  UNL     1      -0.503  52.078 -23.794  1.00  0.00    -0.374 OA
HETATM    4  C6  UNL     1      -1.833  52.390 -23.356  1.00  0.00     0.157 A 
HETATM    5  C7  UNL     1      -2.811  51.254 -23.235  1.00  0.00     0.035 C 
HETATM    6  C8  UNL     1      -2.686  50.463 -21.875  1.00  0.00    -0.029 C 
HETATM    7  C9  UNL     1      -1.214  50.124 -21.540  1.00  0.00     0.016 C 
HETATM    8  C10 UNL     1      -3.224  51.362 -20.707  1.00  0.00     0.011 C 
HETATM    9  C11 UNL     1      -4.443  50.666 -20.117  1.00  0.00     0.006 C 
HETATM   10  C12 UNL     1      -4.182  49.187 -20.380  1.00  0.00    -0.002 C 
HETATM   11  C21 UNL     1      -3.621  49.169 -21.841  1.00  0.00    -0.032 C 
HETATM   12  C22 UNL     1      -2.877  47.832 -22.071  1.00  0.00     0.016 C 
HETATM   13  C23 UNL     1      -4.721  49.294 -22.919  1.00  0.00     0.011 C 
HETATM   14  C24 UNL     1      -4.171  49.422 -24.344  1.00  0.00     0.011 C 
HETATM   15  C25 UNL     1      -2.932  50.309 -24.436  1.00  0.00    -0.024 A 
HETATM   16  C26 UNL     1      -1.697  49.673 -25.033  1.00  0.00     0.022 A 
HETATM   17  C27 UNL     1      -2.400  50.755 -25.834  1.00  0.00    -0.021 A 
ENDROOT
BRANCH  10  18
HETATM   18  C13 UNL     1      -5.358  48.227 -20.023  1.00  0.00    -0.014 C 
HETATM   19  C14 UNL     1      -6.595  48.923 -19.446  1.00  0.00     0.010 C 
BRANCH  18  20
HETATM   20  C15 UNL     1      -4.830  47.132 -19.054  1.00  0.00     0.008 C 
BRANCH  20  21
HETATM   21  C16 UNL     1      -4.304  47.634 -17.698  1.00  0.00     0.028 C 
BRANCH  21  22
HETATM   22  C17 UNL     1      -2.820  47.887 -17.681  1.00  0.00    -0.013 C 
HETATM   23  C18 UNL     1      -2.172  48.993 -17.262  1.00  0.00     0.008 C 
HETATM   24  C19 UNL     1      -0.682  49.133 -17.377  1.00  0.00     0.055 C 
BRANCH  23  25
HETATM   25  C20 UNL     1      -2.839  50.175 -16.673  1.00  0.00     0.171 C 
HETATM   26  O2  UNL     1      -2.876  51.286 -17.172  1.00  0.00    -0.646 OA
BRANCH  25  27
HETATM   27  O3  UNL     1      -3.338  49.942 -15.449  1.00  0.00    -0.773 OA
HETATM   28  H30 UNL     1      -3.696  50.811 -15.175  1.00  0.00     0.167 HD
ENDBRANCH  25  27
ENDBRANCH  23  25
ENDBRANCH  21  22
ENDBRANCH  20  21
ENDBRANCH  18  20
ENDBRANCH  10  18
BRANCH  17  29
HETATM   29  C28 UNL     1      -3.227  50.390 -27.085  1.00  0.00     0.021 C 
BRANCH  29  30
HETATM   30  C29 UNL     1      -3.321  48.913 -27.447  1.00  0.00     0.111 C 
BRANCH  30  31
HETATM   31  C30 UNL     1      -4.510  48.596 -28.308  1.00  0.00     0.139 C 
HETATM   32  O4  UNL     1      -5.425  47.844 -28.020  1.00  0.00    -0.650 OA
BRANCH  31  33
HETATM   33  O5  UNL     1      -4.521  49.281 -29.467  1.00  0.00    -0.776 OA
HETATM   34  H44 UNL     1      -5.313  48.938 -29.929  1.00  0.00     0.167 HD
ENDBRANCH  31  33
ENDBRANCH  30  31
ENDBRANCH  29  30
ENDBRANCH  17  29
BRANCH   1  35
HETATM   35  C2  UNL     1      -0.625  52.231 -27.034  1.00  0.00    -0.086 C 
HETATM   36  C1  UNL     1      -0.531  53.227 -27.930  1.00  0.00     0.014 C 
HETATM   37  C3  UNL     1       0.359  51.092 -27.045  1.00  0.00     0.043 C 
ENDBRANCH   1  35
TORSDOF 11
ENDMDL
MODEL 7
REMARK minimizedAffinity -7.10128307
REMARK CNNscore 0.129138127
REMARK CNNaffinity 5.92109537
REMARK  11 active torsions:
REMARK  status: ('A' for Active; 'I' for Inactive)
REMARK    1  A    between atoms: C2_2  and  C4_4 
REMARK    2  A    between atoms: C12_13  and  C13_14 
REMARK    3  A    between atoms: C13_14  and  C15_16 
REMARK    4  A    between atoms: C15_16  and  C16_17 
REMARK    5  A    between atoms: C16_17  and  C17_18 
REMARK    6  A    between atoms: C18_19  and  C20_21 
REMARK    7  A    between atoms: C20_21  and  O3_23 
REMARK    8  A    between atoms: C27_30  and  C28_31 
REMARK    9  A    between atoms: C28_31  and  C29_32 
REMARK   10  A    between atoms: C29_32  and  C30_33 
REMARK   11  A    between atoms: C30_33  and  O5_35 
ROOT
HETATM    1  C4  UNL     1      -2.195  51.802 -25.621  1.00  0.00     0.054 C 
HETATM    2  C5  UNL     1      -2.008  52.450 -24.274  1.00  0.00     0.160 A 
HETATM    3  O1  UNL     1      -1.372  51.657 -23.262  1.00  0.00    -0.374 OA
HETATM    4  C6  UNL     1      -2.752  51.991 -23.057  1.00  0.00     0.157 A 
HETATM    5  C7  UNL     1      -3.758  50.875 -23.136  1.00  0.00     0.035 C 
HETATM    6  C8  UNL     1      -3.889  50.055 -21.794  1.00  0.00    -0.029 C 
HETATM    7  C9  UNL     1      -2.506  49.676 -21.214  1.00  0.00     0.016 C 
HETATM    8  C10 UNL     1      -4.607  50.943 -20.718  1.00  0.00     0.011 C 
HETATM    9  C11 UNL     1      -5.924  50.264 -20.367  1.00  0.00     0.006 C 
HETATM   10  C12 UNL     1      -5.650  48.785 -20.615  1.00  0.00    -0.002 C 
HETATM   11  C21 UNL     1      -4.840  48.782 -21.955  1.00  0.00    -0.032 C 
HETATM   12  C22 UNL     1      -4.093  47.433 -22.082  1.00  0.00     0.016 C 
HETATM   13  C23 UNL     1      -5.731  48.953 -23.206  1.00  0.00     0.011 C 
HETATM   14  C24 UNL     1      -4.937  49.096 -24.509  1.00  0.00     0.011 C 
HETATM   15  C25 UNL     1      -3.683  49.957 -24.361  1.00  0.00    -0.024 A 
HETATM   16  C26 UNL     1      -2.375  49.304 -24.747  1.00  0.00     0.022 A 
HETATM   17  C27 UNL     1      -2.906  50.418 -25.634  1.00  0.00    -0.021 A 
ENDROOT
BRANCH  10  18
HETATM   18  C13 UNL     1      -6.888  47.845 -20.493  1.00  0.00    -0.014 C 
HETATM   19  C14 UNL     1      -8.239  48.547 -20.665  1.00  0.00     0.010 C 
BRANCH  18  20
HETATM   20  C15 UNL     1      -6.815  47.101 -19.130  1.00  0.00     0.008 C 
BRANCH  20  21
HETATM   21  C16 UNL     1      -7.793  47.587 -18.047  1.00  0.00     0.028 C 
BRANCH  21  22
HETATM   22  C17 UNL     1      -7.634  46.879 -16.727  1.00  0.00    -0.013 C 
HETATM   23  C18 UNL     1      -8.573  46.662 -15.784  1.00  0.00     0.008 C 
HETATM   24  C19 UNL     1      -8.249  46.005 -14.475  1.00  0.00     0.055 C 
BRANCH  23  25
HETATM   25  C20 UNL     1      -9.993  47.058 -15.918  1.00  0.00     0.171 C 
HETATM   26  O2  UNL     1     -10.391  48.141 -16.309  1.00  0.00    -0.646 OA
BRANCH  25  27
HETATM   27  O3  UNL     1     -10.844  46.124 -15.462  1.00  0.00    -0.773 OA
HETATM   28  H30 UNL     1     -11.723  46.541 -15.568  1.00  0.00     0.167 HD
ENDBRANCH  25  27
ENDBRANCH  23  25
ENDBRANCH  21  22
ENDBRANCH  20  21
ENDBRANCH  18  20
ENDBRANCH  10  18
BRANCH  17  29
HETATM   29  C28 UNL     1      -3.506  50.097 -27.018  1.00  0.00     0.021 C 
BRANCH  29  30
HETATM   30  C29 UNL     1      -3.460  48.643 -27.474  1.00  0.00     0.111 C 
BRANCH  30  31
HETATM   31  C30 UNL     1      -4.626  48.265 -28.341  1.00  0.00     0.139 C 
HETATM   32  O4  UNL     1      -4.568  47.897 -29.503  1.00  0.00    -0.650 OA
BRANCH  31  33
HETATM   33  O5  UNL     1      -5.805  48.313 -27.693  1.00  0.00    -0.776 OA
HETATM   34  H44 UNL     1      -6.458  48.092 -28.388  1.00  0.00     0.167 HD
ENDBRANCH  31  33
ENDBRANCH  30  31
ENDBRANCH  29  30
ENDBRANCH  17  29
BRANCH   1  35
HETATM   35  C2  UNL     1      -0.918  51.876 -26.469  1.00  0.00    -0.086 C 
HETATM   36  C1  UNL     1      -0.692  52.837 -27.380  1.00  0.00     0.014 C 
HETATM   37  C3  UNL     1       0.083  50.773 -26.249  1.00  0.00     0.043 C 
ENDBRANCH   1  35
TORSDOF 11
ENDMDL
MODEL 8
REMARK minimizedAffinity -7.43137026
REMARK CNNscore 0.115723372
REMARK CNNaffinity 6.30211782
REMARK  11 active torsions:
REMARK  status: ('A' for Active; 'I' for Inactive)
REMARK    1  A    between atoms: C2_2  and  C4_4 
REMARK    2  A    between atoms: C12_13  and  C13_14 
REMARK    3  A    between atoms: C13_14  and  C15_16 
REMARK    4  A    between atoms: C15_16  and  C16_17 
REMARK    5  A    between atoms: C16_17  and  C17_18 
REMARK    6  A    between atoms: C18_19  and  C20_21 
REMARK    7  A    between atoms: C20_21  and  O3_23 
REMARK    8  A    between atoms: C27_30  and  C28_31 
REMARK    9  A    between atoms: C28_31  and  C29_32 
REMARK   10  A    between atoms: C29_32  and  C30_33 
REMARK   11  A    between atoms: C30_33  and  O5_35 
ROOT
HETATM    1  C4  UNL     1      -7.240  47.705 -19.173  1.00  0.00     0.054 C 
HETATM    2  C5  UNL     1      -5.765  47.744 -18.871  1.00  0.00     0.160 A 
HETATM    3  O1  UNL     1      -5.131  49.030 -18.923  1.00  0.00    -0.374 OA
HETATM    4  C6  UNL     1      -4.744  48.073 -19.918  1.00  0.00     0.157 A 
HETATM    5  C7  UNL     1      -5.150  48.344 -21.341  1.00  0.00     0.035 C 
HETATM    6  C8  UNL     1      -4.174  49.329 -22.093  1.00  0.00    -0.029 C 
HETATM    7  C9  UNL     1      -3.844  50.575 -21.238  1.00  0.00     0.016 C 
HETATM    8  C10 UNL     1      -2.817  48.594 -22.371  1.00  0.00     0.011 C 
HETATM    9  C11 UNL     1      -2.650  48.495 -23.882  1.00  0.00     0.006 C 
HETATM   10  C12 UNL     1      -3.414  49.702 -24.414  1.00  0.00    -0.002 C 
HETATM   11  C21 UNL     1      -4.715  49.724 -23.543  1.00  0.00    -0.032 C 
HETATM   12  C22 UNL     1      -5.348  51.134 -23.630  1.00  0.00     0.016 C 
HETATM   13  C23 UNL     1      -5.774  48.697 -24.001  1.00  0.00     0.011 C 
HETATM   14  C24 UNL     1      -6.988  48.611 -23.069  1.00  0.00     0.011 C 
HETATM   15  C25 UNL     1      -6.621  48.696 -21.589  1.00  0.00    -0.024 A 
HETATM   16  C26 UNL     1      -7.285  49.800 -20.798  1.00  0.00     0.022 A 
HETATM   17  C27 UNL     1      -7.694  48.366 -20.505  1.00  0.00    -0.021 A 
ENDROOT
BRANCH  10  18
HETATM   18  C13 UNL     1      -3.557  49.772 -25.965  1.00  0.00    -0.014 C 
HETATM   19  C14 UNL     1      -3.133  48.498 -26.702  1.00  0.00     0.010 C 
BRANCH  18  20
HETATM   20  C15 UNL     1      -2.765  51.006 -26.481  1.00  0.00     0.008 C 
BRANCH  20  21
HETATM   21  C16 UNL     1      -1.599  51.475 -25.594  1.00  0.00     0.028 C 
BRANCH  21  22
HETATM   22  C17 UNL     1      -0.245  51.291 -26.228  1.00  0.00    -0.013 C 
HETATM   23  C18 UNL     1       0.425  52.154 -27.018  1.00  0.00     0.008 C 
HETATM   24  C19 UNL     1       1.741  51.800 -27.645  1.00  0.00     0.055 C 
BRANCH  23  25
HETATM   25  C20 UNL     1      -0.059  53.508 -27.369  1.00  0.00     0.171 C 
HETATM   26  O2  UNL     1       0.103  54.511 -26.697  1.00  0.00    -0.646 OA
BRANCH  25  27
HETATM   27  O3  UNL     1      -0.805  53.527 -28.485  1.00  0.00    -0.773 OA
HETATM   28  H30 UNL     1      -1.087  54.462 -28.558  1.00  0.00     0.167 HD
ENDBRANCH  25  27
ENDBRANCH  23  25
ENDBRANCH  21  22
ENDBRANCH  20  21
ENDBRANCH  18  20
ENDBRANCH  10  18
BRANCH  17  29
HETATM   29  C28 UNL     1      -9.067  47.835 -20.967  1.00  0.00     0.021 C 
BRANCH  29  30
HETATM   30  C29 UNL     1      -9.230  46.323 -21.060  1.00  0.00     0.111 C 
BRANCH  30  31
HETATM   31  C30 UNL     1     -10.507  45.912 -21.735  1.00  0.00     0.139 C 
HETATM   32  O4  UNL     1     -10.907  46.308 -22.817  1.00  0.00    -0.650 OA
BRANCH  31  33
HETATM   33  O5  UNL     1     -11.196  44.983 -21.045  1.00  0.00    -0.776 OA
HETATM   34  H44 UNL     1     -12.008  44.857 -21.577  1.00  0.00     0.167 HD
ENDBRANCH  31  33
ENDBRANCH  30  31
ENDBRANCH  29  30
ENDBRANCH  17  29
BRANCH   1  35
HETATM   35  C2  UNL     1      -8.080  48.087 -17.947  1.00  0.00    -0.086 C 
HETATM   36  C1  UNL     1      -8.731  49.257 -17.833  1.00  0.00     0.014 C 
HETATM   37  C3  UNL     1      -8.118  47.074 -16.834  1.00  0.00     0.043 C 
ENDBRANCH   1  35
TORSDOF 11
ENDMDL
MODEL 9
REMARK minimizedAffinity -7.77487707
REMARK CNNscore 0.11369592
REMARK CNNaffinity 6.52927828
REMARK  11 active torsions:
REMARK  status: ('A' for Active; 'I' for Inactive)
REMARK    1  A    between atoms: C2_2  and  C4_4 
REMARK    2  A    between atoms: C12_13  and  C13_14 
REMARK    3  A    between atoms: C13_14  and  C15_16 
REMARK    4  A    between atoms: C15_16  and  C16_17 
REMARK    5  A    between atoms: C16_17  and  C17_18 
REMARK    6  A    between atoms: C18_19  and  C20_21 
REMARK    7  A    between atoms: C20_21  and  O3_23 
REMARK    8  A    between atoms: C27_30  and  C28_31 
REMARK    9  A    between atoms: C28_31  and  C29_32 
REMARK   10  A    between atoms: C29_32  and  C30_33 
REMARK   11  A    between atoms: C30_33  and  O5_35 
ROOT
HETATM    1  C4  UNL     1      -0.274  51.225 -25.734  1.00  0.00     0.054 C 
HETATM    2  C5  UNL     1      -1.296  50.302 -26.344  1.00  0.00     0.160 A 
HETATM    3  O1  UNL     1      -2.654  50.764 -26.353  1.00  0.00    -0.374 OA
HETATM    4  C6  UNL     1      -2.356  49.633 -25.524  1.00  0.00     0.157 A 
HETATM    5  C7  UNL     1      -2.423  49.825 -24.033  1.00  0.00     0.035 C 
HETATM    6  C8  UNL     1      -3.885  49.705 -23.452  1.00  0.00    -0.029 C 
HETATM    7  C9  UNL     1      -4.903  50.521 -24.283  1.00  0.00     0.016 C 
HETATM    8  C10 UNL     1      -4.342  48.206 -23.516  1.00  0.00     0.011 C 
HETATM    9  C11 UNL     1      -4.556  47.730 -22.086  1.00  0.00     0.006 C 
HETATM   10  C12 UNL     1      -4.937  48.998 -21.332  1.00  0.00    -0.002 C 
HETATM   11  C21 UNL     1      -3.949  50.072 -21.899  1.00  0.00    -0.032 C 
HETATM   12  C22 UNL     1      -4.516  51.480 -21.594  1.00  0.00     0.016 C 
HETATM   13  C23 UNL     1      -2.535  49.985 -21.285  1.00  0.00     0.011 C 
HETATM   14  C24 UNL     1      -1.524  50.935 -21.936  1.00  0.00     0.011 C 
HETATM   15  C25 UNL     1      -1.675  51.031 -23.453  1.00  0.00    -0.024 A 
HETATM   16  C26 UNL     1      -1.907  52.415 -24.016  1.00  0.00     0.022 A 
HETATM   17  C27 UNL     1      -0.573  51.743 -24.299  1.00  0.00    -0.021 A 
ENDROOT
BRANCH  10  18
HETATM   18  C13 UNL     1      -5.060  48.845 -19.785  1.00  0.00    -0.014 C 
HETATM   19  C14 UNL     1      -3.773  48.396 -19.085  1.00  0.00     0.010 C 
BRANCH  18  20
HETATM   20  C15 UNL     1      -6.234  47.875 -19.473  1.00  0.00     0.008 C 
BRANCH  20  21
HETATM   21  C16 UNL     1      -7.199  48.325 -18.363  1.00  0.00     0.028 C 
BRANCH  21  22
HETATM   22  C17 UNL     1      -7.551  47.233 -17.388  1.00  0.00    -0.013 C 
HETATM   23  C18 UNL     1      -8.730  47.021 -16.768  1.00  0.00     0.008 C 
HETATM   24  C19 UNL     1      -8.912  45.930 -15.755  1.00  0.00     0.055 C 
BRANCH  23  25
HETATM   25  C20 UNL     1      -9.946  47.835 -16.993  1.00  0.00     0.171 C 
HETATM   26  O2  UNL     1     -10.571  47.895 -18.037  1.00  0.00    -0.646 OA
BRANCH  25  27
HETATM   27  O3  UNL     1     -10.263  48.608 -15.943  1.00  0.00    -0.773 OA
HETATM   28  H30 UNL     1     -11.042  49.113 -16.254  1.00  0.00     0.167 HD
ENDBRANCH  25  27
ENDBRANCH  23  25
ENDBRANCH  21  22
ENDBRANCH  20  21
ENDBRANCH  18  20
ENDBRANCH  10  18
BRANCH  17  29
HETATM   29  C28 UNL     1       0.709  52.218 -23.583  1.00  0.00     0.021 C 
BRANCH  29  30
HETATM   30  C29 UNL     1       0.804  53.701 -23.242  1.00  0.00     0.111 C 
BRANCH  30  31
HETATM   31  C30 UNL     1       1.232  53.948 -21.825  1.00  0.00     0.139 C 
HETATM   32  O4  UNL     1       2.169  54.644 -21.468  1.00  0.00    -0.650 OA
BRANCH  31  33
HETATM   33  O5  UNL     1       0.432  53.355 -20.918  1.00  0.00    -0.776 OA
HETATM   34  H44 UNL     1       0.860  53.564 -20.063  1.00  0.00     0.167 HD
ENDBRANCH  31  33
ENDBRANCH  30  31
ENDBRANCH  29  30
ENDBRANCH  17  29
BRANCH   1  35
HETATM   35  C2  UNL     1       0.179  52.306 -26.725  1.00  0.00    -0.086 C 
HETATM   36  C1  UNL     1      -0.492  53.453 -26.923  1.00  0.00     0.014 C 
HETATM   37  C3  UNL     1       1.425  51.998 -27.511  1.00  0.00     0.043 C 
ENDBRANCH   1  35
TORSDOF 11
ENDMDL
