MODEL 1
REMARK minimizedAffinity -8.45214558
REMARK CNNscore 0.414048523
REMARK CNNaffinity 6.28752327
REMARK  12 active torsions:
REMARK  status: ('A' for Active; 'I' for Inactive)
REMARK    1  A    between atoms: C2_2  and  C3_3 
REMARK    2  A    between atoms: C2_2  and  C9_10 
REMARK    3  A    between atoms: C3_3  and  C4_4 
REMARK    4  A    between atoms: C5_5  and  C6_6 
REMARK    5  A    between atoms: C6_6  and  O1_9 
REMARK    6  A    between atoms: C27_30  and  O4_31 
REMARK    7  A    between atoms: O4_31  and  C28_32 
REMARK    8  A    between atoms: C29_34  and  C30_35 
REMARK    9  A    between atoms: C30_35  and  O6_36 
REMARK   10  A    between atoms: C31_37  and  O7_38 
REMARK   11  A    between atoms: C32_39  and  O8_40 
REMARK   12  A    between atoms: C33_41  and  O9_42 
ROOT
HETATM    1  C9  UNL     1      -8.846  47.057 -29.058  1.00  0.00    -0.002 C 
HETATM    2  C10 UNL     1      -7.883  46.065 -28.331  1.00  0.00     0.006 C 
HETATM    3  C11 UNL     1      -8.705  45.310 -27.265  1.00  0.00     0.011 C 
HETATM    4  C12 UNL     1     -10.169  45.630 -27.610  1.00  0.00    -0.028 C 
HETATM    5  C13 UNL     1     -10.550  44.646 -28.766  1.00  0.00     0.016 C 
HETATM    6  C14 UNL     1     -11.181  45.511 -26.426  1.00  0.00     0.035 C 
HETATM    7  C15 UNL     1     -11.290  44.104 -25.855  1.00  0.00    -0.021 C 
HETATM    8  C16 UNL     1     -12.485  43.523 -25.639  1.00  0.00     0.009 C 
HETATM    9  C17 UNL     1     -13.791  44.211 -26.030  1.00  0.00     0.102 C 
HETATM   10  O2  UNL     1     -13.990  45.249 -25.052  1.00  0.00    -0.304 OA
HETATM   11  C18 UNL     1     -13.280  46.359 -25.428  1.00  0.00     0.270 C 
HETATM   12  O3  UNL     1     -13.183  47.362 -24.740  1.00  0.00    -0.264 OA
HETATM   13  C19 UNL     1     -12.608  46.114 -26.783  1.00  0.00     0.062 C 
HETATM   14  C20 UNL     1     -12.529  47.447 -27.570  1.00  0.00     0.022 C 
HETATM   15  C21 UNL     1     -11.417  47.559 -28.630  1.00  0.00     0.011 C 
HETATM   16  C22 UNL     1     -10.049  47.136 -28.064  1.00  0.00    -0.032 C 
HETATM   17  C23 UNL     1      -9.667  48.121 -26.911  1.00  0.00     0.016 C 
HETATM   18  C24 UNL     1     -13.543  45.002 -27.335  1.00  0.00     0.045 C 
HETATM   19  C25 UNL     1     -14.838  45.408 -28.059  1.00  0.00     0.012 C 
HETATM   20  C26 UNL     1     -16.055  45.448 -27.159  1.00  0.00     0.033 C 
HETATM   21  C27 UNL     1     -16.340  44.091 -26.501  1.00  0.00     0.136 C 
HETATM   22  C34 UNL     1     -15.053  43.286 -26.068  1.00  0.00     0.015 C 
HETATM   23  C35 UNL     1     -15.296  42.613 -24.689  1.00  0.00     0.021 C 
HETATM   24  C36 UNL     1     -14.836  42.136 -27.088  1.00  0.00     0.021 C 
ENDROOT
BRANCH  21  25
HETATM   25  O4  UNL     1     -17.205  44.327 -25.378  1.00  0.00    -0.352 OA
BRANCH  25  26
HETATM   26  C28 UNL     1     -18.517  43.782 -25.516  1.00  0.00     0.292 C 
HETATM   27  O5  UNL     1     -19.511  44.811 -25.509  1.00  0.00    -0.348 OA
HETATM   28  C29 UNL     1     -19.764  45.471 -24.254  1.00  0.00     0.179 C 
HETATM   29  C31 UNL     1     -19.952  44.493 -23.089  1.00  0.00     0.180 C 
HETATM   30  C32 UNL     1     -18.870  43.410 -23.055  1.00  0.00     0.183 C 
HETATM   31  C33 UNL     1     -18.736  42.728 -24.417  1.00  0.00     0.204 C 
BRANCH  28  32
HETATM   32  C30 UNL     1     -18.714  46.550 -23.960  1.00  0.00     0.198 C 
BRANCH  32  33
HETATM   33  O6  UNL     1     -18.912  47.657 -24.839  1.00  0.00    -0.398 OA
HETATM   34  H44 UNL     1     -18.910  47.284 -25.738  1.00  0.00     0.209 HD
ENDBRANCH  32  33
ENDBRANCH  28  32
BRANCH  29  35
HETATM   35  O7  UNL     1     -21.232  43.832 -23.194  1.00  0.00    -0.390 OA
HETATM   36  H46 UNL     1     -21.243  43.395 -24.074  1.00  0.00     0.210 HD
ENDBRANCH  29  35
BRANCH  30  37
HETATM   37  O8  UNL     1     -19.223  42.411 -22.079  1.00  0.00    -0.390 OA
HETATM   38  H48 UNL     1     -20.174  42.553 -21.886  1.00  0.00     0.210 HD
ENDBRANCH  30  37
BRANCH  31  39
HETATM   39  O9  UNL     1     -19.920  41.953 -24.687  1.00  0.00    -0.388 OA
HETATM   40  H50 UNL     1     -19.994  41.345 -23.923  1.00  0.00     0.210 HD
ENDBRANCH  31  39
ENDBRANCH  25  26
ENDBRANCH  21  25
BRANCH   1  41
HETATM   41  C2  UNL     1      -8.115  48.362 -29.491  1.00  0.00    -0.010 C 
HETATM   42  C1  UNL     1      -8.834  49.094 -30.629  1.00  0.00     0.010 C 
BRANCH  41  43
HETATM   43  C3  UNL     1      -6.630  48.127 -29.885  1.00  0.00     0.031 C 
BRANCH  43  44
HETATM   44  C4  UNL     1      -6.394  47.790 -31.333  1.00  0.00    -0.027 C 
HETATM   45  C5  UNL     1      -5.167  47.641 -31.865  1.00  0.00     0.006 C 
BRANCH  45  46
HETATM   46  C6  UNL     1      -4.806  47.299 -33.290  1.00  0.00     0.068 C 
HETATM   47  C7  UNL     1      -5.909  47.795 -34.229  1.00  0.00     0.050 C 
HETATM   48  C8  UNL     1      -3.442  47.810 -33.762  1.00  0.00     0.050 C 
BRANCH  46  49
HETATM   49  O1  UNL     1      -4.771  45.870 -33.344  1.00  0.00    -0.387 OA
HETATM   50  H15 UNL     1      -4.744  45.605 -34.278  1.00  0.00     0.211 HD
ENDBRANCH  46  49
ENDBRANCH  45  46
ENDBRANCH  43  44
ENDBRANCH  41  43
ENDBRANCH   1  41
TORSDOF 12
ENDMDL
MODEL 2
REMARK minimizedAffinity -7.69574738
REMARK CNNscore 0.350381762
REMARK CNNaffinity 6.62368441
REMARK  12 active torsions:
REMARK  status: ('A' for Active; 'I' for Inactive)
REMARK    1  A    between atoms: C2_2  and  C3_3 
REMARK    2  A    between atoms: C2_2  and  C9_10 
REMARK    3  A    between atoms: C3_3  and  C4_4 
REMARK    4  A    between atoms: C5_5  and  C6_6 
REMARK    5  A    between atoms: C6_6  and  O1_9 
REMARK    6  A    between atoms: C27_30  and  O4_31 
REMARK    7  A    between atoms: O4_31  and  C28_32 
REMARK    8  A    between atoms: C29_34  and  C30_35 
REMARK    9  A    between atoms: C30_35  and  O6_36 
REMARK   10  A    between atoms: C31_37  and  O7_38 
REMARK   11  A    between atoms: C32_39  and  O8_40 
REMARK   12  A    between atoms: C33_41  and  O9_42 
ROOT
HETATM    1  C9  UNL     1       6.941  55.485  -5.598  1.00  0.00    -0.002 C 
HETATM    2  C10 UNL     1       6.650  57.019  -5.574  1.00  0.00     0.006 C 
HETATM    3  C11 UNL     1       5.427  57.279  -6.477  1.00  0.00     0.011 C 
HETATM    4  C12 UNL     1       4.837  55.883  -6.738  1.00  0.00    -0.028 C 
HETATM    5  C13 UNL     1       3.978  55.550  -5.473  1.00  0.00     0.016 C 
HETATM    6  C14 UNL     1       3.984  55.745  -8.039  1.00  0.00     0.035 C 
HETATM    7  C15 UNL     1       2.740  56.621  -8.049  1.00  0.00    -0.021 C 
HETATM    8  C16 UNL     1       1.534  56.127  -8.385  1.00  0.00     0.009 C 
HETATM    9  C17 UNL     1       1.336  54.644  -8.695  1.00  0.00     0.102 C 
HETATM   10  O2  UNL     1       1.910  54.441  -9.999  1.00  0.00    -0.304 OA
HETATM   11  C18 UNL     1       3.260  54.244  -9.867  1.00  0.00     0.270 C 
HETATM   12  O3  UNL     1       4.022  54.141 -10.815  1.00  0.00    -0.264 OA
HETATM   13  C19 UNL     1       3.642  54.231  -8.384  1.00  0.00     0.062 C 
HETATM   14  C20 UNL     1       4.838  53.268  -8.166  1.00  0.00     0.022 C 
HETATM   15  C21 UNL     1       5.730  53.541  -6.940  1.00  0.00     0.011 C 
HETATM   16  C22 UNL     1       6.153  55.020  -6.864  1.00  0.00    -0.032 C 
HETATM   17  C23 UNL     1       7.014  55.352  -8.126  1.00  0.00     0.016 C 
HETATM   18  C24 UNL     1       2.271  53.833  -7.769  1.00  0.00     0.045 C 
HETATM   19  C25 UNL     1       1.900  52.343  -7.678  1.00  0.00     0.012 C 
HETATM   20  C26 UNL     1       1.083  51.843  -8.852  1.00  0.00     0.033 C 
HETATM   21  C27 UNL     1      -0.239  52.606  -9.011  1.00  0.00     0.136 C 
HETATM   22  C34 UNL     1      -0.150  54.151  -8.701  1.00  0.00     0.015 C 
HETATM   23  C35 UNL     1      -0.999  54.942  -9.733  1.00  0.00     0.021 C 
HETATM   24  C36 UNL     1      -0.797  54.403  -7.312  1.00  0.00     0.021 C 
ENDROOT
BRANCH  21  25
HETATM   25  O4  UNL     1      -0.717  52.374 -10.346  1.00  0.00    -0.352 OA
BRANCH  25  26
HETATM   26  C28 UNL     1      -1.907  51.590 -10.422  1.00  0.00     0.292 C 
HETATM   27  O5  UNL     1      -1.636  50.278 -10.922  1.00  0.00    -0.348 OA
HETATM   28  C29 UNL     1      -1.302  50.162 -12.318  1.00  0.00     0.179 C 
HETATM   29  C31 UNL     1      -2.268  50.927 -13.230  1.00  0.00     0.180 C 
HETATM   30  C32 UNL     1      -2.535  52.351 -12.734  1.00  0.00     0.183 C 
HETATM   31  C33 UNL     1      -2.949  52.349 -11.262  1.00  0.00     0.204 C 
BRANCH  28  32
HETATM   32  C30 UNL     1       0.167  50.514 -12.581  1.00  0.00     0.198 C 
BRANCH  32  33
HETATM   33  O6  UNL     1       0.523  50.111 -13.904  1.00  0.00    -0.398 OA
HETATM   34  H44 UNL     1       0.284  49.169 -13.966  1.00  0.00     0.209 HD
ENDBRANCH  32  33
ENDBRANCH  28  32
BRANCH  29  35
HETATM   35  O7  UNL     1      -3.536  50.241 -13.301  1.00  0.00    -0.390 OA
HETATM   36  H46 UNL     1      -3.857  50.162 -12.376  1.00  0.00     0.210 HD
ENDBRANCH  29  35
BRANCH  30  37
HETATM   37  O8  UNL     1      -3.603  52.935 -13.505  1.00  0.00    -0.390 OA
HETATM   38  H48 UNL     1      -4.042  52.185 -13.961  1.00  0.00     0.210 HD
ENDBRANCH  30  37
BRANCH  31  39
HETATM   39  O9  UNL     1      -4.248  51.741 -11.128  1.00  0.00    -0.388 OA
HETATM   40  H50 UNL     1      -4.826  52.263 -11.720  1.00  0.00     0.210 HD
ENDBRANCH  31  39
ENDBRANCH  25  26
ENDBRANCH  21  25
BRANCH   1  41
HETATM   41  C2  UNL     1       8.464  55.181  -5.481  1.00  0.00    -0.010 C 
HETATM   42  C1  UNL     1       8.767  54.029  -4.517  1.00  0.00     0.010 C 
BRANCH  41  43
HETATM   43  C3  UNL     1       9.305  56.425  -5.081  1.00  0.00     0.031 C 
BRANCH  43  44
HETATM   44  C4  UNL     1      10.798  56.229  -5.113  1.00  0.00    -0.027 C 
HETATM   45  C5  UNL     1      11.387  55.027  -4.981  1.00  0.00     0.006 C 
BRANCH  45  46
HETATM   46  C6  UNL     1      12.861  54.705  -5.003  1.00  0.00     0.068 C 
HETATM   47  C7  UNL     1      13.466  54.989  -3.626  1.00  0.00     0.050 C 
HETATM   48  C8  UNL     1      13.216  53.284  -5.452  1.00  0.00     0.050 C 
BRANCH  46  49
HETATM   49  O1  UNL     1      13.437  55.610  -5.949  1.00  0.00    -0.387 OA
HETATM   50  H15 UNL     1      14.403  55.578  -5.847  1.00  0.00     0.211 HD
ENDBRANCH  46  49
ENDBRANCH  45  46
ENDBRANCH  43  44
ENDBRANCH  41  43
ENDBRANCH   1  41
TORSDOF 12
ENDMDL
MODEL 3
REMARK minimizedAffinity -8.91023159
REMARK CNNscore 0.327526629
REMARK CNNaffinity 7.11550665
REMARK  12 active torsions:
REMARK  status: ('A' for Active; 'I' for Inactive)
REMARK    1  A    between atoms: C2_2  and  C3_3 
REMARK    2  A    between atoms: C2_2  and  C9_10 
REMARK    3  A    between atoms: C3_3  and  C4_4 
REMARK    4  A    between atoms: C5_5  and  C6_6 
REMARK    5  A    between atoms: C6_6  and  O1_9 
REMARK    6  A    between atoms: C27_30  and  O4_31 
REMARK    7  A    between atoms: O4_31  and  C28_32 
REMARK    8  A    between atoms: C29_34  and  C30_35 
REMARK    9  A    between atoms: C30_35  and  O6_36 
REMARK   10  A    between atoms: C31_37  and  O7_38 
REMARK   11  A    between atoms: C32_39  and  O8_40 
REMARK   12  A    between atoms: C33_41  and  O9_42 
ROOT
HETATM    1  C9  UNL     1      -2.962  50.552 -25.265  1.00  0.00    -0.002 C 
HETATM    2  C10 UNL     1      -3.115  52.088 -25.032  1.00  0.00     0.006 C 
HETATM    3  C11 UNL     1      -3.450  52.305 -23.541  1.00  0.00     0.011 C 
HETATM    4  C12 UNL     1      -3.162  50.946 -22.881  1.00  0.00    -0.028 C 
HETATM    5  C13 UNL     1      -1.615  50.915 -22.648  1.00  0.00     0.016 C 
HETATM    6  C14 UNL     1      -3.928  50.670 -21.548  1.00  0.00     0.035 C 
HETATM    7  C15 UNL     1      -3.583  51.645 -20.432  1.00  0.00    -0.021 C 
HETATM    8  C16 UNL     1      -3.276  51.216 -19.193  1.00  0.00     0.009 C 
HETATM    9  C17 UNL     1      -3.180  49.728 -18.863  1.00  0.00     0.102 C 
HETATM   10  O2  UNL     1      -4.538  49.253 -18.816  1.00  0.00    -0.304 OA
HETATM   11  C18 UNL     1      -4.952  48.956 -20.088  1.00  0.00     0.270 C 
HETATM   12  O3  UNL     1      -6.093  48.623 -20.364  1.00  0.00    -0.264 OA
HETATM   13  C19 UNL     1      -3.796  49.159 -21.073  1.00  0.00     0.062 C 
HETATM   14  C20 UNL     1      -3.921  48.139 -22.234  1.00  0.00     0.022 C 
HETATM   15  C21 UNL     1      -3.265  48.531 -23.571  1.00  0.00     0.011 C 
HETATM   16  C22 UNL     1      -3.662  49.955 -24.002  1.00  0.00    -0.032 C 
HETATM   17  C23 UNL     1      -5.207  49.986 -24.238  1.00  0.00     0.016 C 
HETATM   18  C24 UNL     1      -2.597  49.001 -20.097  1.00  0.00     0.045 C 
HETATM   19  C25 UNL     1      -2.072  47.589 -19.784  1.00  0.00     0.012 C 
HETATM   20  C26 UNL     1      -2.671  46.977 -18.535  1.00  0.00     0.033 C 
HETATM   21  C27 UNL     1      -2.401  47.822 -17.282  1.00  0.00     0.136 C 
HETATM   22  C34 UNL     1      -2.463  49.383 -17.515  1.00  0.00     0.015 C 
HETATM   23  C35 UNL     1      -3.173  50.063 -16.313  1.00  0.00     0.021 C 
HETATM   24  C36 UNL     1      -1.008  49.926 -17.535  1.00  0.00     0.021 C 
ENDROOT
BRANCH  21  25
HETATM   25  O4  UNL     1      -3.337  47.413 -16.273  1.00  0.00    -0.352 OA
BRANCH  25  26
HETATM   26  C28 UNL     1      -4.043  46.209 -16.572  1.00  0.00     0.292 C 
HETATM   27  O5  UNL     1      -5.201  46.065 -15.745  1.00  0.00    -0.348 OA
HETATM   28  C29 UNL     1      -4.982  45.758 -14.355  1.00  0.00     0.179 C 
HETATM   29  C31 UNL     1      -3.989  44.610 -14.144  1.00  0.00     0.180 C 
HETATM   30  C32 UNL     1      -2.722  44.770 -14.989  1.00  0.00     0.183 C 
HETATM   31  C33 UNL     1      -3.072  45.021 -16.457  1.00  0.00     0.204 C 
BRANCH  28  32
HETATM   32  C30 UNL     1      -4.621  47.011 -13.548  1.00  0.00     0.198 C 
BRANCH  32  33
HETATM   33  O6  UNL     1      -3.531  47.683 -14.178  1.00  0.00    -0.398 OA
HETATM   34  H44 UNL     1      -2.830  47.014 -14.277  1.00  0.00     0.209 HD
ENDBRANCH  32  33
ENDBRANCH  28  32
BRANCH  29  35
HETATM   35  O7  UNL     1      -4.599  43.350 -14.502  1.00  0.00    -0.390 OA
HETATM   36  H46 UNL     1      -4.893  43.444 -15.435  1.00  0.00     0.210 HD
ENDBRANCH  29  35
BRANCH  30  37
HETATM   37  O8  UNL     1      -1.936  43.565 -14.909  1.00  0.00    -0.390 OA
HETATM   38  H48 UNL     1      -2.539  42.879 -14.551  1.00  0.00     0.210 HD
ENDBRANCH  30  37
BRANCH  31  39
HETATM   39  O9  UNL     1      -3.655  43.832 -17.023  1.00  0.00    -0.388 OA
HETATM   40  H50 UNL     1      -2.986  43.134 -16.870  1.00  0.00     0.210 HD
ENDBRANCH  31  39
ENDBRANCH  25  26
ENDBRANCH  21  25
BRANCH   1  41
HETATM   41  C2  UNL     1      -3.443  50.131 -26.686  1.00  0.00    -0.010 C 
HETATM   42  C1  UNL     1      -3.298  48.626 -26.939  1.00  0.00     0.010 C 
BRANCH  41  43
HETATM   43  C3  UNL     1      -2.737  50.916 -27.827  1.00  0.00     0.031 C 
BRANCH  43  44
HETATM   44  C4  UNL     1      -1.571  51.766 -27.396  1.00  0.00    -0.027 C 
HETATM   45  C5  UNL     1      -0.295  51.342 -27.438  1.00  0.00     0.006 C 
BRANCH  45  46
HETATM   46  C6  UNL     1       0.951  52.098 -27.044  1.00  0.00     0.068 C 
HETATM   47  C7  UNL     1       1.243  51.859 -25.560  1.00  0.00     0.050 C 
HETATM   48  C8  UNL     1       2.196  51.794 -27.882  1.00  0.00     0.050 C 
BRANCH  46  49
HETATM   49  O1  UNL     1       0.635  53.480 -27.229  1.00  0.00    -0.387 OA
HETATM   50  H15 UNL     1       1.328  54.007 -26.799  1.00  0.00     0.211 HD
ENDBRANCH  46  49
ENDBRANCH  45  46
ENDBRANCH  43  44
ENDBRANCH  41  43
ENDBRANCH   1  41
TORSDOF 12
ENDMDL
MODEL 4
REMARK minimizedAffinity -7.93253136
REMARK CNNscore 0.308707803
REMARK CNNaffinity 6.67807531
REMARK  12 active torsions:
REMARK  status: ('A' for Active; 'I' for Inactive)
REMARK    1  A    between atoms: C2_2  and  C3_3 
REMARK    2  A    between atoms: C2_2  and  C9_10 
REMARK    3  A    between atoms: C3_3  and  C4_4 
REMARK    4  A    between atoms: C5_5  and  C6_6 
REMARK    5  A    between atoms: C6_6  and  O1_9 
REMARK    6  A    between atoms: C27_30  and  O4_31 
REMARK    7  A    between atoms: O4_31  and  C28_32 
REMARK    8  A    between atoms: C29_34  and  C30_35 
REMARK    9  A    between atoms: C30_35  and  O6_36 
REMARK   10  A    between atoms: C31_37  and  O7_38 
REMARK   11  A    between atoms: C32_39  and  O8_40 
REMARK   12  A    between atoms: C33_41  and  O9_42 
ROOT
HETATM    1  C9  UNL     1       5.885  55.389  -5.615  1.00  0.00    -0.002 C 
HETATM    2  C10 UNL     1       5.181  56.580  -4.891  1.00  0.00     0.006 C 
HETATM    3  C11 UNL     1       3.872  56.883  -5.651  1.00  0.00     0.011 C 
HETATM    4  C12 UNL     1       3.679  55.674  -6.582  1.00  0.00    -0.028 C 
HETATM    5  C13 UNL     1       3.038  54.559  -5.690  1.00  0.00     0.016 C 
HETATM    6  C14 UNL     1       2.808  55.935  -7.851  1.00  0.00     0.035 C 
HETATM    7  C15 UNL     1       1.372  56.326  -7.537  1.00  0.00    -0.021 C 
HETATM    8  C16 UNL     1       0.330  55.735  -8.153  1.00  0.00     0.009 C 
HETATM    9  C17 UNL     1       0.532  54.586  -9.139  1.00  0.00     0.102 C 
HETATM   10  O2  UNL     1       1.047  55.192 -10.339  1.00  0.00    -0.304 OA
HETATM   11  C18 UNL     1       2.404  55.341 -10.219  1.00  0.00     0.270 C 
HETATM   12  O3  UNL     1       3.094  55.915 -11.044  1.00  0.00    -0.264 OA
HETATM   13  C19 UNL     1       2.878  54.737  -8.893  1.00  0.00     0.062 C 
HETATM   14  C20 UNL     1       4.307  54.161  -9.069  1.00  0.00     0.022 C 
HETATM   15  C21 UNL     1       5.173  54.060  -7.799  1.00  0.00     0.011 C 
HETATM   16  C22 UNL     1       5.170  55.378  -7.004  1.00  0.00    -0.032 C 
HETATM   17  C23 UNL     1       5.813  56.491  -7.894  1.00  0.00     0.016 C 
HETATM   18  C24 UNL     1       1.720  53.731  -8.640  1.00  0.00     0.045 C 
HETATM   19  C25 UNL     1       1.787  52.338  -9.291  1.00  0.00     0.012 C 
HETATM   20  C26 UNL     1       1.061  52.248 -10.617  1.00  0.00     0.033 C 
HETATM   21  C27 UNL     1      -0.430  52.592 -10.493  1.00  0.00     0.136 C 
HETATM   22  C34 UNL     1      -0.754  53.763  -9.484  1.00  0.00     0.015 C 
HETATM   23  C35 UNL     1      -1.860  54.675 -10.080  1.00  0.00     0.021 C 
HETATM   24  C36 UNL     1      -1.345  53.138  -8.192  1.00  0.00     0.021 C 
ENDROOT
BRANCH  21  25
HETATM   25  O4  UNL     1      -0.917  52.895 -11.810  1.00  0.00    -0.352 OA
BRANCH  25  26
HETATM   26  C28 UNL     1      -0.924  51.786 -12.708  1.00  0.00     0.292 C 
HETATM   27  O5  UNL     1      -1.942  51.929 -13.703  1.00  0.00    -0.348 OA
HETATM   28  C29 UNL     1      -3.308  51.770 -13.273  1.00  0.00     0.179 C 
HETATM   29  C31 UNL     1      -3.525  50.519 -12.416  1.00  0.00     0.180 C 
HETATM   30  C32 UNL     1      -2.469  50.373 -11.316  1.00  0.00     0.183 C 
HETATM   31  C33 UNL     1      -1.058  50.487 -11.895  1.00  0.00     0.204 C 
BRANCH  28  32
HETATM   32  C30 UNL     1      -3.845  53.045 -12.610  1.00  0.00     0.198 C 
BRANCH  32  33
HETATM   33  O6  UNL     1      -4.257  53.968 -13.618  1.00  0.00    -0.398 OA
HETATM   34  H44 UNL     1      -3.489  54.076 -14.207  1.00  0.00     0.209 HD
ENDBRANCH  32  33
ENDBRANCH  28  32
BRANCH  29  35
HETATM   35  O7  UNL     1      -3.468  49.334 -13.240  1.00  0.00    -0.390 OA
HETATM   36  H46 UNL     1      -2.592  49.352 -13.686  1.00  0.00     0.210 HD
ENDBRANCH  29  35
BRANCH  30  37
HETATM   37  O8  UNL     1      -2.601  49.081 -10.693  1.00  0.00    -0.390 OA
HETATM   38  H48 UNL     1      -3.154  48.548 -11.303  1.00  0.00     0.210 HD
ENDBRANCH  30  37
BRANCH  31  39
HETATM   39  O9  UNL     1      -0.782  49.340 -12.722  1.00  0.00    -0.388 OA
HETATM   40  H50 UNL     1      -0.928  48.572 -12.133  1.00  0.00     0.210 HD
ENDBRANCH  31  39
ENDBRANCH  25  26
ENDBRANCH  21  25
BRANCH   1  41
HETATM   41  C2  UNL     1       7.437  55.504  -5.546  1.00  0.00    -0.010 C 
HETATM   42  C1  UNL     1       8.073  54.421  -4.668  1.00  0.00     0.010 C 
BRANCH  41  43
HETATM   43  C3  UNL     1       7.924  56.903  -5.075  1.00  0.00     0.031 C 
BRANCH  43  44
HETATM   44  C4  UNL     1       9.248  56.915  -4.357  1.00  0.00    -0.027 C 
HETATM   45  C5  UNL     1      10.417  57.176  -4.970  1.00  0.00     0.006 C 
BRANCH  45  46
HETATM   46  C6  UNL     1      11.797  57.224  -4.361  1.00  0.00     0.068 C 
HETATM   47  C7  UNL     1      12.314  58.665  -4.385  1.00  0.00     0.050 C 
HETATM   48  C8  UNL     1      11.911  56.645  -2.948  1.00  0.00     0.050 C 
BRANCH  46  49
HETATM   49  O1  UNL     1      12.622  56.431  -5.219  1.00  0.00    -0.387 OA
HETATM   50  H15 UNL     1      13.549  56.597  -4.982  1.00  0.00     0.211 HD
ENDBRANCH  46  49
ENDBRANCH  45  46
ENDBRANCH  43  44
ENDBRANCH  41  43
ENDBRANCH   1  41
TORSDOF 12
ENDMDL
MODEL 5
REMARK minimizedAffinity -7.9335928
REMARK CNNscore 0.259914577
REMARK CNNaffinity 6.69782114
REMARK  12 active torsions:
REMARK  status: ('A' for Active; 'I' for Inactive)
REMARK    1  A    between atoms: C2_2  and  C3_3 
REMARK    2  A    between atoms: C2_2  and  C9_10 
REMARK    3  A    between atoms: C3_3  and  C4_4 
REMARK    4  A    between atoms: C5_5  and  C6_6 
REMARK    5  A    between atoms: C6_6  and  O1_9 
REMARK    6  A    between atoms: C27_30  and  O4_31 
REMARK    7  A    between atoms: O4_31  and  C28_32 
REMARK    8  A    between atoms: C29_34  and  C30_35 
REMARK    9  A    between atoms: C30_35  and  O6_36 
REMARK   10  A    between atoms: C31_37  and  O7_38 
REMARK   11  A    between atoms: C32_39  and  O8_40 
REMARK   12  A    between atoms: C33_41  and  O9_42 
ROOT
HETATM    1  C9  UNL     1       4.708  56.416  -5.422  1.00  0.00    -0.002 C 
HETATM    2  C10 UNL     1       3.808  57.607  -4.963  1.00  0.00     0.006 C 
HETATM    3  C11 UNL     1       2.545  57.609  -5.849  1.00  0.00     0.011 C 
HETATM    4  C12 UNL     1       2.577  56.250  -6.568  1.00  0.00    -0.028 C 
HETATM    5  C13 UNL     1       1.996  55.221  -5.542  1.00  0.00     0.016 C 
HETATM    6  C14 UNL     1       1.796  56.184  -7.919  1.00  0.00     0.035 C 
HETATM    7  C15 UNL     1       0.302  56.431  -7.773  1.00  0.00    -0.021 C 
HETATM    8  C16 UNL     1      -0.605  55.617  -8.346  1.00  0.00     0.009 C 
HETATM    9  C17 UNL     1      -0.185  54.359  -9.103  1.00  0.00     0.102 C 
HETATM   10  O2  UNL     1       0.359  54.823 -10.353  1.00  0.00    -0.304 OA
HETATM   11  C18 UNL     1       1.673  55.165 -10.169  1.00  0.00     0.270 C 
HETATM   12  O3  UNL     1       2.361  55.681 -11.034  1.00  0.00    -0.264 OA
HETATM   13  C19 UNL     1       2.097  54.852  -8.731  1.00  0.00     0.062 C 
HETATM   14  C20 UNL     1       3.594  54.446  -8.710  1.00  0.00     0.022 C 
HETATM   15  C21 UNL     1       4.350  54.667  -7.387  1.00  0.00     0.011 C 
HETATM   16  C22 UNL     1       4.124  56.086  -6.833  1.00  0.00    -0.032 C 
HETATM   17  C23 UNL     1       4.707  57.113  -7.857  1.00  0.00     0.016 C 
HETATM   18  C24 UNL     1       1.047  53.759  -8.386  1.00  0.00     0.045 C 
HETATM   19  C25 UNL     1       1.333  52.299  -8.780  1.00  0.00     0.012 C 
HETATM   20  C26 UNL     1       0.741  51.900 -10.116  1.00  0.00     0.033 C 
HETATM   21  C27 UNL     1      -0.784  52.063 -10.153  1.00  0.00     0.136 C 
HETATM   22  C34 UNL     1      -1.330  53.330  -9.385  1.00  0.00     0.015 C 
HETATM   23  C35 UNL     1      -2.479  53.982 -10.202  1.00  0.00     0.021 C 
HETATM   24  C36 UNL     1      -1.955  52.853  -8.046  1.00  0.00     0.021 C 
ENDROOT
BRANCH  21  25
HETATM   25  O4  UNL     1      -1.186  52.081 -11.532  1.00  0.00    -0.352 OA
BRANCH  25  26
HETATM   26  C28 UNL     1      -1.513  50.801 -12.071  1.00  0.00     0.292 C 
HETATM   27  O5  UNL     1      -0.425  50.261 -12.827  1.00  0.00    -0.348 OA
HETATM   28  C29 UNL     1      -0.137  50.879 -14.096  1.00  0.00     0.179 C 
HETATM   29  C31 UNL     1      -1.385  51.078 -14.962  1.00  0.00     0.180 C 
HETATM   30  C32 UNL     1      -2.547  51.697 -14.180  1.00  0.00     0.183 C 
HETATM   31  C33 UNL     1      -2.811  50.921 -12.888  1.00  0.00     0.204 C 
BRANCH  28  32
HETATM   32  C30 UNL     1       0.681  52.165 -13.928  1.00  0.00     0.198 C 
BRANCH  32  33
HETATM   33  O6  UNL     1       1.062  52.657 -15.212  1.00  0.00    -0.398 OA
HETATM   34  H44 UNL     1       1.508  51.915 -15.658  1.00  0.00     0.209 HD
ENDBRANCH  32  33
ENDBRANCH  28  32
BRANCH  29  35
HETATM   35  O7  UNL     1      -1.835  49.811 -15.489  1.00  0.00    -0.390 OA
HETATM   36  H46 UNL     1      -1.991  49.231 -14.711  1.00  0.00     0.210 HD
ENDBRANCH  29  35
BRANCH  30  37
HETATM   37  O8  UNL     1      -3.742  51.658 -14.984  1.00  0.00    -0.390 OA
HETATM   38  H48 UNL     1      -3.555  51.021 -15.706  1.00  0.00     0.210 HD
ENDBRANCH  30  37
BRANCH  31  39
HETATM   39  O9  UNL     1      -3.332  49.617 -13.207  1.00  0.00    -0.388 OA
HETATM   40  H50 UNL     1      -4.124  49.795 -13.753  1.00  0.00     0.210 HD
ENDBRANCH  31  39
ENDBRANCH  25  26
ENDBRANCH  21  25
BRANCH   1  41
HETATM   41  C2  UNL     1       6.224  56.742  -5.271  1.00  0.00    -0.010 C 
HETATM   42  C1  UNL     1       6.551  58.203  -5.597  1.00  0.00     0.010 C 
BRANCH  41  43
HETATM   43  C3  UNL     1       7.136  55.808  -6.114  1.00  0.00     0.031 C 
BRANCH  43  44
HETATM   44  C4  UNL     1       8.615  56.053  -5.971  1.00  0.00    -0.027 C 
HETATM   45  C5  UNL     1       9.213  56.286  -4.789  1.00  0.00     0.006 C 
BRANCH  45  46
HETATM   46  C6  UNL     1      10.677  56.536  -4.520  1.00  0.00     0.068 C 
HETATM   47  C7  UNL     1      10.953  58.042  -4.563  1.00  0.00     0.050 C 
HETATM   48  C8  UNL     1      11.216  55.938  -3.217  1.00  0.00     0.050 C 
BRANCH  46  49
HETATM   49  O1  UNL     1      11.377  55.914  -5.600  1.00  0.00    -0.387 OA
HETATM   50  H15 UNL     1      12.299  56.220  -5.577  1.00  0.00     0.211 HD
ENDBRANCH  46  49
ENDBRANCH  45  46
ENDBRANCH  43  44
ENDBRANCH  41  43
ENDBRANCH   1  41
TORSDOF 12
ENDMDL
MODEL 6
REMARK minimizedAffinity -7.66395426
REMARK CNNscore 0.253709376
REMARK CNNaffinity 6.26678133
REMARK  12 active torsions:
REMARK  status: ('A' for Active; 'I' for Inactive)
REMARK    1  A    between atoms: C2_2  and  C3_3 
REMARK    2  A    between atoms: C2_2  and  C9_10 
REMARK    3  A    between atoms: C3_3  and  C4_4 
REMARK    4  A    between atoms: C5_5  and  C6_6 
REMARK    5  A    between atoms: C6_6  and  O1_9 
REMARK    6  A    between atoms: C27_30  and  O4_31 
REMARK    7  A    between atoms: O4_31  and  C28_32 
REMARK    8  A    between atoms: C29_34  and  C30_35 
REMARK    9  A    between atoms: C30_35  and  O6_36 
REMARK   10  A    between atoms: C31_37  and  O7_38 
REMARK   11  A    between atoms: C32_39  and  O8_40 
REMARK   12  A    between atoms: C33_41  and  O9_42 
ROOT
HETATM    1  C9  UNL     1       6.461  57.398  -6.265  1.00  0.00    -0.002 C 
HETATM    2  C10 UNL     1       7.428  56.238  -5.869  1.00  0.00     0.006 C 
HETATM    3  C11 UNL     1       6.742  54.907  -6.241  1.00  0.00     0.011 C 
HETATM    4  C12 UNL     1       5.558  55.321  -7.132  1.00  0.00    -0.028 C 
HETATM    5  C13 UNL     1       6.166  55.540  -8.558  1.00  0.00     0.016 C 
HETATM    6  C14 UNL     1       4.371  54.309  -7.187  1.00  0.00     0.035 C 
HETATM    7  C15 UNL     1       4.748  52.955  -7.770  1.00  0.00    -0.021 C 
HETATM    8  C16 UNL     1       4.002  52.367  -8.723  1.00  0.00     0.009 C 
HETATM    9  C17 UNL     1       2.783  53.062  -9.327  1.00  0.00     0.102 C 
HETATM   10  O2  UNL     1       1.758  52.991  -8.319  1.00  0.00    -0.304 OA
HETATM   11  C18 UNL     1       1.926  54.027  -7.438  1.00  0.00     0.270 C 
HETATM   12  O3  UNL     1       1.260  54.164  -6.425  1.00  0.00    -0.264 OA
HETATM   13  C19 UNL     1       3.085  54.918  -7.896  1.00  0.00     0.062 C 
HETATM   14  C20 UNL     1       2.800  56.387  -7.489  1.00  0.00     0.022 C 
HETATM   15  C21 UNL     1       4.024  57.305  -7.312  1.00  0.00     0.011 C 
HETATM   16  C22 UNL     1       5.098  56.652  -6.421  1.00  0.00    -0.032 C 
HETATM   17  C23 UNL     1       4.492  56.437  -4.996  1.00  0.00     0.016 C 
HETATM   18  C24 UNL     1       3.089  54.575  -9.412  1.00  0.00     0.045 C 
HETATM   19  C25 UNL     1       2.140  55.339 -10.351  1.00  0.00     0.012 C 
HETATM   20  C26 UNL     1       0.819  54.637 -10.590  1.00  0.00     0.033 C 
HETATM   21  C27 UNL     1       1.000  53.243 -11.205  1.00  0.00     0.136 C 
HETATM   22  C34 UNL     1       2.244  52.439 -10.659  1.00  0.00     0.015 C 
HETATM   23  C35 UNL     1       1.858  50.947 -10.463  1.00  0.00     0.021 C 
HETATM   24  C36 UNL     1       3.354  52.469 -11.744  1.00  0.00     0.021 C 
ENDROOT
BRANCH  21  25
HETATM   25  O4  UNL     1      -0.219  52.514 -10.995  1.00  0.00    -0.352 OA
BRANCH  25  26
HETATM   26  C28 UNL     1      -1.391  53.165 -11.483  1.00  0.00     0.292 C 
HETATM   27  O5  UNL     1      -2.162  53.721 -10.413  1.00  0.00    -0.348 OA
HETATM   28  C29 UNL     1      -2.861  52.796  -9.558  1.00  0.00     0.179 C 
HETATM   29  C31 UNL     1      -3.652  51.740 -10.338  1.00  0.00     0.180 C 
HETATM   30  C32 UNL     1      -2.827  51.102 -11.460  1.00  0.00     0.183 C 
HETATM   31  C33 UNL     1      -2.190  52.173 -12.346  1.00  0.00     0.204 C 
BRANCH  28  32
HETATM   32  C30 UNL     1      -1.930  52.183  -8.505  1.00  0.00     0.198 C 
BRANCH  32  33
HETATM   33  O6  UNL     1      -1.351  53.225  -7.719  1.00  0.00    -0.398 OA
HETATM   34  H44 UNL     1      -0.942  53.839  -8.355  1.00  0.00     0.209 HD
ENDBRANCH  32  33
ENDBRANCH  28  32
BRANCH  29  35
HETATM   35  O7  UNL     1      -4.823  52.335 -10.938  1.00  0.00    -0.390 OA
HETATM   36  H46 UNL     1      -4.498  53.071 -11.501  1.00  0.00     0.210 HD
ENDBRANCH  29  35
BRANCH  30  37
HETATM   37  O8  UNL     1      -3.684  50.285 -12.280  1.00  0.00    -0.390 OA
HETATM   38  H48 UNL     1      -4.601  50.558 -12.060  1.00  0.00     0.210 HD
ENDBRANCH  30  37
BRANCH  31  39
HETATM   39  O9  UNL     1      -3.216  52.858 -13.088  1.00  0.00    -0.388 OA
HETATM   40  H50 UNL     1      -3.687  52.148 -13.570  1.00  0.00     0.210 HD
ENDBRANCH  31  39
ENDBRANCH  25  26
ENDBRANCH  21  25
BRANCH   1  41
HETATM   41  C2  UNL     1       6.574  58.606  -5.287  1.00  0.00    -0.010 C 
HETATM   42  C1  UNL     1       8.025  58.973  -4.963  1.00  0.00     0.010 C 
BRANCH  41  43
HETATM   43  C3  UNL     1       5.786  58.395  -3.964  1.00  0.00     0.031 C 
BRANCH  43  44
HETATM   44  C4  UNL     1       5.365  59.657  -3.258  1.00  0.00    -0.027 C 
HETATM   45  C5  UNL     1       4.641  60.626  -3.849  1.00  0.00     0.006 C 
BRANCH  45  46
HETATM   46  C6  UNL     1       4.156  61.922  -3.247  1.00  0.00     0.068 C 
HETATM   47  C7  UNL     1       5.090  62.337  -2.108  1.00  0.00     0.050 C 
HETATM   48  C8  UNL     1       3.983  63.080  -4.235  1.00  0.00     0.050 C 
BRANCH  46  49
HETATM   49  O1  UNL     1       2.869  61.632  -2.697  1.00  0.00    -0.387 OA
HETATM   50  H15 UNL     1       2.609  62.375  -2.129  1.00  0.00     0.211 HD
ENDBRANCH  46  49
ENDBRANCH  45  46
ENDBRANCH  43  44
ENDBRANCH  41  43
ENDBRANCH   1  41
TORSDOF 12
ENDMDL
MODEL 7
REMARK minimizedAffinity -8.32594776
REMARK CNNscore 0.252622247
REMARK CNNaffinity 6.47130775
REMARK  12 active torsions:
REMARK  status: ('A' for Active; 'I' for Inactive)
REMARK    1  A    between atoms: C2_2  and  C3_3 
REMARK    2  A    between atoms: C2_2  and  C9_10 
REMARK    3  A    between atoms: C3_3  and  C4_4 
REMARK    4  A    between atoms: C5_5  and  C6_6 
REMARK    5  A    between atoms: C6_6  and  O1_9 
REMARK    6  A    between atoms: C27_30  and  O4_31 
REMARK    7  A    between atoms: O4_31  and  C28_32 
REMARK    8  A    between atoms: C29_34  and  C30_35 
REMARK    9  A    between atoms: C30_35  and  O6_36 
REMARK   10  A    between atoms: C31_37  and  O7_38 
REMARK   11  A    between atoms: C32_39  and  O8_40 
REMARK   12  A    between atoms: C33_41  and  O9_42 
ROOT
HETATM    1  C9  UNL     1      -4.229  50.060 -23.866  1.00  0.00    -0.002 C 
HETATM    2  C10 UNL     1      -4.651  49.149 -25.062  1.00  0.00     0.006 C 
HETATM    3  C11 UNL     1      -5.543  48.022 -24.501  1.00  0.00     0.011 C 
HETATM    4  C12 UNL     1      -5.890  48.479 -23.074  1.00  0.00    -0.028 C 
HETATM    5  C13 UNL     1      -7.072  49.492 -23.236  1.00  0.00     0.016 C 
HETATM    6  C14 UNL     1      -6.270  47.340 -22.076  1.00  0.00     0.035 C 
HETATM    7  C15 UNL     1      -7.521  46.571 -22.475  1.00  0.00    -0.021 C 
HETATM    8  C16 UNL     1      -8.508  46.327 -21.593  1.00  0.00     0.009 C 
HETATM    9  C17 UNL     1      -8.462  46.877 -20.169  1.00  0.00     0.102 C 
HETATM   10  O2  UNL     1      -7.488  46.076 -19.475  1.00  0.00    -0.304 OA
HETATM   11  C18 UNL     1      -6.237  46.580 -19.722  1.00  0.00     0.270 C 
HETATM   12  O3  UNL     1      -5.209  46.046 -19.342  1.00  0.00    -0.264 OA
HETATM   13  C19 UNL     1      -6.346  47.850 -20.573  1.00  0.00     0.062 C 
HETATM   14  C20 UNL     1      -5.199  48.823 -20.197  1.00  0.00     0.022 C 
HETATM   15  C21 UNL     1      -4.769  49.834 -21.277  1.00  0.00     0.011 C 
HETATM   16  C22 UNL     1      -4.529  49.147 -22.634  1.00  0.00    -0.032 C 
HETATM   17  C23 UNL     1      -3.346  48.138 -22.473  1.00  0.00     0.016 C 
HETATM   18  C24 UNL     1      -7.799  48.273 -20.217  1.00  0.00     0.045 C 
HETATM   19  C25 UNL     1      -8.042  49.110 -18.949  1.00  0.00     0.012 C 
HETATM   20  C26 UNL     1      -8.396  48.284 -17.730  1.00  0.00     0.033 C 
HETATM   21  C27 UNL     1      -9.663  47.444 -17.939  1.00  0.00     0.136 C 
HETATM   22  C34 UNL     1      -9.818  46.836 -19.388  1.00  0.00     0.015 C 
HETATM   23  C35 UNL     1     -10.364  45.385 -19.290  1.00  0.00     0.021 C 
HETATM   24  C36 UNL     1     -10.892  47.661 -20.147  1.00  0.00     0.021 C 
ENDROOT
BRANCH  21  25
HETATM   25  O4  UNL     1      -9.669  46.411 -16.941  1.00  0.00    -0.352 OA
BRANCH  25  26
HETATM   26  C28 UNL     1     -10.608  46.613 -15.886  1.00  0.00     0.292 C 
HETATM   27  O5  UNL     1      -9.956  47.010 -14.676  1.00  0.00    -0.348 OA
HETATM   28  C29 UNL     1      -9.182  46.010 -13.987  1.00  0.00     0.179 C 
HETATM   29  C31 UNL     1      -9.933  44.685 -13.816  1.00  0.00     0.180 C 
HETATM   30  C32 UNL     1     -10.602  44.220 -15.113  1.00  0.00     0.183 C 
HETATM   31  C33 UNL     1     -11.452  45.337 -15.720  1.00  0.00     0.204 C 
BRANCH  28  32
HETATM   32  C30 UNL     1      -7.796  45.830 -14.620  1.00  0.00     0.198 C 
BRANCH  32  33
HETATM   33  O6  UNL     1      -6.970  46.943 -14.278  1.00  0.00    -0.398 OA
HETATM   34  H44 UNL     1      -7.470  47.735 -14.546  1.00  0.00     0.209 HD
ENDBRANCH  32  33
ENDBRANCH  28  32
BRANCH  29  35
HETATM   35  O7  UNL     1     -10.964  44.821 -12.815  1.00  0.00    -0.390 OA
HETATM   36  H46 UNL     1     -11.541  45.559 -13.114  1.00  0.00     0.210 HD
ENDBRANCH  29  35
BRANCH  30  37
HETATM   37  O8  UNL     1     -11.459  43.096 -14.835  1.00  0.00    -0.390 OA
HETATM   38  H48 UNL     1     -11.584  43.093 -13.862  1.00  0.00     0.210 HD
ENDBRANCH  30  37
BRANCH  31  39
HETATM   39  O9  UNL     1     -12.591  45.588 -14.876  1.00  0.00    -0.388 OA
HETATM   40  H50 UNL     1     -13.038  44.720 -14.800  1.00  0.00     0.210 HD
ENDBRANCH  31  39
ENDBRANCH  25  26
ENDBRANCH  21  25
BRANCH   1  41
HETATM   41  C2  UNL     1      -2.800  50.649 -24.061  1.00  0.00    -0.010 C 
HETATM   42  C1  UNL     1      -2.762  52.174 -23.910  1.00  0.00     0.010 C 
BRANCH  41  43
HETATM   43  C3  UNL     1      -2.155  50.248 -25.416  1.00  0.00     0.031 C 
BRANCH  43  44
HETATM   44  C4  UNL     1      -1.172  51.240 -25.979  1.00  0.00    -0.027 C 
HETATM   45  C5  UNL     1       0.090  50.918 -26.315  1.00  0.00     0.006 C 
BRANCH  45  46
HETATM   46  C6  UNL     1       1.158  51.816 -26.891  1.00  0.00     0.068 C 
HETATM   47  C7  UNL     1       2.534  51.341 -26.416  1.00  0.00     0.050 C 
HETATM   48  C8  UNL     1       1.146  51.956 -28.416  1.00  0.00     0.050 C 
BRANCH  46  49
HETATM   49  O1  UNL     1       0.909  53.111 -26.339  1.00  0.00    -0.387 OA
HETATM   50  H15 UNL     1       1.683  53.670 -26.519  1.00  0.00     0.211 HD
ENDBRANCH  46  49
ENDBRANCH  45  46
ENDBRANCH  43  44
ENDBRANCH  41  43
ENDBRANCH   1  41
TORSDOF 12
ENDMDL
MODEL 8
REMARK minimizedAffinity -7.73161936
REMARK CNNscore 0.241867036
REMARK CNNaffinity 5.79045057
REMARK  12 active torsions:
REMARK  status: ('A' for Active; 'I' for Inactive)
REMARK    1  A    between atoms: C2_2  and  C3_3 
REMARK    2  A    between atoms: C2_2  and  C9_10 
REMARK    3  A    between atoms: C3_3  and  C4_4 
REMARK    4  A    between atoms: C5_5  and  C6_6 
REMARK    5  A    between atoms: C6_6  and  O1_9 
REMARK    6  A    between atoms: C27_30  and  O4_31 
REMARK    7  A    between atoms: O4_31  and  C28_32 
REMARK    8  A    between atoms: C29_34  and  C30_35 
REMARK    9  A    between atoms: C30_35  and  O6_36 
REMARK   10  A    between atoms: C31_37  and  O7_38 
REMARK   11  A    between atoms: C32_39  and  O8_40 
REMARK   12  A    between atoms: C33_41  and  O9_42 
ROOT
HETATM    1  C9  UNL     1     -10.793  46.854 -29.005  1.00  0.00    -0.002 C 
HETATM    2  C10 UNL     1     -11.025  45.669 -29.996  1.00  0.00     0.006 C 
HETATM    3  C11 UNL     1     -12.060  44.719 -29.357  1.00  0.00     0.011 C 
HETATM    4  C12 UNL     1     -12.646  45.522 -28.183  1.00  0.00    -0.028 C 
HETATM    5  C13 UNL     1     -13.727  46.459 -28.817  1.00  0.00     0.016 C 
HETATM    6  C14 UNL     1     -13.261  44.672 -27.027  1.00  0.00     0.035 C 
HETATM    7  C15 UNL     1     -14.449  43.825 -27.456  1.00  0.00    -0.021 C 
HETATM    8  C16 UNL     1     -15.595  43.810 -26.750  1.00  0.00     0.009 C 
HETATM    9  C17 UNL     1     -15.791  44.703 -25.526  1.00  0.00     0.102 C 
HETATM   10  O2  UNL     1     -15.004  44.105 -24.480  1.00  0.00    -0.304 OA
HETATM   11  C18 UNL     1     -13.707  44.532 -24.597  1.00  0.00     0.270 C 
HETATM   12  O3  UNL     1     -12.794  44.113 -23.904  1.00  0.00    -0.264 OA
HETATM   13  C19 UNL     1     -13.593  45.545 -25.741  1.00  0.00     0.062 C 
HETATM   14  C20 UNL     1     -12.492  46.584 -25.404  1.00  0.00     0.022 C 
HETATM   15  C21 UNL     1     -11.820  47.290 -26.597  1.00  0.00     0.011 C 
HETATM   16  C22 UNL     1     -11.362  46.282 -27.668  1.00  0.00    -0.032 C 
HETATM   17  C23 UNL     1     -10.280  45.348 -27.035  1.00  0.00     0.016 C 
HETATM   18  C24 UNL     1     -15.065  46.042 -25.790  1.00  0.00     0.045 C 
HETATM   19  C25 UNL     1     -15.503  47.172 -24.842  1.00  0.00     0.012 C 
HETATM   20  C26 UNL     1     -16.117  46.681 -23.548  1.00  0.00     0.033 C 
HETATM   21  C27 UNL     1     -17.361  45.814 -23.783  1.00  0.00     0.136 C 
HETATM   22  C34 UNL     1     -17.270  44.858 -25.037  1.00  0.00     0.015 C 
HETATM   23  C35 UNL     1     -17.893  43.479 -24.689  1.00  0.00     0.021 C 
HETATM   24  C36 UNL     1     -18.142  45.463 -26.170  1.00  0.00     0.021 C 
ENDROOT
BRANCH  21  25
HETATM   25  O4  UNL     1     -17.604  45.067 -22.581  1.00  0.00    -0.352 OA
BRANCH  25  26
HETATM   26  C28 UNL     1     -18.927  45.194 -22.061  1.00  0.00     0.292 C 
HETATM   27  O5  UNL     1     -19.067  46.384 -21.279  1.00  0.00    -0.348 OA
HETATM   28  C29 UNL     1     -18.409  46.411 -19.999  1.00  0.00     0.179 C 
HETATM   29  C31 UNL     1     -18.671  45.152 -19.165  1.00  0.00     0.180 C 
HETATM   30  C32 UNL     1     -18.481  43.865 -19.973  1.00  0.00     0.183 C 
HETATM   31  C33 UNL     1     -19.279  43.918 -21.278  1.00  0.00     0.204 C 
BRANCH  28  32
HETATM   32  C30 UNL     1     -16.916  46.734 -20.135  1.00  0.00     0.198 C 
BRANCH  32  33
HETATM   33  O6  UNL     1     -16.245  46.396 -18.921  1.00  0.00    -0.398 OA
HETATM   34  H44 UNL     1     -16.727  46.862 -18.214  1.00  0.00     0.209 HD
ENDBRANCH  32  33
ENDBRANCH  28  32
BRANCH  29  35
HETATM   35  O7  UNL     1     -20.024  45.159 -18.661  1.00  0.00    -0.390 OA
HETATM   36  H46 UNL     1     -20.609  45.232 -19.447  1.00  0.00     0.210 HD
ENDBRANCH  29  35
BRANCH  30  37
HETATM   37  O8  UNL     1     -18.946  42.741 -19.202  1.00  0.00    -0.390 OA
HETATM   38  H48 UNL     1     -19.491  43.122 -18.480  1.00  0.00     0.210 HD
ENDBRANCH  30  37
BRANCH  31  39
HETATM   39  O9  UNL     1     -20.688  43.876 -20.983  1.00  0.00    -0.388 OA
HETATM   40  H50 UNL     1     -20.805  43.058 -20.457  1.00  0.00     0.210 HD
ENDBRANCH  31  39
ENDBRANCH  25  26
ENDBRANCH  21  25
BRANCH   1  41
HETATM   41  C2  UNL     1      -9.327  47.377 -29.060  1.00  0.00    -0.010 C 
HETATM   42  C1  UNL     1      -9.023  48.406 -27.966  1.00  0.00     0.010 C 
BRANCH  41  43
HETATM   43  C3  UNL     1      -8.940  47.966 -30.445  1.00  0.00     0.031 C 
BRANCH  43  44
HETATM   44  C4  UNL     1      -8.156  47.044 -31.340  1.00  0.00    -0.027 C 
HETATM   45  C5  UNL     1      -6.830  46.849 -31.217  1.00  0.00     0.006 C 
BRANCH  45  46
HETATM   46  C6  UNL     1      -5.941  45.951 -32.043  1.00  0.00     0.068 C 
HETATM   47  C7  UNL     1      -4.485  46.402 -31.897  1.00  0.00     0.050 C 
HETATM   48  C8  UNL     1      -6.062  44.454 -31.746  1.00  0.00     0.050 C 
BRANCH  46  49
HETATM   49  O1  UNL     1      -6.346  46.153 -33.400  1.00  0.00    -0.387 OA
HETATM   50  H15 UNL     1      -5.675  45.754 -33.977  1.00  0.00     0.211 HD
ENDBRANCH  46  49
ENDBRANCH  45  46
ENDBRANCH  43  44
ENDBRANCH  41  43
ENDBRANCH   1  41
TORSDOF 12
ENDMDL
MODEL 9
REMARK minimizedAffinity -8.00827217
REMARK CNNscore 0.230153844
REMARK CNNaffinity 6.37406397
REMARK  12 active torsions:
REMARK  status: ('A' for Active; 'I' for Inactive)
REMARK    1  A    between atoms: C2_2  and  C3_3 
REMARK    2  A    between atoms: C2_2  and  C9_10 
REMARK    3  A    between atoms: C3_3  and  C4_4 
REMARK    4  A    between atoms: C5_5  and  C6_6 
REMARK    5  A    between atoms: C6_6  and  O1_9 
REMARK    6  A    between atoms: C27_30  and  O4_31 
REMARK    7  A    between atoms: O4_31  and  C28_32 
REMARK    8  A    between atoms: C29_34  and  C30_35 
REMARK    9  A    between atoms: C30_35  and  O6_36 
REMARK   10  A    between atoms: C31_37  and  O7_38 
REMARK   11  A    between atoms: C32_39  and  O8_40 
REMARK   12  A    between atoms: C33_41  and  O9_42 
ROOT
HETATM    1  C9  UNL     1      -7.200  47.212 -29.970  1.00  0.00    -0.002 C 
HETATM    2  C10 UNL     1      -6.620  48.351 -30.869  1.00  0.00     0.006 C 
HETATM    3  C11 UNL     1      -6.908  47.981 -32.339  1.00  0.00     0.011 C 
HETATM    4  C12 UNL     1      -7.921  46.827 -32.254  1.00  0.00    -0.028 C 
HETATM    5  C13 UNL     1      -9.312  47.507 -32.031  1.00  0.00     0.016 C 
HETATM    6  C14 UNL     1      -7.962  45.875 -33.491  1.00  0.00     0.035 C 
HETATM    7  C15 UNL     1      -8.379  46.567 -34.781  1.00  0.00    -0.021 C 
HETATM    8  C16 UNL     1      -9.322  46.045 -35.587  1.00  0.00     0.009 C 
HETATM    9  C17 UNL     1     -10.080  44.774 -35.212  1.00  0.00     0.102 C 
HETATM   10  O2  UNL     1      -9.148  43.694 -35.410  1.00  0.00    -0.304 OA
HETATM   11  C18 UNL     1      -8.364  43.569 -34.293  1.00  0.00     0.270 C 
HETATM   12  O3  UNL     1      -7.421  42.799 -34.215  1.00  0.00    -0.264 OA
HETATM   13  C19 UNL     1      -8.821  44.565 -33.222  1.00  0.00     0.062 C 
HETATM   14  C20 UNL     1      -8.584  43.956 -31.816  1.00  0.00     0.022 C 
HETATM   15  C21 UNL     1      -8.409  44.950 -30.653  1.00  0.00     0.011 C 
HETATM   16  C22 UNL     1      -7.381  46.046 -30.993  1.00  0.00    -0.032 C 
HETATM   17  C23 UNL     1      -5.991  45.366 -31.212  1.00  0.00     0.016 C 
HETATM   18  C24 UNL     1     -10.291  44.777 -33.680  1.00  0.00     0.045 C 
HETATM   19  C25 UNL     1     -11.369  43.786 -33.209  1.00  0.00     0.012 C 
HETATM   20  C26 UNL     1     -11.634  42.660 -34.187  1.00  0.00     0.033 C 
HETATM   21  C27 UNL     1     -12.092  43.172 -35.559  1.00  0.00     0.136 C 
HETATM   22  C34 UNL     1     -11.379  44.495 -36.040  1.00  0.00     0.015 C 
HETATM   23  C35 UNL     1     -11.065  44.399 -37.558  1.00  0.00     0.021 C 
HETATM   24  C36 UNL     1     -12.377  45.672 -35.869  1.00  0.00     0.021 C 
ENDROOT
BRANCH  21  25
HETATM   25  O4  UNL     1     -11.901  42.108 -36.505  1.00  0.00    -0.352 OA
BRANCH  25  26
HETATM   26  C28 UNL     1     -12.549  40.885 -36.160  1.00  0.00     0.292 C 
HETATM   27  O5  UNL     1     -12.053  39.794 -36.942  1.00  0.00    -0.348 OA
HETATM   28  C29 UNL     1     -12.423  39.762 -38.334  1.00  0.00     0.179 C 
HETATM   29  C31 UNL     1     -13.922  39.985 -38.560  1.00  0.00     0.180 C 
HETATM   30  C32 UNL     1     -14.462  41.178 -37.765  1.00  0.00     0.183 C 
HETATM   31  C33 UNL     1     -14.070  41.073 -36.290  1.00  0.00     0.204 C 
BRANCH  28  32
HETATM   32  C30 UNL     1     -11.549  40.700 -39.175  1.00  0.00     0.198 C 
BRANCH  32  33
HETATM   33  O6  UNL     1     -12.143  40.877 -40.461  1.00  0.00    -0.398 OA
HETATM   34  H44 UNL     1     -12.281  39.980 -40.814  1.00  0.00     0.209 HD
ENDBRANCH  32  33
ENDBRANCH  28  32
BRANCH  29  35
HETATM   35  O7  UNL     1     -14.668  38.816 -38.159  1.00  0.00    -0.390 OA
HETATM   36  H46 UNL     1     -14.437  38.653 -37.218  1.00  0.00     0.210 HD
ENDBRANCH  29  35
BRANCH  30  37
HETATM   37  O8  UNL     1     -15.900  41.201 -37.852  1.00  0.00    -0.390 OA
HETATM   38  H48 UNL     1     -16.160  40.312 -38.177  1.00  0.00     0.210 HD
ENDBRANCH  30  37
BRANCH  31  39
HETATM   39  O9  UNL     1     -14.771  39.971 -35.682  1.00  0.00    -0.388 OA
HETATM   40  H50 UNL     1     -15.718  40.160 -35.848  1.00  0.00     0.210 HD
ENDBRANCH  31  39
ENDBRANCH  25  26
ENDBRANCH  21  25
BRANCH   1  41
HETATM   41  C2  UNL     1      -6.341  46.990 -28.690  1.00  0.00    -0.010 C 
HETATM   42  C1  UNL     1      -7.135  47.213 -27.398  1.00  0.00     0.010 C 
BRANCH  41  43
HETATM   43  C3  UNL     1      -5.053  47.859 -28.661  1.00  0.00     0.031 C 
BRANCH  43  44
HETATM   44  C4  UNL     1      -4.645  48.360 -27.300  1.00  0.00    -0.027 C 
HETATM   45  C5  UNL     1      -3.625  49.214 -27.104  1.00  0.00     0.006 C 
BRANCH  45  46
HETATM   46  C6  UNL     1      -3.129  49.788 -25.799  1.00  0.00     0.068 C 
HETATM   47  C7  UNL     1      -3.123  48.692 -24.729  1.00  0.00     0.050 C 
HETATM   48  C8  UNL     1      -1.760  50.473 -25.861  1.00  0.00     0.050 C 
BRANCH  46  49
HETATM   49  O1  UNL     1      -4.089  50.781 -25.428  1.00  0.00    -0.387 OA
HETATM   50  H15 UNL     1      -3.922  51.031 -24.504  1.00  0.00     0.211 HD
ENDBRANCH  46  49
ENDBRANCH  45  46
ENDBRANCH  43  44
ENDBRANCH  41  43
ENDBRANCH   1  41
TORSDOF 12
ENDMDL
