MODEL 1
REMARK minimizedAffinity -7.65829277
REMARK CNNscore 0.538042665
REMARK CNNaffinity 6.77244043
REMARK  4 active torsions:
REMARK  status: ('A' for Active; 'I' for Inactive)
REMARK    1  A    between atoms: C13_15  and  C14_16 
REMARK    2  A    between atoms: C14_16  and  C16_18 
REMARK    3  A    between atoms: C16_18  and  C17_19 
REMARK    4  A    between atoms: C17_19  and  C18_20 
ROOT
HETATM    1  C1  UNL     1       1.832   7.509   7.470  1.00  0.00     0.047 C 
HETATM    2  C2  UNL     1       2.027   7.305   8.780  1.00  0.00     0.052 C 
HETATM    3  O1  UNL     1       3.365   7.129   9.229  1.00  0.00    -0.284 OA
HETATM    4  C3  UNL     1       3.758   5.994   9.885  1.00  0.00     0.263 C 
HETATM    5  O2  UNL     1       4.914   5.840  10.271  1.00  0.00    -0.265 OA
HETATM    6  C4  UNL     1       2.693   4.955  10.119  1.00  0.00     0.112 C 
HETATM    7  C5  UNL     1       1.790   5.360  11.277  1.00  0.00     0.021 C 
HETATM    8  C6  UNL     1       1.349   6.823  11.227  1.00  0.00    -0.022 A 
HETATM    9  C7  UNL     1       2.121   7.788  12.092  1.00  0.00     0.022 A 
HETATM   10  C8  UNL     1       0.688   7.460  12.485  1.00  0.00    -0.027 A 
HETATM   11  C9  UNL     1       0.504   6.561  13.716  1.00  0.00     0.011 C 
HETATM   12  C10 UNL     1      -0.075   7.190  14.995  1.00  0.00     0.011 C 
HETATM   13  C11 UNL     1      -0.599   8.622  14.828  1.00  0.00    -0.032 C 
HETATM   14  C12 UNL     1       0.616   9.581  14.938  1.00  0.00     0.016 C 
HETATM   15  C13 UNL     1      -1.720   9.058  15.829  1.00  0.00    -0.002 C 
HETATM   16  C22 UNL     1      -2.535  10.123  15.041  1.00  0.00     0.006 C 
HETATM   17  C23 UNL     1      -2.063  10.061  13.578  1.00  0.00     0.011 C 
HETATM   18  C24 UNL     1      -1.355   8.698  13.450  1.00  0.00    -0.032 C 
HETATM   19  C25 UNL     1      -2.474   7.626  13.260  1.00  0.00     0.016 C 
HETATM   20  C26 UNL     1      -0.327   8.613  12.291  1.00  0.00     0.004 C 
HETATM   21  C27 UNL     1      -0.963   8.571  10.895  1.00  0.00     0.007 C 
HETATM   22  C28 UNL     1       0.118   8.586   9.822  1.00  0.00     0.012 C 
HETATM   23  C29 UNL     1       0.906   7.265   9.818  1.00  0.00     0.051 C 
ENDROOT
BRANCH  15  24
HETATM   24  C14 UNL     1      -1.428   9.454  17.309  1.00  0.00    -0.014 C 
HETATM   25  C15 UNL     1      -2.615   9.992  18.117  1.00  0.00     0.010 C 
BRANCH  24  26
HETATM   26  C16 UNL     1      -0.192  10.383  17.405  1.00  0.00     0.008 C 
BRANCH  26  27
HETATM   27  C17 UNL     1      -0.353  11.600  18.331  1.00  0.00     0.028 C 
BRANCH  27  28
HETATM   28  C18 UNL     1       0.683  11.679  19.418  1.00  0.00    -0.025 C 
HETATM   29  C19 UNL     1       1.002  12.734  20.193  1.00  0.00    -0.091 C 
HETATM   30  C20 UNL     1       2.073  12.611  21.246  1.00  0.00     0.042 C 
HETATM   31  C21 UNL     1       0.373  14.098  20.116  1.00  0.00     0.042 C 
ENDBRANCH  27  28
ENDBRANCH  26  27
ENDBRANCH  24  26
ENDBRANCH  15  24
TORSDOF 4
ENDMDL
MODEL 2
REMARK minimizedAffinity -6.49561548
REMARK CNNscore 0.434830904
REMARK CNNaffinity 6.63772249
REMARK  4 active torsions:
REMARK  status: ('A' for Active; 'I' for Inactive)
REMARK    1  A    between atoms: C13_15  and  C14_16 
REMARK    2  A    between atoms: C14_16  and  C16_18 
REMARK    3  A    between atoms: C16_18  and  C17_19 
REMARK    4  A    between atoms: C17_19  and  C18_20 
ROOT
HETATM    1  C1  UNL     1      -6.211   2.230  10.320  1.00  0.00     0.047 C 
HETATM    2  C2  UNL     1      -5.210   2.939  10.861  1.00  0.00     0.052 C 
HETATM    3  O1  UNL     1      -3.991   3.020  10.133  1.00  0.00    -0.284 OA
HETATM    4  C3  UNL     1      -2.806   2.588  10.666  1.00  0.00     0.263 C 
HETATM    5  O2  UNL     1      -1.754   2.656  10.038  1.00  0.00    -0.265 OA
HETATM    6  C4  UNL     1      -2.866   2.040  12.069  1.00  0.00     0.112 C 
HETATM    7  C5  UNL     1      -2.958   3.170  13.085  1.00  0.00     0.021 C 
HETATM    8  C6  UNL     1      -3.970   4.253  12.708  1.00  0.00    -0.022 A 
HETATM    9  C7  UNL     1      -3.413   5.497  12.059  1.00  0.00     0.022 A 
HETATM   10  C8  UNL     1      -3.954   5.607  13.477  1.00  0.00    -0.027 A 
HETATM   11  C9  UNL     1      -2.917   5.770  14.597  1.00  0.00     0.011 C 
HETATM   12  C10 UNL     1      -2.833   7.127  15.317  1.00  0.00     0.011 C 
HETATM   13  C11 UNL     1      -3.953   8.113  14.965  1.00  0.00    -0.032 C 
HETATM   14  C12 UNL     1      -3.554   8.821  13.643  1.00  0.00     0.016 C 
HETATM   15  C13 UNL     1      -4.294   9.176  16.061  1.00  0.00    -0.002 C 
HETATM   16  C22 UNL     1      -5.797   9.496  15.821  1.00  0.00     0.006 C 
HETATM   17  C23 UNL     1      -6.329   8.445  14.831  1.00  0.00     0.011 C 
HETATM   18  C24 UNL     1      -5.297   7.302  14.878  1.00  0.00    -0.032 C 
HETATM   19  C25 UNL     1      -5.628   6.450  16.145  1.00  0.00     0.016 C 
HETATM   20  C26 UNL     1      -5.277   6.400  13.615  1.00  0.00     0.004 C 
HETATM   21  C27 UNL     1      -6.499   5.481  13.486  1.00  0.00     0.007 C 
HETATM   22  C28 UNL     1      -6.440   4.707  12.175  1.00  0.00     0.012 C 
HETATM   23  C29 UNL     1      -5.303   3.672  12.198  1.00  0.00     0.051 C 
ENDROOT
BRANCH  15  24
HETATM   24  C14 UNL     1      -3.414  10.438  16.323  1.00  0.00    -0.014 C 
HETATM   25  C15 UNL     1      -2.191  10.240  17.225  1.00  0.00     0.010 C 
BRANCH  24  26
HETATM   26  C16 UNL     1      -4.281  11.639  16.775  1.00  0.00     0.008 C 
BRANCH  26  27
HETATM   27  C17 UNL     1      -3.574  12.655  17.687  1.00  0.00     0.028 C 
BRANCH  27  28
HETATM   28  C18 UNL     1      -4.113  12.692  19.090  1.00  0.00    -0.025 C 
HETATM   29  C19 UNL     1      -5.229  13.300  19.540  1.00  0.00    -0.091 C 
HETATM   30  C20 UNL     1      -5.612  13.212  20.995  1.00  0.00     0.042 C 
HETATM   31  C21 UNL     1      -6.186  14.103  18.703  1.00  0.00     0.042 C 
ENDBRANCH  27  28
ENDBRANCH  26  27
ENDBRANCH  24  26
ENDBRANCH  15  24
TORSDOF 4
ENDMDL
MODEL 3
REMARK minimizedAffinity -6.88156748
REMARK CNNscore 0.414900988
REMARK CNNaffinity 6.65454483
REMARK  4 active torsions:
REMARK  status: ('A' for Active; 'I' for Inactive)
REMARK    1  A    between atoms: C13_15  and  C14_16 
REMARK    2  A    between atoms: C14_16  and  C16_18 
REMARK    3  A    between atoms: C16_18  and  C17_19 
REMARK    4  A    between atoms: C17_19  and  C18_20 
ROOT
HETATM    1  C1  UNL     1      -6.164   2.249  10.236  1.00  0.00     0.047 C 
HETATM    2  C2  UNL     1      -5.207   2.979  10.824  1.00  0.00     0.052 C 
HETATM    3  O1  UNL     1      -3.969   3.119  10.139  1.00  0.00    -0.284 OA
HETATM    4  C3  UNL     1      -2.787   2.717  10.702  1.00  0.00     0.263 C 
HETATM    5  O2  UNL     1      -1.718   2.836  10.110  1.00  0.00    -0.265 OA
HETATM    6  C4  UNL     1      -2.872   2.137  12.090  1.00  0.00     0.112 C 
HETATM    7  C5  UNL     1      -3.037   3.240  13.126  1.00  0.00     0.021 C 
HETATM    8  C6  UNL     1      -4.074   4.295  12.738  1.00  0.00    -0.022 A 
HETATM    9  C7  UNL     1      -3.542   5.572  12.134  1.00  0.00     0.022 A 
HETATM   10  C8  UNL     1      -4.132   5.632  13.536  1.00  0.00    -0.027 A 
HETATM   11  C9  UNL     1      -3.137   5.806  14.692  1.00  0.00     0.011 C 
HETATM   12  C10 UNL     1      -3.125   7.150  15.443  1.00  0.00     0.011 C 
HETATM   13  C11 UNL     1      -4.268   8.104  15.074  1.00  0.00    -0.032 C 
HETATM   14  C12 UNL     1      -3.852   8.854  13.781  1.00  0.00     0.016 C 
HETATM   15  C13 UNL     1      -4.682   9.130  16.180  1.00  0.00    -0.002 C 
HETATM   16  C22 UNL     1      -6.186   9.402  15.897  1.00  0.00     0.006 C 
HETATM   17  C23 UNL     1      -6.648   8.355  14.869  1.00  0.00     0.011 C 
HETATM   18  C24 UNL     1      -5.579   7.248  14.926  1.00  0.00    -0.032 C 
HETATM   19  C25 UNL     1      -5.920   6.358  16.164  1.00  0.00     0.016 C 
HETATM   20  C26 UNL     1      -5.486   6.375  13.646  1.00  0.00     0.004 C 
HETATM   21  C27 UNL     1      -6.669   5.417  13.458  1.00  0.00     0.007 C 
HETATM   22  C28 UNL     1      -6.541   4.674  12.133  1.00  0.00     0.012 C 
HETATM   23  C29 UNL     1      -5.369   3.679  12.173  1.00  0.00     0.051 C 
ENDROOT
BRANCH  15  24
HETATM   24  C14 UNL     1      -3.856  10.416  16.497  1.00  0.00    -0.014 C 
HETATM   25  C15 UNL     1      -4.028  11.591  15.527  1.00  0.00     0.010 C 
BRANCH  24  26
HETATM   26  C16 UNL     1      -2.365  10.075  16.739  1.00  0.00     0.008 C 
BRANCH  26  27
HETATM   27  C17 UNL     1      -1.894  10.181  18.198  1.00  0.00     0.028 C 
BRANCH  27  28
HETATM   28  C18 UNL     1      -1.388  11.547  18.577  1.00  0.00    -0.025 C 
HETATM   29  C19 UNL     1      -0.377  11.861  19.410  1.00  0.00    -0.091 C 
HETATM   30  C20 UNL     1      -0.010  13.302  19.654  1.00  0.00     0.042 C 
HETATM   31  C21 UNL     1       0.472  10.877  20.167  1.00  0.00     0.042 C 
ENDBRANCH  27  28
ENDBRANCH  26  27
ENDBRANCH  24  26
ENDBRANCH  15  24
TORSDOF 4
ENDMDL
MODEL 4
REMARK minimizedAffinity -6.65670824
REMARK CNNscore 0.350969255
REMARK CNNaffinity 6.41086721
REMARK  4 active torsions:
REMARK  status: ('A' for Active; 'I' for Inactive)
REMARK    1  A    between atoms: C13_15  and  C14_16 
REMARK    2  A    between atoms: C14_16  and  C16_18 
REMARK    3  A    between atoms: C16_18  and  C17_19 
REMARK    4  A    between atoms: C17_19  and  C18_20 
ROOT
HETATM    1  C1  UNL     1       3.693   4.967   8.761  1.00  0.00     0.047 C 
HETATM    2  C2  UNL     1       3.320   5.969   9.569  1.00  0.00     0.052 C 
HETATM    3  O1  UNL     1       3.880   7.254   9.327  1.00  0.00    -0.284 OA
HETATM    4  C3  UNL     1       4.600   7.914  10.287  1.00  0.00     0.263 C 
HETATM    5  O2  UNL     1       5.086   9.023  10.078  1.00  0.00    -0.265 OA
HETATM    6  C4  UNL     1       4.748   7.213  11.612  1.00  0.00     0.112 C 
HETATM    7  C5  UNL     1       3.470   7.333  12.431  1.00  0.00     0.021 C 
HETATM    8  C6  UNL     1       2.199   7.058  11.626  1.00  0.00    -0.022 A 
HETATM    9  C7  UNL     1       1.446   8.267  11.125  1.00  0.00     0.022 A 
HETATM   10  C8  UNL     1       0.818   7.440  12.237  1.00  0.00    -0.027 A 
HETATM   11  C9  UNL     1       0.815   8.065  13.639  1.00  0.00     0.011 C 
HETATM   12  C10 UNL     1      -0.532   8.520  14.228  1.00  0.00     0.011 C 
HETATM   13  C11 UNL     1      -1.764   8.105  13.415  1.00  0.00    -0.032 C 
HETATM   14  C12 UNL     1      -1.944   9.141  12.274  1.00  0.00     0.016 C 
HETATM   15  C13 UNL     1      -3.096   7.960  14.223  1.00  0.00    -0.002 C 
HETATM   16  C22 UNL     1      -3.903   6.894  13.430  1.00  0.00     0.006 C 
HETATM   17  C23 UNL     1      -2.942   6.271  12.404  1.00  0.00     0.011 C 
HETATM   18  C24 UNL     1      -1.534   6.632  12.914  1.00  0.00    -0.032 C 
HETATM   19  C25 UNL     1      -1.187   5.606  14.039  1.00  0.00     0.016 C 
HETATM   20  C26 UNL     1      -0.431   6.623  11.822  1.00  0.00     0.004 C 
HETATM   21  C27 UNL     1      -0.048   5.220  11.334  1.00  0.00     0.007 C 
HETATM   22  C28 UNL     1       0.966   5.315  10.200  1.00  0.00     0.012 C 
HETATM   23  C29 UNL     1       2.323   5.820  10.717  1.00  0.00     0.051 C 
ENDROOT
BRANCH  15  24
HETATM   24  C14 UNL     1      -3.947   9.184  14.682  1.00  0.00    -0.014 C 
HETATM   25  C15 UNL     1      -3.412   9.975  15.883  1.00  0.00     0.010 C 
BRANCH  24  26
HETATM   26  C16 UNL     1      -5.436   8.794  14.862  1.00  0.00     0.008 C 
BRANCH  26  27
HETATM   27  C17 UNL     1      -5.682   7.392  15.443  1.00  0.00     0.028 C 
BRANCH  27  28
HETATM   28  C18 UNL     1      -6.956   7.278  16.234  1.00  0.00    -0.025 C 
HETATM   29  C19 UNL     1      -8.226   7.295  15.781  1.00  0.00    -0.091 C 
HETATM   30  C20 UNL     1      -9.380   7.153  16.739  1.00  0.00     0.042 C 
HETATM   31  C21 UNL     1      -8.639   7.451  14.343  1.00  0.00     0.042 C 
ENDBRANCH  27  28
ENDBRANCH  26  27
ENDBRANCH  24  26
ENDBRANCH  15  24
TORSDOF 4
ENDMDL
MODEL 5
REMARK minimizedAffinity -6.72959518
REMARK CNNscore 0.328180373
REMARK CNNaffinity 6.08070898
REMARK  4 active torsions:
REMARK  status: ('A' for Active; 'I' for Inactive)
REMARK    1  A    between atoms: C13_15  and  C14_16 
REMARK    2  A    between atoms: C14_16  and  C16_18 
REMARK    3  A    between atoms: C16_18  and  C17_19 
REMARK    4  A    between atoms: C17_19  and  C18_20 
ROOT
HETATM    1  C1  UNL     1       2.855  13.001  21.305  1.00  0.00     0.047 C 
HETATM    2  C2  UNL     1       2.764  12.384  20.119  1.00  0.00     0.052 C 
HETATM    3  O1  UNL     1       3.850  11.557  19.721  1.00  0.00    -0.284 OA
HETATM    4  C3  UNL     1       4.541  11.790  18.562  1.00  0.00     0.263 C 
HETATM    5  O2  UNL     1       5.481  11.077  18.218  1.00  0.00    -0.265 OA
HETATM    6  C4  UNL     1       4.074  12.955  17.728  1.00  0.00     0.112 C 
HETATM    7  C5  UNL     1       2.816  12.593  16.953  1.00  0.00     0.021 C 
HETATM    8  C6  UNL     1       1.767  11.863  17.793  1.00  0.00    -0.022 A 
HETATM    9  C7  UNL     1       1.727  10.360  17.661  1.00  0.00     0.022 A 
HETATM   10  C8  UNL     1       0.574  11.162  17.077  1.00  0.00    -0.027 A 
HETATM   11  C9  UNL     1       0.515  11.261  15.546  1.00  0.00     0.011 C 
HETATM   12  C10 UNL     1      -0.612  10.511  14.813  1.00  0.00     0.011 C 
HETATM   13  C11 UNL     1      -1.683   9.906  15.727  1.00  0.00    -0.032 C 
HETATM   14  C12 UNL     1      -1.146   8.543  16.240  1.00  0.00     0.016 C 
HETATM   15  C13 UNL     1      -3.099   9.718  15.087  1.00  0.00    -0.002 C 
HETATM   16  C22 UNL     1      -4.074   9.827  16.293  1.00  0.00     0.006 C 
HETATM   17  C23 UNL     1      -3.257  10.340  17.490  1.00  0.00     0.011 C 
HETATM   18  C24 UNL     1      -1.985  10.946  16.868  1.00  0.00    -0.032 C 
HETATM   19  C25 UNL     1      -2.367  12.374  16.364  1.00  0.00     0.016 C 
HETATM   20  C26 UNL     1      -0.771  11.024  17.831  1.00  0.00     0.004 C 
HETATM   21  C27 UNL     1      -0.912  12.090  18.926  1.00  0.00     0.007 C 
HETATM   22  C28 UNL     1       0.277  12.029  19.878  1.00  0.00     0.012 C 
HETATM   23  C29 UNL     1       1.564  12.502  19.181  1.00  0.00     0.051 C 
ENDROOT
BRANCH  15  24
HETATM   24  C14 UNL     1      -3.437   8.555  14.103  1.00  0.00    -0.014 C 
HETATM   25  C15 UNL     1      -2.865   8.675  12.685  1.00  0.00     0.010 C 
BRANCH  24  26
HETATM   26  C16 UNL     1      -4.957   8.257  14.093  1.00  0.00     0.008 C 
BRANCH  26  27
HETATM   27  C17 UNL     1      -5.336   6.770  14.171  1.00  0.00     0.028 C 
BRANCH  27  28
HETATM   28  C18 UNL     1      -6.653   6.443  13.521  1.00  0.00    -0.025 C 
HETATM   29  C19 UNL     1      -7.059   5.268  13.000  1.00  0.00    -0.091 C 
HETATM   30  C20 UNL     1      -8.434   5.135  12.398  1.00  0.00     0.042 C 
HETATM   31  C21 UNL     1      -6.243   4.005  12.950  1.00  0.00     0.042 C 
ENDBRANCH  27  28
ENDBRANCH  26  27
ENDBRANCH  24  26
ENDBRANCH  15  24
TORSDOF 4
ENDMDL
MODEL 6
REMARK minimizedAffinity -7.52503633
REMARK CNNscore 0.277555734
REMARK CNNaffinity 6.17533493
REMARK  4 active torsions:
REMARK  status: ('A' for Active; 'I' for Inactive)
REMARK    1  A    between atoms: C13_15  and  C14_16 
REMARK    2  A    between atoms: C14_16  and  C16_18 
REMARK    3  A    between atoms: C16_18  and  C17_19 
REMARK    4  A    between atoms: C17_19  and  C18_20 
ROOT
HETATM    1  C1  UNL     1      -0.014   7.782   8.995  1.00  0.00     0.047 C 
HETATM    2  C2  UNL     1       0.772   7.965  10.065  1.00  0.00     0.052 C 
HETATM    3  O1  UNL     1       2.146   8.250   9.833  1.00  0.00    -0.284 OA
HETATM    4  C3  UNL     1       3.139   7.451  10.332  1.00  0.00     0.263 C 
HETATM    5  O2  UNL     1       4.326   7.696  10.130  1.00  0.00    -0.265 OA
HETATM    6  C4  UNL     1       2.695   6.268  11.152  1.00  0.00     0.112 C 
HETATM    7  C5  UNL     1       2.288   6.705  12.552  1.00  0.00     0.021 C 
HETATM    8  C6  UNL     1       1.399   7.949  12.572  1.00  0.00    -0.022 A 
HETATM    9  C7  UNL     1       2.086   9.262  12.858  1.00  0.00     0.022 A 
HETATM   10  C8  UNL     1       1.160   8.689  13.921  1.00  0.00    -0.027 A 
HETATM   11  C9  UNL     1       1.830   8.107  15.173  1.00  0.00     0.011 C 
HETATM   12  C10 UNL     1       1.669   8.866  16.502  1.00  0.00     0.011 C 
HETATM   13  C11 UNL     1       0.672  10.030  16.462  1.00  0.00    -0.032 C 
HETATM   14  C12 UNL     1       1.414  11.263  15.879  1.00  0.00     0.016 C 
HETATM   15  C13 UNL     1       0.005  10.403  17.828  1.00  0.00    -0.002 C 
HETATM   16  C22 UNL     1      -1.374  10.997  17.423  1.00  0.00     0.006 C 
HETATM   17  C23 UNL     1      -1.574  10.696  15.928  1.00  0.00     0.011 C 
HETATM   18  C24 UNL     1      -0.570   9.569  15.615  1.00  0.00    -0.032 C 
HETATM   19  C25 UNL     1      -1.228   8.236  16.095  1.00  0.00     0.016 C 
HETATM   20  C26 UNL     1      -0.167   9.462  14.121  1.00  0.00     0.004 C 
HETATM   21  C27 UNL     1      -1.277   8.916  13.213  1.00  0.00     0.007 C 
HETATM   22  C28 UNL     1      -0.827   8.937  11.758  1.00  0.00     0.012 C 
HETATM   23  C29 UNL     1       0.282   7.901  11.511  1.00  0.00     0.051 C 
ENDROOT
BRANCH  15  24
HETATM   24  C14 UNL     1       0.741  11.215  18.939  1.00  0.00    -0.014 C 
HETATM   25  C15 UNL     1       0.353  12.692  19.073  1.00  0.00     0.010 C 
BRANCH  24  26
HETATM   26  C16 UNL     1       2.276  11.023  18.845  1.00  0.00     0.008 C 
BRANCH  26  27
HETATM   27  C17 UNL     1       3.011  10.938  20.192  1.00  0.00     0.028 C 
BRANCH  27  28
HETATM   28  C18 UNL     1       2.610   9.755  21.030  1.00  0.00    -0.025 C 
HETATM   29  C19 UNL     1       2.902   9.510  22.323  1.00  0.00    -0.091 C 
HETATM   30  C20 UNL     1       2.393   8.261  22.997  1.00  0.00     0.042 C 
HETATM   31  C21 UNL     1       3.727  10.395  23.217  1.00  0.00     0.042 C 
ENDBRANCH  27  28
ENDBRANCH  26  27
ENDBRANCH  24  26
ENDBRANCH  15  24
TORSDOF 4
ENDMDL
MODEL 7
REMARK minimizedAffinity -6.29894066
REMARK CNNscore 0.25372535
REMARK CNNaffinity 5.93868971
REMARK  4 active torsions:
REMARK  status: ('A' for Active; 'I' for Inactive)
REMARK    1  A    between atoms: C13_15  and  C14_16 
REMARK    2  A    between atoms: C14_16  and  C16_18 
REMARK    3  A    between atoms: C16_18  and  C17_19 
REMARK    4  A    between atoms: C17_19  and  C18_20 
ROOT
HETATM    1  C1  UNL     1     -10.561  15.866  25.030  1.00  0.00     0.047 C 
HETATM    2  C2  UNL     1     -10.289  14.715  24.399  1.00  0.00     0.052 C 
HETATM    3  O1  UNL     1      -8.922  14.357  24.241  1.00  0.00    -0.284 OA
HETATM    4  C3  UNL     1      -8.373  14.149  23.004  1.00  0.00     0.263 C 
HETATM    5  O2  UNL     1      -7.192  13.841  22.867  1.00  0.00    -0.265 OA
HETATM    6  C4  UNL     1      -9.301  14.304  21.828  1.00  0.00     0.112 C 
HETATM    7  C5  UNL     1     -10.194  13.080  21.681  1.00  0.00     0.021 C 
HETATM    8  C6  UNL     1     -10.803  12.604  23.001  1.00  0.00    -0.022 A 
HETATM    9  C7  UNL     1     -10.111  11.449  23.683  1.00  0.00     0.022 A 
HETATM   10  C8  UNL     1     -11.478  11.202  23.062  1.00  0.00    -0.027 A 
HETATM   11  C9  UNL     1     -11.506  10.375  21.769  1.00  0.00     0.011 C 
HETATM   12  C10 UNL     1     -12.099   8.956  21.828  1.00  0.00     0.011 C 
HETATM   13  C11 UNL     1     -12.791   8.601  23.149  1.00  0.00    -0.032 C 
HETATM   14  C12 UNL     1     -11.691   8.153  24.148  1.00  0.00     0.016 C 
HETATM   15  C13 UNL     1     -13.911   7.512  23.060  1.00  0.00    -0.002 C 
HETATM   16  C22 UNL     1     -14.876   7.869  24.226  1.00  0.00     0.006 C 
HETATM   17  C23 UNL     1     -14.462   9.256  24.746  1.00  0.00     0.011 C 
HETATM   18  C24 UNL     1     -13.608   9.862  23.616  1.00  0.00    -0.032 C 
HETATM   19  C25 UNL     1     -14.603  10.425  22.553  1.00  0.00     0.016 C 
HETATM   20  C26 UNL     1     -12.627  10.973  24.075  1.00  0.00     0.004 C 
HETATM   21  C27 UNL     1     -13.313  12.292  24.454  1.00  0.00     0.007 C 
HETATM   22  C28 UNL     1     -12.287  13.288  24.982  1.00  0.00     0.012 C 
HETATM   23  C29 UNL     1     -11.353  13.762  23.856  1.00  0.00     0.051 C 
ENDROOT
BRANCH  15  24
HETATM   24  C14 UNL     1     -13.604   5.987  22.938  1.00  0.00    -0.014 C 
HETATM   25  C15 UNL     1     -13.993   5.319  21.614  1.00  0.00     0.010 C 
BRANCH  24  26
HETATM   26  C16 UNL     1     -14.146   5.209  24.162  1.00  0.00     0.008 C 
BRANCH  26  27
HETATM   27  C17 UNL     1     -13.989   3.681  24.093  1.00  0.00     0.028 C 
BRANCH  27  28
HETATM   28  C18 UNL     1     -13.520   3.059  25.379  1.00  0.00    -0.025 C 
HETATM   29  C19 UNL     1     -12.464   2.246  25.577  1.00  0.00    -0.091 C 
HETATM   30  C20 UNL     1     -12.146   1.729  26.957  1.00  0.00     0.042 C 
HETATM   31  C21 UNL     1     -11.515   1.768  24.512  1.00  0.00     0.042 C 
ENDBRANCH  27  28
ENDBRANCH  26  27
ENDBRANCH  24  26
ENDBRANCH  15  24
TORSDOF 4
ENDMDL
MODEL 8
REMARK minimizedAffinity -7.06808853
REMARK CNNscore 0.248584956
REMARK CNNaffinity 5.59298706
REMARK  4 active torsions:
REMARK  status: ('A' for Active; 'I' for Inactive)
REMARK    1  A    between atoms: C13_15  and  C14_16 
REMARK    2  A    between atoms: C14_16  and  C16_18 
REMARK    3  A    between atoms: C16_18  and  C17_19 
REMARK    4  A    between atoms: C17_19  and  C18_20 
ROOT
HETATM    1  C1  UNL     1      -0.189   8.535  10.726  1.00  0.00     0.047 C 
HETATM    2  C2  UNL     1       1.101   8.240  10.519  1.00  0.00     0.052 C 
HETATM    3  O1  UNL     1       1.555   8.176   9.172  1.00  0.00    -0.284 OA
HETATM    4  C3  UNL     1       2.117   7.039   8.658  1.00  0.00     0.263 C 
HETATM    5  O2  UNL     1       2.508   6.983   7.495  1.00  0.00    -0.265 OA
HETATM    6  C4  UNL     1       2.244   5.871   9.601  1.00  0.00     0.112 C 
HETATM    7  C5  UNL     1       3.417   6.070  10.551  1.00  0.00     0.021 C 
HETATM    8  C6  UNL     1       3.486   7.474  11.154  1.00  0.00    -0.022 A 
HETATM    9  C7  UNL     1       4.444   8.440  10.501  1.00  0.00     0.022 A 
HETATM   10  C8  UNL     1       4.784   7.920  11.890  1.00  0.00    -0.027 A 
HETATM   11  C9  UNL     1       5.929   6.902  11.980  1.00  0.00     0.011 C 
HETATM   12  C10 UNL     1       7.248   7.349  12.635  1.00  0.00     0.011 C 
HETATM   13  C11 UNL     1       7.196   8.722  13.316  1.00  0.00    -0.032 C 
HETATM   14  C12 UNL     1       7.408   9.798  12.217  1.00  0.00     0.016 C 
HETATM   15  C13 UNL     1       8.212   8.941  14.485  1.00  0.00    -0.002 C 
HETATM   16  C22 UNL     1       7.506   9.973  15.409  1.00  0.00     0.006 C 
HETATM   17  C23 UNL     1       6.051  10.092  14.924  1.00  0.00     0.011 C 
HETATM   18  C24 UNL     1       5.818   8.834  14.066  1.00  0.00    -0.032 C 
HETATM   19  C25 UNL     1       5.518   7.664  15.056  1.00  0.00     0.016 C 
HETATM   20  C26 UNL     1       4.673   8.965  13.027  1.00  0.00     0.004 C 
HETATM   21  C27 UNL     1       3.268   8.975  13.646  1.00  0.00     0.007 C 
HETATM   22  C28 UNL     1       2.218   9.204  12.566  1.00  0.00     0.012 C 
HETATM   23  C29 UNL     1       2.113   7.985  11.635  1.00  0.00     0.051 C 
ENDROOT
BRANCH  15  24
HETATM   24  C14 UNL     1       9.726   9.237  14.249  1.00  0.00    -0.014 C 
HETATM   25  C15 UNL     1      10.643   8.017  14.097  1.00  0.00     0.010 C 
BRANCH  24  26
HETATM   26  C16 UNL     1      10.268  10.244  15.295  1.00  0.00     0.008 C 
BRANCH  26  27
HETATM   27  C17 UNL     1      10.962  11.486  14.714  1.00  0.00     0.028 C 
BRANCH  27  28
HETATM   28  C18 UNL     1      11.947  11.176  13.620  1.00  0.00    -0.025 C 
HETATM   29  C19 UNL     1      13.265  10.915  13.731  1.00  0.00    -0.091 C 
HETATM   30  C20 UNL     1      14.089  10.613  12.506  1.00  0.00     0.042 C 
HETATM   31  C21 UNL     1      14.047  10.893  15.015  1.00  0.00     0.042 C 
ENDBRANCH  27  28
ENDBRANCH  26  27
ENDBRANCH  24  26
ENDBRANCH  15  24
TORSDOF 4
ENDMDL
MODEL 9
REMARK minimizedAffinity -6.27329111
REMARK CNNscore 0.23051025
REMARK CNNaffinity 5.80483484
REMARK  4 active torsions:
REMARK  status: ('A' for Active; 'I' for Inactive)
REMARK    1  A    between atoms: C13_15  and  C14_16 
REMARK    2  A    between atoms: C14_16  and  C16_18 
REMARK    3  A    between atoms: C16_18  and  C17_19 
REMARK    4  A    between atoms: C17_19  and  C18_20 
ROOT
HETATM    1  C1  UNL     1     -19.692  11.544  13.009  1.00  0.00     0.047 C 
HETATM    2  C2  UNL     1     -18.608  10.887  12.574  1.00  0.00     0.052 C 
HETATM    3  O1  UNL     1     -18.300  10.968  11.188  1.00  0.00    -0.284 OA
HETATM    4  C3  UNL     1     -18.216   9.848  10.404  1.00  0.00     0.263 C 
HETATM    5  O2  UNL     1     -17.952   9.917   9.207  1.00  0.00    -0.265 OA
HETATM    6  C4  UNL     1     -18.449   8.530  11.097  1.00  0.00     0.112 C 
HETATM    7  C5  UNL     1     -17.220   8.115  11.893  1.00  0.00     0.021 C 
HETATM    8  C6  UNL     1     -16.615   9.249  12.722  1.00  0.00    -0.022 A 
HETATM    9  C7  UNL     1     -15.423   9.957  12.125  1.00  0.00     0.022 A 
HETATM   10  C8  UNL     1     -15.195   9.066  13.337  1.00  0.00    -0.027 A 
HETATM   11  C9  UNL     1     -14.484   7.730  13.083  1.00  0.00     0.011 C 
HETATM   12  C10 UNL     1     -13.051   7.557  13.616  1.00  0.00     0.011 C 
HETATM   13  C11 UNL     1     -12.564   8.686  14.531  1.00  0.00    -0.032 C 
HETATM   14  C12 UNL     1     -12.059   9.840  13.624  1.00  0.00     0.016 C 
HETATM   15  C13 UNL     1     -11.459   8.295  15.567  1.00  0.00    -0.002 C 
HETATM   16  C22 UNL     1     -11.687   9.278  16.750  1.00  0.00     0.006 C 
HETATM   17  C23 UNL     1     -13.033   9.978  16.502  1.00  0.00     0.011 C 
HETATM   18  C24 UNL     1     -13.757   9.087  15.475  1.00  0.00    -0.032 C 
HETATM   19  C25 UNL     1     -14.385   7.900  16.272  1.00  0.00     0.016 C 
HETATM   20  C26 UNL     1     -14.849   9.815  14.647  1.00  0.00     0.004 C 
HETATM   21  C27 UNL     1     -16.112  10.160  15.447  1.00  0.00     0.007 C 
HETATM   22  C28 UNL     1     -17.084  10.955  14.584  1.00  0.00     0.012 C 
HETATM   23  C29 UNL     1     -17.679  10.073  13.473  1.00  0.00     0.051 C 
ENDROOT
BRANCH  15  24
HETATM   24  C14 UNL     1      -9.958   8.111  15.179  1.00  0.00    -0.014 C 
HETATM   25  C15 UNL     1      -9.126   9.393  15.050  1.00  0.00     0.010 C 
BRANCH  24  26
HETATM   26  C16 UNL     1      -9.812   7.197  13.937  1.00  0.00     0.008 C 
BRANCH  26  27
HETATM   27  C17 UNL     1      -8.423   6.565  13.746  1.00  0.00     0.028 C 
BRANCH  27  28
HETATM   28  C18 UNL     1      -8.461   5.091  13.452  1.00  0.00    -0.025 C 
HETATM   29  C19 UNL     1      -7.426   4.257  13.224  1.00  0.00    -0.091 C 
HETATM   30  C20 UNL     1      -7.669   2.794  12.957  1.00  0.00     0.042 C 
HETATM   31  C21 UNL     1      -5.974   4.650  13.204  1.00  0.00     0.042 C 
ENDBRANCH  27  28
ENDBRANCH  26  27
ENDBRANCH  24  26
ENDBRANCH  15  24
TORSDOF 4
ENDMDL
