MODEL 1
REMARK minimizedAffinity -9.49050903
REMARK  3 active torsions:
REMARK  status: ('A' for Active; 'I' for Inactive)
REMARK    1  A    between atoms: C2_2  and  O1_3 
REMARK    2  A    between atoms: O1_3  and  C3_4 
REMARK    3  A    between atoms: C3_4  and  C4_6 
ROOT
HETATM    1  C4  UNL     1      -6.614   6.257  13.944  1.00  0.00     0.045 C 
HETATM    2  C5  UNL     1      -7.729   7.316  13.898  1.00  0.00     0.026 C 
HETATM    3  C6  UNL     1      -6.309   5.833  15.404  1.00  0.00     0.020 C 
HETATM    4  C7  UNL     1      -5.144   6.611  16.016  1.00  0.00     0.011 C 
HETATM    5  C8  UNL     1      -3.806   6.386  15.253  1.00  0.00    -0.036 C 
HETATM    6  C9  UNL     1      -3.100   5.138  15.846  1.00  0.00     0.016 C 
HETATM    7  C10 UNL     1      -2.900   7.617  15.495  1.00  0.00     0.011 C 
HETATM    8  C11 UNL     1      -1.673   7.706  14.571  1.00  0.00     0.015 C 
HETATM    9  C12 UNL     1      -1.998   7.639  13.045  1.00  0.00    -0.013 C 
HETATM   10  C13 UNL     1      -2.860   8.875  12.663  1.00  0.00     0.021 C 
HETATM   11  C14 UNL     1      -2.823   6.359  12.883  1.00  0.00    -0.070 C 
HETATM   12  C15 UNL     1      -2.390   5.324  12.150  1.00  0.00    -0.022 C 
HETATM   13  C16 UNL     1      -1.052   5.221  11.513  1.00  0.00     0.033 C 
HETATM   14  C17 UNL     1       0.021   6.233  12.026  1.00  0.00     0.007 C 
HETATM   15  C18 UNL     1       1.351   6.114  11.124  1.00  0.00    -0.034 C 
HETATM   16  C19 UNL     1       1.640   4.575  10.978  1.00  0.00     0.016 C 
HETATM   17  C20 UNL     1       2.613   6.684  11.842  1.00  0.00     0.017 C 
HETATM   18  C21 UNL     1       3.442   7.769  11.155  1.00  0.00     0.080 C 
HETATM   19  C22 UNL     1       3.372   7.896   9.651  1.00  0.00     0.135 C 
HETATM   20  O3  UNL     1       4.077   8.734   9.082  1.00  0.00    -0.297 OA
HETATM   21  C23 UNL     1       2.448   6.970   8.870  1.00  0.00     0.017 C 
HETATM   22  C24 UNL     1       3.249   5.690   8.573  1.00  0.00     0.023 C 
HETATM   23  C25 UNL     1       2.120   7.606   7.496  1.00  0.00     0.023 C 
HETATM   24  C26 UNL     1       1.130   6.752   9.706  1.00  0.00     0.009 C 
HETATM   25  C27 UNL     1       0.307   8.070   9.752  1.00  0.00     0.007 C 
HETATM   26  C28 UNL     1      -0.915   8.102  10.670  1.00  0.00     0.011 C 
HETATM   27  C29 UNL     1      -0.630   7.662  12.132  1.00  0.00    -0.028 C 
HETATM   28  C30 UNL     1       0.339   8.697  12.758  1.00  0.00     0.016 C 
HETATM   29  C31 UNL     1      -4.075   6.140  13.736  1.00  0.00     0.024 C 
HETATM   30  C32 UNL     1      -5.350   6.849  13.252  1.00  0.00     0.029 C 
ENDROOT
BRANCH   1  31
HETATM   31  C3  UNL     1      -7.109   5.025  13.171  1.00  0.00     0.267 C 
HETATM   32  O2  UNL     1      -8.272   4.805  12.859  1.00  0.00    -0.264 OA
BRANCH  31  33
HETATM   33  O1  UNL     1      -6.064   4.203  12.865  1.00  0.00    -0.321 OA
BRANCH  33  34
HETATM   34  C2  UNL     1      -6.436   2.983  12.214  1.00  0.00     0.174 C 
HETATM   35  C1  UNL     1      -5.248   2.492  11.410  1.00  0.00     0.034 C 
ENDBRANCH  33  34
ENDBRANCH  31  33
ENDBRANCH   1  31
TORSDOF 3
ENDMDL
MODEL 2
REMARK minimizedAffinity -9.14809132
REMARK  3 active torsions:
REMARK  status: ('A' for Active; 'I' for Inactive)
REMARK    1  A    between atoms: C2_2  and  O1_3 
REMARK    2  A    between atoms: O1_3  and  C3_4 
REMARK    3  A    between atoms: C3_4  and  C4_6 
ROOT
HETATM    1  C4  UNL     1       3.100   7.416  10.907  1.00  0.00     0.045 C 
HETATM    2  C5  UNL     1       4.126   6.330  10.537  1.00  0.00     0.026 C 
HETATM    3  C6  UNL     1       3.687   8.405  11.946  1.00  0.00     0.020 C 
HETATM    4  C7  UNL     1       3.324   8.037  13.385  1.00  0.00     0.011 C 
HETATM    5  C8  UNL     1       1.789   8.062  13.640  1.00  0.00    -0.036 C 
HETATM    6  C9  UNL     1       1.377   9.500  14.054  1.00  0.00     0.016 C 
HETATM    7  C10 UNL     1       1.482   7.110  14.822  1.00  0.00     0.011 C 
HETATM    8  C11 UNL     1      -0.008   6.775  15.009  1.00  0.00     0.015 C 
HETATM    9  C12 UNL     1      -0.714   6.208  13.737  1.00  0.00    -0.013 C 
HETATM   10  C13 UNL     1      -0.055   4.849  13.365  1.00  0.00     0.021 C 
HETATM   11  C14 UNL     1      -0.428   7.242  12.645  1.00  0.00    -0.070 C 
HETATM   12  C15 UNL     1      -1.409   7.939  12.054  1.00  0.00    -0.022 C 
HETATM   13  C16 UNL     1      -2.843   7.901  12.440  1.00  0.00     0.033 C 
HETATM   14  C17 UNL     1      -3.153   7.272  13.835  1.00  0.00     0.007 C 
HETATM   15  C18 UNL     1      -4.747   7.145  14.029  1.00  0.00    -0.034 C 
HETATM   16  C19 UNL     1      -5.352   8.521  13.568  1.00  0.00     0.016 C 
HETATM   17  C20 UNL     1      -5.158   7.018  15.528  1.00  0.00     0.017 C 
HETATM   18  C21 UNL     1      -6.008   5.828  15.976  1.00  0.00     0.080 C 
HETATM   19  C22 UNL     1      -6.858   5.114  14.950  1.00  0.00     0.135 C 
HETATM   20  O3  UNL     1      -7.588   4.186  15.311  1.00  0.00    -0.297 OA
HETATM   21  C23 UNL     1      -6.812   5.572  13.498  1.00  0.00     0.017 C 
HETATM   22  C24 UNL     1      -7.851   6.698  13.354  1.00  0.00     0.023 C 
HETATM   23  C25 UNL     1      -7.288   4.421  12.578  1.00  0.00     0.023 C 
HETATM   24  C26 UNL     1      -5.332   5.983  13.148  1.00  0.00     0.009 C 
HETATM   25  C27 UNL     1      -4.423   4.722  13.120  1.00  0.00     0.007 C 
HETATM   26  C28 UNL     1      -2.917   4.946  12.976  1.00  0.00     0.011 C 
HETATM   27  C29 UNL     1      -2.318   5.949  13.998  1.00  0.00    -0.028 C 
HETATM   28  C30 UNL     1      -2.473   5.334  15.413  1.00  0.00     0.016 C 
HETATM   29  C31 UNL     1       1.011   7.667  12.348  1.00  0.00     0.024 C 
HETATM   30  C32 UNL     1       1.821   6.714  11.454  1.00  0.00     0.029 C 
ENDROOT
BRANCH   1  31
HETATM   31  C3  UNL     1       2.766   8.195   9.625  1.00  0.00     0.267 C 
HETATM   32  O2  UNL     1       3.536   8.394   8.696  1.00  0.00    -0.264 OA
BRANCH  31  33
HETATM   33  O1  UNL     1       1.474   8.632   9.658  1.00  0.00    -0.321 OA
BRANCH  33  34
HETATM   34  C2  UNL     1       0.647   8.124   8.605  1.00  0.00     0.174 C 
HETATM   35  C1  UNL     1       1.546   7.508   7.550  1.00  0.00     0.034 C 
ENDBRANCH  33  34
ENDBRANCH  31  33
ENDBRANCH   1  31
TORSDOF 3
ENDMDL
MODEL 3
REMARK minimizedAffinity -8.42819881
REMARK  3 active torsions:
REMARK  status: ('A' for Active; 'I' for Inactive)
REMARK    1  A    between atoms: C2_2  and  O1_3 
REMARK    2  A    between atoms: O1_3  and  C3_4 
REMARK    3  A    between atoms: C3_4  and  C4_6 
ROOT
HETATM    1  C4  UNL     1      -7.575   4.919  12.942  1.00  0.00     0.045 C 
HETATM    2  C5  UNL     1      -8.537   5.214  11.777  1.00  0.00     0.026 C 
HETATM    3  C6  UNL     1      -8.280   5.115  14.308  1.00  0.00     0.020 C 
HETATM    4  C7  UNL     1      -8.049   6.504  14.902  1.00  0.00     0.011 C 
HETATM    5  C8  UNL     1      -6.546   6.790  15.189  1.00  0.00    -0.036 C 
HETATM    6  C9  UNL     1      -6.207   6.280  16.615  1.00  0.00     0.016 C 
HETATM    7  C10 UNL     1      -6.333   8.323  15.159  1.00  0.00     0.011 C 
HETATM    8  C11 UNL     1      -4.861   8.768  15.114  1.00  0.00     0.015 C 
HETATM    9  C12 UNL     1      -4.024   8.142  13.954  1.00  0.00    -0.013 C 
HETATM   10  C13 UNL     1      -4.615   8.621  12.598  1.00  0.00     0.021 C 
HETATM   11  C14 UNL     1      -4.226   6.632  14.105  1.00  0.00    -0.070 C 
HETATM   12  C15 UNL     1      -3.209   5.804  14.382  1.00  0.00    -0.022 C 
HETATM   13  C16 UNL     1      -1.818   6.225  14.690  1.00  0.00     0.033 C 
HETATM   14  C17 UNL     1      -1.630   7.734  15.045  1.00  0.00     0.007 C 
HETATM   15  C18 UNL     1      -0.058   8.065  15.178  1.00  0.00    -0.034 C 
HETATM   16  C19 UNL     1       0.558   6.909  16.047  1.00  0.00     0.016 C 
HETATM   17  C20 UNL     1       0.210   9.362  16.004  1.00  0.00     0.017 C 
HETATM   18  C21 UNL     1       1.038  10.488  15.386  1.00  0.00     0.080 C 
HETATM   19  C22 UNL     1       1.998  10.156  14.266  1.00  0.00     0.135 C 
HETATM   20  O3  UNL     1       2.710  11.048  13.795  1.00  0.00    -0.297 OA
HETATM   21  C23 UNL     1       2.081   8.721  13.760  1.00  0.00     0.017 C 
HETATM   22  C24 UNL     1       3.104   7.994  14.650  1.00  0.00     0.023 C 
HETATM   23  C25 UNL     1       2.667   8.711  12.327  1.00  0.00     0.023 C 
HETATM   24  C26 UNL     1       0.632   8.101  13.768  1.00  0.00     0.009 C 
HETATM   25  C27 UNL     1      -0.242   8.780  12.677  1.00  0.00     0.007 C 
HETATM   26  C28 UNL     1      -1.732   8.435  12.657  1.00  0.00     0.011 C 
HETATM   27  C29 UNL     1      -2.448   8.607  14.024  1.00  0.00    -0.028 C 
HETATM   28  C30 UNL     1      -2.415  10.113  14.390  1.00  0.00     0.016 C 
HETATM   29  C31 UNL     1      -5.640   6.048  14.159  1.00  0.00     0.024 C 
HETATM   30  C32 UNL     1      -6.340   5.859  12.804  1.00  0.00     0.029 C 
ENDROOT
BRANCH   1  31
HETATM   31  C3  UNL     1      -7.137   3.452  12.822  1.00  0.00     0.267 C 
HETATM   32  O2  UNL     1      -7.806   2.483  13.157  1.00  0.00    -0.264 OA
BRANCH  31  33
HETATM   33  O1  UNL     1      -5.889   3.371  12.276  1.00  0.00    -0.321 OA
BRANCH  33  34
HETATM   34  C2  UNL     1      -5.833   2.689  11.018  1.00  0.00     0.174 C 
HETATM   35  C1  UNL     1      -5.645   1.209  11.289  1.00  0.00     0.034 C 
ENDBRANCH  33  34
ENDBRANCH  31  33
ENDBRANCH   1  31
TORSDOF 3
ENDMDL
MODEL 4
REMARK minimizedAffinity -8.04371834
REMARK  3 active torsions:
REMARK  status: ('A' for Active; 'I' for Inactive)
REMARK    1  A    between atoms: C2_2  and  O1_3 
REMARK    2  A    between atoms: O1_3  and  C3_4 
REMARK    3  A    between atoms: C3_4  and  C4_6 
ROOT
HETATM    1  C4  UNL     1      -3.231   3.227  11.585  1.00  0.00     0.045 C 
HETATM    2  C5  UNL     1      -3.466   1.807  12.129  1.00  0.00     0.026 C 
HETATM    3  C6  UNL     1      -2.072   3.244  10.556  1.00  0.00     0.020 C 
HETATM    4  C7  UNL     1      -0.728   3.617  11.181  1.00  0.00     0.011 C 
HETATM    5  C8  UNL     1      -0.730   5.046  11.796  1.00  0.00    -0.036 C 
HETATM    6  C9  UNL     1      -0.336   6.063  10.692  1.00  0.00     0.016 C 
HETATM    7  C10 UNL     1       0.349   5.094  12.906  1.00  0.00     0.011 C 
HETATM    8  C11 UNL     1       0.274   6.326  13.825  1.00  0.00     0.015 C 
HETATM    9  C12 UNL     1      -1.117   6.558  14.494  1.00  0.00    -0.013 C 
HETATM   10  C13 UNL     1      -1.426   5.356  15.432  1.00  0.00     0.021 C 
HETATM   11  C14 UNL     1      -2.108   6.575  13.327  1.00  0.00    -0.070 C 
HETATM   12  C15 UNL     1      -2.827   7.665  13.023  1.00  0.00    -0.022 C 
HETATM   13  C16 UNL     1      -2.685   8.996  13.667  1.00  0.00     0.033 C 
HETATM   14  C17 UNL     1      -1.384   9.207  14.506  1.00  0.00     0.007 C 
HETATM   15  C18 UNL     1      -1.462  10.620  15.277  1.00  0.00    -0.034 C 
HETATM   16  C19 UNL     1      -1.965  11.666  14.217  1.00  0.00     0.016 C 
HETATM   17  C20 UNL     1      -0.057  11.142  15.709  1.00  0.00     0.017 C 
HETATM   18  C21 UNL     1       0.200  11.482  17.177  1.00  0.00     0.080 C 
HETATM   19  C22 UNL     1      -0.978  11.817  18.063  1.00  0.00     0.135 C 
HETATM   20  O3  UNL     1      -0.778  12.144  19.236  1.00  0.00    -0.297 OA
HETATM   21  C23 UNL     1      -2.385  11.766  17.480  1.00  0.00     0.017 C 
HETATM   22  C24 UNL     1      -2.657  13.145  16.854  1.00  0.00     0.023 C 
HETATM   23  C25 UNL     1      -3.413  11.598  18.626  1.00  0.00     0.023 C 
HETATM   24  C26 UNL     1      -2.470  10.551  16.480  1.00  0.00     0.009 C 
HETATM   25  C27 UNL     1      -2.394   9.212  17.264  1.00  0.00     0.007 C 
HETATM   26  C28 UNL     1      -2.279   7.925  16.445  1.00  0.00     0.011 C 
HETATM   27  C29 UNL     1      -1.135   7.934  15.396  1.00  0.00    -0.028 C 
HETATM   28  C30 UNL     1       0.211   8.015  16.162  1.00  0.00     0.016 C 
HETATM   29  C31 UNL     1      -2.147   5.410  12.336  1.00  0.00     0.024 C 
HETATM   30  C32 UNL     1      -2.929   4.168  12.791  1.00  0.00     0.029 C 
ENDROOT
BRANCH   1  31
HETATM   31  C3  UNL     1      -4.520   3.674  10.879  1.00  0.00     0.267 C 
HETATM   32  O2  UNL     1      -4.716   3.637   9.672  1.00  0.00    -0.264 OA
BRANCH  31  33
HETATM   33  O1  UNL     1      -5.435   4.113  11.792  1.00  0.00    -0.321 OA
BRANCH  33  34
HETATM   34  C2  UNL     1      -6.500   3.193  12.057  1.00  0.00     0.174 C 
HETATM   35  C1  UNL     1      -7.191   3.622  13.336  1.00  0.00     0.034 C 
ENDBRANCH  33  34
ENDBRANCH  31  33
ENDBRANCH   1  31
TORSDOF 3
ENDMDL
MODEL 5
REMARK minimizedAffinity -7.8286252
REMARK  3 active torsions:
REMARK  status: ('A' for Active; 'I' for Inactive)
REMARK    1  A    between atoms: C2_2  and  O1_3 
REMARK    2  A    between atoms: O1_3  and  C3_4 
REMARK    3  A    between atoms: C3_4  and  C4_6 
ROOT
HETATM    1  C4  UNL     1       1.528   7.340   9.847  1.00  0.00     0.045 C 
HETATM    2  C5  UNL     1       1.015   7.473   8.402  1.00  0.00     0.026 C 
HETATM    3  C6  UNL     1       1.559   5.855  10.292  1.00  0.00     0.020 C 
HETATM    4  C7  UNL     1       0.299   5.436  11.050  1.00  0.00     0.011 C 
HETATM    5  C8  UNL     1       0.099   6.239  12.368  1.00  0.00    -0.036 C 
HETATM    6  C9  UNL     1       0.856   5.512  13.511  1.00  0.00     0.016 C 
HETATM    7  C10 UNL     1      -1.411   6.237  12.709  1.00  0.00     0.011 C 
HETATM    8  C11 UNL     1      -1.826   7.237  13.802  1.00  0.00     0.015 C 
HETATM    9  C12 UNL     1      -1.394   8.713  13.534  1.00  0.00    -0.013 C 
HETATM   10  C13 UNL     1      -2.114   9.219  12.252  1.00  0.00     0.021 C 
HETATM   11  C14 UNL     1       0.115   8.634  13.286  1.00  0.00    -0.070 C 
HETATM   12  C15 UNL     1       0.999   9.232  14.097  1.00  0.00    -0.022 C 
HETATM   13  C16 UNL     1       0.667   9.927  15.367  1.00  0.00     0.033 C 
HETATM   14  C17 UNL     1      -0.753   9.636  15.948  1.00  0.00     0.007 C 
HETATM   15  C18 UNL     1      -1.024  10.590  17.218  1.00  0.00    -0.034 C 
HETATM   16  C19 UNL     1       0.279  10.525  18.096  1.00  0.00     0.016 C 
HETATM   17  C20 UNL     1      -2.151  10.042  18.147  1.00  0.00     0.017 C 
HETATM   18  C21 UNL     1      -3.349  10.930  18.478  1.00  0.00     0.080 C 
HETATM   19  C22 UNL     1      -3.197  12.430  18.367  1.00  0.00     0.135 C 
HETATM   20  O3  UNL     1      -4.142  13.159  18.682  1.00  0.00    -0.297 OA
HETATM   21  C23 UNL     1      -1.871  13.009  17.890  1.00  0.00     0.017 C 
HETATM   22  C24 UNL     1      -0.979  13.162  19.134  1.00  0.00     0.023 C 
HETATM   23  C25 UNL     1      -2.099  14.438  17.339  1.00  0.00     0.023 C 
HETATM   24  C26 UNL     1      -1.289  12.070  16.765  1.00  0.00     0.009 C 
HETATM   25  C27 UNL     1      -2.166  12.169  15.486  1.00  0.00     0.007 C 
HETATM   26  C28 UNL     1      -1.861  11.192  14.349  1.00  0.00     0.011 C 
HETATM   27  C29 UNL     1      -1.807   9.702  14.783  1.00  0.00    -0.028 C 
HETATM   28  C30 UNL     1      -3.226   9.296  15.258  1.00  0.00     0.016 C 
HETATM   29  C31 UNL     1       0.669   7.683  12.224  1.00  0.00     0.024 C 
HETATM   30  C32 UNL     1       0.605   8.188  10.773  1.00  0.00     0.029 C 
ENDROOT
BRANCH   1  31
HETATM   31  C3  UNL     1       2.962   7.892   9.884  1.00  0.00     0.267 C 
HETATM   32  O2  UNL     1       3.505   8.513   8.982  1.00  0.00    -0.264 OA
BRANCH  31  33
HETATM   33  O1  UNL     1       3.552   7.600  11.079  1.00  0.00    -0.321 OA
BRANCH  33  34
HETATM   34  C2  UNL     1       4.656   6.692  10.992  1.00  0.00     0.174 C 
HETATM   35  C1  UNL     1       5.937   7.482  11.180  1.00  0.00     0.034 C 
ENDBRANCH  33  34
ENDBRANCH  31  33
ENDBRANCH   1  31
TORSDOF 3
ENDMDL
MODEL 6
REMARK minimizedAffinity -7.56138277
REMARK  3 active torsions:
REMARK  status: ('A' for Active; 'I' for Inactive)
REMARK    1  A    between atoms: C2_2  and  O1_3 
REMARK    2  A    between atoms: O1_3  and  C3_4 
REMARK    3  A    between atoms: C3_4  and  C4_6 
ROOT
HETATM    1  C4  UNL     1       0.182   6.920  11.482  1.00  0.00     0.045 C 
HETATM    2  C5  UNL     1      -0.404   5.585  10.989  1.00  0.00     0.026 C 
HETATM    3  C6  UNL     1       1.571   6.711  12.136  1.00  0.00     0.020 C 
HETATM    4  C7  UNL     1       1.495   6.561  13.656  1.00  0.00     0.011 C 
HETATM    5  C8  UNL     1       0.917   7.827  14.354  1.00  0.00    -0.036 C 
HETATM    6  C9  UNL     1       2.083   8.806  14.651  1.00  0.00     0.016 C 
HETATM    7  C10 UNL     1       0.294   7.391  15.702  1.00  0.00     0.011 C 
HETATM    8  C11 UNL     1      -0.592   8.454  16.376  1.00  0.00     0.015 C 
HETATM    9  C12 UNL     1      -1.736   9.017  15.476  1.00  0.00    -0.013 C 
HETATM   10  C13 UNL     1      -2.715   7.859  15.131  1.00  0.00     0.021 C 
HETATM   11  C14 UNL     1      -1.027   9.494  14.205  1.00  0.00    -0.070 C 
HETATM   12  C15 UNL     1      -1.020  10.784  13.839  1.00  0.00    -0.022 C 
HETATM   13  C16 UNL     1      -1.571  11.907  14.639  1.00  0.00     0.033 C 
HETATM   14  C17 UNL     1      -1.860  11.592  16.140  1.00  0.00     0.007 C 
HETATM   15  C18 UNL     1      -2.611  12.845  16.821  1.00  0.00    -0.034 C 
HETATM   16  C19 UNL     1      -1.823  14.126  16.362  1.00  0.00     0.016 C 
HETATM   17  C20 UNL     1      -2.486  12.843  18.376  1.00  0.00     0.017 C 
HETATM   18  C21 UNL     1      -3.752  12.891  19.231  1.00  0.00     0.080 C 
HETATM   19  C22 UNL     1      -5.017  13.457  18.628  1.00  0.00     0.135 C 
HETATM   20  O3  UNL     1      -6.031  13.548  19.327  1.00  0.00    -0.297 OA
HETATM   21  C23 UNL     1      -5.005  13.922  17.178  1.00  0.00     0.017 C 
HETATM   22  C24 UNL     1      -4.533  15.387  17.185  1.00  0.00     0.023 C 
HETATM   23  C25 UNL     1      -6.452  13.934  16.627  1.00  0.00     0.023 C 
HETATM   24  C26 UNL     1      -4.104  12.936  16.341  1.00  0.00     0.009 C 
HETATM   25  C27 UNL     1      -4.796  11.549  16.232  1.00  0.00     0.007 C 
HETATM   26  C28 UNL     1      -3.988  10.409  15.610  1.00  0.00     0.011 C 
HETATM   27  C29 UNL     1      -2.585  10.200  16.242  1.00  0.00    -0.028 C 
HETATM   28  C30 UNL     1      -2.790   9.757  17.714  1.00  0.00     0.016 C 
HETATM   29  C31 UNL     1      -0.117   8.540  13.429  1.00  0.00     0.024 C 
HETATM   30  C32 UNL     1      -0.827   7.553  12.487  1.00  0.00     0.029 C 
ENDROOT
BRANCH   1  31
HETATM   31  C3  UNL     1       0.350   7.834  10.258  1.00  0.00     0.267 C 
HETATM   32  O2  UNL     1      -0.263   8.874  10.061  1.00  0.00    -0.264 OA
BRANCH  31  33
HETATM   33  O1  UNL     1       1.294   7.327   9.414  1.00  0.00    -0.321 OA
BRANCH  33  34
HETATM   34  C2  UNL     1       1.616   8.174   8.304  1.00  0.00     0.174 C 
HETATM   35  C1  UNL     1       1.871   7.296   7.094  1.00  0.00     0.034 C 
ENDBRANCH  33  34
ENDBRANCH  31  33
ENDBRANCH   1  31
TORSDOF 3
ENDMDL
MODEL 7
REMARK minimizedAffinity -7.40331888
REMARK  3 active torsions:
REMARK  status: ('A' for Active; 'I' for Inactive)
REMARK    1  A    between atoms: C2_2  and  O1_3 
REMARK    2  A    between atoms: O1_3  and  C3_4 
REMARK    3  A    between atoms: C3_4  and  C4_6 
ROOT
HETATM    1  C4  UNL     1      -2.587  12.136  17.148  1.00  0.00     0.045 C 
HETATM    2  C5  UNL     1      -1.988  12.754  18.424  1.00  0.00     0.026 C 
HETATM    3  C6  UNL     1      -3.801  11.233  17.484  1.00  0.00     0.020 C 
HETATM    4  C7  UNL     1      -3.423   9.758  17.626  1.00  0.00     0.011 C 
HETATM    5  C8  UNL     1      -2.840   9.161  16.312  1.00  0.00    -0.036 C 
HETATM    6  C9  UNL     1      -4.011   8.631  15.444  1.00  0.00     0.016 C 
HETATM    7  C10 UNL     1      -1.934   7.964  16.688  1.00  0.00     0.011 C 
HETATM    8  C11 UNL     1      -1.036   7.452  15.549  1.00  0.00     0.015 C 
HETATM    9  C12 UNL     1      -0.139   8.544  14.883  1.00  0.00    -0.013 C 
HETATM   10  C13 UNL     1       0.856   9.088  15.946  1.00  0.00     0.021 C 
HETATM   11  C14 UNL     1      -1.118   9.648  14.473  1.00  0.00    -0.070 C 
HETATM   12  C15 UNL     1      -1.311   9.984  13.190  1.00  0.00    -0.022 C 
HETATM   13  C16 UNL     1      -0.721   9.284  12.020  1.00  0.00     0.033 C 
HETATM   14  C17 UNL     1      -0.124   7.870  12.307  1.00  0.00     0.007 C 
HETATM   15  C18 UNL     1       0.628   7.324  10.990  1.00  0.00    -0.034 C 
HETATM   16  C19 UNL     1      -0.346   7.603   9.788  1.00  0.00     0.016 C 
HETATM   17  C20 UNL     1       0.802   5.773  11.003  1.00  0.00     0.017 C 
HETATM   18  C21 UNL     1       2.198   5.173  10.839  1.00  0.00     0.080 C 
HETATM   19  C22 UNL     1       3.269   5.996  10.160  1.00  0.00     0.135 C 
HETATM   20  O3  UNL     1       4.385   5.502   9.975  1.00  0.00    -0.297 OA
HETATM   21  C23 UNL     1       2.938   7.410   9.698  1.00  0.00     0.017 C 
HETATM   22  C24 UNL     1       2.346   7.288   8.283  1.00  0.00     0.023 C 
HETATM   23  C25 UNL     1       4.247   8.225   9.553  1.00  0.00     0.023 C 
HETATM   24  C26 UNL     1       1.987   8.077  10.762  1.00  0.00     0.009 C 
HETATM   25  C27 UNL     1       2.767   8.339  12.081  1.00  0.00     0.007 C 
HETATM   26  C28 UNL     1       1.961   8.816  13.290  1.00  0.00     0.011 C 
HETATM   27  C29 UNL     1       0.730   7.933  13.627  1.00  0.00    -0.028 C 
HETATM   28  C30 UNL     1       1.251   6.535  14.049  1.00  0.00     0.016 C 
HETATM   29  C31 UNL     1      -2.069  10.253  15.507  1.00  0.00     0.024 C 
HETATM   30  C32 UNL     1      -1.467  11.330  16.425  1.00  0.00     0.029 C 
ENDROOT
BRANCH   1  31
HETATM   31  C3  UNL     1      -3.067  13.289  16.254  1.00  0.00     0.267 C 
HETATM   32  O2  UNL     1      -2.404  14.270  15.945  1.00  0.00    -0.264 OA
BRANCH  31  33
HETATM   33  O1  UNL     1      -4.347  13.067  15.838  1.00  0.00    -0.321 OA
BRANCH  33  34
HETATM   34  C2  UNL     1      -5.202  14.214  15.903  1.00  0.00     0.174 C 
HETATM   35  C1  UNL     1      -6.446  13.836  16.685  1.00  0.00     0.034 C 
ENDBRANCH  33  34
ENDBRANCH  31  33
ENDBRANCH   1  31
TORSDOF 3
ENDMDL
MODEL 8
REMARK minimizedAffinity -7.36149883
REMARK  3 active torsions:
REMARK  status: ('A' for Active; 'I' for Inactive)
REMARK    1  A    between atoms: C2_2  and  O1_3 
REMARK    2  A    between atoms: O1_3  and  C3_4 
REMARK    3  A    between atoms: C3_4  and  C4_6 
ROOT
HETATM    1  C4  UNL     1       2.976  12.099  20.726  1.00  0.00     0.045 C 
HETATM    2  C5  UNL     1       2.464  12.502  22.120  1.00  0.00     0.026 C 
HETATM    3  C6  UNL     1       3.572  13.319  19.978  1.00  0.00     0.020 C 
HETATM    4  C7  UNL     1       2.563  13.996  19.050  1.00  0.00     0.011 C 
HETATM    5  C8  UNL     1       2.058  13.050  17.922  1.00  0.00    -0.036 C 
HETATM    6  C9  UNL     1       3.026  13.156  16.714  1.00  0.00     0.016 C 
HETATM    7  C10 UNL     1       0.662  13.543  17.469  1.00  0.00     0.011 C 
HETATM    8  C11 UNL     1      -0.116  12.552  16.586  1.00  0.00     0.015 C 
HETATM    9  C12 UNL     1      -0.283  11.125  17.197  1.00  0.00    -0.013 C 
HETATM   10  C13 UNL     1      -1.131  11.234  18.496  1.00  0.00     0.021 C 
HETATM   11  C14 UNL     1       1.143  10.684  17.542  1.00  0.00    -0.070 C 
HETATM   12  C15 UNL     1       1.721   9.629  16.951  1.00  0.00    -0.022 C 
HETATM   13  C16 UNL     1       1.137   8.840  15.837  1.00  0.00     0.033 C 
HETATM   14  C17 UNL     1      -0.067   9.504  15.096  1.00  0.00     0.007 C 
HETATM   15  C18 UNL     1      -0.696   8.459  14.042  1.00  0.00    -0.034 C 
HETATM   16  C19 UNL     1       0.524   7.826  13.277  1.00  0.00     0.016 C 
HETATM   17  C20 UNL     1      -1.533   9.164  12.930  1.00  0.00     0.017 C 
HETATM   18  C21 UNL     1      -2.984   8.742  12.702  1.00  0.00     0.080 C 
HETATM   19  C22 UNL     1      -3.420   7.363  13.144  1.00  0.00     0.135 C 
HETATM   20  O3  UNL     1      -4.576   6.993  12.918  1.00  0.00    -0.297 OA
HETATM   21  C23 UNL     1      -2.415   6.454  13.838  1.00  0.00     0.017 C 
HETATM   22  C24 UNL     1      -1.662   5.696  12.730  1.00  0.00     0.023 C 
HETATM   23  C25 UNL     1      -3.170   5.382  14.662  1.00  0.00     0.023 C 
HETATM   24  C26 UNL     1      -1.506   7.333  14.778  1.00  0.00     0.009 C 
HETATM   25  C27 UNL     1      -2.342   7.867  15.975  1.00  0.00     0.007 C 
HETATM   26  C28 UNL     1      -1.675   8.889  16.897  1.00  0.00     0.011 C 
HETATM   27  C29 UNL     1      -1.056  10.108  16.160  1.00  0.00    -0.028 C 
HETATM   28  C30 UNL     1      -2.213  10.898  15.497  1.00  0.00     0.016 C 
HETATM   29  C31 UNL     1       2.030  11.572  18.417  1.00  0.00     0.024 C 
HETATM   30  C32 UNL     1       1.789  11.474  19.933  1.00  0.00     0.029 C 
ENDROOT
BRANCH   1  31
HETATM   31  C3  UNL     1       4.086  11.055  20.922  1.00  0.00     0.267 C 
HETATM   32  O2  UNL     1       4.960  10.788  20.109  1.00  0.00    -0.264 OA
BRANCH  31  33
HETATM   33  O1  UNL     1       3.972  10.465  22.148  1.00  0.00    -0.321 OA
BRANCH  33  34
HETATM   34  C2  UNL     1       3.632   9.074  22.109  1.00  0.00     0.174 C 
HETATM   35  C1  UNL     1       2.695   8.782  23.265  1.00  0.00     0.034 C 
ENDBRANCH  33  34
ENDBRANCH  31  33
ENDBRANCH   1  31
TORSDOF 3
ENDMDL
MODEL 9
REMARK minimizedAffinity -7.08509302
REMARK  3 active torsions:
REMARK  status: ('A' for Active; 'I' for Inactive)
REMARK    1  A    between atoms: C2_2  and  O1_3 
REMARK    2  A    between atoms: O1_3  and  C3_4 
REMARK    3  A    between atoms: C3_4  and  C4_6 
ROOT
HETATM    1  C4  UNL     1       0.954   7.661  11.378  1.00  0.00     0.045 C 
HETATM    2  C5  UNL     1      -0.028   8.473  10.514  1.00  0.00     0.026 C 
HETATM    3  C6  UNL     1       0.285   7.204  12.699  1.00  0.00     0.020 C 
HETATM    4  C7  UNL     1       0.562   8.155  13.864  1.00  0.00     0.011 C 
HETATM    5  C8  UNL     1       2.078   8.259  14.204  1.00  0.00    -0.036 C 
HETATM    6  C9  UNL     1       2.438   7.141  15.217  1.00  0.00     0.016 C 
HETATM    7  C10 UNL     1       2.325   9.628  14.884  1.00  0.00     0.011 C 
HETATM    8  C11 UNL     1       3.806  10.029  15.005  1.00  0.00     0.015 C 
HETATM    9  C12 UNL     1       4.600  10.008  13.661  1.00  0.00    -0.013 C 
HETATM   10  C13 UNL     1       3.989  11.069  12.703  1.00  0.00     0.021 C 
HETATM   11  C14 UNL     1       4.367   8.603  13.099  1.00  0.00    -0.070 C 
HETATM   12  C15 UNL     1       5.372   7.732  12.927  1.00  0.00    -0.022 C 
HETATM   13  C16 UNL     1       6.778   7.948  13.351  1.00  0.00     0.033 C 
HETATM   14  C17 UNL     1       7.009   9.116  14.361  1.00  0.00     0.007 C 
HETATM   15  C18 UNL     1       8.591   9.333  14.584  1.00  0.00    -0.034 C 
HETATM   16  C19 UNL     1       9.200   7.899  14.795  1.00  0.00     0.016 C 
HETATM   17  C20 UNL     1       8.908  10.093  15.909  1.00  0.00     0.017 C 
HETATM   18  C21 UNL     1       9.747  11.369  15.860  1.00  0.00     0.080 C 
HETATM   19  C22 UNL     1      10.672  11.588  14.685  1.00  0.00     0.135 C 
HETATM   20  O3  UNL     1      11.393  12.590  14.662  1.00  0.00    -0.297 OA
HETATM   21  C23 UNL     1      10.711  10.553  13.568  1.00  0.00     0.017 C 
HETATM   22  C24 UNL     1      11.738   9.486  13.985  1.00  0.00     0.023 C 
HETATM   23  C25 UNL     1      11.263  11.207  12.277  1.00  0.00     0.023 C 
HETATM   24  C26 UNL     1       9.249  10.014  13.332  1.00  0.00     0.009 C 
HETATM   25  C27 UNL     1       8.366  11.132  12.710  1.00  0.00     0.007 C 
HETATM   26  C28 UNL     1       6.868  10.850  12.578  1.00  0.00     0.011 C 
HETATM   27  C29 UNL     1       6.188  10.372  13.890  1.00  0.00    -0.028 C 
HETATM   28  C30 UNL     1       6.264  11.534  14.913  1.00  0.00     0.016 C 
HETATM   29  C31 UNL     1       2.942   8.074  12.919  1.00  0.00     0.024 C 
HETATM   30  C32 UNL     1       2.206   8.545  11.654  1.00  0.00     0.029 C 
ENDROOT
BRANCH   1  31
HETATM   31  C3  UNL     1       1.355   6.414  10.575  1.00  0.00     0.267 C 
HETATM   32  O2  UNL     1       0.736   5.359  10.548  1.00  0.00    -0.264 OA
BRANCH  31  33
HETATM   33  O1  UNL     1       2.506   6.646   9.880  1.00  0.00    -0.321 OA
BRANCH  33  34
HETATM   34  C2  UNL     1       2.444   6.296   8.492  1.00  0.00     0.174 C 
HETATM   35  C1  UNL     1       2.225   7.565   7.692  1.00  0.00     0.034 C 
ENDBRANCH  33  34
ENDBRANCH  31  33
ENDBRANCH   1  31
TORSDOF 3
ENDMDL
