MODEL 1
REMARK minimizedAffinity -8.57176495
REMARK CNNscore 0.661304355
REMARK CNNaffinity 7.51194
REMARK  13 active torsions:
REMARK  status: ('A' for Active; 'I' for Inactive)
REMARK    1  A    between atoms: C19_21  and  O3_22 
REMARK    2  A    between atoms: C19_21  and  C20_23 
REMARK    3  A    between atoms: C20_23  and  C21_25 
REMARK    4  A    between atoms: C21_25  and  O5_26 
REMARK    5  A    between atoms: O5_26  and  C22_27 
REMARK    6  A    between atoms: C22_27  and  C23_29 
REMARK    7  A    between atoms: C23_29  and  C24_30 
REMARK    8  A    between atoms: C24_30  and  C25_31 
REMARK       I    between atoms: C25_31  and  N1_33 
REMARK    9  A    between atoms: N1_33  and  C26_34 
REMARK   10  A    between atoms: C26_34  and  C27_35 
REMARK   11  A    between atoms: C26_34  and  C34_42 
REMARK   12  A    between atoms: C27_35  and  C28_36 
REMARK   13  A    between atoms: C34_42  and  O9_44 
ROOT
HETATM    1  C20 UNL     1      -0.610  11.115  15.301  1.00  0.00     0.185 C 
HETATM    2  O4  UNL     1      -1.396  11.979  15.701  1.00  0.00    -0.292 OA
ENDROOT
BRANCH   1   3
HETATM    3  C19 UNL     1      -1.067  10.024  14.305  1.00  0.00     0.128 C 
HETATM    4  C14 UNL     1      -2.241   9.148  14.852  1.00  0.00     0.005 C 
HETATM    5  C13 UNL     1      -3.632   9.796  14.835  1.00  0.00     0.091 C 
HETATM    6  C15 UNL     1      -1.931   8.643  16.289  1.00  0.00     0.019 C 
HETATM    7  C16 UNL     1      -2.244   8.014  13.796  1.00  0.00     0.002 C 
HETATM    8  C12 UNL     1      -4.692   8.733  15.095  1.00  0.00     0.133 C 
HETATM    9  C11 UNL     1      -4.684   7.505  14.162  1.00  0.00     0.072 C 
HETATM   10  O2  UNL     1      -5.531   8.903  15.978  1.00  0.00    -0.297 OA
HETATM   11  C2  UNL     1      -5.799   6.432  14.442  1.00  0.00    -0.009 C 
HETATM   12  C10 UNL     1      -3.251   6.898  14.101  1.00  0.00     0.003 C 
HETATM   13  C1  UNL     1      -5.721   5.856  15.874  1.00  0.00     0.021 C 
HETATM   14  C3  UNL     1      -7.194   7.089  14.215  1.00  0.00     0.022 C 
HETATM   15  C7  UNL     1      -5.616   5.259  13.460  1.00  0.00    -0.067 C 
HETATM   16  C4  UNL     1      -8.330   6.086  14.067  1.00  0.00     0.084 C 
HETATM   17  C5  UNL     1      -8.031   5.117  12.958  1.00  0.00     0.149 C 
HETATM   18  O1  UNL     1      -8.911   4.604  12.272  1.00  0.00    -0.293 OA
HETATM   19  C6  UNL     1      -6.622   4.703  12.761  1.00  0.00     0.053 C 
HETATM   20  C8  UNL     1      -4.219   4.701  13.316  1.00  0.00     0.035 C 
HETATM   21  C9  UNL     1      -3.194   5.794  13.037  1.00  0.00     0.010 C 
HETATM   22  C17 UNL     1      -0.772   7.642  13.668  1.00  0.00     0.009 C 
HETATM   23  C18 UNL     1      -0.011   8.958  13.919  1.00  0.00     0.047 C 
BRANCH   3  24
HETATM   24  O3  UNL     1      -1.497  10.660  13.092  1.00  0.00    -0.381 OA
HETATM   25  H25 UNL     1      -0.965  11.474  12.959  1.00  0.00     0.211 HD
ENDBRANCH   3  24
ENDBRANCH   1   3
BRANCH   1  26
HETATM   26  C21 UNL     1       0.839  11.121  15.802  1.00  0.00     0.260 C 
BRANCH  26  27
HETATM   27  O5  UNL     1       1.288  10.186  16.774  1.00  0.00    -0.314 OA
BRANCH  27  28
HETATM   28  C22 UNL     1       2.618   9.915  16.774  1.00  0.00     0.259 C 
HETATM   29  O6  UNL     1       3.436  10.526  17.451  1.00  0.00    -0.265 OA
BRANCH  28  30
HETATM   30  C23 UNL     1       3.002   8.812  15.815  1.00  0.00     0.120 C 
BRANCH  30  31
HETATM   31  C24 UNL     1       3.607   9.282  14.497  1.00  0.00     0.112 C 
BRANCH  31  32
HETATM   32  C25 UNL     1       4.442   8.204  13.834  1.00  0.00     0.218 C 
HETATM   33  O7  UNL     1       5.307   7.565  14.419  1.00  0.00    -0.274 OA
HETATM   34  N1  UNL     1       4.116   8.010  12.510  1.00  0.00    -0.346 N 
HETATM   35  H32 UNL     1       3.681   8.793  12.033  1.00  0.00     0.163 HD
BRANCH  34  36
HETATM   36  C26 UNL     1       4.927   7.123  11.661  1.00  0.00     0.186 C 
BRANCH  36  37
HETATM   37  C27 UNL     1       4.012   6.228  10.818  1.00  0.00     0.074 C 
BRANCH  37  38
HETATM   38  C28 UNL     1       2.899   6.974  10.123  1.00  0.00    -0.056 A 
HETATM   39  C29 UNL     1       2.966   7.232   8.747  1.00  0.00     0.007 A 
HETATM   40  C30 UNL     1       1.932   7.920   8.107  1.00  0.00     0.001 A 
HETATM   41  C31 UNL     1       0.826   8.354   8.833  1.00  0.00     0.000 A 
HETATM   42  C32 UNL     1       0.749   8.101  10.201  1.00  0.00     0.001 A 
HETATM   43  C33 UNL     1       1.781   7.415  10.845  1.00  0.00     0.007 A 
ENDBRANCH  37  38
ENDBRANCH  36  37
BRANCH  36  44
HETATM   44  C34 UNL     1       5.763   8.021  10.754  1.00  0.00     0.163 C 
HETATM   45  O8  UNL     1       5.412   9.108  10.314  1.00  0.00    -0.648 OA
BRANCH  44  46
HETATM   46  O9  UNL     1       6.968   7.508  10.443  1.00  0.00    -0.775 OA
HETATM   47  H41 UNL     1       7.395   8.180   9.871  1.00  0.00     0.167 HD
ENDBRANCH  44  46
ENDBRANCH  36  44
ENDBRANCH  34  36
ENDBRANCH  31  32
ENDBRANCH  30  31
ENDBRANCH  28  30
ENDBRANCH  27  28
ENDBRANCH  26  27
ENDBRANCH   1  26
TORSDOF 13
ENDMDL
MODEL 2
REMARK minimizedAffinity -8.24898148
REMARK CNNscore 0.556660593
REMARK CNNaffinity 6.37154055
REMARK  13 active torsions:
REMARK  status: ('A' for Active; 'I' for Inactive)
REMARK    1  A    between atoms: C19_21  and  O3_22 
REMARK    2  A    between atoms: C19_21  and  C20_23 
REMARK    3  A    between atoms: C20_23  and  C21_25 
REMARK    4  A    between atoms: C21_25  and  O5_26 
REMARK    5  A    between atoms: O5_26  and  C22_27 
REMARK    6  A    between atoms: C22_27  and  C23_29 
REMARK    7  A    between atoms: C23_29  and  C24_30 
REMARK    8  A    between atoms: C24_30  and  C25_31 
REMARK       I    between atoms: C25_31  and  N1_33 
REMARK    9  A    between atoms: N1_33  and  C26_34 
REMARK   10  A    between atoms: C26_34  and  C27_35 
REMARK   11  A    between atoms: C26_34  and  C34_42 
REMARK   12  A    between atoms: C27_35  and  C28_36 
REMARK   13  A    between atoms: C34_42  and  O9_44 
ROOT
HETATM    1  C20 UNL     1     -16.166   5.226  14.991  1.00  0.00     0.185 C 
HETATM    2  O4  UNL     1     -16.108   5.616  16.162  1.00  0.00    -0.292 OA
ENDROOT
BRANCH   1   3
HETATM    3  C19 UNL     1     -17.051   4.021  14.598  1.00  0.00     0.128 C 
HETATM    4  C14 UNL     1     -16.441   2.647  15.026  1.00  0.00     0.005 C 
HETATM    5  C13 UNL     1     -16.556   2.290  16.514  1.00  0.00     0.091 C 
HETATM    6  C15 UNL     1     -14.951   2.544  14.591  1.00  0.00     0.019 C 
HETATM    7  C16 UNL     1     -17.371   1.684  14.245  1.00  0.00     0.002 C 
HETATM    8  C12 UNL     1     -16.207   0.820  16.715  1.00  0.00     0.133 C 
HETATM    9  C11 UNL     1     -17.005  -0.200  15.877  1.00  0.00     0.072 C 
HETATM   10  O2  UNL     1     -15.366   0.495  17.550  1.00  0.00    -0.297 OA
HETATM   11  C2  UNL     1     -16.637  -1.710  16.115  1.00  0.00    -0.009 C 
HETATM   12  C10 UNL     1     -16.971   0.209  14.374  1.00  0.00     0.003 C 
HETATM   13  C1  UNL     1     -15.151  -2.012  15.819  1.00  0.00     0.021 C 
HETATM   14  C3  UNL     1     -16.963  -2.077  17.595  1.00  0.00     0.022 C 
HETATM   15  C7  UNL     1     -17.486  -2.582  15.170  1.00  0.00    -0.067 C 
HETATM   16  C4  UNL     1     -17.029  -3.575  17.859  1.00  0.00     0.084 C 
HETATM   17  C5  UNL     1     -18.022  -4.224  16.936  1.00  0.00     0.149 C 
HETATM   18  O1  UNL     1     -18.670  -5.219  17.256  1.00  0.00    -0.293 OA
HETATM   19  C6  UNL     1     -18.144  -3.688  15.560  1.00  0.00     0.053 C 
HETATM   20  C8  UNL     1     -17.540  -2.162  13.719  1.00  0.00     0.035 C 
HETATM   21  C9  UNL     1     -17.911  -0.693  13.564  1.00  0.00     0.010 C 
HETATM   22  C17 UNL     1     -17.426   2.296  12.850  1.00  0.00     0.009 C 
HETATM   23  C18 UNL     1     -17.300   3.814  13.083  1.00  0.00     0.047 C 
BRANCH   3  24
HETATM   24  O3  UNL     1     -18.334   4.167  15.226  1.00  0.00    -0.381 OA
HETATM   25  H25 UNL     1     -18.541   5.124  15.298  1.00  0.00     0.211 HD
ENDBRANCH   3  24
ENDBRANCH   1   3
BRANCH   1  26
HETATM   26  C21 UNL     1     -15.347   5.946  13.914  1.00  0.00     0.260 C 
BRANCH  26  27
HETATM   27  O5  UNL     1     -13.946   6.141  14.059  1.00  0.00    -0.314 OA
BRANCH  27  28
HETATM   28  C22 UNL     1     -13.395   7.113  13.290  1.00  0.00     0.259 C 
HETATM   29  O6  UNL     1     -14.045   7.985  12.727  1.00  0.00    -0.265 OA
BRANCH  28  30
HETATM   30  C23 UNL     1     -11.894   6.986  13.152  1.00  0.00     0.120 C 
BRANCH  30  31
HETATM   31  C24 UNL     1     -11.122   6.987  14.467  1.00  0.00     0.112 C 
BRANCH  31  32
HETATM   32  C25 UNL     1      -9.623   6.928  14.248  1.00  0.00     0.218 C 
HETATM   33  O7  UNL     1      -8.858   7.828  14.568  1.00  0.00    -0.274 OA
HETATM   34  N1  UNL     1      -9.211   5.750  13.664  1.00  0.00    -0.346 N 
HETATM   35  H32 UNL     1      -9.905   5.251  13.117  1.00  0.00     0.163 HD
BRANCH  34  36
HETATM   36  C26 UNL     1      -7.817   5.579  13.225  1.00  0.00     0.186 C 
BRANCH  36  37
HETATM   37  C27 UNL     1      -6.869   5.791  14.411  1.00  0.00     0.074 C 
BRANCH  37  38
HETATM   38  C28 UNL     1      -5.567   6.460  14.042  1.00  0.00    -0.056 A 
HETATM   39  C29 UNL     1      -4.343   5.828  14.301  1.00  0.00     0.007 A 
HETATM   40  C30 UNL     1      -3.141   6.450  13.955  1.00  0.00     0.001 A 
HETATM   41  C31 UNL     1      -3.151   7.703  13.349  1.00  0.00     0.000 A 
HETATM   42  C32 UNL     1      -4.363   8.339  13.086  1.00  0.00     0.001 A 
HETATM   43  C33 UNL     1      -5.566   7.722  13.431  1.00  0.00     0.007 A 
ENDBRANCH  37  38
ENDBRANCH  36  37
BRANCH  36  44
HETATM   44  C34 UNL     1      -7.689   4.152  12.700  1.00  0.00     0.163 C 
HETATM   45  O8  UNL     1      -6.722   3.700  12.102  1.00  0.00    -0.648 OA
BRANCH  44  46
HETATM   46  O9  UNL     1      -8.771   3.387  12.938  1.00  0.00    -0.775 OA
HETATM   47  H41 UNL     1      -8.554   2.509  12.561  1.00  0.00     0.167 HD
ENDBRANCH  44  46
ENDBRANCH  36  44
ENDBRANCH  34  36
ENDBRANCH  31  32
ENDBRANCH  30  31
ENDBRANCH  28  30
ENDBRANCH  27  28
ENDBRANCH  26  27
ENDBRANCH   1  26
TORSDOF 13
ENDMDL
MODEL 3
REMARK minimizedAffinity -7.88908434
REMARK CNNscore 0.512400031
REMARK CNNaffinity 6.3048439
REMARK  13 active torsions:
REMARK  status: ('A' for Active; 'I' for Inactive)
REMARK    1  A    between atoms: C19_21  and  O3_22 
REMARK    2  A    between atoms: C19_21  and  C20_23 
REMARK    3  A    between atoms: C20_23  and  C21_25 
REMARK    4  A    between atoms: C21_25  and  O5_26 
REMARK    5  A    between atoms: O5_26  and  C22_27 
REMARK    6  A    between atoms: C22_27  and  C23_29 
REMARK    7  A    between atoms: C23_29  and  C24_30 
REMARK    8  A    between atoms: C24_30  and  C25_31 
REMARK       I    between atoms: C25_31  and  N1_33 
REMARK    9  A    between atoms: N1_33  and  C26_34 
REMARK   10  A    between atoms: C26_34  and  C27_35 
REMARK   11  A    between atoms: C26_34  and  C34_42 
REMARK   12  A    between atoms: C27_35  and  C28_36 
REMARK   13  A    between atoms: C34_42  and  O9_44 
ROOT
HETATM    1  C20 UNL     1      -0.416  11.744  18.394  1.00  0.00     0.185 C 
HETATM    2  O4  UNL     1      -0.295  12.969  18.289  1.00  0.00    -0.292 OA
ENDROOT
BRANCH   1   3
HETATM    3  C19 UNL     1      -1.743  11.042  18.020  1.00  0.00     0.128 C 
HETATM    4  C14 UNL     1      -1.658  10.249  16.675  1.00  0.00     0.005 C 
HETATM    5  C13 UNL     1      -0.921   8.905  16.729  1.00  0.00     0.091 C 
HETATM    6  C15 UNL     1      -1.036  11.127  15.553  1.00  0.00     0.019 C 
HETATM    7  C16 UNL     1      -3.161   9.946  16.447  1.00  0.00     0.002 C 
HETATM    8  C12 UNL     1      -1.191   8.124  15.448  1.00  0.00     0.133 C 
HETATM    9  C11 UNL     1      -2.671   7.886  15.082  1.00  0.00     0.072 C 
HETATM   10  O2  UNL     1      -0.254   7.673  14.793  1.00  0.00    -0.297 OA
HETATM   11  C2  UNL     1      -2.921   7.065  13.765  1.00  0.00    -0.009 C 
HETATM   12  C10 UNL     1      -3.446   9.237  15.118  1.00  0.00     0.003 C 
HETATM   13  C1  UNL     1      -2.295   7.734  12.521  1.00  0.00     0.021 C 
HETATM   14  C3  UNL     1      -2.327   5.635  13.947  1.00  0.00     0.022 C 
HETATM   15  C7  UNL     1      -4.440   6.964  13.524  1.00  0.00    -0.067 C 
HETATM   16  C4  UNL     1      -2.832   4.623  12.928  1.00  0.00     0.084 C 
HETATM   17  C5  UNL     1      -4.333   4.564  12.949  1.00  0.00     0.149 C 
HETATM   18  O1  UNL     1      -4.959   3.538  12.691  1.00  0.00    -0.293 OA
HETATM   19  C6  UNL     1      -5.073   5.823  13.201  1.00  0.00     0.053 C 
HETATM   20  C8  UNL     1      -5.233   8.246  13.634  1.00  0.00     0.035 C 
HETATM   21  C9  UNL     1      -4.949   8.983  14.936  1.00  0.00     0.010 C 
HETATM   22  C17 UNL     1      -3.838  11.286  16.709  1.00  0.00     0.009 C 
HETATM   23  C18 UNL     1      -2.967  11.963  17.784  1.00  0.00     0.047 C 
BRANCH   3  24
HETATM   24  O3  UNL     1      -2.091  10.127  19.069  1.00  0.00    -0.381 OA
HETATM   25  H25 UNL     1      -1.772  10.492  19.923  1.00  0.00     0.211 HD
ENDBRANCH   3  24
ENDBRANCH   1   3
BRANCH   1  26
HETATM   26  C21 UNL     1       0.763  10.909  18.904  1.00  0.00     0.260 C 
BRANCH  26  27
HETATM   27  O5  UNL     1       0.882  10.561  20.277  1.00  0.00    -0.314 OA
BRANCH  27  28
HETATM   28  C22 UNL     1       1.801  11.256  20.993  1.00  0.00     0.259 C 
HETATM   29  O6  UNL     1       1.773  12.471  21.139  1.00  0.00    -0.265 OA
BRANCH  28  30
HETATM   30  C23 UNL     1       2.901  10.384  21.557  1.00  0.00     0.120 C 
BRANCH  30  31
HETATM   31  C24 UNL     1       3.890  11.101  22.469  1.00  0.00     0.112 C 
BRANCH  31  32
HETATM   32  C25 UNL     1       5.095  11.621  21.710  1.00  0.00     0.218 C 
HETATM   33  O7  UNL     1       5.243  11.483  20.503  1.00  0.00    -0.274 OA
HETATM   34  N1  UNL     1       5.998  12.275  22.519  1.00  0.00    -0.346 N 
HETATM   35  H32 UNL     1       5.986  12.026  23.503  1.00  0.00     0.163 HD
BRANCH  34  36
HETATM   36  C26 UNL     1       7.304  12.703  21.991  1.00  0.00     0.186 C 
BRANCH  36  37
HETATM   37  C27 UNL     1       7.305  14.220  21.774  1.00  0.00     0.074 C 
BRANCH  37  38
HETATM   38  C28 UNL     1       6.341  14.966  22.663  1.00  0.00    -0.056 A 
HETATM   39  C29 UNL     1       6.814  15.818  23.671  1.00  0.00     0.007 A 
HETATM   40  C30 UNL     1       5.918  16.509  24.490  1.00  0.00     0.001 A 
HETATM   41  C31 UNL     1       4.545  16.356  24.310  1.00  0.00     0.000 A 
HETATM   42  C32 UNL     1       4.065  15.513  23.310  1.00  0.00     0.001 A 
HETATM   43  C33 UNL     1       4.957  14.819  22.490  1.00  0.00     0.007 A 
ENDBRANCH  37  38
ENDBRANCH  36  37
BRANCH  36  44
HETATM   44  C34 UNL     1       8.350  12.320  23.033  1.00  0.00     0.163 C 
HETATM   45  O8  UNL     1       8.654  11.177  23.347  1.00  0.00    -0.648 OA
BRANCH  44  46
HETATM   46  O9  UNL     1       8.939  13.376  23.624  1.00  0.00    -0.775 OA
HETATM   47  H41 UNL     1       9.584  12.993  24.254  1.00  0.00     0.167 HD
ENDBRANCH  44  46
ENDBRANCH  36  44
ENDBRANCH  34  36
ENDBRANCH  31  32
ENDBRANCH  30  31
ENDBRANCH  28  30
ENDBRANCH  27  28
ENDBRANCH  26  27
ENDBRANCH   1  26
TORSDOF 13
ENDMDL
MODEL 4
REMARK minimizedAffinity -8.61223602
REMARK CNNscore 0.434971333
REMARK CNNaffinity 6.53152037
REMARK  13 active torsions:
REMARK  status: ('A' for Active; 'I' for Inactive)
REMARK    1  A    between atoms: C19_21  and  O3_22 
REMARK    2  A    between atoms: C19_21  and  C20_23 
REMARK    3  A    between atoms: C20_23  and  C21_25 
REMARK    4  A    between atoms: C21_25  and  O5_26 
REMARK    5  A    between atoms: O5_26  and  C22_27 
REMARK    6  A    between atoms: C22_27  and  C23_29 
REMARK    7  A    between atoms: C23_29  and  C24_30 
REMARK    8  A    between atoms: C24_30  and  C25_31 
REMARK       I    between atoms: C25_31  and  N1_33 
REMARK    9  A    between atoms: N1_33  and  C26_34 
REMARK   10  A    between atoms: C26_34  and  C27_35 
REMARK   11  A    between atoms: C26_34  and  C34_42 
REMARK   12  A    between atoms: C27_35  and  C28_36 
REMARK   13  A    between atoms: C34_42  and  O9_44 
ROOT
HETATM    1  C20 UNL     1     -16.311   5.295  14.966  1.00  0.00     0.185 C 
HETATM    2  O4  UNL     1     -16.171   5.605  16.154  1.00  0.00    -0.292 OA
ENDROOT
BRANCH   1   3
HETATM    3  C19 UNL     1     -17.142   4.055  14.562  1.00  0.00     0.128 C 
HETATM    4  C14 UNL     1     -16.474   2.706  14.981  1.00  0.00     0.005 C 
HETATM    5  C13 UNL     1     -16.577   2.333  16.467  1.00  0.00     0.091 C 
HETATM    6  C15 UNL     1     -14.980   2.670  14.551  1.00  0.00     0.019 C 
HETATM    7  C16 UNL     1     -17.359   1.710  14.190  1.00  0.00     0.002 C 
HETATM    8  C12 UNL     1     -16.167   0.878  16.657  1.00  0.00     0.133 C 
HETATM    9  C11 UNL     1     -16.918  -0.169  15.809  1.00  0.00     0.072 C 
HETATM   10  O2  UNL     1     -15.314   0.584  17.492  1.00  0.00    -0.297 OA
HETATM   11  C2  UNL     1     -16.486  -1.664  16.037  1.00  0.00    -0.009 C 
HETATM   12  C10 UNL     1     -16.897   0.252  14.310  1.00  0.00     0.003 C 
HETATM   13  C1  UNL     1     -14.987  -1.899  15.744  1.00  0.00     0.021 C 
HETATM   14  C3  UNL     1     -16.799  -2.055  17.514  1.00  0.00     0.022 C 
HETATM   15  C7  UNL     1     -17.293  -2.564  15.083  1.00  0.00    -0.067 C 
HETATM   16  C4  UNL     1     -16.801  -3.556  17.766  1.00  0.00     0.084 C 
HETATM   17  C5  UNL     1     -17.763  -4.241  16.836  1.00  0.00     0.149 C 
HETATM   18  O1  UNL     1     -18.368  -5.265  17.146  1.00  0.00    -0.293 OA
HETATM   19  C6  UNL     1     -17.903  -3.701  15.463  1.00  0.00     0.053 C 
HETATM   20  C8  UNL     1     -17.361  -2.137  13.636  1.00  0.00     0.035 C 
HETATM   21  C9  UNL     1     -17.794  -0.683  13.489  1.00  0.00     0.010 C 
HETATM   22  C17 UNL     1     -17.437   2.329  12.800  1.00  0.00     0.009 C 
HETATM   23  C18 UNL     1     -17.377   3.850  13.044  1.00  0.00     0.047 C 
BRANCH   3  24
HETATM   24  O3  UNL     1     -18.431   4.141  15.187  1.00  0.00    -0.381 OA
HETATM   25  H25 UNL     1     -18.680   5.088  15.265  1.00  0.00     0.211 HD
ENDBRANCH   3  24
ENDBRANCH   1   3
BRANCH   1  26
HETATM   26  C21 UNL     1     -15.649   6.149  13.879  1.00  0.00     0.260 C 
BRANCH  26  27
HETATM   27  O5  UNL     1     -14.243   6.359  13.860  1.00  0.00    -0.314 OA
BRANCH  27  28
HETATM   28  C22 UNL     1     -13.786   7.267  12.961  1.00  0.00     0.259 C 
HETATM   29  O6  UNL     1     -14.514   8.008  12.313  1.00  0.00    -0.265 OA
BRANCH  28  30
HETATM   30  C23 UNL     1     -12.283   7.242  12.799  1.00  0.00     0.120 C 
BRANCH  30  31
HETATM   31  C24 UNL     1     -11.494   7.119  14.098  1.00  0.00     0.112 C 
BRANCH  31  32
HETATM   32  C25 UNL     1     -10.092   6.589  13.867  1.00  0.00     0.218 C 
HETATM   33  O7  UNL     1      -9.686   6.207  12.777  1.00  0.00    -0.274 OA
HETATM   34  N1  UNL     1      -9.321   6.594  15.009  1.00  0.00    -0.346 N 
HETATM   35  H32 UNL     1      -9.822   6.568  15.891  1.00  0.00     0.163 HD
BRANCH  34  36
HETATM   36  C26 UNL     1      -7.991   5.964  15.016  1.00  0.00     0.186 C 
BRANCH  36  37
HETATM   37  C27 UNL     1      -7.216   6.370  13.758  1.00  0.00     0.074 C 
BRANCH  37  38
HETATM   38  C28 UNL     1      -6.359   5.268  13.184  1.00  0.00    -0.056 A 
HETATM   39  C29 UNL     1      -4.962   5.382  13.179  1.00  0.00     0.007 A 
HETATM   40  C30 UNL     1      -4.173   4.358  12.650  1.00  0.00     0.001 A 
HETATM   41  C31 UNL     1      -4.770   3.216  12.124  1.00  0.00     0.000 A 
HETATM   42  C32 UNL     1      -6.158   3.092  12.125  1.00  0.00     0.001 A 
HETATM   43  C33 UNL     1      -6.950   4.114  12.652  1.00  0.00     0.007 A 
ENDBRANCH  37  38
ENDBRANCH  36  37
BRANCH  36  44
HETATM   44  C34 UNL     1      -7.269   6.469  16.263  1.00  0.00     0.163 C 
HETATM   45  O8  UNL     1      -7.782   7.119  17.165  1.00  0.00    -0.648 OA
BRANCH  44  46
HETATM   46  O9  UNL     1      -5.963   6.150  16.300  1.00  0.00    -0.775 OA
HETATM   47  H41 UNL     1      -5.629   6.523  17.143  1.00  0.00     0.167 HD
ENDBRANCH  44  46
ENDBRANCH  36  44
ENDBRANCH  34  36
ENDBRANCH  31  32
ENDBRANCH  30  31
ENDBRANCH  28  30
ENDBRANCH  27  28
ENDBRANCH  26  27
ENDBRANCH   1  26
TORSDOF 13
ENDMDL
MODEL 5
REMARK minimizedAffinity -10.0281687
REMARK CNNscore 0.417073488
REMARK CNNaffinity 7.30533934
REMARK  13 active torsions:
REMARK  status: ('A' for Active; 'I' for Inactive)
REMARK    1  A    between atoms: C19_21  and  O3_22 
REMARK    2  A    between atoms: C19_21  and  C20_23 
REMARK    3  A    between atoms: C20_23  and  C21_25 
REMARK    4  A    between atoms: C21_25  and  O5_26 
REMARK    5  A    between atoms: O5_26  and  C22_27 
REMARK    6  A    between atoms: C22_27  and  C23_29 
REMARK    7  A    between atoms: C23_29  and  C24_30 
REMARK    8  A    between atoms: C24_30  and  C25_31 
REMARK       I    between atoms: C25_31  and  N1_33 
REMARK    9  A    between atoms: N1_33  and  C26_34 
REMARK   10  A    between atoms: C26_34  and  C27_35 
REMARK   11  A    between atoms: C26_34  and  C34_42 
REMARK   12  A    between atoms: C27_35  and  C28_36 
REMARK   13  A    between atoms: C34_42  and  O9_44 
ROOT
HETATM    1  C20 UNL     1       0.317   6.870  13.623  1.00  0.00     0.185 C 
HETATM    2  O4  UNL     1       1.226   6.085  13.910  1.00  0.00    -0.292 OA
ENDROOT
BRANCH   1   3
HETATM    3  C19 UNL     1      -0.947   6.384  12.878  1.00  0.00     0.128 C 
HETATM    4  C14 UNL     1      -2.217   6.343  13.788  1.00  0.00     0.005 C 
HETATM    5  C13 UNL     1      -2.874   7.696  14.093  1.00  0.00     0.091 C 
HETATM    6  C15 UNL     1      -1.916   5.610  15.126  1.00  0.00     0.019 C 
HETATM    7  C16 UNL     1      -3.183   5.555  12.867  1.00  0.00     0.002 C 
HETATM    8  C12 UNL     1      -4.248   7.468  14.714  1.00  0.00     0.133 C 
HETATM    9  C11 UNL     1      -5.230   6.586  13.915  1.00  0.00     0.072 C 
HETATM   10  O2  UNL     1      -4.544   8.017  15.772  1.00  0.00    -0.297 OA
HETATM   11  C2  UNL     1      -6.644   6.380  14.569  1.00  0.00    -0.009 C 
HETATM   12  C10 UNL     1      -4.536   5.248  13.521  1.00  0.00     0.003 C 
HETATM   13  C1  UNL     1      -6.560   5.732  15.970  1.00  0.00     0.021 C 
HETATM   14  C3  UNL     1      -7.354   7.764  14.673  1.00  0.00     0.022 C 
HETATM   15  C7  UNL     1      -7.474   5.441  13.672  1.00  0.00    -0.067 C 
HETATM   16  C4  UNL     1      -8.854   7.671  14.916  1.00  0.00     0.084 C 
HETATM   17  C5  UNL     1      -9.506   6.836  13.850  1.00  0.00     0.149 C 
HETATM   18  O1  UNL     1     -10.657   7.031  13.468  1.00  0.00    -0.293 OA
HETATM   19  C6  UNL     1      -8.749   5.679  13.316  1.00  0.00     0.053 C 
HETATM   20  C8  UNL     1      -6.799   4.173  13.204  1.00  0.00     0.035 C 
HETATM   21  C9  UNL     1      -5.440   4.448  12.573  1.00  0.00     0.010 C 
HETATM   22  C17 UNL     1      -2.335   4.386  12.380  1.00  0.00     0.009 C 
HETATM   23  C18 UNL     1      -0.901   4.943  12.310  1.00  0.00     0.047 C 
BRANCH   3  24
HETATM   24  O3  UNL     1      -1.202   7.270  11.777  1.00  0.00    -0.381 OA
HETATM   25  H25 UNL     1      -0.343   7.607  11.441  1.00  0.00     0.211 HD
ENDBRANCH   3  24
ENDBRANCH   1   3
BRANCH   1  26
HETATM   26  C21 UNL     1       0.445   8.348  14.010  1.00  0.00     0.260 C 
BRANCH  26  27
HETATM   27  O5  UNL     1       0.557   8.748  15.370  1.00  0.00    -0.314 OA
BRANCH  27  28
HETATM   28  C22 UNL     1       1.818   8.872  15.856  1.00  0.00     0.259 C 
HETATM   29  O6  UNL     1       2.119   8.668  17.025  1.00  0.00    -0.265 OA
BRANCH  28  30
HETATM   30  C23 UNL     1       2.814   9.337  14.818  1.00  0.00     0.120 C 
BRANCH  30  31
HETATM   31  C24 UNL     1       3.947   8.361  14.525  1.00  0.00     0.112 C 
BRANCH  31  32
HETATM   32  C25 UNL     1       4.259   8.274  13.044  1.00  0.00     0.218 C 
HETATM   33  O7  UNL     1       4.119   9.212  12.269  1.00  0.00    -0.274 OA
HETATM   34  N1  UNL     1       4.726   7.035  12.664  1.00  0.00    -0.346 N 
HETATM   35  H32 UNL     1       4.465   6.254  13.256  1.00  0.00     0.163 HD
BRANCH  34  36
HETATM   36  C26 UNL     1       4.925   6.713  11.242  1.00  0.00     0.186 C 
BRANCH  36  37
HETATM   37  C27 UNL     1       4.471   7.892  10.373  1.00  0.00     0.074 C 
BRANCH  37  38
HETATM   38  C28 UNL     1       3.627   7.490   9.188  1.00  0.00    -0.056 A 
HETATM   39  C29 UNL     1       3.070   8.464   8.348  1.00  0.00     0.007 A 
HETATM   40  C30 UNL     1       2.292   8.087   7.251  1.00  0.00     0.001 A 
HETATM   41  C31 UNL     1       2.064   6.740   6.984  1.00  0.00     0.000 A 
HETATM   42  C32 UNL     1       2.614   5.764   7.813  1.00  0.00     0.001 A 
HETATM   43  C33 UNL     1       3.392   6.136   8.912  1.00  0.00     0.007 A 
ENDBRANCH  37  38
ENDBRANCH  36  37
BRANCH  36  44
HETATM   44  C34 UNL     1       6.417   6.463  11.048  1.00  0.00     0.163 C 
HETATM   45  O8  UNL     1       6.922   5.392  10.737  1.00  0.00    -0.648 OA
BRANCH  44  46
HETATM   46  O9  UNL     1       7.183   7.548  11.266  1.00  0.00    -0.775 OA
HETATM   47  H41 UNL     1       8.103   7.252  11.102  1.00  0.00     0.167 HD
ENDBRANCH  44  46
ENDBRANCH  36  44
ENDBRANCH  34  36
ENDBRANCH  31  32
ENDBRANCH  30  31
ENDBRANCH  28  30
ENDBRANCH  27  28
ENDBRANCH  26  27
ENDBRANCH   1  26
TORSDOF 13
ENDMDL
MODEL 6
REMARK minimizedAffinity -8.58962345
REMARK CNNscore 0.410992175
REMARK CNNaffinity 6.35712004
REMARK  13 active torsions:
REMARK  status: ('A' for Active; 'I' for Inactive)
REMARK    1  A    between atoms: C19_21  and  O3_22 
REMARK    2  A    between atoms: C19_21  and  C20_23 
REMARK    3  A    between atoms: C20_23  and  C21_25 
REMARK    4  A    between atoms: C21_25  and  O5_26 
REMARK    5  A    between atoms: O5_26  and  C22_27 
REMARK    6  A    between atoms: C22_27  and  C23_29 
REMARK    7  A    between atoms: C23_29  and  C24_30 
REMARK    8  A    between atoms: C24_30  and  C25_31 
REMARK       I    between atoms: C25_31  and  N1_33 
REMARK    9  A    between atoms: N1_33  and  C26_34 
REMARK   10  A    between atoms: C26_34  and  C27_35 
REMARK   11  A    between atoms: C26_34  and  C34_42 
REMARK   12  A    between atoms: C27_35  and  C28_36 
REMARK   13  A    between atoms: C34_42  and  O9_44 
ROOT
HETATM    1  C20 UNL     1      -0.819  11.353  18.449  1.00  0.00     0.185 C 
HETATM    2  O4  UNL     1      -0.333  12.334  17.878  1.00  0.00    -0.292 OA
ENDROOT
BRANCH   1   3
HETATM    3  C19 UNL     1      -2.165  10.749  17.985  1.00  0.00     0.128 C 
HETATM    4  C14 UNL     1      -2.035   9.883  16.690  1.00  0.00     0.005 C 
HETATM    5  C13 UNL     1      -1.430   8.484  16.871  1.00  0.00     0.091 C 
HETATM    6  C15 UNL     1      -1.238  10.644  15.593  1.00  0.00     0.019 C 
HETATM    7  C16 UNL     1      -3.533   9.699  16.338  1.00  0.00     0.002 C 
HETATM    8  C12 UNL     1      -1.656   7.663  15.607  1.00  0.00     0.133 C 
HETATM    9  C11 UNL     1      -3.113   7.536  15.116  1.00  0.00     0.072 C 
HETATM   10  O2  UNL     1      -0.709   7.100  15.062  1.00  0.00    -0.297 OA
HETATM   11  C2  UNL     1      -3.319   6.671  13.819  1.00  0.00    -0.009 C 
HETATM   12  C10 UNL     1      -3.763   8.948  15.020  1.00  0.00     0.003 C 
HETATM   13  C1  UNL     1      -2.527   7.218  12.610  1.00  0.00     0.021 C 
HETATM   14  C3  UNL     1      -2.876   5.207  14.119  1.00  0.00     0.022 C 
HETATM   15  C7  UNL     1      -4.813   6.690  13.443  1.00  0.00    -0.067 C 
HETATM   16  C4  UNL     1      -3.378   4.191  13.103  1.00  0.00     0.084 C 
HETATM   17  C5  UNL     1      -4.875   4.263  12.988  1.00  0.00     0.149 C 
HETATM   18  O1  UNL     1      -5.566   3.283  12.718  1.00  0.00    -0.293 OA
HETATM   19  C6  UNL     1      -5.517   5.592  13.114  1.00  0.00     0.053 C 
HETATM   20  C8  UNL     1      -5.494   8.039  13.422  1.00  0.00     0.035 C 
HETATM   21  C9  UNL     1      -5.260   8.817  14.711  1.00  0.00     0.010 C 
HETATM   22  C17 UNL     1      -4.106  11.104  16.476  1.00  0.00     0.009 C 
HETATM   23  C18 UNL     1      -3.275  11.759  17.596  1.00  0.00     0.047 C 
BRANCH   3  24
HETATM   24  O3  UNL     1      -2.687   9.924  19.037  1.00  0.00    -0.381 OA
HETATM   25  H25 UNL     1      -2.413  10.304  19.900  1.00  0.00     0.211 HD
ENDBRANCH   3  24
ENDBRANCH   1   3
BRANCH   1  26
HETATM   26  C21 UNL     1      -0.079  10.725  19.635  1.00  0.00     0.260 C 
BRANCH  26  27
HETATM   27  O5  UNL     1       1.132  11.284  20.128  1.00  0.00    -0.314 OA
BRANCH  27  28
HETATM   28  C22 UNL     1       2.277  10.832  19.556  1.00  0.00     0.259 C 
HETATM   29  O6  UNL     1       2.684   9.682  19.668  1.00  0.00    -0.265 OA
BRANCH  28  30
HETATM   30  C23 UNL     1       3.032  11.904  18.805  1.00  0.00     0.120 C 
BRANCH  30  31
HETATM   31  C24 UNL     1       4.527  11.651  18.644  1.00  0.00     0.112 C 
BRANCH  31  32
HETATM   32  C25 UNL     1       5.359  12.564  19.523  1.00  0.00     0.218 C 
HETATM   33  O7  UNL     1       5.258  13.784  19.514  1.00  0.00    -0.274 OA
HETATM   34  N1  UNL     1       6.231  11.877  20.339  1.00  0.00    -0.346 N 
HETATM   35  H32 UNL     1       6.505  10.951  20.028  1.00  0.00     0.163 HD
BRANCH  34  36
HETATM   36  C26 UNL     1       7.233  12.599  21.140  1.00  0.00     0.186 C 
BRANCH  36  37
HETATM   37  C27 UNL     1       6.858  12.532  22.625  1.00  0.00     0.074 C 
BRANCH  37  38
HETATM   38  C28 UNL     1       5.481  11.971  22.884  1.00  0.00    -0.056 A 
HETATM   39  C29 UNL     1       4.364  12.816  22.918  1.00  0.00     0.007 A 
HETATM   40  C30 UNL     1       3.090  12.293  23.155  1.00  0.00     0.001 A 
HETATM   41  C31 UNL     1       2.923  10.926  23.361  1.00  0.00     0.000 A 
HETATM   42  C32 UNL     1       4.028  10.077  23.328  1.00  0.00     0.001 A 
HETATM   43  C33 UNL     1       5.302  10.596  23.092  1.00  0.00     0.007 A 
ENDBRANCH  37  38
ENDBRANCH  36  37
BRANCH  36  44
HETATM   44  C34 UNL     1       8.571  11.905  20.904  1.00  0.00     0.163 C 
HETATM   45  O8  UNL     1       9.457  11.771  21.739  1.00  0.00    -0.648 OA
BRANCH  44  46
HETATM   46  O9  UNL     1       8.728  11.438  19.652  1.00  0.00    -0.775 OA
HETATM   47  H41 UNL     1       9.612  11.016  19.642  1.00  0.00     0.167 HD
ENDBRANCH  44  46
ENDBRANCH  36  44
ENDBRANCH  34  36
ENDBRANCH  31  32
ENDBRANCH  30  31
ENDBRANCH  28  30
ENDBRANCH  27  28
ENDBRANCH  26  27
ENDBRANCH   1  26
TORSDOF 13
ENDMDL
MODEL 7
REMARK minimizedAffinity -9.01355267
REMARK CNNscore 0.39695254
REMARK CNNaffinity 6.58849716
REMARK  13 active torsions:
REMARK  status: ('A' for Active; 'I' for Inactive)
REMARK    1  A    between atoms: C19_21  and  O3_22 
REMARK    2  A    between atoms: C19_21  and  C20_23 
REMARK    3  A    between atoms: C20_23  and  C21_25 
REMARK    4  A    between atoms: C21_25  and  O5_26 
REMARK    5  A    between atoms: O5_26  and  C22_27 
REMARK    6  A    between atoms: C22_27  and  C23_29 
REMARK    7  A    between atoms: C23_29  and  C24_30 
REMARK    8  A    between atoms: C24_30  and  C25_31 
REMARK       I    between atoms: C25_31  and  N1_33 
REMARK    9  A    between atoms: N1_33  and  C26_34 
REMARK   10  A    between atoms: C26_34  and  C27_35 
REMARK   11  A    between atoms: C26_34  and  C34_42 
REMARK   12  A    between atoms: C27_35  and  C28_36 
REMARK   13  A    between atoms: C34_42  and  O9_44 
ROOT
HETATM    1  C20 UNL     1      -1.531  10.114  17.168  1.00  0.00     0.185 C 
HETATM    2  O4  UNL     1      -2.524   9.455  16.846  1.00  0.00    -0.292 OA
ENDROOT
BRANCH   1   3
HETATM    3  C19 UNL     1      -0.249  10.096  16.302  1.00  0.00     0.128 C 
HETATM    4  C14 UNL     1      -0.378   9.187  15.036  1.00  0.00     0.005 C 
HETATM    5  C13 UNL     1      -1.198   9.761  13.873  1.00  0.00     0.091 C 
HETATM    6  C15 UNL     1      -0.941   7.788  15.415  1.00  0.00     0.019 C 
HETATM    7  C16 UNL     1       1.103   9.145  14.584  1.00  0.00     0.002 C 
HETATM    8  C12 UNL     1      -0.973   8.916  12.625  1.00  0.00     0.133 C 
HETATM    9  C11 UNL     1       0.490   8.720  12.177  1.00  0.00     0.072 C 
HETATM   10  O2  UNL     1      -1.934   8.473  12.000  1.00  0.00    -0.297 OA
HETATM   11  C2  UNL     1       0.693   7.858  10.878  1.00  0.00    -0.009 C 
HETATM   12  C10 UNL     1       1.348   8.226  13.380  1.00  0.00     0.003 C 
HETATM   13  C1  UNL     1       0.114   6.431  11.017  1.00  0.00     0.021 C 
HETATM   14  C3  UNL     1       0.011   8.588   9.682  1.00  0.00     0.022 C 
HETATM   15  C7  UNL     1       2.203   7.722  10.605  1.00  0.00    -0.067 C 
HETATM   16  C4  UNL     1       0.455   8.082   8.316  1.00  0.00     0.084 C 
HETATM   17  C5  UNL     1       1.950   8.168   8.188  1.00  0.00     0.149 C 
HETATM   18  O1  UNL     1       2.511   8.366   7.113  1.00  0.00    -0.293 OA
HETATM   19  C6  UNL     1       2.766   7.908   9.397  1.00  0.00     0.053 C 
HETATM   20  C8  UNL     1       3.075   7.324  11.773  1.00  0.00     0.035 C 
HETATM   21  C9  UNL     1       2.833   8.206  12.992  1.00  0.00     0.010 C 
HETATM   22  C17 UNL     1       1.862   8.859  15.874  1.00  0.00     0.009 C 
HETATM   23  C18 UNL     1       1.030   9.542  16.978  1.00  0.00     0.047 C 
BRANCH   3  24
HETATM   24  O3  UNL     1       0.037  11.436  15.875  1.00  0.00    -0.381 OA
HETATM   25  H25 UNL     1      -0.261  12.058  16.574  1.00  0.00     0.211 HD
ENDBRANCH   3  24
ENDBRANCH   1   3
BRANCH   1  26
HETATM   26  C21 UNL     1      -1.567  10.961  18.445  1.00  0.00     0.260 C 
BRANCH  26  27
HETATM   27  O5  UNL     1      -1.118  12.310  18.449  1.00  0.00    -0.314 OA
BRANCH  27  28
HETATM   28  C22 UNL     1      -0.358  12.684  19.510  1.00  0.00     0.259 C 
HETATM   29  O6  UNL     1      -0.452  13.773  20.063  1.00  0.00    -0.265 OA
BRANCH  28  30
HETATM   30  C23 UNL     1       0.658  11.640  19.914  1.00  0.00     0.120 C 
BRANCH  30  31
HETATM   31  C24 UNL     1       2.080  11.901  19.433  1.00  0.00     0.112 C 
BRANCH  31  32
HETATM   32  C25 UNL     1       3.084  10.968  20.082  1.00  0.00     0.218 C 
HETATM   33  O7  UNL     1       4.121  10.610  19.541  1.00  0.00    -0.274 OA
HETATM   34  N1  UNL     1       2.710  10.575  21.349  1.00  0.00    -0.346 N 
HETATM   35  H32 UNL     1       1.718  10.609  21.558  1.00  0.00     0.163 HD
BRANCH  34  36
HETATM   36  C26 UNL     1       3.474   9.543  22.069  1.00  0.00     0.186 C 
BRANCH  36  37
HETATM   37  C27 UNL     1       4.374  10.201  23.121  1.00  0.00     0.074 C 
BRANCH  37  38
HETATM   38  C28 UNL     1       4.335  11.709  23.103  1.00  0.00    -0.056 A 
HETATM   39  C29 UNL     1       3.149  12.395  23.401  1.00  0.00     0.007 A 
HETATM   40  C30 UNL     1       3.118  13.791  23.386  1.00  0.00     0.001 A 
HETATM   41  C31 UNL     1       4.267  14.513  23.075  1.00  0.00     0.000 A 
HETATM   42  C32 UNL     1       5.452  13.841  22.779  1.00  0.00     0.001 A 
HETATM   43  C33 UNL     1       5.487  12.445  22.792  1.00  0.00     0.007 A 
ENDBRANCH  37  38
ENDBRANCH  36  37
BRANCH  36  44
HETATM   44  C34 UNL     1       2.456   8.630  22.746  1.00  0.00     0.163 C 
HETATM   45  O8  UNL     1       1.710   7.849  22.169  1.00  0.00    -0.648 OA
BRANCH  44  46
HETATM   46  O9  UNL     1       2.422   8.754  24.085  1.00  0.00    -0.775 OA
HETATM   47  H41 UNL     1       1.742   8.116  24.386  1.00  0.00     0.167 HD
ENDBRANCH  44  46
ENDBRANCH  36  44
ENDBRANCH  34  36
ENDBRANCH  31  32
ENDBRANCH  30  31
ENDBRANCH  28  30
ENDBRANCH  27  28
ENDBRANCH  26  27
ENDBRANCH   1  26
TORSDOF 13
ENDMDL
MODEL 8
REMARK minimizedAffinity -8.36584759
REMARK CNNscore 0.378191113
REMARK CNNaffinity 6.76679993
REMARK  13 active torsions:
REMARK  status: ('A' for Active; 'I' for Inactive)
REMARK    1  A    between atoms: C19_21  and  O3_22 
REMARK    2  A    between atoms: C19_21  and  C20_23 
REMARK    3  A    between atoms: C20_23  and  C21_25 
REMARK    4  A    between atoms: C21_25  and  O5_26 
REMARK    5  A    between atoms: O5_26  and  C22_27 
REMARK    6  A    between atoms: C22_27  and  C23_29 
REMARK    7  A    between atoms: C23_29  and  C24_30 
REMARK    8  A    between atoms: C24_30  and  C25_31 
REMARK       I    between atoms: C25_31  and  N1_33 
REMARK    9  A    between atoms: N1_33  and  C26_34 
REMARK   10  A    between atoms: C26_34  and  C27_35 
REMARK   11  A    between atoms: C26_34  and  C34_42 
REMARK   12  A    between atoms: C27_35  and  C28_36 
REMARK   13  A    between atoms: C34_42  and  O9_44 
ROOT
HETATM    1  C20 UNL     1      -1.891   9.740  16.411  1.00  0.00     0.185 C 
HETATM    2  O4  UNL     1      -2.400  10.855  16.261  1.00  0.00    -0.292 OA
ENDROOT
BRANCH   1   3
HETATM    3  C19 UNL     1      -2.664   8.456  16.028  1.00  0.00     0.128 C 
HETATM    4  C14 UNL     1      -2.141   7.796  14.711  1.00  0.00     0.005 C 
HETATM    5  C13 UNL     1      -0.827   7.013  14.823  1.00  0.00     0.091 C 
HETATM    6  C15 UNL     1      -2.010   8.852  13.577  1.00  0.00     0.019 C 
HETATM    7  C16 UNL     1      -3.274   6.769  14.458  1.00  0.00     0.002 C 
HETATM    8  C12 UNL     1      -0.618   6.184  13.562  1.00  0.00     0.133 C 
HETATM    9  C11 UNL     1      -1.759   5.222  13.169  1.00  0.00     0.072 C 
HETATM   10  O2  UNL     1       0.441   6.262  12.943  1.00  0.00    -0.297 OA
HETATM   11  C2  UNL     1      -1.510   4.368  11.873  1.00  0.00    -0.009 C 
HETATM   12  C10 UNL     1      -3.112   5.993  13.145  1.00  0.00     0.003 C 
HETATM   13  C1  UNL     1      -1.265   5.244  10.623  1.00  0.00     0.021 C 
HETATM   14  C3  UNL     1      -0.280   3.440  12.113  1.00  0.00     0.022 C 
HETATM   15  C7  UNL     1      -2.759   3.507  11.600  1.00  0.00    -0.067 C 
HETATM   16  C4  UNL     1      -0.166   2.298  11.114  1.00  0.00     0.084 C 
HETATM   17  C5  UNL     1      -1.430   1.484  11.102  1.00  0.00     0.149 C 
HETATM   18  O1  UNL     1      -1.440   0.280  10.862  1.00  0.00    -0.293 OA
HETATM   19  C6  UNL     1      -2.714   2.197  11.298  1.00  0.00     0.053 C 
HETATM   20  C8  UNL     1      -4.096   4.210  11.651  1.00  0.00     0.035 C 
HETATM   21  C9  UNL     1      -4.271   5.009  12.936  1.00  0.00     0.010 C 
HETATM   22  C17 UNL     1      -4.546   7.583  14.662  1.00  0.00     0.009 C 
HETATM   23  C18 UNL     1      -4.177   8.625  15.736  1.00  0.00     0.047 C 
BRANCH   3  24
HETATM   24  O3  UNL     1      -2.538   7.507  17.097  1.00  0.00    -0.381 OA
HETATM   25  H25 UNL     1      -2.479   7.996  17.946  1.00  0.00     0.211 HD
ENDBRANCH   3  24
ENDBRANCH   1   3
BRANCH   1  26
HETATM   26  C21 UNL     1      -0.475   9.626  16.986  1.00  0.00     0.260 C 
BRANCH  26  27
HETATM   27  O5  UNL     1       0.234  10.774  17.433  1.00  0.00    -0.314 OA
BRANCH  27  28
HETATM   28  C22 UNL     1       1.052  10.594  18.501  1.00  0.00     0.259 C 
HETATM   29  O6  UNL     1       2.118   9.993  18.447  1.00  0.00    -0.265 OA
BRANCH  28  30
HETATM   30  C23 UNL     1       0.494  11.167  19.784  1.00  0.00     0.120 C 
BRANCH  30  31
HETATM   31  C24 UNL     1       0.634  12.678  19.932  1.00  0.00     0.112 C 
BRANCH  31  32
HETATM   32  C25 UNL     1       1.991  13.074  20.481  1.00  0.00     0.218 C 
HETATM   33  O7  UNL     1       2.979  13.249  19.779  1.00  0.00    -0.274 OA
HETATM   34  N1  UNL     1       1.993  13.226  21.850  1.00  0.00    -0.346 N 
HETATM   35  H32 UNL     1       1.277  12.722  22.362  1.00  0.00     0.163 HD
BRANCH  34  36
HETATM   36  C26 UNL     1       3.254  13.447  22.577  1.00  0.00     0.186 C 
BRANCH  36  37
HETATM   37  C27 UNL     1       4.202  12.265  22.344  1.00  0.00     0.074 C 
BRANCH  37  38
HETATM   38  C28 UNL     1       3.577  10.917  22.606  1.00  0.00    -0.056 A 
HETATM   39  C29 UNL     1       3.159  10.565  23.897  1.00  0.00     0.007 A 
HETATM   40  C30 UNL     1       2.578   9.317  24.135  1.00  0.00     0.001 A 
HETATM   41  C31 UNL     1       2.409   8.413  23.089  1.00  0.00     0.000 A 
HETATM   42  C32 UNL     1       2.820   8.754  21.802  1.00  0.00     0.001 A 
HETATM   43  C33 UNL     1       3.403  10.000  21.560  1.00  0.00     0.007 A 
ENDBRANCH  37  38
ENDBRANCH  36  37
BRANCH  36  44
HETATM   44  C34 UNL     1       3.867  14.729  22.023  1.00  0.00     0.163 C 
HETATM   45  O8  UNL     1       3.376  15.847  22.111  1.00  0.00    -0.648 OA
BRANCH  44  46
HETATM   46  O9  UNL     1       5.037  14.540  21.385  1.00  0.00    -0.775 OA
HETATM   47  H41 UNL     1       5.319  15.431  21.091  1.00  0.00     0.167 HD
ENDBRANCH  44  46
ENDBRANCH  36  44
ENDBRANCH  34  36
ENDBRANCH  31  32
ENDBRANCH  30  31
ENDBRANCH  28  30
ENDBRANCH  27  28
ENDBRANCH  26  27
ENDBRANCH   1  26
TORSDOF 13
ENDMDL
MODEL 9
REMARK minimizedAffinity -8.41098309
REMARK CNNscore 0.316476613
REMARK CNNaffinity 6.06790113
REMARK  13 active torsions:
REMARK  status: ('A' for Active; 'I' for Inactive)
REMARK    1  A    between atoms: C19_21  and  O3_22 
REMARK    2  A    between atoms: C19_21  and  C20_23 
REMARK    3  A    between atoms: C20_23  and  C21_25 
REMARK    4  A    between atoms: C21_25  and  O5_26 
REMARK    5  A    between atoms: O5_26  and  C22_27 
REMARK    6  A    between atoms: C22_27  and  C23_29 
REMARK    7  A    between atoms: C23_29  and  C24_30 
REMARK    8  A    between atoms: C24_30  and  C25_31 
REMARK       I    between atoms: C25_31  and  N1_33 
REMARK    9  A    between atoms: N1_33  and  C26_34 
REMARK   10  A    between atoms: C26_34  and  C27_35 
REMARK   11  A    between atoms: C26_34  and  C34_42 
REMARK   12  A    between atoms: C27_35  and  C28_36 
REMARK   13  A    between atoms: C34_42  and  O9_44 
ROOT
HETATM    1  C20 UNL     1       5.960   7.938  13.972  1.00  0.00     0.185 C 
HETATM    2  O4  UNL     1       5.128   8.260  14.826  1.00  0.00    -0.292 OA
ENDROOT
BRANCH   1   3
HETATM    3  C19 UNL     1       7.463   8.239  14.176  1.00  0.00     0.128 C 
HETATM    4  C14 UNL     1       7.724   9.407  15.181  1.00  0.00     0.005 C 
HETATM    5  C13 UNL     1       7.554   9.070  16.668  1.00  0.00     0.091 C 
HETATM    6  C15 UNL     1       6.843  10.642  14.835  1.00  0.00     0.019 C 
HETATM    7  C16 UNL     1       9.234   9.647  14.928  1.00  0.00     0.002 C 
HETATM    8  C12 UNL     1       8.136  10.195  17.516  1.00  0.00     0.133 C 
HETATM    9  C11 UNL     1       9.604  10.582  17.239  1.00  0.00     0.072 C 
HETATM   10  O2  UNL     1       7.460  10.710  18.403  1.00  0.00    -0.297 OA
HETATM   11  C2  UNL     1      10.183  11.734  18.138  1.00  0.00    -0.009 C 
HETATM   12  C10 UNL     1       9.804  10.835  15.715  1.00  0.00     0.003 C 
HETATM   13  C1  UNL     1       9.383  13.049  18.006  1.00  0.00     0.021 C 
HETATM   14  C3  UNL     1      10.176  11.261  19.623  1.00  0.00     0.022 C 
HETATM   15  C7  UNL     1      11.631  12.025  17.698  1.00  0.00    -0.067 C 
HETATM   16  C4  UNL     1      11.055  12.098  20.541  1.00  0.00     0.084 C 
HETATM   17  C5  UNL     1      12.465  12.139  20.021  1.00  0.00     0.149 C 
HETATM   18  O1  UNL     1      13.441  12.232  20.761  1.00  0.00    -0.293 OA
HETATM   19  C6  UNL     1      12.661  12.161  18.552  1.00  0.00     0.053 C 
HETATM   20  C8  UNL     1      11.873  12.194  16.216  1.00  0.00     0.035 C 
HETATM   21  C9  UNL     1      11.294  11.039  15.408  1.00  0.00     0.010 C 
HETATM   22  C17 UNL     1       9.341   9.672  13.408  1.00  0.00     0.009 C 
HETATM   23  C18 UNL     1       8.249   8.700  12.922  1.00  0.00     0.047 C 
BRANCH   3  24
HETATM   24  O3  UNL     1       8.107   7.056  14.673  1.00  0.00    -0.381 OA
HETATM   25  H25 UNL     1       7.649   6.270  14.301  1.00  0.00     0.211 HD
ENDBRANCH   3  24
ENDBRANCH   1   3
BRANCH   1  26
HETATM   26  C21 UNL     1       5.497   7.234  12.692  1.00  0.00     0.260 C 
BRANCH  26  27
HETATM   27  O5  UNL     1       4.144   7.302  12.261  1.00  0.00    -0.314 OA
BRANCH  27  28
HETATM   28  C22 UNL     1       3.926   7.092  10.938  1.00  0.00     0.259 C 
HETATM   29  O6  UNL     1       4.774   7.272  10.073  1.00  0.00    -0.265 OA
BRANCH  28  30
HETATM   30  C23 UNL     1       2.511   6.660  10.628  1.00  0.00     0.120 C 
BRANCH  30  31
HETATM   31  C24 UNL     1       1.769   5.996  11.782  1.00  0.00     0.112 C 
BRANCH  31  32
HETATM   32  C25 UNL     1       0.509   5.290  11.321  1.00  0.00     0.218 C 
HETATM   33  O7  UNL     1      -0.036   5.514  10.248  1.00  0.00    -0.274 OA
HETATM   34  N1  UNL     1       0.049   4.363  12.230  1.00  0.00    -0.346 N 
HETATM   35  H32 UNL     1       0.323   4.505  13.197  1.00  0.00     0.163 HD
BRANCH  34  36
HETATM   36  C26 UNL     1      -1.250   3.699  12.031  1.00  0.00     0.186 C 
BRANCH  36  37
HETATM   37  C27 UNL     1      -2.283   4.716  11.531  1.00  0.00     0.074 C 
BRANCH  37  38
HETATM   38  C28 UNL     1      -3.650   4.552  12.148  1.00  0.00    -0.056 A 
HETATM   39  C29 UNL     1      -4.507   3.529  11.719  1.00  0.00     0.007 A 
HETATM   40  C30 UNL     1      -5.771   3.379  12.294  1.00  0.00     0.001 A 
HETATM   41  C31 UNL     1      -6.189   4.246  13.299  1.00  0.00     0.000 A 
HETATM   42  C32 UNL     1      -5.344   5.266  13.734  1.00  0.00     0.001 A 
HETATM   43  C33 UNL     1      -4.081   5.420  13.161  1.00  0.00     0.007 A 
ENDBRANCH  37  38
ENDBRANCH  36  37
BRANCH  36  44
HETATM   44  C34 UNL     1      -1.035   2.611  10.983  1.00  0.00     0.163 C 
HETATM   45  O8  UNL     1      -1.732   2.433   9.993  1.00  0.00    -0.648 OA
BRANCH  44  46
HETATM   46  O9  UNL     1       0.017   1.811  11.239  1.00  0.00    -0.775 OA
HETATM   47  H41 UNL     1       0.043   1.173  10.495  1.00  0.00     0.167 HD
ENDBRANCH  44  46
ENDBRANCH  36  44
ENDBRANCH  34  36
ENDBRANCH  31  32
ENDBRANCH  30  31
ENDBRANCH  28  30
ENDBRANCH  27  28
ENDBRANCH  26  27
ENDBRANCH   1  26
TORSDOF 13
ENDMDL
