MODEL 1
REMARK minimizedAffinity -9.32525826
REMARK CNNscore 0.41689378
REMARK CNNaffinity 6.52276611
REMARK  6 active torsions:
REMARK  status: ('A' for Active; 'I' for Inactive)
REMARK    1  A    between atoms: C9_10  and  C10_11 
REMARK    2  A    between atoms: C11_13  and  O3_14 
REMARK    3  A    between atoms: C12_15  and  C13_16 
REMARK    4  A    between atoms: C14_18  and  O5_19 
REMARK    5  A    between atoms: C16_21  and  C17_22 
REMARK    6  A    between atoms: C17_22  and  C18_23 
ROOT
HETATM    1  C1  UNL     1      -5.449  47.965 -26.267  1.00  0.00     0.043 C 
HETATM    2  C2  UNL     1      -4.470  48.874 -25.554  1.00  0.00    -0.087 C 
HETATM    3  C3  UNL     1      -3.159  48.808 -25.871  1.00  0.00    -0.024 C 
HETATM    4  C4  UNL     1      -1.924  49.541 -25.400  1.00  0.00     0.030 C 
HETATM    5  C5  UNL     1      -2.074  50.940 -24.806  1.00  0.00     0.042 C 
HETATM    6  C6  UNL     1      -1.926  51.122 -23.258  1.00  0.00     0.069 C 
HETATM    7  C7  UNL     1      -2.733  52.410 -22.920  1.00  0.00     0.047 C 
HETATM    8  O1  UNL     1      -0.511  51.510 -23.112  1.00  0.00    -0.338 OA
HETATM    9  C8  UNL     1      -0.130  51.676 -21.804  1.00  0.00     0.095 A 
HETATM   10  C9  UNL     1       0.535  52.839 -21.407  1.00  0.00     0.070 A 
HETATM   11  C11 UNL     1       0.832  53.031 -20.053  1.00  0.00     0.097 A 
HETATM   12  C12 UNL     1       0.455  52.059 -19.118  1.00  0.00     0.069 A 
HETATM   13  C14 UNL     1      -0.183  50.875 -19.543  1.00  0.00     0.091 A 
HETATM   14  C15 UNL     1      -0.433  50.649 -20.901  1.00  0.00     0.015 A 
HETATM   15  C16 UNL     1      -0.999  49.411 -21.570  1.00  0.00     0.032 C 
HETATM   16  C21 UNL     1      -2.290  49.830 -22.350  1.00  0.00     0.034 C 
HETATM   17  C22 UNL     1      -3.494  50.081 -21.446  1.00  0.00     0.006 A 
HETATM   18  C23 UNL     1      -4.910  49.817 -21.963  1.00  0.00    -0.001 A 
HETATM   19  C24 UNL     1      -5.263  48.988 -23.174  1.00  0.00     0.010 C 
HETATM   20  C25 UNL     1      -5.124  49.741 -24.497  1.00  0.00     0.034 C 
HETATM   21  C26 UNL     1      -4.427  49.101 -20.710  1.00  0.00    -0.039 A 
HETATM   22  C27 UNL     1      -4.999  49.582 -19.392  1.00  0.00     0.015 C 
HETATM   23  C28 UNL     1      -4.269  47.602 -20.739  1.00  0.00     0.015 C 
ENDROOT
BRANCH  15  24
HETATM   24  C17 UNL     1      -1.096  48.102 -20.768  1.00  0.00     0.014 C 
BRANCH  24  25
HETATM   25  C18 UNL     1      -2.137  48.097 -19.621  1.00  0.00    -0.022 C 
HETATM   26  C19 UNL     1      -1.546  48.582 -18.294  1.00  0.00     0.009 C 
HETATM   27  C20 UNL     1      -2.691  46.679 -19.444  1.00  0.00     0.009 C 
ENDBRANCH  24  25
ENDBRANCH  15  24
BRANCH  13  28
HETATM   28  O5  UNL     1      -0.593  49.936 -18.636  1.00  0.00    -0.359 OA
HETATM   29  H15 UNL     1      -0.335  50.226 -17.731  1.00  0.00     0.217 HD
ENDBRANCH  13  28
BRANCH  10  30
HETATM   30  C10 UNL     1       0.887  53.855 -22.415  1.00  0.00     0.275 C 
HETATM   31  O2  UNL     1       1.795  54.654 -22.196  1.00  0.00    -0.301 OA
ENDBRANCH  10  30
BRANCH  12  32
HETATM   32  C13 UNL     1       0.737  52.293 -17.686  1.00  0.00     0.275 C 
HETATM   33  O4  UNL     1       0.265  51.551 -16.827  1.00  0.00    -0.301 OA
ENDBRANCH  12  32
BRANCH  11  34
HETATM   34  O3  UNL     1       1.467  54.164 -19.608  1.00  0.00    -0.359 OA
HETATM   35  H13 UNL     1       1.655  54.747 -20.382  1.00  0.00     0.217 HD
ENDBRANCH  11  34
TORSDOF 6
ENDMDL
MODEL 2
REMARK minimizedAffinity -5.69002151
REMARK CNNscore 0.317715585
REMARK CNNaffinity 5.44770813
REMARK  6 active torsions:
REMARK  status: ('A' for Active; 'I' for Inactive)
REMARK    1  A    between atoms: C9_10  and  C10_11 
REMARK    2  A    between atoms: C11_13  and  O3_14 
REMARK    3  A    between atoms: C12_15  and  C13_16 
REMARK    4  A    between atoms: C14_18  and  O5_19 
REMARK    5  A    between atoms: C16_21  and  C17_22 
REMARK    6  A    between atoms: C17_22  and  C18_23 
ROOT
HETATM    1  C1  UNL     1       8.390  36.432 -20.824  1.00  0.00     0.043 C 
HETATM    2  C2  UNL     1       9.131  37.283 -21.833  1.00  0.00    -0.087 C 
HETATM    3  C3  UNL     1      10.212  36.770 -22.460  1.00  0.00    -0.024 C 
HETATM    4  C4  UNL     1      11.170  37.295 -23.505  1.00  0.00     0.030 C 
HETATM    5  C5  UNL     1      10.702  38.397 -24.452  1.00  0.00     0.042 C 
HETATM    6  C6  UNL     1      11.233  39.854 -24.235  1.00  0.00     0.069 C 
HETATM    7  C7  UNL     1      10.152  40.781 -24.864  1.00  0.00     0.047 C 
HETATM    8  O1  UNL     1      12.379  39.923 -25.161  1.00  0.00    -0.338 OA
HETATM    9  C8  UNL     1      13.048  41.119 -25.104  1.00  0.00     0.095 A 
HETATM   10  C9  UNL     1      13.324  41.828 -26.275  1.00  0.00     0.070 A 
HETATM   11  C11 UNL     1      13.923  43.090 -26.189  1.00  0.00     0.097 A 
HETATM   12  C12 UNL     1      14.233  43.623 -24.932  1.00  0.00     0.069 A 
HETATM   13  C14 UNL     1      13.980  42.876 -23.761  1.00  0.00     0.091 A 
HETATM   14  C15 UNL     1      13.433  41.591 -23.842  1.00  0.00     0.015 A 
HETATM   15  C16 UNL     1      13.189  40.590 -22.729  1.00  0.00     0.032 C 
HETATM   16  C21 UNL     1      11.664  40.237 -22.720  1.00  0.00     0.034 C 
HETATM   17  C22 UNL     1      10.786  41.339 -22.132  1.00  0.00     0.006 A 
HETATM   18  C23 UNL     1       9.483  40.981 -21.415  1.00  0.00    -0.001 A 
HETATM   19  C24 UNL     1       9.111  39.613 -20.897  1.00  0.00     0.010 C 
HETATM   20  C25 UNL     1       8.557  38.678 -21.971  1.00  0.00     0.034 C 
HETATM   21  C26 UNL     1      10.550  41.773 -20.674  1.00  0.00    -0.039 A 
HETATM   22  C27 UNL     1      10.269  43.244 -20.448  1.00  0.00     0.015 C 
HETATM   23  C28 UNL     1      11.233  41.144 -19.484  1.00  0.00     0.015 C 
ENDROOT
BRANCH  15  24
HETATM   24  C17 UNL     1      13.829  40.830 -21.350  1.00  0.00     0.014 C 
BRANCH  24  25
HETATM   25  C18 UNL     1      15.255  40.253 -21.166  1.00  0.00    -0.022 C 
HETATM   26  C19 UNL     1      15.244  38.746 -20.894  1.00  0.00     0.009 C 
HETATM   27  C20 UNL     1      15.949  40.975 -20.007  1.00  0.00     0.009 C 
ENDBRANCH  24  25
ENDBRANCH  15  24
BRANCH  13  28
HETATM   28  O5  UNL     1      14.240  43.402 -22.525  1.00  0.00    -0.359 OA
HETATM   29  H15 UNL     1      14.634  44.298 -22.631  1.00  0.00     0.217 HD
ENDBRANCH  13  28
BRANCH  10  30
HETATM   30  C10 UNL     1      12.954  41.249 -27.579  1.00  0.00     0.275 C 
HETATM   31  O2  UNL     1      12.133  41.817 -28.297  1.00  0.00    -0.301 OA
ENDBRANCH  10  30
BRANCH  12  32
HETATM   32  C13 UNL     1      14.828  44.973 -24.851  1.00  0.00     0.275 C 
HETATM   33  O4  UNL     1      14.326  45.915 -25.463  1.00  0.00    -0.301 OA
ENDBRANCH  12  32
BRANCH  11  34
HETATM   34  O3  UNL     1      14.199  43.835 -27.308  1.00  0.00    -0.359 OA
HETATM   35  H13 UNL     1      13.914  43.328 -28.105  1.00  0.00     0.217 HD
ENDBRANCH  11  34
TORSDOF 6
ENDMDL
MODEL 3
REMARK minimizedAffinity -5.94459486
REMARK CNNscore 0.271224827
REMARK CNNaffinity 5.24501276
REMARK  6 active torsions:
REMARK  status: ('A' for Active; 'I' for Inactive)
REMARK    1  A    between atoms: C9_10  and  C10_11 
REMARK    2  A    between atoms: C11_13  and  O3_14 
REMARK    3  A    between atoms: C12_15  and  C13_16 
REMARK    4  A    between atoms: C14_18  and  O5_19 
REMARK    5  A    between atoms: C16_21  and  C17_22 
REMARK    6  A    between atoms: C17_22  and  C18_23 
ROOT
HETATM    1  C1  UNL     1     -12.885  46.767 -16.616  1.00  0.00     0.043 C 
HETATM    2  C2  UNL     1     -13.862  46.690 -17.771  1.00  0.00    -0.087 C 
HETATM    3  C3  UNL     1     -14.939  47.505 -17.779  1.00  0.00    -0.024 C 
HETATM    4  C4  UNL     1     -16.088  47.720 -18.736  1.00  0.00     0.030 C 
HETATM    5  C5  UNL     1     -15.903  47.365 -20.209  1.00  0.00     0.042 C 
HETATM    6  C6  UNL     1     -16.591  46.073 -20.766  1.00  0.00     0.069 C 
HETATM    7  C7  UNL     1     -15.737  45.655 -21.999  1.00  0.00     0.047 C 
HETATM    8  O1  UNL     1     -17.848  46.594 -21.333  1.00  0.00    -0.338 OA
HETATM    9  C8  UNL     1     -18.658  45.611 -21.844  1.00  0.00     0.095 A 
HETATM   10  C9  UNL     1     -19.180  45.729 -23.134  1.00  0.00     0.070 A 
HETATM   11  C11 UNL     1     -19.926  44.674 -23.672  1.00  0.00     0.097 A 
HETATM   12  C12 UNL     1     -20.134  43.517 -22.911  1.00  0.00     0.069 A 
HETATM   13  C14 UNL     1     -19.629  43.431 -21.596  1.00  0.00     0.091 A 
HETATM   14  C15 UNL     1     -18.931  44.503 -21.031  1.00  0.00     0.015 A 
HETATM   15  C16 UNL     1     -18.409  44.657 -19.615  1.00  0.00     0.032 C 
HETATM   16  C21 UNL     1     -16.863  44.890 -19.691  1.00  0.00     0.034 C 
HETATM   17  C22 UNL     1     -16.070  43.626 -20.012  1.00  0.00     0.006 A 
HETATM   18  C23 UNL     1     -14.646  43.457 -19.477  1.00  0.00    -0.001 A 
HETATM   19  C24 UNL     1     -14.029  44.253 -18.353  1.00  0.00     0.010 C 
HETATM   20  C25 UNL     1     -13.503  45.621 -18.783  1.00  0.00     0.034 C 
HETATM   21  C26 UNL     1     -15.702  42.415 -19.135  1.00  0.00    -0.039 A 
HETATM   22  C27 UNL     1     -15.592  41.081 -19.845  1.00  0.00     0.015 C 
HETATM   23  C28 UNL     1     -16.129  42.251 -17.698  1.00  0.00     0.015 C 
ENDROOT
BRANCH  15  24
HETATM   24  C17 UNL     1     -18.885  43.677 -18.529  1.00  0.00     0.014 C 
BRANCH  24  25
HETATM   25  C18 UNL     1     -20.326  43.907 -18.007  1.00  0.00    -0.022 C 
HETATM   26  C19 UNL     1     -20.562  45.354 -17.564  1.00  0.00     0.009 C 
HETATM   27  C20 UNL     1     -20.596  42.964 -16.830  1.00  0.00     0.009 C 
ENDBRANCH  24  25
ENDBRANCH  15  24
BRANCH  13  28
HETATM   28  O5  UNL     1     -19.790  42.290 -20.857  1.00  0.00    -0.359 OA
HETATM   29  H15 UNL     1     -20.311  41.637 -21.379  1.00  0.00     0.217 HD
ENDBRANCH  13  28
BRANCH  10  30
HETATM   30  C10 UNL     1     -18.913  46.949 -23.917  1.00  0.00     0.275 C 
HETATM   31  O2  UNL     1     -18.640  46.868 -25.113  1.00  0.00    -0.301 OA
ENDBRANCH  10  30
BRANCH  12  32
HETATM   32  C13 UNL     1     -20.888  42.393 -23.505  1.00  0.00     0.275 C 
HETATM   33  O4  UNL     1     -22.083  42.242 -23.257  1.00  0.00    -0.301 OA
ENDBRANCH  12  32
BRANCH  11  34
HETATM   34  O3  UNL     1     -20.446  44.732 -24.941  1.00  0.00    -0.359 OA
HETATM   35  H13 UNL     1     -20.205  45.601 -25.343  1.00  0.00     0.217 HD
ENDBRANCH  11  34
TORSDOF 6
ENDMDL
MODEL 4
REMARK minimizedAffinity -5.81504297
REMARK CNNscore 0.229827076
REMARK CNNaffinity 5.10634184
REMARK  6 active torsions:
REMARK  status: ('A' for Active; 'I' for Inactive)
REMARK    1  A    between atoms: C9_10  and  C10_11 
REMARK    2  A    between atoms: C11_13  and  O3_14 
REMARK    3  A    between atoms: C12_15  and  C13_16 
REMARK    4  A    between atoms: C14_18  and  O5_19 
REMARK    5  A    between atoms: C16_21  and  C17_22 
REMARK    6  A    between atoms: C17_22  and  C18_23 
ROOT
HETATM    1  C1  UNL     1       2.507  58.194  -6.845  1.00  0.00     0.043 C 
HETATM    2  C2  UNL     1       3.196  56.934  -7.325  1.00  0.00    -0.087 C 
HETATM    3  C3  UNL     1       2.521  55.764  -7.302  1.00  0.00    -0.024 C 
HETATM    4  C4  UNL     1       2.860  54.346  -7.701  1.00  0.00     0.030 C 
HETATM    5  C5  UNL     1       3.939  54.110  -8.754  1.00  0.00     0.042 C 
HETATM    6  C6  UNL     1       5.338  53.577  -8.295  1.00  0.00     0.069 C 
HETATM    7  C7  UNL     1       6.336  54.048  -9.394  1.00  0.00     0.047 C 
HETATM    8  O1  UNL     1       5.211  52.121  -8.495  1.00  0.00    -0.338 OA
HETATM    9  C8  UNL     1       6.325  51.423  -8.101  1.00  0.00     0.095 A 
HETATM   10  C9  UNL     1       6.915  50.494  -8.961  1.00  0.00     0.070 A 
HETATM   11  C11 UNL     1       8.103  49.862  -8.578  1.00  0.00     0.097 A 
HETATM   12  C12 UNL     1       8.683  50.173  -7.342  1.00  0.00     0.069 A 
HETATM   13  C14 UNL     1       8.054  51.087  -6.471  1.00  0.00     0.091 A 
HETATM   14  C15 UNL     1       6.837  51.681  -6.822  1.00  0.00     0.015 A 
HETATM   15  C16 UNL     1       5.950  52.592  -5.995  1.00  0.00     0.032 C 
HETATM   16  C21 UNL     1       5.774  53.937  -6.776  1.00  0.00     0.034 C 
HETATM   17  C22 UNL     1       7.007  54.836  -6.728  1.00  0.00     0.006 A 
HETATM   18  C23 UNL     1       6.851  56.357  -6.789  1.00  0.00    -0.001 A 
HETATM   19  C24 UNL     1       5.573  57.120  -6.537  1.00  0.00     0.010 C 
HETATM   20  C25 UNL     1       4.635  57.164  -7.742  1.00  0.00     0.034 C 
HETATM   21  C26 UNL     1       7.565  55.726  -5.603  1.00  0.00    -0.039 A 
HETATM   22  C27 UNL     1       9.071  55.884  -5.557  1.00  0.00     0.015 C 
HETATM   23  C28 UNL     1       6.948  55.841  -4.232  1.00  0.00     0.015 C 
ENDROOT
BRANCH  15  24
HETATM   24  C17 UNL     1       6.211  52.724  -4.484  1.00  0.00     0.014 C 
BRANCH  24  25
HETATM   25  C18 UNL     1       5.021  52.351  -3.565  1.00  0.00    -0.022 C 
HETATM   26  C19 UNL     1       3.668  52.527  -4.262  1.00  0.00     0.009 C 
HETATM   27  C20 UNL     1       5.061  53.221  -2.304  1.00  0.00     0.009 C 
ENDBRANCH  24  25
ENDBRANCH  15  24
BRANCH  13  28
HETATM   28  O5  UNL     1       8.631  51.430  -5.279  1.00  0.00    -0.359 OA
HETATM   29  H15 UNL     1       9.468  50.923  -5.166  1.00  0.00     0.217 HD
ENDBRANCH  13  28
BRANCH  10  30
HETATM   30  C10 UNL     1       6.291  50.216 -10.268  1.00  0.00     0.275 C 
HETATM   31  O2  UNL     1       6.991  49.932 -11.237  1.00  0.00    -0.301 OA
ENDBRANCH  10  30
BRANCH  12  32
HETATM   32  C13 UNL     1       9.960  49.529  -6.966  1.00  0.00     0.275 C 
HETATM   33  O4  UNL     1      10.945  50.210  -6.689  1.00  0.00    -0.301 OA
ENDBRANCH  12  32
BRANCH  11  34
HETATM   34  O3  UNL     1       8.732  48.954  -9.394  1.00  0.00    -0.359 OA
HETATM   35  H13 UNL     1       8.206  48.855 -10.222  1.00  0.00     0.217 HD
ENDBRANCH  11  34
TORSDOF 6
ENDMDL
MODEL 5
REMARK minimizedAffinity -6.36230946
REMARK CNNscore 0.21101743
REMARK CNNaffinity 5.58300781
REMARK  6 active torsions:
REMARK  status: ('A' for Active; 'I' for Inactive)
REMARK    1  A    between atoms: C9_10  and  C10_11 
REMARK    2  A    between atoms: C11_13  and  O3_14 
REMARK    3  A    between atoms: C12_15  and  C13_16 
REMARK    4  A    between atoms: C14_18  and  O5_19 
REMARK    5  A    between atoms: C16_21  and  C17_22 
REMARK    6  A    between atoms: C17_22  and  C18_23 
ROOT
HETATM    1  C1  UNL     1       3.577  57.674  -7.473  1.00  0.00     0.043 C 
HETATM    2  C2  UNL     1       3.563  56.471  -8.392  1.00  0.00    -0.087 C 
HETATM    3  C3  UNL     1       3.310  56.649  -9.706  1.00  0.00    -0.024 C 
HETATM    4  C4  UNL     1       3.228  55.721 -10.897  1.00  0.00     0.030 C 
HETATM    5  C5  UNL     1       3.988  54.398 -10.860  1.00  0.00     0.042 C 
HETATM    6  C6  UNL     1       3.185  53.071 -10.649  1.00  0.00     0.069 C 
HETATM    7  C7  UNL     1       4.203  52.070 -10.030  1.00  0.00     0.047 C 
HETATM    8  O1  UNL     1       2.975  52.597 -12.030  1.00  0.00    -0.338 OA
HETATM    9  C8  UNL     1       2.229  51.447 -12.098  1.00  0.00     0.095 A 
HETATM   10  C9  UNL     1       2.684  50.356 -12.843  1.00  0.00     0.070 A 
HETATM   11  C11 UNL     1       1.957  49.160 -12.824  1.00  0.00     0.097 A 
HETATM   12  C12 UNL     1       0.788  49.076 -12.057  1.00  0.00     0.069 A 
HETATM   13  C14 UNL     1       0.325  50.200 -11.341  1.00  0.00     0.091 A 
HETATM   14  C15 UNL     1       1.015  51.415 -11.399  1.00  0.00     0.015 A 
HETATM   15  C16 UNL     1       0.632  52.755 -10.803  1.00  0.00     0.032 C 
HETATM   16  C21 UNL     1       1.785  53.206  -9.844  1.00  0.00     0.034 C 
HETATM   17  C22 UNL     1       1.806  52.448  -8.519  1.00  0.00     0.006 A 
HETATM   18  C23 UNL     1       2.324  53.133  -7.252  1.00  0.00    -0.001 A 
HETATM   19  C24 UNL     1       2.503  54.620  -7.067  1.00  0.00     0.010 C 
HETATM   20  C25 UNL     1       3.801  55.163  -7.664  1.00  0.00     0.034 C 
HETATM   21  C26 UNL     1       0.911  52.568  -7.272  1.00  0.00    -0.039 A 
HETATM   22  C27 UNL     1       0.680  51.293  -6.487  1.00  0.00     0.015 C 
HETATM   23  C28 UNL     1      -0.256  53.516  -7.158  1.00  0.00     0.015 C 
ENDROOT
BRANCH  15  24
HETATM   24  C17 UNL     1      -0.798  52.961 -10.275  1.00  0.00     0.014 C 
BRANCH  24  25
HETATM   25  C18 UNL     1      -1.527  54.226 -10.795  1.00  0.00    -0.022 C 
HETATM   26  C19 UNL     1      -1.001  55.510 -10.148  1.00  0.00     0.009 C 
HETATM   27  C20 UNL     1      -3.028  54.095 -10.521  1.00  0.00     0.009 C 
ENDBRANCH  24  25
ENDBRANCH  15  24
BRANCH  13  28
HETATM   28  O5  UNL     1      -0.794  50.118 -10.556  1.00  0.00    -0.359 OA
HETATM   29  H15 UNL     1      -1.175  49.213 -10.629  1.00  0.00     0.217 HD
ENDBRANCH  13  28
BRANCH  10  30
HETATM   30  C10 UNL     1       3.937  50.473 -13.612  1.00  0.00     0.275 C 
HETATM   31  O2  UNL     1       4.811  49.616 -13.502  1.00  0.00    -0.301 OA
ENDBRANCH  10  30
BRANCH  12  32
HETATM   32  C13 UNL     1       0.050  47.795 -12.012  1.00  0.00     0.275 C 
HETATM   33  O4  UNL     1      -0.030  47.157 -10.965  1.00  0.00    -0.301 OA
ENDBRANCH  12  32
BRANCH  11  34
HETATM   34  O3  UNL     1       2.370  48.053 -13.523  1.00  0.00    -0.359 OA
HETATM   35  H13 UNL     1       3.206  48.273 -13.998  1.00  0.00     0.217 HD
ENDBRANCH  11  34
TORSDOF 6
ENDMDL
MODEL 6
REMARK minimizedAffinity -5.7769208
REMARK CNNscore 0.183264941
REMARK CNNaffinity 4.85159636
REMARK  6 active torsions:
REMARK  status: ('A' for Active; 'I' for Inactive)
REMARK    1  A    between atoms: C9_10  and  C10_11 
REMARK    2  A    between atoms: C11_13  and  O3_14 
REMARK    3  A    between atoms: C12_15  and  C13_16 
REMARK    4  A    between atoms: C14_18  and  O5_19 
REMARK    5  A    between atoms: C16_21  and  C17_22 
REMARK    6  A    between atoms: C17_22  and  C18_23 
ROOT
HETATM    1  C1  UNL     1       8.281  64.218 -34.088  1.00  0.00     0.043 C 
HETATM    2  C2  UNL     1       7.102  64.747 -34.877  1.00  0.00    -0.087 C 
HETATM    3  C3  UNL     1       6.833  64.221 -36.092  1.00  0.00    -0.024 C 
HETATM    4  C4  UNL     1       5.768  64.472 -37.134  1.00  0.00     0.030 C 
HETATM    5  C5  UNL     1       4.428  65.059 -36.699  1.00  0.00     0.042 C 
HETATM    6  C6  UNL     1       4.119  66.559 -37.026  1.00  0.00     0.069 C 
HETATM    7  C7  UNL     1       3.077  67.004 -35.959  1.00  0.00     0.047 C 
HETATM    8  O1  UNL     1       3.358  66.465 -38.286  1.00  0.00    -0.338 OA
HETATM    9  C8  UNL     1       3.017  67.691 -38.802  1.00  0.00     0.095 A 
HETATM   10  C9  UNL     1       1.697  67.955 -39.175  1.00  0.00     0.070 A 
HETATM   11  C11 UNL     1       1.350  69.239 -39.611  1.00  0.00     0.097 A 
HETATM   12  C12 UNL     1       2.330  70.238 -39.663  1.00  0.00     0.069 A 
HETATM   13  C14 UNL     1       3.666  69.943 -39.317  1.00  0.00     0.091 A 
HETATM   14  C15 UNL     1       4.031  68.648 -38.934  1.00  0.00     0.015 A 
HETATM   15  C16 UNL     1       5.414  68.100 -38.634  1.00  0.00     0.032 C 
HETATM   16  C21 UNL     1       5.405  67.535 -37.174  1.00  0.00     0.034 C 
HETATM   17  C22 UNL     1       5.431  68.620 -36.100  1.00  0.00     0.006 A 
HETATM   18  C23 UNL     1       6.096  68.346 -34.750  1.00  0.00    -0.001 A 
HETATM   19  C24 UNL     1       7.061  67.222 -34.456  1.00  0.00     0.010 C 
HETATM   20  C25 UNL     1       6.380  65.883 -34.180  1.00  0.00     0.034 C 
HETATM   21  C26 UNL     1       6.579  69.514 -35.596  1.00  0.00    -0.039 A 
HETATM   22  C27 UNL     1       6.191  70.900 -35.123  1.00  0.00     0.015 C 
HETATM   23  C28 UNL     1       7.981  69.484 -36.153  1.00  0.00     0.015 C 
ENDROOT
BRANCH  15  24
HETATM   24  C17 UNL     1       6.650  68.928 -39.024  1.00  0.00     0.014 C 
BRANCH  24  25
HETATM   25  C18 UNL     1       7.424  68.428 -40.269  1.00  0.00    -0.022 C 
HETATM   26  C19 UNL     1       8.925  68.718 -40.179  1.00  0.00     0.009 C 
HETATM   27  C20 UNL     1       6.851  69.093 -41.525  1.00  0.00     0.009 C 
ENDBRANCH  24  25
ENDBRANCH  15  24
BRANCH  13  28
HETATM   28  O5  UNL     1       4.624  70.920 -39.324  1.00  0.00    -0.359 OA
HETATM   29  H15 UNL     1       4.221  71.766 -39.628  1.00  0.00     0.217 HD
ENDBRANCH  13  28
BRANCH  10  30
HETATM   30  C10 UNL     1       0.686  66.886 -39.076  1.00  0.00     0.275 C 
HETATM   31  O2  UNL     1      -0.183  66.776 -39.937  1.00  0.00    -0.301 OA
ENDBRANCH  10  30
BRANCH  12  32
HETATM   32  C13 UNL     1       1.943  71.601 -40.085  1.00  0.00     0.275 C 
HETATM   33  O4  UNL     1       1.523  71.807 -41.223  1.00  0.00    -0.301 OA
ENDBRANCH  12  32
BRANCH  11  34
HETATM   34  O3  UNL     1       0.064  69.555 -39.971  1.00  0.00    -0.359 OA
HETATM   35  H13 UNL     1      -0.500  68.752 -39.870  1.00  0.00     0.217 HD
ENDBRANCH  11  34
TORSDOF 6
ENDMDL
MODEL 7
REMARK minimizedAffinity -5.70877218
REMARK CNNscore 0.181543663
REMARK CNNaffinity 5.1206708
REMARK  6 active torsions:
REMARK  status: ('A' for Active; 'I' for Inactive)
REMARK    1  A    between atoms: C9_10  and  C10_11 
REMARK    2  A    between atoms: C11_13  and  O3_14 
REMARK    3  A    between atoms: C12_15  and  C13_16 
REMARK    4  A    between atoms: C14_18  and  O5_19 
REMARK    5  A    between atoms: C16_21  and  C17_22 
REMARK    6  A    between atoms: C17_22  and  C18_23 
ROOT
HETATM    1  C1  UNL     1      -9.857  46.965 -36.598  1.00  0.00     0.043 C 
HETATM    2  C2  UNL     1     -10.009  46.052 -35.401  1.00  0.00    -0.087 C 
HETATM    3  C3  UNL     1     -11.244  45.645 -35.034  1.00  0.00    -0.024 C 
HETATM    4  C4  UNL     1     -11.775  44.750 -33.938  1.00  0.00     0.030 C 
HETATM    5  C5  UNL     1     -10.861  43.680 -33.347  1.00  0.00     0.042 C 
HETATM    6  C6  UNL     1     -10.261  43.905 -31.918  1.00  0.00     0.069 C 
HETATM    7  C7  UNL     1      -8.958  43.053 -31.883  1.00  0.00     0.047 C 
HETATM    8  O1  UNL     1     -11.211  43.183 -31.051  1.00  0.00    -0.338 OA
HETATM    9  C8  UNL     1     -10.910  43.288 -29.716  1.00  0.00     0.095 A 
HETATM   10  C9  UNL     1     -10.839  42.144 -28.918  1.00  0.00     0.070 A 
HETATM   11  C11 UNL     1     -10.438  42.263 -27.582  1.00  0.00     0.097 A 
HETATM   12  C12 UNL     1     -10.113  43.524 -27.068  1.00  0.00     0.069 A 
HETATM   13  C14 UNL     1     -10.226  44.673 -27.880  1.00  0.00     0.091 A 
HETATM   14  C15 UNL     1     -10.679  44.570 -29.199  1.00  0.00     0.015 A 
HETATM   15  C16 UNL     1     -10.975  45.678 -30.191  1.00  0.00     0.032 C 
HETATM   16  C21 UNL     1     -10.081  45.448 -31.456  1.00  0.00     0.034 C 
HETATM   17  C22 UNL     1      -8.616  45.819 -31.243  1.00  0.00     0.006 A 
HETATM   18  C23 UNL     1      -7.774  46.324 -32.416  1.00  0.00    -0.001 A 
HETATM   19  C24 UNL     1      -8.314  46.844 -33.726  1.00  0.00     0.010 C 
HETATM   20  C25 UNL     1      -8.692  45.743 -34.716  1.00  0.00     0.034 C 
HETATM   21  C26 UNL     1      -7.921  47.191 -31.175  1.00  0.00    -0.039 A 
HETATM   22  C27 UNL     1      -6.711  47.286 -30.267  1.00  0.00     0.015 C 
HETATM   23  C28 UNL     1      -8.643  48.511 -31.286  1.00  0.00     0.015 C 
ENDROOT
BRANCH  15  24
HETATM   24  C17 UNL     1     -11.066  47.130 -29.691  1.00  0.00     0.014 C 
BRANCH  24  25
HETATM   25  C18 UNL     1     -12.464  47.582 -29.200  1.00  0.00    -0.022 C 
HETATM   26  C19 UNL     1     -12.411  48.252 -27.824  1.00  0.00     0.009 C 
HETATM   27  C20 UNL     1     -13.398  46.369 -29.140  1.00  0.00     0.009 C 
ENDBRANCH  24  25
ENDBRANCH  15  24
BRANCH  13  28
HETATM   28  O5  UNL     1      -9.872  45.906 -27.402  1.00  0.00    -0.359 OA
HETATM   29  H15 UNL     1      -9.591  45.820 -26.462  1.00  0.00     0.217 HD
ENDBRANCH  13  28
BRANCH  10  30
HETATM   30  C10 UNL     1     -11.158  40.829 -29.504  1.00  0.00     0.275 C 
HETATM   31  O2  UNL     1     -10.258  40.030 -29.754  1.00  0.00    -0.301 OA
ENDBRANCH  10  30
BRANCH  12  32
HETATM   32  C13 UNL     1      -9.652  43.631 -25.668  1.00  0.00     0.275 C 
HETATM   33  O4  UNL     1     -10.194  44.414 -24.890  1.00  0.00    -0.301 OA
ENDBRANCH  12  32
BRANCH  11  34
HETATM   34  O3  UNL     1     -10.334  41.168 -26.761  1.00  0.00    -0.359 OA
HETATM   35  H13 UNL     1     -10.587  40.362 -27.273  1.00  0.00     0.217 HD
ENDBRANCH  11  34
TORSDOF 6
ENDMDL
MODEL 8
REMARK minimizedAffinity -5.70483923
REMARK CNNscore 0.181469932
REMARK CNNaffinity 4.80113029
REMARK  6 active torsions:
REMARK  status: ('A' for Active; 'I' for Inactive)
REMARK    1  A    between atoms: C9_10  and  C10_11 
REMARK    2  A    between atoms: C11_13  and  O3_14 
REMARK    3  A    between atoms: C12_15  and  C13_16 
REMARK    4  A    between atoms: C14_18  and  O5_19 
REMARK    5  A    between atoms: C16_21  and  C17_22 
REMARK    6  A    between atoms: C17_22  and  C18_23 
ROOT
HETATM    1  C1  UNL     1      12.843  64.941 -43.005  1.00  0.00     0.043 C 
HETATM    2  C2  UNL     1      13.330  63.669 -42.343  1.00  0.00    -0.087 C 
HETATM    3  C3  UNL     1      12.426  62.766 -41.906  1.00  0.00    -0.024 C 
HETATM    4  C4  UNL     1      12.528  61.418 -41.230  1.00  0.00     0.030 C 
HETATM    5  C5  UNL     1      13.793  60.586 -41.422  1.00  0.00     0.042 C 
HETATM    6  C6  UNL     1      14.814  60.480 -40.240  1.00  0.00     0.069 C 
HETATM    7  C7  UNL     1      16.184  60.167 -40.909  1.00  0.00     0.047 C 
HETATM    8  O1  UNL     1      14.416  59.221 -39.581  1.00  0.00    -0.338 OA
HETATM    9  C8  UNL     1      15.156  58.943 -38.459  1.00  0.00     0.095 A 
HETATM   10  C9  UNL     1      15.747  57.688 -38.299  1.00  0.00     0.070 A 
HETATM   11  C11 UNL     1      16.574  57.454 -37.195  1.00  0.00     0.097 A 
HETATM   12  C12 UNL     1      16.799  58.481 -36.271  1.00  0.00     0.069 A 
HETATM   13  C14 UNL     1      16.164  59.732 -36.429  1.00  0.00     0.091 A 
HETATM   14  C15 UNL     1      15.292  59.955 -37.500  1.00  0.00     0.015 A 
HETATM   15  C16 UNL     1      14.433  61.172 -37.787  1.00  0.00     0.032 C 
HETATM   16  C21 UNL     1      14.830  61.722 -39.199  1.00  0.00     0.034 C 
HETATM   17  C22 UNL     1      16.162  62.467 -39.210  1.00  0.00     0.006 A 
HETATM   18  C23 UNL     1      16.395  63.608 -40.203  1.00  0.00    -0.001 A 
HETATM   19  C24 UNL     1      15.319  64.342 -40.966  1.00  0.00     0.010 C 
HETATM   20  C25 UNL     1      14.839  63.605 -42.215  1.00  0.00     0.034 C 
HETATM   21  C26 UNL     1      16.537  63.875 -38.711  1.00  0.00    -0.039 A 
HETATM   22  C27 UNL     1      17.947  64.047 -38.185  1.00  0.00     0.015 C 
HETATM   23  C28 UNL     1      15.570  64.819 -38.042  1.00  0.00     0.015 C 
ENDROOT
BRANCH  15  24
HETATM   24  C17 UNL     1      14.236  62.229 -36.687  1.00  0.00     0.014 C 
BRANCH  24  25
HETATM   25  C18 UNL     1      12.857  62.935 -36.678  1.00  0.00    -0.022 C 
HETATM   26  C19 UNL     1      12.447  63.394 -35.275  1.00  0.00     0.009 C 
HETATM   27  C20 UNL     1      11.795  61.980 -37.232  1.00  0.00     0.009 C 
ENDBRANCH  24  25
ENDBRANCH  15  24
BRANCH  13  28
HETATM   28  O5  UNL     1      16.408  60.757 -35.556  1.00  0.00    -0.359 OA
HETATM   29  H15 UNL     1      17.024  60.444 -34.854  1.00  0.00     0.217 HD
ENDBRANCH  13  28
BRANCH  10  30
HETATM   30  C10 UNL     1      15.513  56.640 -39.311  1.00  0.00     0.275 C 
HETATM   31  O2  UNL     1      14.715  56.833 -40.225  1.00  0.00    -0.301 OA
ENDBRANCH  10  30
BRANCH  12  32
HETATM   32  C13 UNL     1      17.707  58.235 -35.130  1.00  0.00     0.275 C 
HETATM   33  O4  UNL     1      17.287  58.282 -33.976  1.00  0.00    -0.301 OA
ENDBRANCH  12  32
BRANCH  11  34
HETATM   34  O3  UNL     1      17.193  56.244 -37.001  1.00  0.00    -0.359 OA
HETATM   35  H13 UNL     1      16.942  55.637 -37.738  1.00  0.00     0.217 HD
ENDBRANCH  11  34
TORSDOF 6
ENDMDL
MODEL 9
REMARK minimizedAffinity -6.95606565
REMARK CNNscore 0.164459407
REMARK CNNaffinity 5.34522009
REMARK  6 active torsions:
REMARK  status: ('A' for Active; 'I' for Inactive)
REMARK    1  A    between atoms: C9_10  and  C10_11 
REMARK    2  A    between atoms: C11_13  and  O3_14 
REMARK    3  A    between atoms: C12_15  and  C13_16 
REMARK    4  A    between atoms: C14_18  and  O5_19 
REMARK    5  A    between atoms: C16_21  and  C17_22 
REMARK    6  A    between atoms: C17_22  and  C18_23 
ROOT
HETATM    1  C1  UNL     1      -4.123  47.027 -33.428  1.00  0.00     0.043 C 
HETATM    2  C2  UNL     1      -5.235  47.232 -32.421  1.00  0.00    -0.087 C 
HETATM    3  C3  UNL     1      -5.078  46.769 -31.162  1.00  0.00    -0.024 C 
HETATM    4  C4  UNL     1      -5.933  46.797 -29.917  1.00  0.00     0.030 C 
HETATM    5  C5  UNL     1      -6.979  47.898 -29.759  1.00  0.00     0.042 C 
HETATM    6  C6  UNL     1      -8.491  47.536 -29.949  1.00  0.00     0.069 C 
HETATM    7  C7  UNL     1      -9.181  48.868 -30.366  1.00  0.00     0.047 C 
HETATM    8  O1  UNL     1      -8.941  47.290 -28.566  1.00  0.00    -0.338 OA
HETATM    9  C8  UNL     1     -10.254  46.896 -28.489  1.00  0.00     0.095 A 
HETATM   10  C9  UNL     1     -11.130  47.539 -27.611  1.00  0.00     0.070 A 
HETATM   11  C11 UNL     1     -12.485  47.187 -27.614  1.00  0.00     0.097 A 
HETATM   12  C12 UNL     1     -12.940  46.201 -28.497  1.00  0.00     0.069 A 
HETATM   13  C14 UNL     1     -12.033  45.537 -29.351  1.00  0.00     0.091 A 
HETATM   14  C15 UNL     1     -10.669  45.843 -29.315  1.00  0.00     0.015 A 
HETATM   15  C16 UNL     1      -9.526  45.179 -30.058  1.00  0.00     0.032 C 
HETATM   16  C21 UNL     1      -8.805  46.273 -30.916  1.00  0.00     0.034 C 
HETATM   17  C22 UNL     1      -9.584  46.681 -32.163  1.00  0.00     0.006 A 
HETATM   18  C23 UNL     1      -8.838  47.146 -33.415  1.00  0.00    -0.001 A 
HETATM   19  C24 UNL     1      -7.373  46.921 -33.701  1.00  0.00     0.010 C 
HETATM   20  C25 UNL     1      -6.450  47.922 -33.008  1.00  0.00     0.034 C 
HETATM   21  C26 UNL     1      -9.787  45.960 -33.508  1.00  0.00    -0.039 A 
HETATM   22  C27 UNL     1     -11.109  46.203 -34.207  1.00  0.00     0.015 C 
HETATM   23  C28 UNL     1      -9.224  44.598 -33.830  1.00  0.00     0.015 C 
ENDROOT
BRANCH  15  24
HETATM   24  C17 UNL     1      -9.768  43.831 -30.758  1.00  0.00     0.014 C 
BRANCH  24  25
HETATM   25  C18 UNL     1      -8.685  42.749 -30.520  1.00  0.00    -0.022 C 
HETATM   26  C19 UNL     1      -7.267  43.288 -30.730  1.00  0.00     0.009 C 
HETATM   27  C20 UNL     1      -8.928  41.570 -31.467  1.00  0.00     0.009 C 
ENDBRANCH  24  25
ENDBRANCH  15  24
BRANCH  13  28
HETATM   28  O5  UNL     1     -12.472  44.601 -30.247  1.00  0.00    -0.359 OA
HETATM   29  H15 UNL     1     -13.444  44.484 -30.143  1.00  0.00     0.217 HD
ENDBRANCH  13  28
BRANCH  10  30
HETATM   30  C10 UNL     1     -10.619  48.595 -26.719  1.00  0.00     0.275 C 
HETATM   31  O2  UNL     1     -10.485  48.377 -25.517  1.00  0.00    -0.301 OA
ENDBRANCH  10  30
BRANCH  12  32
HETATM   32  C13 UNL     1     -14.380  45.867 -28.519  1.00  0.00     0.275 C 
HETATM   33  O4  UNL     1     -14.987  45.647 -27.473  1.00  0.00    -0.301 OA
ENDBRANCH  12  32
BRANCH  11  34
HETATM   34  O3  UNL     1     -13.390  47.801 -26.784  1.00  0.00    -0.359 OA
HETATM   35  H13 UNL     1     -12.916  48.471 -26.237  1.00  0.00     0.217 HD
ENDBRANCH  11  34
TORSDOF 6
ENDMDL
