MODEL 1
REMARK minimizedAffinity -6.69822311
REMARK CNNscore 0.554137051
REMARK CNNaffinity 6.49387407
REMARK  13 active torsions:
REMARK  status: ('A' for Active; 'I' for Inactive)
REMARK    1  A    between atoms: C2_2  and  C3_3 
REMARK    2  A    between atoms: C2_2  and  C14_14 
REMARK    3  A    between atoms: C4_4  and  C5_5 
REMARK    4  A    between atoms: C6_6  and  C8_8 
REMARK    5  A    between atoms: C8_8  and  C9_9 
REMARK    6  A    between atoms: C9_9  and  C10_10 
REMARK    7  A    between atoms: C18_18  and  C19_19 
REMARK    8  A    between atoms: C19_19  and  C20_20 
REMARK    9  A    between atoms: C20_20  and  C21_21 
REMARK   10  A    between atoms: C21_21  and  O1_22 
REMARK   11  A    between atoms: C23_24  and  C25_26 
REMARK   12  A    between atoms: C28_30  and  O3_32 
REMARK   13  A    between atoms: C30_33  and  O4_34 
ROOT
HETATM    1  C14 UNL     1      -8.995  47.160 -24.635  1.00  0.00     0.047 C 
HETATM    2  C15 UNL     1      -9.988  46.084 -24.174  1.00  0.00     0.013 C 
HETATM    3  C16 UNL     1     -11.139  46.274 -25.155  1.00  0.00     0.017 C 
HETATM    4  C17 UNL     1     -10.488  46.566 -26.550  1.00  0.00     0.024 C 
HETATM    5  C18 UNL     1     -10.638  45.346 -27.561  1.00  0.00     0.029 C 
HETATM    6  C22 UNL     1     -10.070  45.714 -28.963  1.00  0.00    -0.066 C 
HETATM    7  C23 UNL     1      -9.067  45.151 -29.691  1.00  0.00    -0.021 C 
HETATM    8  C24 UNL     1      -8.758  45.506 -31.128  1.00  0.00     0.052 C 
HETATM    9  C26 UNL     1     -10.827  46.911 -29.529  1.00  0.00     0.038 C 
HETATM   10  C27 UNL     1     -10.678  48.115 -28.608  1.00  0.00     0.042 C 
HETATM   11  C28 UNL     1     -11.194  47.844 -27.182  1.00  0.00     0.065 C 
HETATM   12  C29 UNL     1     -12.739  47.762 -27.209  1.00  0.00     0.047 C 
HETATM   13  C30 UNL     1      -8.993  46.911 -26.168  1.00  0.00     0.138 C 
ENDROOT
BRANCH   5  14
HETATM   14  C19 UNL     1     -10.350  43.936 -26.969  1.00  0.00     0.012 C 
BRANCH  14  15
HETATM   15  C20 UNL     1      -8.898  43.755 -26.489  1.00  0.00     0.027 C 
BRANCH  15  16
HETATM   16  C21 UNL     1      -8.759  42.627 -25.470  1.00  0.00     0.164 C 
BRANCH  16  17
HETATM   17  O1  UNL     1      -7.956  43.011 -24.363  1.00  0.00    -0.401 OA
HETATM   18  H32 UNL     1      -8.409  43.746 -23.918  1.00  0.00     0.209 HD
ENDBRANCH  16  17
ENDBRANCH  15  16
ENDBRANCH  14  15
ENDBRANCH   5  14
BRANCH  11  19
HETATM   19  O3  UNL     1     -10.880  49.005 -26.392  1.00  0.00    -0.389 OA
HETATM   20  H44 UNL     1     -11.279  49.780 -26.827  1.00  0.00     0.210 HD
ENDBRANCH  11  19
BRANCH  13  21
HETATM   21  O4  UNL     1      -8.103  45.847 -26.497  1.00  0.00    -0.394 OA
HETATM   22  H46 UNL     1      -7.242  46.055 -26.091  1.00  0.00     0.210 HD
ENDBRANCH  13  21
BRANCH   1  23
HETATM   23  C2  UNL     1      -7.629  47.194 -23.951  1.00  0.00    -0.061 C 
HETATM   24  C1  UNL     1      -7.231  46.261 -23.067  1.00  0.00     0.019 C 
BRANCH  23  25
HETATM   25  C3  UNL     1      -6.705  48.288 -24.249  1.00  0.00     0.007 C 
HETATM   26  C4  UNL     1      -5.542  48.211 -24.916  1.00  0.00     0.001 C 
BRANCH  26  27
HETATM   27  C5  UNL     1      -4.674  49.360 -25.094  1.00  0.00     0.002 C 
HETATM   28  C6  UNL     1      -3.680  49.484 -25.994  1.00  0.00    -0.084 C 
HETATM   29  C7  UNL     1      -3.325  48.457 -27.038  1.00  0.00     0.043 C 
BRANCH  28  30
HETATM   30  C8  UNL     1      -2.824  50.740 -26.010  1.00  0.00     0.037 C 
BRANCH  30  31
HETATM   31  C9  UNL     1      -1.453  50.528 -25.362  1.00  0.00     0.031 C 
BRANCH  31  32
HETATM   32  C10 UNL     1      -0.330  50.740 -26.342  1.00  0.00    -0.024 C 
HETATM   33  C11 UNL     1       0.717  51.577 -26.208  1.00  0.00    -0.091 C 
HETATM   34  C12 UNL     1       0.981  52.432 -24.998  1.00  0.00     0.042 C 
HETATM   35  C13 UNL     1       1.744  51.709 -27.296  1.00  0.00     0.042 C 
ENDBRANCH  31  32
ENDBRANCH  30  31
ENDBRANCH  28  30
ENDBRANCH  26  27
ENDBRANCH  23  25
ENDBRANCH   1  23
BRANCH   7  36
HETATM   36  C25 UNL     1      -8.120  44.122 -29.168  1.00  0.00     0.265 C 
HETATM   37  O2  UNL     1      -6.918  44.122 -29.424  1.00  0.00    -0.302 OA
ENDBRANCH   7  36
TORSDOF 13
ENDMDL
MODEL 2
REMARK minimizedAffinity -6.8738451
REMARK CNNscore 0.531842411
REMARK CNNaffinity 6.2677002
REMARK  13 active torsions:
REMARK  status: ('A' for Active; 'I' for Inactive)
REMARK    1  A    between atoms: C2_2  and  C3_3 
REMARK    2  A    between atoms: C2_2  and  C14_14 
REMARK    3  A    between atoms: C4_4  and  C5_5 
REMARK    4  A    between atoms: C6_6  and  C8_8 
REMARK    5  A    between atoms: C8_8  and  C9_9 
REMARK    6  A    between atoms: C9_9  and  C10_10 
REMARK    7  A    between atoms: C18_18  and  C19_19 
REMARK    8  A    between atoms: C19_19  and  C20_20 
REMARK    9  A    between atoms: C20_20  and  C21_21 
REMARK   10  A    between atoms: C21_21  and  O1_22 
REMARK   11  A    between atoms: C23_24  and  C25_26 
REMARK   12  A    between atoms: C28_30  and  O3_32 
REMARK   13  A    between atoms: C30_33  and  O4_34 
ROOT
HETATM    1  C14 UNL     1      -7.334  47.605 -29.887  1.00  0.00     0.047 C 
HETATM    2  C15 UNL     1      -8.210  48.718 -29.297  1.00  0.00     0.013 C 
HETATM    3  C16 UNL     1      -9.606  48.287 -29.732  1.00  0.00     0.017 C 
HETATM    4  C17 UNL     1      -9.654  46.727 -29.580  1.00  0.00     0.024 C 
HETATM    5  C18 UNL     1     -10.559  46.261 -28.356  1.00  0.00     0.029 C 
HETATM    6  C22 UNL     1     -10.662  44.708 -28.303  1.00  0.00    -0.066 C 
HETATM    7  C23 UNL     1     -10.300  43.827 -27.331  1.00  0.00    -0.021 C 
HETATM    8  C24 UNL     1     -10.642  42.354 -27.350  1.00  0.00     0.052 C 
HETATM    9  C26 UNL     1     -11.284  44.188 -29.594  1.00  0.00     0.038 C 
HETATM   10  C27 UNL     1     -10.427  44.581 -30.791  1.00  0.00     0.042 C 
HETATM   11  C28 UNL     1     -10.245  46.105 -30.920  1.00  0.00     0.065 C 
HETATM   12  C29 UNL     1     -11.582  46.739 -31.373  1.00  0.00     0.047 C 
HETATM   13  C30 UNL     1      -8.127  46.347 -29.438  1.00  0.00     0.138 C 
ENDROOT
BRANCH   5  14
HETATM   14  C19 UNL     1     -10.371  47.058 -27.032  1.00  0.00     0.012 C 
BRANCH  14  15
HETATM   15  C20 UNL     1     -11.624  47.845 -26.605  1.00  0.00     0.027 C 
BRANCH  15  16
HETATM   16  C21 UNL     1     -12.587  47.000 -25.776  1.00  0.00     0.164 C 
BRANCH  16  17
HETATM   17  O1  UNL     1     -13.937  47.403 -25.961  1.00  0.00    -0.401 OA
HETATM   18  H32 UNL     1     -14.157  47.256 -26.895  1.00  0.00     0.209 HD
ENDBRANCH  16  17
ENDBRANCH  15  16
ENDBRANCH  14  15
ENDBRANCH   5  14
BRANCH  11  19
HETATM   19  O3  UNL     1      -9.322  46.330 -32.000  1.00  0.00    -0.389 OA
HETATM   20  H44 UNL     1      -9.681  45.896 -32.795  1.00  0.00     0.210 HD
ENDBRANCH  11  19
BRANCH  13  21
HETATM   21  O4  UNL     1      -7.788  46.000 -28.097  1.00  0.00    -0.394 OA
HETATM   22  H46 UNL     1      -6.817  45.939 -28.050  1.00  0.00     0.210 HD
ENDBRANCH  13  21
BRANCH   1  23
HETATM   23  C2  UNL     1      -5.845  47.627 -29.544  1.00  0.00    -0.061 C 
HETATM   24  C1  UNL     1      -4.886  47.309 -30.434  1.00  0.00     0.019 C 
BRANCH  23  25
HETATM   25  C3  UNL     1      -5.425  47.995 -28.193  1.00  0.00     0.007 C 
HETATM   26  C4  UNL     1      -4.171  48.209 -27.762  1.00  0.00     0.001 C 
BRANCH  26  27
HETATM   27  C5  UNL     1      -3.869  48.507 -26.374  1.00  0.00     0.002 C 
HETATM   28  C6  UNL     1      -4.727  48.457 -25.337  1.00  0.00    -0.084 C 
HETATM   29  C7  UNL     1      -6.164  48.015 -25.424  1.00  0.00     0.043 C 
BRANCH  28  30
HETATM   30  C8  UNL     1      -4.259  48.857 -23.947  1.00  0.00     0.037 C 
BRANCH  30  31
HETATM   31  C9  UNL     1      -2.817  48.427 -23.663  1.00  0.00     0.031 C 
BRANCH  31  32
HETATM   32  C10 UNL     1      -2.066  49.467 -22.874  1.00  0.00    -0.024 C 
HETATM   33  C11 UNL     1      -1.366  49.274 -21.740  1.00  0.00    -0.091 C 
HETATM   34  C12 UNL     1      -1.163  47.940 -21.073  1.00  0.00     0.042 C 
HETATM   35  C13 UNL     1      -0.698  50.424 -21.040  1.00  0.00     0.042 C 
ENDBRANCH  31  32
ENDBRANCH  30  31
ENDBRANCH  28  30
ENDBRANCH  26  27
ENDBRANCH  23  25
ENDBRANCH   1  23
BRANCH   7  36
HETATM   36  C25 UNL     1      -9.497  44.185 -26.123  1.00  0.00     0.265 C 
HETATM   37  O2  UNL     1      -9.151  45.334 -25.861  1.00  0.00    -0.302 OA
ENDBRANCH   7  36
TORSDOF 13
ENDMDL
MODEL 3
REMARK minimizedAffinity -7.63468504
REMARK CNNscore 0.46217978
REMARK CNNaffinity 6.13366079
REMARK  13 active torsions:
REMARK  status: ('A' for Active; 'I' for Inactive)
REMARK    1  A    between atoms: C2_2  and  C3_3 
REMARK    2  A    between atoms: C2_2  and  C14_14 
REMARK    3  A    between atoms: C4_4  and  C5_5 
REMARK    4  A    between atoms: C6_6  and  C8_8 
REMARK    5  A    between atoms: C8_8  and  C9_9 
REMARK    6  A    between atoms: C9_9  and  C10_10 
REMARK    7  A    between atoms: C18_18  and  C19_19 
REMARK    8  A    between atoms: C19_19  and  C20_20 
REMARK    9  A    between atoms: C20_20  and  C21_21 
REMARK   10  A    between atoms: C21_21  and  O1_22 
REMARK   11  A    between atoms: C23_24  and  C25_26 
REMARK   12  A    between atoms: C28_30  and  O3_32 
REMARK   13  A    between atoms: C30_33  and  O4_34 
ROOT
HETATM    1  C14 UNL     1      -7.741  47.312 -30.700  1.00  0.00     0.047 C 
HETATM    2  C15 UNL     1      -8.022  48.441 -29.700  1.00  0.00     0.013 C 
HETATM    3  C16 UNL     1      -9.511  48.261 -29.428  1.00  0.00     0.017 C 
HETATM    4  C17 UNL     1      -9.763  46.716 -29.357  1.00  0.00     0.024 C 
HETATM    5  C18 UNL     1     -10.057  46.213 -27.875  1.00  0.00     0.029 C 
HETATM    6  C22 UNL     1     -10.402  44.695 -27.863  1.00  0.00    -0.066 C 
HETATM    7  C23 UNL     1      -9.792  43.651 -27.238  1.00  0.00    -0.021 C 
HETATM    8  C24 UNL     1     -10.363  42.252 -27.169  1.00  0.00     0.052 C 
HETATM    9  C26 UNL     1     -11.638  44.439 -28.719  1.00  0.00     0.038 C 
HETATM   10  C27 UNL     1     -11.386  44.873 -30.157  1.00  0.00     0.042 C 
HETATM   11  C28 UNL     1     -11.013  46.363 -30.275  1.00  0.00     0.065 C 
HETATM   12  C29 UNL     1     -12.268  47.223 -29.990  1.00  0.00     0.047 C 
HETATM   13  C30 UNL     1      -8.444  46.121 -29.993  1.00  0.00     0.138 C 
ENDROOT
BRANCH   5  14
HETATM   14  C19 UNL     1      -9.131  46.793 -26.767  1.00  0.00     0.012 C 
BRANCH  14  15
HETATM   15  C20 UNL     1      -9.858  47.734 -25.789  1.00  0.00     0.027 C 
BRANCH  15  16
HETATM   16  C21 UNL     1      -9.074  49.017 -25.525  1.00  0.00     0.164 C 
BRANCH  16  17
HETATM   17  O1  UNL     1      -9.738  50.159 -26.048  1.00  0.00    -0.401 OA
HETATM   18  H32 UNL     1     -10.586  50.240 -25.582  1.00  0.00     0.209 HD
ENDBRANCH  16  17
ENDBRANCH  15  16
ENDBRANCH  14  15
ENDBRANCH   5  14
BRANCH  11  19
HETATM   19  O3  UNL     1     -10.680  46.607 -31.653  1.00  0.00    -0.389 OA
HETATM   20  H44 UNL     1     -11.441  46.335 -32.198  1.00  0.00     0.210 HD
ENDBRANCH  11  19
BRANCH  13  21
HETATM   21  O4  UNL     1      -7.586  45.556 -29.004  1.00  0.00    -0.394 OA
HETATM   22  H46 UNL     1      -6.735  45.362 -29.437  1.00  0.00     0.210 HD
ENDBRANCH  13  21
BRANCH   1  23
HETATM   23  C2  UNL     1      -6.288  47.091 -31.120  1.00  0.00    -0.061 C 
HETATM   24  C1  UNL     1      -5.943  46.601 -32.325  1.00  0.00     0.019 C 
BRANCH  23  25
HETATM   25  C3  UNL     1      -5.213  47.408 -30.181  1.00  0.00     0.007 C 
HETATM   26  C4  UNL     1      -5.330  48.016 -28.989  1.00  0.00     0.001 C 
BRANCH  26  27
HETATM   27  C5  UNL     1      -4.177  48.337 -28.169  1.00  0.00     0.002 C 
HETATM   28  C6  UNL     1      -4.147  48.431 -26.825  1.00  0.00    -0.084 C 
HETATM   29  C7  UNL     1      -5.313  48.152 -25.913  1.00  0.00     0.043 C 
BRANCH  28  30
HETATM   30  C8  UNL     1      -2.861  48.835 -26.122  1.00  0.00     0.037 C 
BRANCH  30  31
HETATM   31  C9  UNL     1      -2.662  50.353 -26.083  1.00  0.00     0.031 C 
BRANCH  31  32
HETATM   32  C10 UNL     1      -1.715  50.822 -27.156  1.00  0.00    -0.024 C 
HETATM   33  C11 UNL     1      -0.440  51.226 -26.992  1.00  0.00    -0.091 C 
HETATM   34  C12 UNL     1       0.295  51.231 -25.679  1.00  0.00     0.042 C 
HETATM   35  C13 UNL     1       0.374  51.706 -28.160  1.00  0.00     0.042 C 
ENDBRANCH  31  32
ENDBRANCH  30  31
ENDBRANCH  28  30
ENDBRANCH  26  27
ENDBRANCH  23  25
ENDBRANCH   1  23
BRANCH   7  36
HETATM   36  C25 UNL     1      -8.468  43.734 -26.552  1.00  0.00     0.265 C 
HETATM   37  O2  UNL     1      -8.189  43.086 -25.546  1.00  0.00    -0.302 OA
ENDBRANCH   7  36
TORSDOF 13
ENDMDL
MODEL 4
REMARK minimizedAffinity -7.05279684
REMARK CNNscore 0.451790363
REMARK CNNaffinity 5.99589014
REMARK  13 active torsions:
REMARK  status: ('A' for Active; 'I' for Inactive)
REMARK    1  A    between atoms: C2_2  and  C3_3 
REMARK    2  A    between atoms: C2_2  and  C14_14 
REMARK    3  A    between atoms: C4_4  and  C5_5 
REMARK    4  A    between atoms: C6_6  and  C8_8 
REMARK    5  A    between atoms: C8_8  and  C9_9 
REMARK    6  A    between atoms: C9_9  and  C10_10 
REMARK    7  A    between atoms: C18_18  and  C19_19 
REMARK    8  A    between atoms: C19_19  and  C20_20 
REMARK    9  A    between atoms: C20_20  and  C21_21 
REMARK   10  A    between atoms: C21_21  and  O1_22 
REMARK   11  A    between atoms: C23_24  and  C25_26 
REMARK   12  A    between atoms: C28_30  and  O3_32 
REMARK   13  A    between atoms: C30_33  and  O4_34 
ROOT
HETATM    1  C14 UNL     1      -7.482  46.932 -31.318  1.00  0.00     0.047 C 
HETATM    2  C15 UNL     1      -8.531  47.994 -30.967  1.00  0.00     0.013 C 
HETATM    3  C16 UNL     1      -9.740  47.525 -31.768  1.00  0.00     0.017 C 
HETATM    4  C17 UNL     1      -9.760  45.961 -31.662  1.00  0.00     0.024 C 
HETATM    5  C18 UNL     1     -10.939  45.428 -30.735  1.00  0.00     0.029 C 
HETATM    6  C22 UNL     1     -10.987  43.872 -30.738  1.00  0.00    -0.066 C 
HETATM    7  C23 UNL     1     -10.861  42.978 -29.720  1.00  0.00    -0.021 C 
HETATM    8  C24 UNL     1     -11.122  41.494 -29.856  1.00  0.00     0.052 C 
HETATM    9  C26 UNL     1     -11.217  43.366 -32.159  1.00  0.00     0.038 C 
HETATM   10  C27 UNL     1     -10.088  43.823 -33.073  1.00  0.00     0.042 C 
HETATM   11  C28 UNL     1      -9.943  45.356 -33.122  1.00  0.00     0.065 C 
HETATM   12  C29 UNL     1     -11.135  45.953 -33.907  1.00  0.00     0.047 C 
HETATM   13  C30 UNL     1      -8.312  45.633 -31.121  1.00  0.00     0.138 C 
ENDROOT
BRANCH   5  14
HETATM   14  C19 UNL     1     -11.148  46.194 -29.396  1.00  0.00     0.012 C 
BRANCH  14  15
HETATM   15  C20 UNL     1     -12.480  46.963 -29.328  1.00  0.00     0.027 C 
BRANCH  15  16
HETATM   16  C21 UNL     1     -12.844  47.371 -27.903  1.00  0.00     0.164 C 
BRANCH  16  17
HETATM   17  O1  UNL     1     -12.598  48.750 -27.669  1.00  0.00    -0.401 OA
HETATM   18  H32 UNL     1     -13.175  49.253 -28.267  1.00  0.00     0.209 HD
ENDBRANCH  16  17
ENDBRANCH  15  16
ENDBRANCH  14  15
ENDBRANCH   5  14
BRANCH  11  19
HETATM   19  O3  UNL     1      -8.775  45.645 -33.910  1.00  0.00    -0.389 OA
HETATM   20  H44 UNL     1      -8.888  45.221 -34.780  1.00  0.00     0.210 HD
ENDBRANCH  11  19
BRANCH  13  21
HETATM   21  O4  UNL     1      -8.331  45.261 -29.745  1.00  0.00    -0.394 OA
HETATM   22  H46 UNL     1      -7.406  45.235 -29.439  1.00  0.00     0.210 HD
ENDBRANCH  13  21
BRANCH   1  23
HETATM   23  C2  UNL     1      -6.142  46.998 -30.588  1.00  0.00    -0.061 C 
HETATM   24  C1  UNL     1      -4.963  46.783 -31.201  1.00  0.00     0.019 C 
BRANCH  23  25
HETATM   25  C3  UNL     1      -6.119  47.295 -29.156  1.00  0.00     0.007 C 
HETATM   26  C4  UNL     1      -5.179  47.979 -28.483  1.00  0.00     0.001 C 
BRANCH  26  27
HETATM   27  C5  UNL     1      -5.232  48.155 -27.043  1.00  0.00     0.002 C 
HETATM   28  C6  UNL     1      -4.193  48.414 -26.227  1.00  0.00    -0.084 C 
HETATM   29  C7  UNL     1      -2.772  48.632 -26.678  1.00  0.00     0.043 C 
BRANCH  28  30
HETATM   30  C8  UNL     1      -4.414  48.514 -24.727  1.00  0.00     0.037 C 
BRANCH  30  31
HETATM   31  C9  UNL     1      -3.321  49.321 -24.021  1.00  0.00     0.031 C 
BRANCH  31  32
HETATM   32  C10 UNL     1      -2.499  48.464 -23.096  1.00  0.00    -0.024 C 
HETATM   33  C11 UNL     1      -2.463  48.527 -21.751  1.00  0.00    -0.091 C 
HETATM   34  C12 UNL     1      -3.298  49.456 -20.913  1.00  0.00     0.042 C 
HETATM   35  C13 UNL     1      -1.557  47.624 -20.960  1.00  0.00     0.042 C 
ENDBRANCH  31  32
ENDBRANCH  30  31
ENDBRANCH  28  30
ENDBRANCH  26  27
ENDBRANCH  23  25
ENDBRANCH   1  23
BRANCH   7  36
HETATM   36  C25 UNL     1     -10.427  43.330 -28.335  1.00  0.00     0.265 C 
HETATM   37  O2  UNL     1     -10.868  42.777 -27.331  1.00  0.00    -0.302 OA
ENDBRANCH   7  36
TORSDOF 13
ENDMDL
MODEL 5
REMARK minimizedAffinity -6.72962284
REMARK CNNscore 0.417385191
REMARK CNNaffinity 5.94425249
REMARK  13 active torsions:
REMARK  status: ('A' for Active; 'I' for Inactive)
REMARK    1  A    between atoms: C2_2  and  C3_3 
REMARK    2  A    between atoms: C2_2  and  C14_14 
REMARK    3  A    between atoms: C4_4  and  C5_5 
REMARK    4  A    between atoms: C6_6  and  C8_8 
REMARK    5  A    between atoms: C8_8  and  C9_9 
REMARK    6  A    between atoms: C9_9  and  C10_10 
REMARK    7  A    between atoms: C18_18  and  C19_19 
REMARK    8  A    between atoms: C19_19  and  C20_20 
REMARK    9  A    between atoms: C20_20  and  C21_21 
REMARK   10  A    between atoms: C21_21  and  O1_22 
REMARK   11  A    between atoms: C23_24  and  C25_26 
REMARK   12  A    between atoms: C28_30  and  O3_32 
REMARK   13  A    between atoms: C30_33  and  O4_34 
ROOT
HETATM    1  C14 UNL     1      -6.338  49.278 -24.244  1.00  0.00     0.047 C 
HETATM    2  C15 UNL     1      -5.462  48.053 -24.533  1.00  0.00     0.013 C 
HETATM    3  C16 UNL     1      -4.080  48.679 -24.680  1.00  0.00     0.017 C 
HETATM    4  C17 UNL     1      -3.983  49.799 -23.587  1.00  0.00     0.024 C 
HETATM    5  C18 UNL     1      -3.004  49.405 -22.395  1.00  0.00     0.029 C 
HETATM    6  C22 UNL     1      -2.857  50.582 -21.386  1.00  0.00    -0.066 C 
HETATM    7  C23 UNL     1      -3.145  50.653 -20.058  1.00  0.00    -0.021 C 
HETATM    8  C24 UNL     1      -2.767  51.816 -19.169  1.00  0.00     0.052 C 
HETATM    9  C26 UNL     1      -2.290  51.805 -22.099  1.00  0.00     0.038 C 
HETATM   10  C27 UNL     1      -3.219  52.239 -23.226  1.00  0.00     0.042 C 
HETATM   11  C28 UNL     1      -3.447  51.131 -24.272  1.00  0.00     0.065 C 
HETATM   12  C29 UNL     1      -2.152  50.939 -25.097  1.00  0.00     0.047 C 
HETATM   13  C30 UNL     1      -5.491  49.987 -23.152  1.00  0.00     0.138 C 
ENDROOT
BRANCH   5  14
HETATM   14  C19 UNL     1      -3.142  47.951 -21.856  1.00  0.00     0.012 C 
BRANCH  14  15
HETATM   15  C20 UNL     1      -1.798  47.214 -21.720  1.00  0.00     0.027 C 
BRANCH  15  16
HETATM   16  C21 UNL     1      -0.819  47.954 -20.813  1.00  0.00     0.164 C 
BRANCH  16  17
HETATM   17  O1  UNL     1      -1.102  47.735 -19.438  1.00  0.00    -0.401 OA
HETATM   18  H32 UNL     1      -0.990  46.786 -19.267  1.00  0.00     0.209 HD
ENDBRANCH  16  17
ENDBRANCH  15  16
ENDBRANCH  14  15
ENDBRANCH   5  14
BRANCH  11  19
HETATM   19  O3  UNL     1      -4.431  51.622 -25.199  1.00  0.00    -0.389 OA
HETATM   20  H44 UNL     1      -4.103  52.463 -25.566  1.00  0.00     0.210 HD
ENDBRANCH  11  19
BRANCH  13  21
HETATM   21  O4  UNL     1      -5.749  49.411 -21.873  1.00  0.00    -0.394 OA
HETATM   22  H46 UNL     1      -6.715  49.416 -21.743  1.00  0.00     0.210 HD
ENDBRANCH  13  21
BRANCH   1  23
HETATM   23  C2  UNL     1      -7.807  49.028 -23.907  1.00  0.00    -0.061 C 
HETATM   24  C1  UNL     1      -8.237  48.771 -22.657  1.00  0.00     0.019 C 
BRANCH  23  25
HETATM   25  C3  UNL     1      -8.803  49.051 -24.978  1.00  0.00     0.007 C 
HETATM   26  C4  UNL     1      -9.683  48.085 -25.290  1.00  0.00     0.001 C 
BRANCH  26  27
HETATM   27  C5  UNL     1     -10.584  48.196 -26.422  1.00  0.00     0.002 C 
HETATM   28  C6  UNL     1     -11.641  47.405 -26.688  1.00  0.00    -0.084 C 
HETATM   29  C7  UNL     1     -12.122  46.280 -25.808  1.00  0.00     0.043 C 
BRANCH  28  30
HETATM   30  C8  UNL     1     -12.453  47.625 -27.954  1.00  0.00     0.037 C 
BRANCH  30  31
HETATM   31  C9  UNL     1     -13.309  46.410 -28.324  1.00  0.00     0.031 C 
BRANCH  31  32
HETATM   32  C10 UNL     1     -14.473  46.237 -27.385  1.00  0.00    -0.024 C 
HETATM   33  C11 UNL     1     -15.512  45.392 -27.528  1.00  0.00    -0.091 C 
HETATM   34  C12 UNL     1     -15.668  44.409 -28.656  1.00  0.00     0.042 C 
HETATM   35  C13 UNL     1     -16.626  45.360 -26.519  1.00  0.00     0.042 C 
ENDBRANCH  31  32
ENDBRANCH  30  31
ENDBRANCH  28  30
ENDBRANCH  26  27
ENDBRANCH  23  25
ENDBRANCH   1  23
BRANCH   7  36
HETATM   36  C25 UNL     1      -3.893  49.607 -19.299  1.00  0.00     0.265 C 
HETATM   37  O2  UNL     1      -3.494  49.130 -18.239  1.00  0.00    -0.302 OA
ENDBRANCH   7  36
TORSDOF 13
ENDMDL
MODEL 6
REMARK minimizedAffinity -7.65341091
REMARK CNNscore 0.404272556
REMARK CNNaffinity 6.12262869
REMARK  13 active torsions:
REMARK  status: ('A' for Active; 'I' for Inactive)
REMARK    1  A    between atoms: C2_2  and  C3_3 
REMARK    2  A    between atoms: C2_2  and  C14_14 
REMARK    3  A    between atoms: C4_4  and  C5_5 
REMARK    4  A    between atoms: C6_6  and  C8_8 
REMARK    5  A    between atoms: C8_8  and  C9_9 
REMARK    6  A    between atoms: C9_9  and  C10_10 
REMARK    7  A    between atoms: C18_18  and  C19_19 
REMARK    8  A    between atoms: C19_19  and  C20_20 
REMARK    9  A    between atoms: C20_20  and  C21_21 
REMARK   10  A    between atoms: C21_21  and  O1_22 
REMARK   11  A    between atoms: C23_24  and  C25_26 
REMARK   12  A    between atoms: C28_30  and  O3_32 
REMARK   13  A    between atoms: C30_33  and  O4_34 
ROOT
HETATM    1  C14 UNL     1      -7.098  47.863 -28.916  1.00  0.00     0.047 C 
HETATM    2  C15 UNL     1      -7.353  47.426 -27.467  1.00  0.00     0.013 C 
HETATM    3  C16 UNL     1      -8.872  47.304 -27.434  1.00  0.00     0.017 C 
HETATM    4  C17 UNL     1      -9.294  46.674 -28.806  1.00  0.00     0.024 C 
HETATM    5  C18 UNL     1      -9.784  45.166 -28.659  1.00  0.00     0.029 C 
HETATM    6  C22 UNL     1     -10.289  44.612 -30.023  1.00  0.00    -0.066 C 
HETATM    7  C23 UNL     1      -9.859  43.556 -30.767  1.00  0.00    -0.021 C 
HETATM    8  C24 UNL     1     -10.580  43.026 -31.986  1.00  0.00     0.052 C 
HETATM    9  C26 UNL     1     -11.456  45.457 -30.523  1.00  0.00     0.038 C 
HETATM   10  C27 UNL     1     -11.019  46.903 -30.713  1.00  0.00     0.042 C 
HETATM   11  C28 UNL     1     -10.479  47.540 -29.419  1.00  0.00     0.065 C 
HETATM   12  C29 UNL     1     -11.656  47.778 -28.442  1.00  0.00     0.047 C 
HETATM   13  C30 UNL     1      -7.991  46.849 -29.683  1.00  0.00     0.138 C 
ENDROOT
BRANCH   5  14
HETATM   14  C19 UNL     1      -8.914  44.257 -27.742  1.00  0.00     0.012 C 
BRANCH  14  15
HETATM   15  C20 UNL     1      -9.679  43.691 -26.532  1.00  0.00     0.027 C 
BRANCH  15  16
HETATM   16  C21 UNL     1      -8.777  43.487 -25.318  1.00  0.00     0.164 C 
BRANCH  16  17
HETATM   17  O1  UNL     1      -7.514  42.949 -25.682  1.00  0.00    -0.401 OA
HETATM   18  H32 UNL     1      -7.077  43.599 -26.257  1.00  0.00     0.209 HD
ENDBRANCH  16  17
ENDBRANCH  15  16
ENDBRANCH  14  15
ENDBRANCH   5  14
BRANCH  11  19
HETATM   19  O3  UNL     1      -9.989  48.847 -29.763  1.00  0.00    -0.389 OA
HETATM   20  H44 UNL     1     -10.718  49.339 -30.183  1.00  0.00     0.210 HD
ENDBRANCH  11  19
BRANCH  13  21
HETATM   21  O4  UNL     1      -7.299  45.614 -29.858  1.00  0.00    -0.394 OA
HETATM   22  H46 UNL     1      -6.436  45.821 -30.259  1.00  0.00     0.210 HD
ENDBRANCH  13  21
BRANCH   1  23
HETATM   23  C2  UNL     1      -5.644  47.969 -29.373  1.00  0.00    -0.061 C 
HETATM   24  C1  UNL     1      -5.198  47.428 -30.522  1.00  0.00     0.019 C 
BRANCH  23  25
HETATM   25  C3  UNL     1      -4.677  48.674 -28.532  1.00  0.00     0.007 C 
HETATM   26  C4  UNL     1      -3.834  48.134 -27.637  1.00  0.00     0.001 C 
BRANCH  26  27
HETATM   27  C5  UNL     1      -2.960  48.945 -26.809  1.00  0.00     0.002 C 
HETATM   28  C6  UNL     1      -3.080  49.161 -25.485  1.00  0.00    -0.084 C 
HETATM   29  C7  UNL     1      -4.125  48.536 -24.598  1.00  0.00     0.043 C 
BRANCH  28  30
HETATM   30  C8  UNL     1      -2.106  50.089 -24.777  1.00  0.00     0.037 C 
BRANCH  30  31
HETATM   31  C9  UNL     1      -1.497  51.133 -25.717  1.00  0.00     0.031 C 
BRANCH  31  32
HETATM   32  C10 UNL     1       0.006  51.163 -25.625  1.00  0.00    -0.024 C 
HETATM   33  C11 UNL     1       0.876  51.353 -26.635  1.00  0.00    -0.091 C 
HETATM   34  C12 UNL     1       0.488  51.626 -28.062  1.00  0.00     0.042 C 
HETATM   35  C13 UNL     1       2.360  51.318 -26.392  1.00  0.00     0.042 C 
ENDBRANCH  31  32
ENDBRANCH  30  31
ENDBRANCH  28  30
ENDBRANCH  26  27
ENDBRANCH  23  25
ENDBRANCH   1  23
BRANCH   7  36
HETATM   36  C25 UNL     1      -8.607  42.788 -30.498  1.00  0.00     0.265 C 
HETATM   37  O2  UNL     1      -7.526  43.060 -31.014  1.00  0.00    -0.302 OA
ENDBRANCH   7  36
TORSDOF 13
ENDMDL
MODEL 7
REMARK minimizedAffinity -6.49635601
REMARK CNNscore 0.371439099
REMARK CNNaffinity 6.21727514
REMARK  13 active torsions:
REMARK  status: ('A' for Active; 'I' for Inactive)
REMARK    1  A    between atoms: C2_2  and  C3_3 
REMARK    2  A    between atoms: C2_2  and  C14_14 
REMARK    3  A    between atoms: C4_4  and  C5_5 
REMARK    4  A    between atoms: C6_6  and  C8_8 
REMARK    5  A    between atoms: C8_8  and  C9_9 
REMARK    6  A    between atoms: C9_9  and  C10_10 
REMARK    7  A    between atoms: C18_18  and  C19_19 
REMARK    8  A    between atoms: C19_19  and  C20_20 
REMARK    9  A    between atoms: C20_20  and  C21_21 
REMARK   10  A    between atoms: C21_21  and  O1_22 
REMARK   11  A    between atoms: C23_24  and  C25_26 
REMARK   12  A    between atoms: C28_30  and  O3_32 
REMARK   13  A    between atoms: C30_33  and  O4_34 
ROOT
HETATM    1  C14 UNL     1      -0.255  51.385 -13.428  1.00  0.00     0.047 C 
HETATM    2  C15 UNL     1       0.538  52.347 -12.535  1.00  0.00     0.013 C 
HETATM    3  C16 UNL     1      -0.570  53.038 -11.749  1.00  0.00     0.017 C 
HETATM    4  C17 UNL     1      -1.629  51.932 -11.412  1.00  0.00     0.024 C 
HETATM    5  C18 UNL     1      -1.625  51.533  -9.871  1.00  0.00     0.029 C 
HETATM    6  C22 UNL     1      -2.756  50.510  -9.561  1.00  0.00    -0.066 C 
HETATM    7  C23 UNL     1      -2.697  49.245  -9.062  1.00  0.00    -0.021 C 
HETATM    8  C24 UNL     1      -3.905  48.442  -8.636  1.00  0.00     0.052 C 
HETATM    9  C26 UNL     1      -4.112  51.118  -9.904  1.00  0.00     0.038 C 
HETATM   10  C27 UNL     1      -4.171  51.480 -11.382  1.00  0.00     0.042 C 
HETATM   11  C28 UNL     1      -3.072  52.477 -11.797  1.00  0.00     0.065 C 
HETATM   12  C29 UNL     1      -3.400  53.868 -11.204  1.00  0.00     0.047 C 
HETATM   13  C30 UNL     1      -1.221  50.756 -12.386  1.00  0.00     0.138 C 
ENDROOT
BRANCH   5  14
HETATM   14  C19 UNL     1      -0.223  51.339  -9.224  1.00  0.00     0.012 C 
BRANCH  14  15
HETATM   15  C20 UNL     1       0.024  52.247  -8.006  1.00  0.00     0.027 C 
BRANCH  15  16
HETATM   16  C21 UNL     1      -0.623  51.704  -6.735  1.00  0.00     0.164 C 
BRANCH  16  17
HETATM   17  O1  UNL     1      -1.663  52.551  -6.267  1.00  0.00    -0.401 OA
HETATM   18  H32 UNL     1      -2.350  52.572  -6.952  1.00  0.00     0.209 HD
ENDBRANCH  16  17
ENDBRANCH  15  16
ENDBRANCH  14  15
ENDBRANCH   5  14
BRANCH  11  19
HETATM   19  O3  UNL     1      -3.161  52.633 -13.225  1.00  0.00    -0.389 OA
HETATM   20  H44 UNL     1      -4.068  52.917 -13.439  1.00  0.00     0.210 HD
ENDBRANCH  11  19
BRANCH  13  21
HETATM   21  O4  UNL     1      -0.574  49.691 -11.691  1.00  0.00    -0.394 OA
HETATM   22  H46 UNL     1      -0.209  49.087 -12.363  1.00  0.00     0.210 HD
ENDBRANCH  13  21
BRANCH   1  23
HETATM   23  C2  UNL     1       0.542  50.408 -14.291  1.00  0.00    -0.061 C 
HETATM   24  C1  UNL     1       1.109  49.291 -13.797  1.00  0.00     0.019 C 
BRANCH  23  25
HETATM   25  C3  UNL     1       0.720  50.688 -15.716  1.00  0.00     0.007 C 
HETATM   26  C4  UNL     1       0.761  51.893 -16.307  1.00  0.00     0.001 C 
BRANCH  26  27
HETATM   27  C5  UNL     1       0.877  52.046 -17.745  1.00  0.00     0.002 C 
HETATM   28  C6  UNL     1      -0.105  51.884 -18.652  1.00  0.00    -0.084 C 
HETATM   29  C7  UNL     1      -1.542  51.569 -18.325  1.00  0.00     0.043 C 
BRANCH  28  30
HETATM   30  C8  UNL     1       0.201  52.028 -20.134  1.00  0.00     0.037 C 
BRANCH  30  31
HETATM   31  C9  UNL     1       1.128  53.209 -20.433  1.00  0.00     0.031 C 
BRANCH  31  32
HETATM   32  C10 UNL     1       1.125  53.568 -21.896  1.00  0.00    -0.024 C 
HETATM   33  C11 UNL     1       0.472  52.930 -22.886  1.00  0.00    -0.091 C 
HETATM   34  C12 UNL     1      -0.434  51.744 -22.691  1.00  0.00     0.042 C 
HETATM   35  C13 UNL     1       0.597  53.386 -24.313  1.00  0.00     0.042 C 
ENDBRANCH  31  32
ENDBRANCH  30  31
ENDBRANCH  28  30
ENDBRANCH  26  27
ENDBRANCH  23  25
ENDBRANCH   1  23
BRANCH   7  36
HETATM   36  C25 UNL     1      -1.435  48.465  -8.887  1.00  0.00     0.265 C 
HETATM   37  O2  UNL     1      -1.007  47.679  -9.729  1.00  0.00    -0.302 OA
ENDBRANCH   7  36
TORSDOF 13
ENDMDL
MODEL 8
REMARK minimizedAffinity -7.71073627
REMARK CNNscore 0.332848132
REMARK CNNaffinity 5.73433876
REMARK  13 active torsions:
REMARK  status: ('A' for Active; 'I' for Inactive)
REMARK    1  A    between atoms: C2_2  and  C3_3 
REMARK    2  A    between atoms: C2_2  and  C14_14 
REMARK    3  A    between atoms: C4_4  and  C5_5 
REMARK    4  A    between atoms: C6_6  and  C8_8 
REMARK    5  A    between atoms: C8_8  and  C9_9 
REMARK    6  A    between atoms: C9_9  and  C10_10 
REMARK    7  A    between atoms: C18_18  and  C19_19 
REMARK    8  A    between atoms: C19_19  and  C20_20 
REMARK    9  A    between atoms: C20_20  and  C21_21 
REMARK   10  A    between atoms: C21_21  and  O1_22 
REMARK   11  A    between atoms: C23_24  and  C25_26 
REMARK   12  A    between atoms: C28_30  and  O3_32 
REMARK   13  A    between atoms: C30_33  and  O4_34 
ROOT
HETATM    1  C14 UNL     1      -7.974  46.440 -26.174  1.00  0.00     0.047 C 
HETATM    2  C15 UNL     1      -7.293  46.985 -27.436  1.00  0.00     0.013 C 
HETATM    3  C16 UNL     1      -7.742  45.986 -28.495  1.00  0.00     0.017 C 
HETATM    4  C17 UNL     1      -9.240  45.649 -28.179  1.00  0.00     0.024 C 
HETATM    5  C18 UNL     1     -10.246  46.289 -29.235  1.00  0.00     0.029 C 
HETATM    6  C22 UNL     1     -11.710  45.847 -28.943  1.00  0.00    -0.066 C 
HETATM    7  C23 UNL     1     -12.817  46.583 -28.649  1.00  0.00    -0.021 C 
HETATM    8  C24 UNL     1     -14.218  46.017 -28.579  1.00  0.00     0.052 C 
HETATM    9  C26 UNL     1     -11.818  44.328 -29.026  1.00  0.00     0.038 C 
HETATM   10  C27 UNL     1     -10.897  43.676 -28.003  1.00  0.00     0.042 C 
HETATM   11  C28 UNL     1      -9.419  44.069 -28.193  1.00  0.00     0.065 C 
HETATM   12  C29 UNL     1      -8.873  43.384 -29.468  1.00  0.00     0.047 C 
HETATM   13  C30 UNL     1      -9.413  46.197 -26.706  1.00  0.00     0.138 C 
ENDROOT
BRANCH   5  14
HETATM   14  C19 UNL     1      -9.960  47.765 -29.634  1.00  0.00     0.012 C 
BRANCH  14  15
HETATM   15  C20 UNL     1      -9.385  47.919 -31.054  1.00  0.00     0.027 C 
BRANCH  15  16
HETATM   16  C21 UNL     1      -8.641  49.238 -31.241  1.00  0.00     0.164 C 
BRANCH  16  17
HETATM   17  O1  UNL     1      -8.648  50.021 -30.056  1.00  0.00    -0.401 OA
HETATM   18  H32 UNL     1      -8.173  49.519 -29.374  1.00  0.00     0.209 HD
ENDBRANCH  16  17
ENDBRANCH  15  16
ENDBRANCH  14  15
ENDBRANCH   5  14
BRANCH  11  19
HETATM   19  O3  UNL     1      -8.685  43.494 -27.098  1.00  0.00    -0.389 OA
HETATM   20  H44 UNL     1      -8.852  42.534 -27.097  1.00  0.00     0.210 HD
ENDBRANCH  11  19
BRANCH  13  21
HETATM   21  O4  UNL     1     -10.164  47.408 -26.675  1.00  0.00    -0.394 OA
HETATM   22  H46 UNL     1     -10.091  47.771 -25.773  1.00  0.00     0.210 HD
ENDBRANCH  13  21
BRANCH   1  23
HETATM   23  C2  UNL     1      -7.854  47.271 -24.896  1.00  0.00    -0.061 C 
HETATM   24  C1  UNL     1      -8.783  47.251 -23.922  1.00  0.00     0.019 C 
BRANCH  23  25
HETATM   25  C3  UNL     1      -6.693  48.140 -24.712  1.00  0.00     0.007 C 
HETATM   26  C4  UNL     1      -5.523  48.083 -25.369  1.00  0.00     0.001 C 
BRANCH  26  27
HETATM   27  C5  UNL     1      -4.414  48.963 -25.053  1.00  0.00     0.002 C 
HETATM   28  C6  UNL     1      -3.278  49.112 -25.762  1.00  0.00    -0.084 C 
HETATM   29  C7  UNL     1      -2.979  48.425 -27.069  1.00  0.00     0.043 C 
BRANCH  28  30
HETATM   30  C8  UNL     1      -2.186  50.041 -25.258  1.00  0.00     0.037 C 
BRANCH  30  31
HETATM   31  C9  UNL     1      -1.509  50.823 -26.386  1.00  0.00     0.031 C 
BRANCH  31  32
HETATM   32  C10 UNL     1      -0.007  50.725 -26.314  1.00  0.00    -0.024 C 
HETATM   33  C11 UNL     1       0.883  51.696 -26.594  1.00  0.00    -0.091 C 
HETATM   34  C12 UNL     1       0.522  53.102 -26.989  1.00  0.00     0.042 C 
HETATM   35  C13 UNL     1       2.361  51.435 -26.514  1.00  0.00     0.042 C 
ENDBRANCH  31  32
ENDBRANCH  30  31
ENDBRANCH  28  30
ENDBRANCH  26  27
ENDBRANCH  23  25
ENDBRANCH   1  23
BRANCH   7  36
HETATM   36  C25 UNL     1     -12.802  48.042 -28.334  1.00  0.00     0.265 C 
HETATM   37  O2  UNL     1     -12.845  48.484 -27.188  1.00  0.00    -0.302 OA
ENDBRANCH   7  36
TORSDOF 13
ENDMDL
MODEL 9
REMARK minimizedAffinity -6.84980822
REMARK CNNscore 0.328115731
REMARK CNNaffinity 6.13828993
REMARK  13 active torsions:
REMARK  status: ('A' for Active; 'I' for Inactive)
REMARK    1  A    between atoms: C2_2  and  C3_3 
REMARK    2  A    between atoms: C2_2  and  C14_14 
REMARK    3  A    between atoms: C4_4  and  C5_5 
REMARK    4  A    between atoms: C6_6  and  C8_8 
REMARK    5  A    between atoms: C8_8  and  C9_9 
REMARK    6  A    between atoms: C9_9  and  C10_10 
REMARK    7  A    between atoms: C18_18  and  C19_19 
REMARK    8  A    between atoms: C19_19  and  C20_20 
REMARK    9  A    between atoms: C20_20  and  C21_21 
REMARK   10  A    between atoms: C21_21  and  O1_22 
REMARK   11  A    between atoms: C23_24  and  C25_26 
REMARK   12  A    between atoms: C28_30  and  O3_32 
REMARK   13  A    between atoms: C30_33  and  O4_34 
ROOT
HETATM    1  C14 UNL     1      -6.854  47.626 -28.802  1.00  0.00     0.047 C 
HETATM    2  C15 UNL     1      -6.822  46.264 -28.096  1.00  0.00     0.013 C 
HETATM    3  C16 UNL     1      -8.301  46.007 -27.835  1.00  0.00     0.017 C 
HETATM    4  C17 UNL     1      -9.067  46.505 -29.109  1.00  0.00     0.024 C 
HETATM    5  C18 UNL     1      -9.642  45.306 -29.984  1.00  0.00     0.029 C 
HETATM    6  C22 UNL     1     -10.481  45.844 -31.180  1.00  0.00    -0.066 C 
HETATM    7  C23 UNL     1     -10.318  45.684 -32.522  1.00  0.00    -0.021 C 
HETATM    8  C24 UNL     1     -11.332  46.115 -33.557  1.00  0.00     0.052 C 
HETATM    9  C26 UNL     1     -11.651  46.672 -30.659  1.00  0.00     0.038 C 
HETATM   10  C27 UNL     1     -11.142  47.855 -29.845  1.00  0.00     0.042 C 
HETATM   11  C28 UNL     1     -10.278  47.426 -28.644  1.00  0.00     0.065 C 
HETATM   12  C29 UNL     1     -11.187  46.779 -27.571  1.00  0.00     0.047 C 
HETATM   13  C30 UNL     1      -7.978  47.381 -29.846  1.00  0.00     0.138 C 
ENDROOT
BRANCH   5  14
HETATM   14  C19 UNL     1      -8.675  44.107 -30.209  1.00  0.00     0.012 C 
BRANCH  14  15
HETATM   15  C20 UNL     1      -7.435  44.466 -31.049  1.00  0.00     0.027 C 
BRANCH  15  16
HETATM   16  C21 UNL     1      -6.518  43.268 -31.272  1.00  0.00     0.164 C 
BRANCH  16  17
HETATM   17  O1  UNL     1      -7.017  42.399 -32.279  1.00  0.00    -0.401 OA
HETATM   18  H32 UNL     1      -7.040  42.901 -33.110  1.00  0.00     0.209 HD
ENDBRANCH  16  17
ENDBRANCH  15  16
ENDBRANCH  14  15
ENDBRANCH   5  14
BRANCH  11  19
HETATM   19  O3  UNL     1      -9.763  48.628 -28.044  1.00  0.00    -0.389 OA
HETATM   20  H44 UNL     1     -10.520  49.197 -27.816  1.00  0.00     0.210 HD
ENDBRANCH  11  19
BRANCH  13  21
HETATM   21  O4  UNL     1      -7.452  46.718 -30.994  1.00  0.00    -0.394 OA
HETATM   22  H46 UNL     1      -6.682  47.232 -31.298  1.00  0.00     0.210 HD
ENDBRANCH  13  21
BRANCH   1  23
HETATM   23  C2  UNL     1      -5.531  48.168 -29.342  1.00  0.00    -0.061 C 
HETATM   24  C1  UNL     1      -5.334  48.448 -30.644  1.00  0.00     0.019 C 
BRANCH  23  25
HETATM   25  C3  UNL     1      -4.416  48.389 -28.422  1.00  0.00     0.007 C 
HETATM   26  C4  UNL     1      -4.481  48.530 -27.088  1.00  0.00     0.001 C 
BRANCH  26  27
HETATM   27  C5  UNL     1      -3.307  48.811 -26.282  1.00  0.00     0.002 C 
HETATM   28  C6  UNL     1      -2.842  50.026 -25.935  1.00  0.00    -0.084 C 
HETATM   29  C7  UNL     1      -3.506  51.335 -26.276  1.00  0.00     0.043 C 
BRANCH  28  30
HETATM   30  C8  UNL     1      -1.559  50.145 -25.129  1.00  0.00     0.037 C 
BRANCH  30  31
HETATM   31  C9  UNL     1      -0.317  50.285 -26.013  1.00  0.00     0.031 C 
BRANCH  31  32
HETATM   32  C10 UNL     1      -0.450  51.422 -26.992  1.00  0.00    -0.024 C 
HETATM   33  C11 UNL     1       0.549  52.087 -27.603  1.00  0.00    -0.091 C 
HETATM   34  C12 UNL     1       2.011  51.766 -27.450  1.00  0.00     0.042 C 
HETATM   35  C13 UNL     1       0.260  53.233 -28.531  1.00  0.00     0.042 C 
ENDBRANCH  31  32
ENDBRANCH  30  31
ENDBRANCH  28  30
ENDBRANCH  26  27
ENDBRANCH  23  25
ENDBRANCH   1  23
BRANCH   7  36
HETATM   36  C25 UNL     1      -9.109  45.083 -33.160  1.00  0.00     0.265 C 
HETATM   37  O2  UNL     1      -9.068  44.746 -34.341  1.00  0.00    -0.302 OA
ENDBRANCH   7  36
TORSDOF 13
ENDMDL
