MODEL 1
REMARK minimizedAffinity -8.39162731
REMARK CNNscore 0.554113626
REMARK CNNaffinity 5.75329208
REMARK  13 active torsions:
REMARK  status: ('A' for Active; 'I' for Inactive)
REMARK    1  A    between atoms: C3_3  and  O1_4 
REMARK    2  A    between atoms: N1_14  and  O2_16 
REMARK    3  A    between atoms: O2_16  and  C13_17 
REMARK    4  A    between atoms: C13_17  and  C14_18 
REMARK       I    between atoms: C14_18  and  N2_20 
REMARK    5  A    between atoms: N2_20  and  C15_21 
REMARK    6  A    between atoms: C15_21  and  C16_22 
REMARK    7  A    between atoms: C15_21  and  C21_33 
REMARK       I    between atoms: C16_22  and  N3_24 
REMARK    8  A    between atoms: N3_24  and  C17_25 
REMARK    9  A    between atoms: C17_25  and  C18_26 
REMARK   10  A    between atoms: C17_25  and  C20_30 
REMARK   11  A    between atoms: C18_26  and  C19_27 
REMARK   12  A    between atoms: C19_27  and  O6_29 
REMARK   13  A    between atoms: C20_30  and  O8_32 
ROOT
HETATM    1  C1  UNL     1      -5.112  73.188 -41.350  1.00  0.00     0.015 C 
HETATM    2  C2  UNL     1      -4.125  72.550 -41.096  1.00  0.00    -0.078 C 
HETATM    3  C3  UNL     1      -2.901  71.789 -40.795  1.00  0.00     0.128 C 
HETATM    4  C4  UNL     1      -3.089  70.893 -39.560  1.00  0.00     0.052 C 
HETATM    5  C5  UNL     1      -1.934  69.908 -39.674  1.00  0.00     0.010 C 
HETATM    6  C6  UNL     1      -1.983  69.501 -41.148  1.00  0.00     0.002 C 
HETATM    7  C7  UNL     1      -0.726  68.803 -41.709  1.00  0.00    -0.004 C 
HETATM    8  C8  UNL     1      -0.380  67.506 -40.963  1.00  0.00     0.010 C 
HETATM    9  C9  UNL     1       1.035  67.044 -41.270  1.00  0.00     0.035 C 
HETATM   10  C10 UNL     1       1.962  68.068 -40.687  1.00  0.00    -0.069 C 
HETATM   11  C11 UNL     1       2.772  67.749 -39.658  1.00  0.00     0.030 C 
HETATM   12  C12 UNL     1       3.613  68.779 -38.980  1.00  0.00     0.032 C 
HETATM   13  N1  UNL     1       4.568  68.537 -38.132  1.00  0.00    -0.271 N 
ATOM     14  H1  UNL     1       5.121  69.262 -37.674  1.00  0.00     0.194 HD
HETATM   15  C24 UNL     1       3.354  70.238 -39.306  1.00  0.00     0.060 C 
HETATM   16  C25 UNL     1       2.058  70.470 -40.077  1.00  0.00     0.020 C 
HETATM   17  C26 UNL     1       1.854  69.482 -41.256  1.00  0.00    -0.016 C 
HETATM   18  C27 UNL     1       3.016  69.673 -42.277  1.00  0.00     0.020 C 
HETATM   19  C28 UNL     1       0.491  69.719 -42.035  1.00  0.00     0.002 C 
HETATM   20  C29 UNL     1       0.089  71.200 -42.189  1.00  0.00     0.007 C 
HETATM   21  C30 UNL     1      -1.293  71.348 -42.819  1.00  0.00     0.014 C 
HETATM   22  C31 UNL     1      -2.433  70.787 -41.929  1.00  0.00     0.003 C 
HETATM   23  C32 UNL     1      -3.595  70.379 -42.867  1.00  0.00     0.020 C 
ENDROOT
BRANCH   3  24
HETATM   24  O1  UNL     1      -1.881  72.750 -40.508  1.00  0.00    -0.377 OA
HETATM   25  H2  UNL     1      -1.956  72.996 -39.571  1.00  0.00     0.211 HD
ENDBRANCH   3  24
BRANCH  13  26
HETATM   26  O2  UNL     1       4.746  67.162 -37.921  1.00  0.00    -0.271 OA
BRANCH  26  27
HETATM   27  C13 UNL     1       5.956  66.959 -37.194  1.00  0.00     0.303 C 
BRANCH  27  28
HETATM   28  C14 UNL     1       5.985  65.514 -36.726  1.00  0.00     0.244 C 
HETATM   29  O3  UNL     1       6.491  64.607 -37.386  1.00  0.00    -0.271 OA
HETATM   30  N2  UNL     1       5.376  65.288 -35.503  1.00  0.00    -0.346 N 
HETATM   31  H16 UNL     1       5.423  66.070 -34.850  1.00  0.00     0.163 HD
BRANCH  30  32
HETATM   32  C15 UNL     1       5.487  63.968 -34.879  1.00  0.00     0.180 C 
BRANCH  32  33
HETATM   33  C16 UNL     1       6.903  63.875 -34.269  1.00  0.00     0.241 C 
HETATM   34  O4  UNL     1       7.378  64.766 -33.562  1.00  0.00    -0.271 OA
HETATM   35  N3  UNL     1       7.590  62.721 -34.552  1.00  0.00    -0.344 N 
HETATM   36  H18 UNL     1       7.218  62.066 -35.235  1.00  0.00     0.163 HD
BRANCH  35  37
HETATM   37  C17 UNL     1       9.005  62.557 -34.199  1.00  0.00     0.192 C 
BRANCH  37  38
HETATM   38  C18 UNL     1       9.225  61.567 -33.058  1.00  0.00     0.146 C 
BRANCH  38  39
HETATM   39  C19 UNL     1      10.454  61.845 -32.244  1.00  0.00     0.141 C 
HETATM   40  O5  UNL     1      10.724  61.346 -31.162  1.00  0.00    -0.650 OA
BRANCH  39  41
HETATM   41  O6  UNL     1      11.325  62.683 -32.838  1.00  0.00    -0.776 OA
HETATM   42  H22 UNL     1      12.076  62.730 -32.209  1.00  0.00     0.167 HD
ENDBRANCH  39  41
ENDBRANCH  38  39
ENDBRANCH  37  38
BRANCH  37  43
HETATM   43  C20 UNL     1       9.782  62.172 -35.458  1.00  0.00     0.164 C 
HETATM   44  O7  UNL     1      10.910  62.540 -35.755  1.00  0.00    -0.648 OA
BRANCH  43  45
HETATM   45  O8  UNL     1       9.105  61.327 -36.258  1.00  0.00    -0.775 OA
HETATM   46  H23 UNL     1       9.727  61.127 -36.992  1.00  0.00     0.167 HD
ENDBRANCH  43  45
ENDBRANCH  37  43
ENDBRANCH  35  37
ENDBRANCH  32  33
BRANCH  32  47
HETATM   47  C21 UNL     1       4.349  63.740 -33.866  1.00  0.00     0.009 C 
HETATM   48  C22 UNL     1       4.283  62.285 -33.401  1.00  0.00     0.012 C 
HETATM   49  C23 UNL     1       4.406  64.670 -32.653  1.00  0.00     0.012 C 
ENDBRANCH  32  47
ENDBRANCH  30  32
ENDBRANCH  27  28
ENDBRANCH  26  27
ENDBRANCH  13  26
TORSDOF 13
ENDMDL
MODEL 2
REMARK minimizedAffinity -8.20092487
REMARK CNNscore 0.373964936
REMARK CNNaffinity 6.06651306
REMARK  13 active torsions:
REMARK  status: ('A' for Active; 'I' for Inactive)
REMARK    1  A    between atoms: C3_3  and  O1_4 
REMARK    2  A    between atoms: N1_14  and  O2_16 
REMARK    3  A    between atoms: O2_16  and  C13_17 
REMARK    4  A    between atoms: C13_17  and  C14_18 
REMARK       I    between atoms: C14_18  and  N2_20 
REMARK    5  A    between atoms: N2_20  and  C15_21 
REMARK    6  A    between atoms: C15_21  and  C16_22 
REMARK    7  A    between atoms: C15_21  and  C21_33 
REMARK       I    between atoms: C16_22  and  N3_24 
REMARK    8  A    between atoms: N3_24  and  C17_25 
REMARK    9  A    between atoms: C17_25  and  C18_26 
REMARK   10  A    between atoms: C17_25  and  C20_30 
REMARK   11  A    between atoms: C18_26  and  C19_27 
REMARK   12  A    between atoms: C19_27  and  O6_29 
REMARK   13  A    between atoms: C20_30  and  O8_32 
ROOT
HETATM    1  C1  UNL     1      -0.666  52.190 -24.411  1.00  0.00     0.015 C 
HETATM    2  C2  UNL     1      -1.685  51.672 -24.036  1.00  0.00    -0.078 C 
HETATM    3  C3  UNL     1      -2.919  51.029 -23.555  1.00  0.00     0.128 C 
HETATM    4  C4  UNL     1      -4.165  51.816 -23.991  1.00  0.00     0.052 C 
HETATM    5  C5  UNL     1      -5.290  50.808 -23.796  1.00  0.00     0.010 C 
HETATM    6  C6  UNL     1      -4.713  49.536 -24.421  1.00  0.00     0.002 C 
HETATM    7  C7  UNL     1      -5.427  48.213 -24.067  1.00  0.00    -0.004 C 
HETATM    8  C8  UNL     1      -6.907  48.206 -24.476  1.00  0.00     0.010 C 
HETATM    9  C9  UNL     1      -7.670  47.079 -23.798  1.00  0.00     0.035 C 
HETATM   10  C10 UNL     1      -7.689  47.389 -22.330  1.00  0.00    -0.069 C 
HETATM   11  C11 UNL     1      -8.848  47.680 -21.709  1.00  0.00     0.030 C 
HETATM   12  C12 UNL     1      -8.881  48.111 -20.280  1.00  0.00     0.032 C 
HETATM   13  N1  UNL     1      -9.946  48.208 -19.544  1.00  0.00    -0.271 N 
ATOM     14  H1  UNL     1      -9.942  48.516 -18.571  1.00  0.00     0.194 HD
HETATM   15  C24 UNL     1      -7.564  48.457 -19.611  1.00  0.00     0.060 C 
HETATM   16  C25 UNL     1      -6.400  48.595 -20.589  1.00  0.00     0.020 C 
HETATM   17  C26 UNL     1      -6.331  47.450 -21.634  1.00  0.00    -0.016 C 
HETATM   18  C27 UNL     1      -6.120  46.100 -20.884  1.00  0.00     0.020 C 
HETATM   19  C28 UNL     1      -5.129  47.618 -22.658  1.00  0.00     0.002 C 
HETATM   20  C29 UNL     1      -3.833  48.183 -22.042  1.00  0.00     0.007 C 
HETATM   21  C30 UNL     1      -2.771  48.450 -23.105  1.00  0.00     0.014 C 
HETATM   22  C31 UNL     1      -3.175  49.566 -24.104  1.00  0.00     0.003 C 
HETATM   23  C32 UNL     1      -2.422  49.296 -25.430  1.00  0.00     0.020 C 
ENDROOT
BRANCH   3  24
HETATM   24  O1  UNL     1      -2.853  51.036 -22.126  1.00  0.00    -0.377 OA
HETATM   25  H2  UNL     1      -3.182  51.896 -21.815  1.00  0.00     0.211 HD
ENDBRANCH   3  24
BRANCH  13  26
HETATM   26  O2  UNL     1     -11.104  47.839 -20.244  1.00  0.00    -0.271 OA
BRANCH  26  27
HETATM   27  C13 UNL     1     -12.088  47.397 -19.311  1.00  0.00     0.303 C 
BRANCH  27  28
HETATM   28  C14 UNL     1     -13.457  47.741 -19.875  1.00  0.00     0.244 C 
HETATM   29  O3  UNL     1     -13.697  48.806 -20.443  1.00  0.00    -0.271 OA
HETATM   30  N2  UNL     1     -14.425  46.770 -19.680  1.00  0.00    -0.346 N 
HETATM   31  H16 UNL     1     -14.074  45.814 -19.657  1.00  0.00     0.163 HD
BRANCH  30  32
HETATM   32  C15 UNL     1     -15.732  46.923 -20.321  1.00  0.00     0.180 C 
BRANCH  32  33
HETATM   33  C16 UNL     1     -15.734  46.008 -21.566  1.00  0.00     0.241 C 
HETATM   34  O4  UNL     1     -14.910  45.105 -21.724  1.00  0.00    -0.271 OA
HETATM   35  N3  UNL     1     -16.730  46.258 -22.477  1.00  0.00    -0.344 N 
HETATM   36  H18 UNL     1     -17.313  47.085 -22.375  1.00  0.00     0.163 HD
BRANCH  35  37
HETATM   37  C17 UNL     1     -16.761  45.600 -23.789  1.00  0.00     0.192 C 
BRANCH  37  38
HETATM   38  C18 UNL     1     -18.177  45.308 -24.277  1.00  0.00     0.146 C 
BRANCH  38  39
HETATM   39  C19 UNL     1     -18.895  46.514 -24.808  1.00  0.00     0.141 C 
HETATM   40  O5  UNL     1     -20.029  46.530 -25.262  1.00  0.00    -0.650 OA
BRANCH  39  41
HETATM   41  O6  UNL     1     -18.196  47.658 -24.696  1.00  0.00    -0.776 OA
HETATM   42  H22 UNL     1     -18.806  48.344 -25.045  1.00  0.00     0.167 HD
ENDBRANCH  39  41
ENDBRANCH  38  39
ENDBRANCH  37  38
BRANCH  37  43
HETATM   43  C20 UNL     1     -15.970  46.451 -24.782  1.00  0.00     0.164 C 
HETATM   44  O7  UNL     1     -15.712  46.160 -25.941  1.00  0.00    -0.648 OA
BRANCH  43  45
HETATM   45  O8  UNL     1     -15.570  47.629 -24.266  1.00  0.00    -0.775 OA
HETATM   46  H23 UNL     1     -15.122  48.088 -25.011  1.00  0.00     0.167 HD
ENDBRANCH  43  45
ENDBRANCH  37  43
ENDBRANCH  35  37
ENDBRANCH  32  33
BRANCH  32  47
HETATM   47  C21 UNL     1     -16.871  46.633 -19.326  1.00  0.00     0.009 C 
HETATM   48  C22 UNL     1     -18.113  47.477 -19.617  1.00  0.00     0.012 C 
HETATM   49  C23 UNL     1     -17.257  45.155 -19.240  1.00  0.00     0.012 C 
ENDBRANCH  32  47
ENDBRANCH  30  32
ENDBRANCH  27  28
ENDBRANCH  26  27
ENDBRANCH  13  26
TORSDOF 13
ENDMDL
MODEL 3
REMARK minimizedAffinity -7.37866354
REMARK CNNscore 0.265214145
REMARK CNNaffinity 5.99784899
REMARK  13 active torsions:
REMARK  status: ('A' for Active; 'I' for Inactive)
REMARK    1  A    between atoms: C3_3  and  O1_4 
REMARK    2  A    between atoms: N1_14  and  O2_16 
REMARK    3  A    between atoms: O2_16  and  C13_17 
REMARK    4  A    between atoms: C13_17  and  C14_18 
REMARK       I    between atoms: C14_18  and  N2_20 
REMARK    5  A    between atoms: N2_20  and  C15_21 
REMARK    6  A    between atoms: C15_21  and  C16_22 
REMARK    7  A    between atoms: C15_21  and  C21_33 
REMARK       I    between atoms: C16_22  and  N3_24 
REMARK    8  A    between atoms: N3_24  and  C17_25 
REMARK    9  A    between atoms: C17_25  and  C18_26 
REMARK   10  A    between atoms: C17_25  and  C20_30 
REMARK   11  A    between atoms: C18_26  and  C19_27 
REMARK   12  A    between atoms: C19_27  and  O6_29 
REMARK   13  A    between atoms: C20_30  and  O8_32 
ROOT
HETATM    1  C1  UNL     1       0.515  52.829 -22.166  1.00  0.00     0.015 C 
HETATM    2  C2  UNL     1      -0.466  52.155 -22.343  1.00  0.00    -0.078 C 
HETATM    3  C3  UNL     1      -1.682  51.352 -22.550  1.00  0.00     0.128 C 
HETATM    4  C4  UNL     1      -1.504  50.355 -23.707  1.00  0.00     0.052 C 
HETATM    5  C5  UNL     1      -2.639  49.366 -23.483  1.00  0.00     0.010 C 
HETATM    6  C6  UNL     1      -2.553  49.089 -21.980  1.00  0.00     0.002 C 
HETATM    7  C7  UNL     1      -3.786  48.423 -21.333  1.00  0.00    -0.004 C 
HETATM    8  C8  UNL     1      -4.124  47.061 -21.957  1.00  0.00     0.010 C 
HETATM    9  C9  UNL     1      -5.524  46.605 -21.580  1.00  0.00     0.035 C 
HETATM   10  C10 UNL     1      -6.481  47.561 -22.229  1.00  0.00    -0.069 C 
HETATM   11  C11 UNL     1      -7.306  47.141 -23.208  1.00  0.00     0.030 C 
HETATM   12  C12 UNL     1      -8.179  48.095 -23.954  1.00  0.00     0.032 C 
HETATM   13  N1  UNL     1      -9.146  47.766 -24.757  1.00  0.00    -0.271 N 
ATOM     14  H1  UNL     1      -9.721  48.439 -25.264  1.00  0.00     0.194 HD
HETATM   15  C24 UNL     1      -7.939  49.580 -23.761  1.00  0.00     0.060 C 
HETATM   16  C25 UNL     1      -6.631  49.899 -23.041  1.00  0.00     0.020 C 
HETATM   17  C26 UNL     1      -6.386  49.020 -21.786  1.00  0.00    -0.016 C 
HETATM   18  C27 UNL     1      -7.529  49.281 -20.760  1.00  0.00     0.020 C 
HETATM   19  C28 UNL     1      -5.011  49.345 -21.061  1.00  0.00     0.002 C 
HETATM   20  C29 UNL     1      -4.632  50.840 -21.044  1.00  0.00     0.007 C 
HETATM   21  C30 UNL     1      -3.240  51.064 -20.460  1.00  0.00     0.014 C 
HETATM   22  C31 UNL     1      -2.109  50.445 -21.323  1.00  0.00     0.003 C 
HETATM   23  C32 UNL     1      -0.921  50.138 -20.380  1.00  0.00     0.020 C 
ENDROOT
BRANCH   3  24
HETATM   24  O1  UNL     1      -2.724  52.269 -22.896  1.00  0.00    -0.377 OA
HETATM   25  H2  UNL     1      -2.673  52.434 -23.853  1.00  0.00     0.211 HD
ENDBRANCH   3  24
BRANCH  13  26
HETATM   26  O2  UNL     1      -9.305  46.375 -24.845  1.00  0.00    -0.271 OA
BRANCH  26  27
HETATM   27  C13 UNL     1     -10.187  46.078 -25.925  1.00  0.00     0.303 C 
BRANCH  27  28
HETATM   28  C14 UNL     1     -11.470  46.864 -25.711  1.00  0.00     0.244 C 
HETATM   29  O3  UNL     1     -11.500  48.093 -25.661  1.00  0.00    -0.271 OA
HETATM   30  N2  UNL     1     -12.607  46.088 -25.556  1.00  0.00    -0.346 N 
HETATM   31  H16 UNL     1     -12.592  45.202 -26.057  1.00  0.00     0.163 HD
BRANCH  30  32
HETATM   32  C15 UNL     1     -13.917  46.739 -25.507  1.00  0.00     0.180 C 
BRANCH  32  33
HETATM   33  C16 UNL     1     -14.886  45.865 -26.335  1.00  0.00     0.241 C 
HETATM   34  O4  UNL     1     -14.998  45.978 -27.557  1.00  0.00    -0.271 OA
HETATM   35  N3  UNL     1     -15.602  44.939 -25.617  1.00  0.00    -0.344 N 
HETATM   36  H18 UNL     1     -15.575  44.958 -24.600  1.00  0.00     0.163 HD
BRANCH  35  37
HETATM   37  C17 UNL     1     -16.688  44.161 -26.224  1.00  0.00     0.192 C 
BRANCH  37  38
HETATM   38  C18 UNL     1     -16.813  42.756 -25.641  1.00  0.00     0.146 C 
BRANCH  38  39
HETATM   39  C19 UNL     1     -18.082  42.053 -26.021  1.00  0.00     0.141 C 
HETATM   40  O5  UNL     1     -18.367  41.642 -27.136  1.00  0.00    -0.650 OA
BRANCH  39  41
HETATM   41  O6  UNL     1     -18.917  41.836 -24.988  1.00  0.00    -0.776 OA
HETATM   42  H22 UNL     1     -19.666  41.344 -25.387  1.00  0.00     0.167 HD
ENDBRANCH  39  41
ENDBRANCH  38  39
ENDBRANCH  37  38
BRANCH  37  43
HETATM   43  C20 UNL     1     -17.987  44.957 -26.103  1.00  0.00     0.164 C 
HETATM   44  O7  UNL     1     -18.612  45.467 -27.021  1.00  0.00    -0.648 OA
BRANCH  43  45
HETATM   45  O8  UNL     1     -18.438  45.042 -24.837  1.00  0.00    -0.775 OA
HETATM   46  H23 UNL     1     -19.288  45.529 -24.908  1.00  0.00     0.167 HD
ENDBRANCH  43  45
ENDBRANCH  37  43
ENDBRANCH  35  37
ENDBRANCH  32  33
BRANCH  32  47
HETATM   47  C21 UNL     1     -14.365  46.968 -24.051  1.00  0.00     0.009 C 
HETATM   48  C22 UNL     1     -15.846  47.342 -23.962  1.00  0.00     0.012 C 
HETATM   49  C23 UNL     1     -14.071  45.790 -23.121  1.00  0.00     0.012 C 
ENDBRANCH  32  47
ENDBRANCH  30  32
ENDBRANCH  27  28
ENDBRANCH  26  27
ENDBRANCH  13  26
TORSDOF 13
ENDMDL
MODEL 4
REMARK minimizedAffinity -8.72234154
REMARK CNNscore 0.260134697
REMARK CNNaffinity 6.25708055
REMARK  13 active torsions:
REMARK  status: ('A' for Active; 'I' for Inactive)
REMARK    1  A    between atoms: C3_3  and  O1_4 
REMARK    2  A    between atoms: N1_14  and  O2_16 
REMARK    3  A    between atoms: O2_16  and  C13_17 
REMARK    4  A    between atoms: C13_17  and  C14_18 
REMARK       I    between atoms: C14_18  and  N2_20 
REMARK    5  A    between atoms: N2_20  and  C15_21 
REMARK    6  A    between atoms: C15_21  and  C16_22 
REMARK    7  A    between atoms: C15_21  and  C21_33 
REMARK       I    between atoms: C16_22  and  N3_24 
REMARK    8  A    between atoms: N3_24  and  C17_25 
REMARK    9  A    between atoms: C17_25  and  C18_26 
REMARK   10  A    between atoms: C17_25  and  C20_30 
REMARK   11  A    between atoms: C18_26  and  C19_27 
REMARK   12  A    between atoms: C19_27  and  O6_29 
REMARK   13  A    between atoms: C20_30  and  O8_32 
ROOT
HETATM    1  C1  UNL     1      -0.132  53.599 -28.115  1.00  0.00     0.015 C 
HETATM    2  C2  UNL     1      -0.852  52.944 -27.408  1.00  0.00    -0.078 C 
HETATM    3  C3  UNL     1      -1.744  52.165 -26.534  1.00  0.00     0.128 C 
HETATM    4  C4  UNL     1      -2.081  50.799 -27.153  1.00  0.00     0.052 C 
HETATM    5  C5  UNL     1      -2.614  50.009 -25.965  1.00  0.00     0.010 C 
HETATM    6  C6  UNL     1      -1.594  50.320 -24.868  1.00  0.00     0.002 C 
HETATM    7  C7  UNL     1      -2.020  49.993 -23.422  1.00  0.00    -0.004 C 
HETATM    8  C8  UNL     1      -2.360  48.508 -23.221  1.00  0.00     0.010 C 
HETATM    9  C9  UNL     1      -3.123  48.279 -21.926  1.00  0.00     0.035 C 
HETATM   10  C10 UNL     1      -4.455  48.950 -22.082  1.00  0.00    -0.069 C 
HETATM   11  C11 UNL     1      -5.586  48.220 -22.123  1.00  0.00     0.030 C 
HETATM   12  C12 UNL     1      -6.912  48.849 -22.400  1.00  0.00     0.032 C 
HETATM   13  N1  UNL     1      -8.067  48.274 -22.253  1.00  0.00    -0.271 N 
ATOM     14  H1  UNL     1      -8.959  48.725 -22.461  1.00  0.00     0.194 HD
HETATM   15  C24 UNL     1      -6.930  50.288 -22.882  1.00  0.00     0.060 C 
HETATM   16  C25 UNL     1      -5.557  50.809 -23.298  1.00  0.00     0.020 C 
HETATM   17  C26 UNL     1      -4.431  50.464 -22.287  1.00  0.00    -0.016 C 
HETATM   18  C27 UNL     1      -4.762  51.135 -20.920  1.00  0.00     0.020 C 
HETATM   19  C28 UNL     1      -3.005  50.992 -22.744  1.00  0.00     0.002 C 
HETATM   20  C29 UNL     1      -3.023  52.367 -23.443  1.00  0.00     0.007 C 
HETATM   21  C30 UNL     1      -1.645  52.746 -23.979  1.00  0.00     0.014 C 
HETATM   22  C31 UNL     1      -1.151  51.807 -25.110  1.00  0.00     0.003 C 
HETATM   23  C32 UNL     1       0.397  51.839 -25.095  1.00  0.00     0.020 C 
ENDROOT
BRANCH   3  24
HETATM   24  O1  UNL     1      -2.955  52.918 -26.409  1.00  0.00    -0.377 OA
HETATM   25  H2  UNL     1      -3.519  52.706 -27.171  1.00  0.00     0.211 HD
ENDBRANCH   3  24
BRANCH  13  26
HETATM   26  O2  UNL     1      -7.944  46.960 -21.777  1.00  0.00    -0.271 OA
BRANCH  26  27
HETATM   27  C13 UNL     1      -9.246  46.426 -21.553  1.00  0.00     0.303 C 
BRANCH  27  28
HETATM   28  C14 UNL     1      -9.888  47.214 -20.422  1.00  0.00     0.244 C 
HETATM   29  O3  UNL     1      -9.267  48.028 -19.739  1.00  0.00    -0.271 OA
HETATM   30  N2  UNL     1     -11.225  46.930 -20.203  1.00  0.00    -0.346 N 
HETATM   31  H16 UNL     1     -11.746  46.654 -21.034  1.00  0.00     0.163 HD
BRANCH  30  32
HETATM   32  C15 UNL     1     -11.983  47.743 -19.251  1.00  0.00     0.180 C 
BRANCH  32  33
HETATM   33  C16 UNL     1     -13.301  48.146 -19.950  1.00  0.00     0.241 C 
HETATM   34  O4  UNL     1     -13.707  49.310 -19.974  1.00  0.00    -0.271 OA
HETATM   35  N3  UNL     1     -13.979  47.121 -20.561  1.00  0.00    -0.344 N 
HETATM   36  H18 UNL     1     -13.680  46.160 -20.417  1.00  0.00     0.163 HD
BRANCH  35  37
HETATM   37  C17 UNL     1     -15.328  47.306 -21.110  1.00  0.00     0.192 C 
BRANCH  37  38
HETATM   38  C18 UNL     1     -15.536  46.580 -22.436  1.00  0.00     0.146 C 
BRANCH  38  39
HETATM   39  C19 UNL     1     -14.887  47.257 -23.607  1.00  0.00     0.141 C 
HETATM   40  O5  UNL     1     -15.446  47.596 -24.639  1.00  0.00    -0.650 OA
BRANCH  39  41
HETATM   41  O6  UNL     1     -13.584  47.540 -23.420  1.00  0.00    -0.776 OA
HETATM   42  H22 UNL     1     -13.322  48.006 -24.243  1.00  0.00     0.167 HD
ENDBRANCH  39  41
ENDBRANCH  38  39
ENDBRANCH  37  38
BRANCH  37  43
HETATM   43  C20 UNL     1     -16.349  46.886 -20.053  1.00  0.00     0.164 C 
HETATM   44  O7  UNL     1     -17.065  45.896 -20.090  1.00  0.00    -0.648 OA
BRANCH  43  45
HETATM   45  O8  UNL     1     -16.391  47.723 -18.999  1.00  0.00    -0.775 OA
HETATM   46  H23 UNL     1     -17.041  47.317 -18.384  1.00  0.00     0.167 HD
ENDBRANCH  43  45
ENDBRANCH  37  43
ENDBRANCH  35  37
ENDBRANCH  32  33
BRANCH  32  47
HETATM   47  C21 UNL     1     -12.183  46.991 -17.921  1.00  0.00     0.009 C 
HETATM   48  C22 UNL     1     -11.030  47.240 -16.947  1.00  0.00     0.012 C 
HETATM   49  C23 UNL     1     -13.516  47.292 -17.234  1.00  0.00     0.012 C 
ENDBRANCH  32  47
ENDBRANCH  30  32
ENDBRANCH  27  28
ENDBRANCH  26  27
ENDBRANCH  13  26
TORSDOF 13
ENDMDL
MODEL 5
REMARK minimizedAffinity -7.66900492
REMARK CNNscore 0.238531172
REMARK CNNaffinity 5.86006594
REMARK  13 active torsions:
REMARK  status: ('A' for Active; 'I' for Inactive)
REMARK    1  A    between atoms: C3_3  and  O1_4 
REMARK    2  A    between atoms: N1_14  and  O2_16 
REMARK    3  A    between atoms: O2_16  and  C13_17 
REMARK    4  A    between atoms: C13_17  and  C14_18 
REMARK       I    between atoms: C14_18  and  N2_20 
REMARK    5  A    between atoms: N2_20  and  C15_21 
REMARK    6  A    between atoms: C15_21  and  C16_22 
REMARK    7  A    between atoms: C15_21  and  C21_33 
REMARK       I    between atoms: C16_22  and  N3_24 
REMARK    8  A    between atoms: N3_24  and  C17_25 
REMARK    9  A    between atoms: C17_25  and  C18_26 
REMARK   10  A    between atoms: C17_25  and  C20_30 
REMARK   11  A    between atoms: C18_26  and  C19_27 
REMARK   12  A    between atoms: C19_27  and  O6_29 
REMARK   13  A    between atoms: C20_30  and  O8_32 
ROOT
HETATM    1  C1  UNL     1      -0.664  52.841 -24.387  1.00  0.00     0.015 C 
HETATM    2  C2  UNL     1      -1.651  52.243 -24.046  1.00  0.00    -0.078 C 
HETATM    3  C3  UNL     1      -2.845  51.503 -23.606  1.00  0.00     0.128 C 
HETATM    4  C4  UNL     1      -4.135  52.181 -24.095  1.00  0.00     0.052 C 
HETATM    5  C5  UNL     1      -5.178  51.084 -23.934  1.00  0.00     0.010 C 
HETATM    6  C6  UNL     1      -4.476  49.861 -24.525  1.00  0.00     0.002 C 
HETATM    7  C7  UNL     1      -5.091  48.486 -24.187  1.00  0.00    -0.004 C 
HETATM    8  C8  UNL     1      -6.549  48.354 -24.651  1.00  0.00     0.010 C 
HETATM    9  C9  UNL     1      -7.241  47.171 -23.992  1.00  0.00     0.035 C 
HETATM   10  C10 UNL     1      -7.342  47.487 -22.529  1.00  0.00    -0.069 C 
HETATM   11  C11 UNL     1      -8.544  47.684 -21.955  1.00  0.00     0.030 C 
HETATM   12  C12 UNL     1      -8.666  48.120 -20.532  1.00  0.00     0.032 C 
HETATM   13  N1  UNL     1      -9.764  48.132 -19.836  1.00  0.00    -0.271 N 
ATOM     14  H1  UNL     1      -9.822  48.446 -18.867  1.00  0.00     0.194 HD
HETATM   15  C24 UNL     1      -7.409  48.577 -19.817  1.00  0.00     0.060 C 
HETATM   16  C25 UNL     1      -6.224  48.806 -20.751  1.00  0.00     0.020 C 
HETATM   17  C26 UNL     1      -6.021  47.664 -21.782  1.00  0.00    -0.016 C 
HETATM   18  C27 UNL     1      -5.728  46.341 -21.013  1.00  0.00     0.020 C 
HETATM   19  C28 UNL     1      -4.799  47.925 -22.763  1.00  0.00     0.002 C 
HETATM   20  C29 UNL     1      -3.579  48.599 -22.103  1.00  0.00     0.007 C 
HETATM   21  C30 UNL     1      -2.502  48.947 -23.128  1.00  0.00     0.014 C 
HETATM   22  C31 UNL     1      -2.959  50.020 -24.151  1.00  0.00     0.003 C 
HETATM   23  C32 UNL     1      -2.136  49.806 -25.445  1.00  0.00     0.020 C 
ENDROOT
BRANCH   3  24
HETATM   24  O1  UNL     1      -2.835  51.523 -22.176  1.00  0.00    -0.377 OA
HETATM   25  H2  UNL     1      -3.245  52.354 -21.885  1.00  0.00     0.211 HD
ENDBRANCH   3  24
BRANCH  13  26
HETATM   26  O2  UNL     1     -10.860  47.665 -20.577  1.00  0.00    -0.271 OA
BRANCH  26  27
HETATM   27  C13 UNL     1     -11.911  47.319 -19.678  1.00  0.00     0.303 C 
BRANCH  27  28
HETATM   28  C14 UNL     1     -13.224  47.770 -20.297  1.00  0.00     0.244 C 
HETATM   29  O3  UNL     1     -13.577  48.948 -20.330  1.00  0.00    -0.271 OA
HETATM   30  N2  UNL     1     -14.008  46.746 -20.803  1.00  0.00    -0.346 N 
HETATM   31  H16 UNL     1     -13.488  45.945 -21.159  1.00  0.00     0.163 HD
BRANCH  30  32
HETATM   32  C15 UNL     1     -15.213  47.077 -21.565  1.00  0.00     0.180 C 
BRANCH  32  33
HETATM   33  C16 UNL     1     -14.818  47.078 -23.059  1.00  0.00     0.241 C 
HETATM   34  O4  UNL     1     -15.203  47.946 -23.844  1.00  0.00    -0.271 OA
HETATM   35  N3  UNL     1     -13.991  46.053 -23.448  1.00  0.00    -0.344 N 
HETATM   36  H18 UNL     1     -13.795  45.290 -22.806  1.00  0.00     0.163 HD
BRANCH  35  37
HETATM   37  C17 UNL     1     -13.672  45.811 -24.860  1.00  0.00     0.192 C 
BRANCH  37  38
HETATM   38  C18 UNL     1     -14.909  45.548 -25.715  1.00  0.00     0.146 C 
BRANCH  38  39
HETATM   39  C19 UNL     1     -15.491  44.177 -25.531  1.00  0.00     0.141 C 
HETATM   40  O5  UNL     1     -16.653  43.924 -25.253  1.00  0.00    -0.650 OA
BRANCH  39  41
HETATM   41  O6  UNL     1     -14.619  43.178 -25.763  1.00  0.00    -0.776 OA
HETATM   42  H22 UNL     1     -15.153  42.364 -25.642  1.00  0.00     0.167 HD
ENDBRANCH  39  41
ENDBRANCH  38  39
ENDBRANCH  37  38
BRANCH  37  43
HETATM   43  C20 UNL     1     -12.846  46.985 -25.384  1.00  0.00     0.164 C 
HETATM   44  O7  UNL     1     -11.734  47.318 -24.999  1.00  0.00    -0.648 OA
BRANCH  43  45
HETATM   45  O8  UNL     1     -13.455  47.657 -26.379  1.00  0.00    -0.775 OA
HETATM   46  H23 UNL     1     -12.805  48.343 -26.650  1.00  0.00     0.167 HD
ENDBRANCH  43  45
ENDBRANCH  37  43
ENDBRANCH  35  37
ENDBRANCH  32  33
BRANCH  32  47
HETATM   47  C21 UNL     1     -16.364  46.113 -21.220  1.00  0.00     0.009 C 
HETATM   48  C22 UNL     1     -17.469  46.142 -22.278  1.00  0.00     0.012 C 
HETATM   49  C23 UNL     1     -15.913  44.671 -20.981  1.00  0.00     0.012 C 
ENDBRANCH  32  47
ENDBRANCH  30  32
ENDBRANCH  27  28
ENDBRANCH  26  27
ENDBRANCH  13  26
TORSDOF 13
ENDMDL
MODEL 6
REMARK minimizedAffinity -7.5340476
REMARK CNNscore 0.183509991
REMARK CNNaffinity 6.0302124
REMARK  13 active torsions:
REMARK  status: ('A' for Active; 'I' for Inactive)
REMARK    1  A    between atoms: C3_3  and  O1_4 
REMARK    2  A    between atoms: N1_14  and  O2_16 
REMARK    3  A    between atoms: O2_16  and  C13_17 
REMARK    4  A    between atoms: C13_17  and  C14_18 
REMARK       I    between atoms: C14_18  and  N2_20 
REMARK    5  A    between atoms: N2_20  and  C15_21 
REMARK    6  A    between atoms: C15_21  and  C16_22 
REMARK    7  A    between atoms: C15_21  and  C21_33 
REMARK       I    between atoms: C16_22  and  N3_24 
REMARK    8  A    between atoms: N3_24  and  C17_25 
REMARK    9  A    between atoms: C17_25  and  C18_26 
REMARK   10  A    between atoms: C17_25  and  C20_30 
REMARK   11  A    between atoms: C18_26  and  C19_27 
REMARK   12  A    between atoms: C19_27  and  O6_29 
REMARK   13  A    between atoms: C20_30  and  O8_32 
ROOT
HETATM    1  C1  UNL     1       0.936  53.017 -21.917  1.00  0.00     0.015 C 
HETATM    2  C2  UNL     1      -0.052  52.346 -22.066  1.00  0.00    -0.078 C 
HETATM    3  C3  UNL     1      -1.275  51.546 -22.238  1.00  0.00     0.128 C 
HETATM    4  C4  UNL     1      -1.151  50.584 -23.431  1.00  0.00     0.052 C 
HETATM    5  C5  UNL     1      -2.273  49.586 -23.181  1.00  0.00     0.010 C 
HETATM    6  C6  UNL     1      -2.115  49.265 -21.694  1.00  0.00     0.002 C 
HETATM    7  C7  UNL     1      -3.314  48.577 -21.008  1.00  0.00    -0.004 C 
HETATM    8  C8  UNL     1      -3.680  47.232 -21.654  1.00  0.00     0.010 C 
HETATM    9  C9  UNL     1      -5.060  46.762 -21.224  1.00  0.00     0.035 C 
HETATM   10  C10 UNL     1      -6.048  47.734 -21.799  1.00  0.00    -0.069 C 
HETATM   11  C11 UNL     1      -6.918  47.341 -22.749  1.00  0.00     0.030 C 
HETATM   12  C12 UNL     1      -7.828  48.314 -23.425  1.00  0.00     0.032 C 
HETATM   13  N1  UNL     1      -8.832  48.005 -24.189  1.00  0.00    -0.271 N 
ATOM     14  H1  UNL     1      -9.431  48.691 -24.648  1.00  0.00     0.194 HD
HETATM   15  C24 UNL     1      -7.580  49.793 -23.199  1.00  0.00     0.060 C 
HETATM   16  C25 UNL     1      -6.240  50.094 -22.534  1.00  0.00     0.020 C 
HETATM   17  C26 UNL     1      -5.934  49.179 -21.318  1.00  0.00    -0.016 C 
HETATM   18  C27 UNL     1      -7.027  49.407 -20.232  1.00  0.00     0.020 C 
HETATM   19  C28 UNL     1      -4.527  49.487 -20.650  1.00  0.00     0.002 C 
HETATM   20  C29 UNL     1      -4.149  50.982 -20.609  1.00  0.00     0.007 C 
HETATM   21  C30 UNL     1      -2.730  51.192 -20.085  1.00  0.00     0.014 C 
HETATM   22  C31 UNL     1      -1.642  50.603 -21.019  1.00  0.00     0.003 C 
HETATM   23  C32 UNL     1      -0.409  50.271 -20.143  1.00  0.00     0.020 C 
ENDROOT
BRANCH   3  24
HETATM   24  O1  UNL     1      -2.334  52.469 -22.507  1.00  0.00    -0.377 OA
HETATM   25  H2  UNL     1      -2.329  52.662 -23.459  1.00  0.00     0.211 HD
ENDBRANCH   3  24
BRANCH  13  26
HETATM   26  O2  UNL     1      -8.993  46.617 -24.310  1.00  0.00    -0.271 OA
BRANCH  26  27
HETATM   27  C13 UNL     1      -8.281  46.168 -25.461  1.00  0.00     0.303 C 
BRANCH  27  28
HETATM   28  C14 UNL     1      -9.293  45.908 -26.565  1.00  0.00     0.244 C 
HETATM   29  O3  UNL     1      -9.333  44.855 -27.201  1.00  0.00    -0.271 OA
HETATM   30  N2  UNL     1     -10.158  46.959 -26.818  1.00  0.00    -0.346 N 
HETATM   31  H16 UNL     1     -10.377  47.538 -26.009  1.00  0.00     0.163 HD
BRANCH  30  32
HETATM   32  C15 UNL     1     -11.275  46.762 -27.744  1.00  0.00     0.180 C 
BRANCH  32  33
HETATM   33  C16 UNL     1     -12.570  47.078 -26.964  1.00  0.00     0.241 C 
HETATM   34  O4  UNL     1     -13.005  48.225 -26.844  1.00  0.00    -0.271 OA
HETATM   35  N3  UNL     1     -13.215  45.991 -26.430  1.00  0.00    -0.344 N 
HETATM   36  H18 UNL     1     -12.765  45.079 -26.443  1.00  0.00     0.163 HD
BRANCH  35  37
HETATM   37  C17 UNL     1     -14.352  46.139 -25.515  1.00  0.00     0.192 C 
BRANCH  37  38
HETATM   38  C18 UNL     1     -15.035  44.813 -25.192  1.00  0.00     0.146 C 
BRANCH  38  39
HETATM   39  C19 UNL     1     -16.470  44.955 -24.778  1.00  0.00     0.141 C 
HETATM   40  O5  UNL     1     -17.442  44.821 -25.505  1.00  0.00    -0.650 OA
BRANCH  39  41
HETATM   41  O6  UNL     1     -16.637  45.197 -23.464  1.00  0.00    -0.776 OA
HETATM   42  H22 UNL     1     -17.612  45.224 -23.350  1.00  0.00     0.167 HD
ENDBRANCH  39  41
ENDBRANCH  38  39
ENDBRANCH  37  38
BRANCH  37  43
HETATM   43  C20 UNL     1     -13.878  46.868 -24.258  1.00  0.00     0.164 C 
HETATM   44  O7  UNL     1     -14.554  47.594 -23.542  1.00  0.00    -0.648 OA
BRANCH  43  45
HETATM   45  O8  UNL     1     -12.588  46.621 -23.959  1.00  0.00    -0.775 OA
HETATM   46  H23 UNL     1     -12.430  47.104 -23.118  1.00  0.00     0.167 HD
ENDBRANCH  43  45
ENDBRANCH  37  43
ENDBRANCH  35  37
ENDBRANCH  32  33
BRANCH  32  47
HETATM   47  C21 UNL     1     -11.087  47.605 -29.020  1.00  0.00     0.009 C 
HETATM   48  C22 UNL     1      -9.842  47.186 -29.803  1.00  0.00     0.012 C 
HETATM   49  C23 UNL     1     -12.305  47.607 -29.945  1.00  0.00     0.012 C 
ENDBRANCH  32  47
ENDBRANCH  30  32
ENDBRANCH  27  28
ENDBRANCH  26  27
ENDBRANCH  13  26
TORSDOF 13
ENDMDL
MODEL 7
REMARK minimizedAffinity -8.15937328
REMARK CNNscore 0.161698014
REMARK CNNaffinity 5.65982199
REMARK  13 active torsions:
REMARK  status: ('A' for Active; 'I' for Inactive)
REMARK    1  A    between atoms: C3_3  and  O1_4 
REMARK    2  A    between atoms: N1_14  and  O2_16 
REMARK    3  A    between atoms: O2_16  and  C13_17 
REMARK    4  A    between atoms: C13_17  and  C14_18 
REMARK       I    between atoms: C14_18  and  N2_20 
REMARK    5  A    between atoms: N2_20  and  C15_21 
REMARK    6  A    between atoms: C15_21  and  C16_22 
REMARK    7  A    between atoms: C15_21  and  C21_33 
REMARK       I    between atoms: C16_22  and  N3_24 
REMARK    8  A    between atoms: N3_24  and  C17_25 
REMARK    9  A    between atoms: C17_25  and  C18_26 
REMARK   10  A    between atoms: C17_25  and  C20_30 
REMARK   11  A    between atoms: C18_26  and  C19_27 
REMARK   12  A    between atoms: C19_27  and  O6_29 
REMARK   13  A    between atoms: C20_30  and  O8_32 
ROOT
HETATM    1  C1  UNL     1      -7.735  48.847 -22.125  1.00  0.00     0.015 C 
HETATM    2  C2  UNL     1      -7.793  48.599 -23.300  1.00  0.00    -0.078 C 
HETATM    3  C3  UNL     1      -7.887  48.311 -24.741  1.00  0.00     0.128 C 
HETATM    4  C4  UNL     1      -6.503  48.018 -25.344  1.00  0.00     0.052 C 
HETATM    5  C5  UNL     1      -6.844  47.341 -26.664  1.00  0.00     0.010 C 
HETATM    6  C6  UNL     1      -7.925  46.337 -26.259  1.00  0.00     0.002 C 
HETATM    7  C7  UNL     1      -8.771  45.740 -27.404  1.00  0.00    -0.004 C 
HETATM    8  C8  UNL     1      -7.923  44.993 -28.444  1.00  0.00     0.010 C 
HETATM    9  C9  UNL     1      -8.702  44.745 -29.726  1.00  0.00     0.035 C 
HETATM   10  C10 UNL     1      -8.956  46.087 -30.346  1.00  0.00    -0.069 C 
HETATM   11  C11 UNL     1      -8.384  46.417 -31.520  1.00  0.00     0.030 C 
HETATM   12  C12 UNL     1      -8.521  47.787 -32.097  1.00  0.00     0.032 C 
HETATM   13  N1  UNL     1      -8.189  48.136 -33.304  1.00  0.00    -0.271 N 
ATOM     14  H1  UNL     1      -8.283  49.083 -33.670  1.00  0.00     0.194 HD
HETATM   15  C24 UNL     1      -9.108  48.874 -31.217  1.00  0.00     0.060 C 
HETATM   16  C25 UNL     1      -9.213  48.479 -29.747  1.00  0.00     0.020 C 
HETATM   17  C26 UNL     1      -9.803  47.061 -29.528  1.00  0.00    -0.016 C 
HETATM   18  C27 UNL     1     -11.252  47.027 -30.099  1.00  0.00     0.020 C 
HETATM   19  C28 UNL     1      -9.885  46.654 -27.995  1.00  0.00     0.002 C 
HETATM   20  C29 UNL     1     -10.268  47.806 -27.044  1.00  0.00     0.007 C 
HETATM   21  C30 UNL     1     -10.190  47.381 -25.580  1.00  0.00     0.014 C 
HETATM   22  C31 UNL     1      -8.750  47.038 -25.120  1.00  0.00     0.003 C 
HETATM   23  C32 UNL     1      -8.864  46.036 -23.945  1.00  0.00     0.020 C 
ENDROOT
BRANCH   3  24
HETATM   24  O1  UNL     1      -8.413  49.489 -25.360  1.00  0.00    -0.377 OA
HETATM   25  H2  UNL     1      -7.672  50.094 -25.531  1.00  0.00     0.211 HD
ENDBRANCH   3  24
BRANCH  13  26
HETATM   26  O2  UNL     1      -7.685  47.055 -34.043  1.00  0.00    -0.271 OA
BRANCH  26  27
HETATM   27  C13 UNL     1      -8.049  47.222 -35.412  1.00  0.00     0.303 C 
BRANCH  27  28
HETATM   28  C14 UNL     1      -9.284  46.377 -35.675  1.00  0.00     0.244 C 
HETATM   29  O3  UNL     1     -10.051  46.018 -34.782  1.00  0.00    -0.271 OA
HETATM   30  N2  UNL     1      -9.472  46.021 -37.000  1.00  0.00    -0.346 N 
HETATM   31  H16 UNL     1      -9.123  46.696 -37.678  1.00  0.00     0.163 HD
BRANCH  30  32
HETATM   32  C15 UNL     1     -10.711  45.347 -37.392  1.00  0.00     0.180 C 
BRANCH  32  33
HETATM   33  C16 UNL     1     -11.634  46.422 -38.008  1.00  0.00     0.241 C 
HETATM   34  O4  UNL     1     -12.801  46.577 -37.645  1.00  0.00    -0.271 OA
HETATM   35  N3  UNL     1     -11.058  47.207 -38.976  1.00  0.00    -0.344 N 
HETATM   36  H18 UNL     1     -10.136  46.971 -39.335  1.00  0.00     0.163 HD
BRANCH  35  37
HETATM   37  C17 UNL     1     -11.846  48.147 -39.780  1.00  0.00     0.192 C 
BRANCH  37  38
HETATM   38  C18 UNL     1     -13.069  47.501 -40.426  1.00  0.00     0.146 C 
BRANCH  38  39
HETATM   39  C19 UNL     1     -14.266  48.403 -40.494  1.00  0.00     0.141 C 
HETATM   40  O5  UNL     1     -14.426  49.323 -41.282  1.00  0.00    -0.650 OA
BRANCH  39  41
HETATM   41  O6  UNL     1     -15.239  48.085 -39.620  1.00  0.00    -0.776 OA
HETATM   42  H22 UNL     1     -15.953  48.730 -39.814  1.00  0.00     0.167 HD
ENDBRANCH  39  41
ENDBRANCH  38  39
ENDBRANCH  37  38
BRANCH  37  43
HETATM   43  C20 UNL     1     -12.217  49.346 -38.908  1.00  0.00     0.164 C 
HETATM   44  O7  UNL     1     -11.840  49.555 -37.764  1.00  0.00    -0.648 OA
BRANCH  43  45
HETATM   45  O8  UNL     1     -13.021  50.227 -39.534  1.00  0.00    -0.775 OA
HETATM   46  H23 UNL     1     -13.140  50.958 -38.889  1.00  0.00     0.167 HD
ENDBRANCH  43  45
ENDBRANCH  37  43
ENDBRANCH  35  37
ENDBRANCH  32  33
BRANCH  32  47
HETATM   47  C21 UNL     1     -10.419  44.158 -38.328  1.00  0.00     0.009 C 
HETATM   48  C22 UNL     1     -11.702  43.451 -38.768  1.00  0.00     0.012 C 
HETATM   49  C23 UNL     1      -9.583  44.527 -39.555  1.00  0.00     0.012 C 
ENDBRANCH  32  47
ENDBRANCH  30  32
ENDBRANCH  27  28
ENDBRANCH  26  27
ENDBRANCH  13  26
TORSDOF 13
ENDMDL
MODEL 8
REMARK minimizedAffinity -8.29633999
REMARK CNNscore 0.124688596
REMARK CNNaffinity 5.63791895
REMARK  13 active torsions:
REMARK  status: ('A' for Active; 'I' for Inactive)
REMARK    1  A    between atoms: C3_3  and  O1_4 
REMARK    2  A    between atoms: N1_14  and  O2_16 
REMARK    3  A    between atoms: O2_16  and  C13_17 
REMARK    4  A    between atoms: C13_17  and  C14_18 
REMARK       I    between atoms: C14_18  and  N2_20 
REMARK    5  A    between atoms: N2_20  and  C15_21 
REMARK    6  A    between atoms: C15_21  and  C16_22 
REMARK    7  A    between atoms: C15_21  and  C21_33 
REMARK       I    between atoms: C16_22  and  N3_24 
REMARK    8  A    between atoms: N3_24  and  C17_25 
REMARK    9  A    between atoms: C17_25  and  C18_26 
REMARK   10  A    between atoms: C17_25  and  C20_30 
REMARK   11  A    between atoms: C18_26  and  C19_27 
REMARK   12  A    between atoms: C19_27  and  O6_29 
REMARK   13  A    between atoms: C20_30  and  O8_32 
ROOT
HETATM    1  C1  UNL     1      -0.075  53.808 -27.518  1.00  0.00     0.015 C 
HETATM    2  C2  UNL     1      -0.836  53.091 -26.922  1.00  0.00    -0.078 C 
HETATM    3  C3  UNL     1      -1.779  52.237 -26.183  1.00  0.00     0.128 C 
HETATM    4  C4  UNL     1      -2.050  50.923 -26.934  1.00  0.00     0.052 C 
HETATM    5  C5  UNL     1      -2.658  50.034 -25.858  1.00  0.00     0.010 C 
HETATM    6  C6  UNL     1      -1.724  50.262 -24.667  1.00  0.00     0.002 C 
HETATM    7  C7  UNL     1      -2.251  49.813 -23.287  1.00  0.00    -0.004 C 
HETATM    8  C8  UNL     1      -2.584  48.315 -23.234  1.00  0.00     0.010 C 
HETATM    9  C9  UNL     1      -3.436  47.974 -22.021  1.00  0.00     0.035 C 
HETATM   10  C10 UNL     1      -4.763  48.645 -22.220  1.00  0.00    -0.069 C 
HETATM   11  C11 UNL     1      -5.877  47.912 -22.404  1.00  0.00     0.030 C 
HETATM   12  C12 UNL     1      -7.188  48.551 -22.725  1.00  0.00     0.032 C 
HETATM   13  N1  UNL     1      -8.343  47.957 -22.713  1.00  0.00    -0.271 N 
ATOM     14  H1  UNL     1      -9.223  48.416 -22.948  1.00  0.00     0.194 HD
HETATM   15  C24 UNL     1      -7.190  50.024 -23.089  1.00  0.00     0.060 C 
HETATM   16  C25 UNL     1      -5.798  50.589 -23.359  1.00  0.00     0.020 C 
HETATM   17  C26 UNL     1      -4.744  50.170 -22.299  1.00  0.00    -0.016 C 
HETATM   18  C27 UNL     1      -5.184  50.724 -20.910  1.00  0.00     0.020 C 
HETATM   19  C28 UNL     1      -3.296  50.746 -22.605  1.00  0.00     0.002 C 
HETATM   20  C29 UNL     1      -3.282  52.173 -23.189  1.00  0.00     0.007 C 
HETATM   21  C30 UNL     1      -1.874  52.606 -23.589  1.00  0.00     0.014 C 
HETATM   22  C31 UNL     1      -1.286  51.768 -24.753  1.00  0.00     0.003 C 
HETATM   23  C32 UNL     1       0.257  51.810 -24.622  1.00  0.00     0.020 C 
ENDROOT
BRANCH   3  24
HETATM   24  O1  UNL     1      -3.005  52.967 -26.087  1.00  0.00    -0.377 OA
HETATM   25  H2  UNL     1      -3.510  52.814 -26.903  1.00  0.00     0.211 HD
ENDBRANCH   3  24
BRANCH  13  26
HETATM   26  O2  UNL     1      -8.236  46.610 -22.337  1.00  0.00    -0.271 OA
BRANCH  26  27
HETATM   27  C13 UNL     1      -9.506  46.158 -21.871  1.00  0.00     0.303 C 
BRANCH  27  28
HETATM   28  C14 UNL     1     -10.138  45.321 -22.971  1.00  0.00     0.244 C 
HETATM   29  O3  UNL     1     -10.993  44.465 -22.750  1.00  0.00    -0.271 OA
HETATM   30  N2  UNL     1      -9.661  45.581 -24.245  1.00  0.00    -0.346 N 
HETATM   31  H16 UNL     1      -9.359  46.542 -24.401  1.00  0.00     0.163 HD
BRANCH  30  32
HETATM   32  C15 UNL     1     -10.312  44.953 -25.396  1.00  0.00     0.180 C 
BRANCH  32  33
HETATM   33  C16 UNL     1     -11.259  46.007 -26.010  1.00  0.00     0.241 C 
HETATM   34  O4  UNL     1     -11.537  47.061 -25.434  1.00  0.00    -0.271 OA
HETATM   35  N3  UNL     1     -11.757  45.698 -27.251  1.00  0.00    -0.344 N 
HETATM   36  H18 UNL     1     -11.606  44.771 -27.640  1.00  0.00     0.163 HD
BRANCH  35  37
HETATM   37  C17 UNL     1     -12.804  46.505 -27.888  1.00  0.00     0.192 C 
BRANCH  37  38
HETATM   38  C18 UNL     1     -14.058  46.640 -27.030  1.00  0.00     0.146 C 
BRANCH  38  39
HETATM   39  C19 UNL     1     -15.126  45.638 -27.356  1.00  0.00     0.141 C 
HETATM   40  O5  UNL     1     -15.321  45.129 -28.449  1.00  0.00    -0.650 OA
BRANCH  39  41
HETATM   41  O6  UNL     1     -15.866  45.265 -26.295  1.00  0.00    -0.776 OA
HETATM   42  H22 UNL     1     -16.480  44.591 -26.659  1.00  0.00     0.167 HD
ENDBRANCH  39  41
ENDBRANCH  38  39
ENDBRANCH  37  38
BRANCH  37  43
HETATM   43  C20 UNL     1     -12.213  47.863 -28.268  1.00  0.00     0.164 C 
HETATM   44  O7  UNL     1     -11.530  48.107 -29.252  1.00  0.00    -0.648 OA
BRANCH  43  45
HETATM   45  O8  UNL     1     -12.536  48.841 -27.400  1.00  0.00    -0.775 OA
HETATM   46  H23 UNL     1     -12.139  49.654 -27.782  1.00  0.00     0.167 HD
ENDBRANCH  43  45
ENDBRANCH  37  43
ENDBRANCH  35  37
ENDBRANCH  32  33
BRANCH  32  47
HETATM   47  C21 UNL     1      -9.268  44.395 -26.382  1.00  0.00     0.009 C 
HETATM   48  C22 UNL     1      -8.170  45.415 -26.687  1.00  0.00     0.012 C 
HETATM   49  C23 UNL     1      -8.639  43.074 -25.936  1.00  0.00     0.012 C 
ENDBRANCH  32  47
ENDBRANCH  30  32
ENDBRANCH  27  28
ENDBRANCH  26  27
ENDBRANCH  13  26
TORSDOF 13
ENDMDL
MODEL 9
REMARK minimizedAffinity -7.31145191
REMARK CNNscore 0.116930187
REMARK CNNaffinity 5.92515326
REMARK  13 active torsions:
REMARK  status: ('A' for Active; 'I' for Inactive)
REMARK    1  A    between atoms: C3_3  and  O1_4 
REMARK    2  A    between atoms: N1_14  and  O2_16 
REMARK    3  A    between atoms: O2_16  and  C13_17 
REMARK    4  A    between atoms: C13_17  and  C14_18 
REMARK       I    between atoms: C14_18  and  N2_20 
REMARK    5  A    between atoms: N2_20  and  C15_21 
REMARK    6  A    between atoms: C15_21  and  C16_22 
REMARK    7  A    between atoms: C15_21  and  C21_33 
REMARK       I    between atoms: C16_22  and  N3_24 
REMARK    8  A    between atoms: N3_24  and  C17_25 
REMARK    9  A    between atoms: C17_25  and  C18_26 
REMARK   10  A    between atoms: C17_25  and  C20_30 
REMARK   11  A    between atoms: C18_26  and  C19_27 
REMARK   12  A    between atoms: C19_27  and  O6_29 
REMARK   13  A    between atoms: C20_30  and  O8_32 
ROOT
HETATM    1  C1  UNL     1      -5.182  40.243 -15.778  1.00  0.00     0.015 C 
HETATM    2  C2  UNL     1      -4.853  41.229 -16.383  1.00  0.00    -0.078 C 
HETATM    3  C3  UNL     1      -4.453  42.451 -17.100  1.00  0.00     0.128 C 
HETATM    4  C4  UNL     1      -3.515  42.128 -18.275  1.00  0.00     0.052 C 
HETATM    5  C5  UNL     1      -3.573  43.396 -19.115  1.00  0.00     0.010 C 
HETATM    6  C6  UNL     1      -5.071  43.701 -19.163  1.00  0.00     0.002 C 
HETATM    7  C7  UNL     1      -5.468  45.123 -19.612  1.00  0.00    -0.004 C 
HETATM    8  C8  UNL     1      -4.960  45.468 -21.020  1.00  0.00     0.010 C 
HETATM    9  C9  UNL     1      -5.029  46.963 -21.288  1.00  0.00     0.035 C 
HETATM   10  C10 UNL     1      -4.044  47.616 -20.365  1.00  0.00    -0.069 C 
HETATM   11  C11 UNL     1      -2.951  48.231 -20.857  1.00  0.00     0.030 C 
HETATM   12  C12 UNL     1      -1.894  48.781 -19.958  1.00  0.00     0.032 C 
HETATM   13  N1  UNL     1      -0.924  49.565 -20.322  1.00  0.00    -0.271 N 
ATOM     14  H1  UNL     1      -0.207  49.918 -19.688  1.00  0.00     0.194 HD
HETATM   15  C24 UNL     1      -1.949  48.414 -18.487  1.00  0.00     0.060 C 
HETATM   16  C25 UNL     1      -2.927  47.284 -18.176  1.00  0.00     0.020 C 
HETATM   17  C26 UNL     1      -4.305  47.450 -18.869  1.00  0.00    -0.016 C 
HETATM   18  C27 UNL     1      -4.969  48.763 -18.354  1.00  0.00     0.020 C 
HETATM   19  C28 UNL     1      -5.304  46.257 -18.556  1.00  0.00     0.002 C 
HETATM   20  C29 UNL     1      -5.223  45.712 -17.115  1.00  0.00     0.007 C 
HETATM   21  C30 UNL     1      -6.104  44.480 -16.926  1.00  0.00     0.014 C 
HETATM   22  C31 UNL     1      -5.639  43.262 -17.766  1.00  0.00     0.003 C 
HETATM   23  C32 UNL     1      -6.881  42.376 -18.026  1.00  0.00     0.020 C 
ENDROOT
BRANCH   3  24
HETATM   24  O1  UNL     1      -3.741  43.262 -16.161  1.00  0.00    -0.377 OA
HETATM   25  H2  UNL     1      -2.815  42.967 -16.150  1.00  0.00     0.211 HD
ENDBRANCH   3  24
BRANCH  13  26
HETATM   26  O2  UNL     1      -0.979  49.867 -21.691  1.00  0.00    -0.271 OA
BRANCH  26  27
HETATM   27  C13 UNL     1      -1.003  51.284 -21.850  1.00  0.00     0.303 C 
BRANCH  27  28
HETATM   28  C14 UNL     1      -1.756  51.598 -23.133  1.00  0.00     0.244 C 
HETATM   29  O3  UNL     1      -2.016  52.746 -23.490  1.00  0.00    -0.271 OA
HETATM   30  N2  UNL     1      -2.148  50.488 -23.862  1.00  0.00    -0.346 N 
HETATM   31  H16 UNL     1      -1.530  49.682 -23.781  1.00  0.00     0.163 HD
BRANCH  30  32
HETATM   32  C15 UNL     1      -2.735  50.674 -25.190  1.00  0.00     0.180 C 
BRANCH  32  33
HETATM   33  C16 UNL     1      -1.575  50.611 -26.209  1.00  0.00     0.241 C 
HETATM   34  O4  UNL     1      -1.281  49.577 -26.812  1.00  0.00    -0.271 OA
HETATM   35  N3  UNL     1      -0.905  51.792 -26.411  1.00  0.00    -0.344 N 
HETATM   36  H18 UNL     1      -1.093  52.589 -25.809  1.00  0.00     0.163 HD
BRANCH  35  37
HETATM   37  C17 UNL     1       0.327  51.856 -27.206  1.00  0.00     0.192 C 
BRANCH  37  38
HETATM   38  C18 UNL     1       0.313  52.978 -28.240  1.00  0.00     0.146 C 
BRANCH  38  39
HETATM   39  C19 UNL     1      -0.666  54.073 -27.932  1.00  0.00     0.141 C 
HETATM   40  O5  UNL     1      -1.842  54.095 -28.258  1.00  0.00    -0.650 OA
BRANCH  39  41
HETATM   41  O6  UNL     1      -0.155  55.064 -27.178  1.00  0.00    -0.776 OA
HETATM   42  H22 UNL     1      -0.914  55.669 -27.035  1.00  0.00     0.167 HD
ENDBRANCH  39  41
ENDBRANCH  38  39
ENDBRANCH  37  38
BRANCH  37  43
HETATM   43  C20 UNL     1       1.519  51.960 -26.254  1.00  0.00     0.164 C 
HETATM   44  O7  UNL     1       1.476  51.925 -25.033  1.00  0.00    -0.648 OA
BRANCH  43  45
HETATM   45  O8  UNL     1       2.698  52.077 -26.895  1.00  0.00    -0.775 OA
HETATM   46  H23 UNL     1       3.370  52.086 -26.179  1.00  0.00     0.167 HD
ENDBRANCH  43  45
ENDBRANCH  37  43
ENDBRANCH  35  37
ENDBRANCH  32  33
BRANCH  32  47
HETATM   47  C21 UNL     1      -3.853  49.647 -25.447  1.00  0.00     0.009 C 
HETATM   48  C22 UNL     1      -3.391  48.520 -26.372  1.00  0.00     0.012 C 
HETATM   49  C23 UNL     1      -4.456  49.056 -24.172  1.00  0.00     0.012 C 
ENDBRANCH  32  47
ENDBRANCH  30  32
ENDBRANCH  27  28
ENDBRANCH  26  27
ENDBRANCH  13  26
TORSDOF 13
ENDMDL
