MODEL 1
REMARK minimizedAffinity -7.75326014
REMARK CNNscore 0.599387646
REMARK CNNaffinity 6.48623896
REMARK  7 active torsions:
REMARK  status: ('A' for Active; 'I' for Inactive)
REMARK    1  A    between atoms: C2_2  and  C30_33 
REMARK    2  A    between atoms: C3_3  and  C4_4 
REMARK    3  A    between atoms: C4_4  and  C5_5 
REMARK    4  A    between atoms: C5_5  and  C6_6 
REMARK    5  A    between atoms: C6_6  and  C8_8 
REMARK    6  A    between atoms: C10_10  and  O1_11 
REMARK    7  A    between atoms: C30_33  and  O5_35 
ROOT
HETATM    1  C8  UNL     1      -1.321   7.694  13.703  1.00  0.00     0.001 C 
HETATM    2  C9  UNL     1      -1.557   6.672  14.845  1.00  0.00     0.038 C 
HETATM    3  C10 UNL     1      -2.031   7.483  16.077  1.00  0.00     0.131 C 
HETATM    4  C11 UNL     1      -2.419   8.876  15.505  1.00  0.00     0.014 C 
HETATM    5  C12 UNL     1      -3.870   8.779  14.924  1.00  0.00     0.023 C 
HETATM    6  C13 UNL     1      -2.459  10.113  16.404  1.00  0.00    -0.058 C 
HETATM    7  C14 UNL     1      -2.320  11.363  15.880  1.00  0.00    -0.000 C 
HETATM    8  C15 UNL     1      -1.855  11.511  14.431  1.00  0.00     0.157 C 
HETATM    9  O2  UNL     1      -1.650  12.625  13.949  1.00  0.00    -0.293 OA
HETATM   10  C16 UNL     1      -1.619  10.272  13.574  1.00  0.00     0.094 C 
HETATM   11  C17 UNL     1      -1.280   9.062  14.443  1.00  0.00    -0.019 C 
HETATM   12  C18 UNL     1       0.127   9.302  15.076  1.00  0.00     0.017 C 
HETATM   13  C19 UNL     1      -2.569  12.661  16.702  1.00  0.00    -0.008 C 
HETATM   14  C20 UNL     1      -1.168  13.244  17.004  1.00  0.00     0.021 C 
HETATM   15  C21 UNL     1      -3.397  13.731  15.911  1.00  0.00     0.022 C 
HETATM   16  C22 UNL     1      -4.698  14.178  16.565  1.00  0.00     0.080 C 
HETATM   17  C23 UNL     1      -4.497  14.535  18.017  1.00  0.00     0.135 C 
HETATM   18  O3  UNL     1      -4.930  15.602  18.468  1.00  0.00    -0.297 OA
HETATM   19  C24 UNL     1      -3.834  13.470  18.906  1.00  0.00     0.018 C 
HETATM   20  C25 UNL     1      -2.720  14.140  19.730  1.00  0.00     0.023 C 
HETATM   21  C26 UNL     1      -4.930  12.977  19.885  1.00  0.00     0.023 C 
HETATM   22  C27 UNL     1      -3.377  12.282  17.999  1.00  0.00     0.014 C 
HETATM   23  C28 UNL     1      -2.698  11.125  18.744  1.00  0.00     0.011 C 
HETATM   24  C29 UNL     1      -2.738   9.871  17.872  1.00  0.00     0.036 C 
ENDROOT
BRANCH   1  25
HETATM   25  C6  UNL     1      -0.193   7.355  12.684  1.00  0.00    -0.013 C 
HETATM   26  C7  UNL     1       0.214   8.647  11.946  1.00  0.00     0.010 C 
BRANCH  25  27
HETATM   27  C5  UNL     1      -0.544   6.271  11.639  1.00  0.00     0.008 C 
BRANCH  27  28
HETATM   28  C4  UNL     1       0.393   5.056  11.689  1.00  0.00     0.028 C 
BRANCH  28  29
HETATM   29  C3  UNL     1       1.834   5.486  11.739  1.00  0.00    -0.013 C 
HETATM   30  C2  UNL     1       2.574   5.990  10.729  1.00  0.00     0.008 C 
HETATM   31  C1  UNL     1       2.105   6.203   9.321  1.00  0.00     0.055 C 
BRANCH  30  32
HETATM   32  C30 UNL     1       3.987   6.400  10.950  1.00  0.00     0.171 C 
HETATM   33  O4  UNL     1       4.873   6.342  10.117  1.00  0.00    -0.646 OA
BRANCH  32  34
HETATM   34  O5  UNL     1       4.232   6.880  12.183  1.00  0.00    -0.773 OA
HETATM   35  H44 UNL     1       5.185   7.101  12.151  1.00  0.00     0.167 HD
ENDBRANCH  32  34
ENDBRANCH  30  32
ENDBRANCH  28  29
ENDBRANCH  27  28
ENDBRANCH  25  27
ENDBRANCH   1  25
BRANCH   3  36
HETATM   36  O1  UNL     1      -3.089   6.781  16.713  1.00  0.00    -0.394 OA
HETATM   37  H17 UNL     1      -3.351   7.273  17.508  1.00  0.00     0.210 HD
ENDBRANCH   3  36
TORSDOF 7
ENDMDL
MODEL 2
REMARK minimizedAffinity -7.36549616
REMARK CNNscore 0.531652749
REMARK CNNaffinity 6.30268717
REMARK  7 active torsions:
REMARK  status: ('A' for Active; 'I' for Inactive)
REMARK    1  A    between atoms: C2_2  and  C30_33 
REMARK    2  A    between atoms: C3_3  and  C4_4 
REMARK    3  A    between atoms: C4_4  and  C5_5 
REMARK    4  A    between atoms: C5_5  and  C6_6 
REMARK    5  A    between atoms: C6_6  and  C8_8 
REMARK    6  A    between atoms: C10_10  and  O1_11 
REMARK    7  A    between atoms: C30_33  and  O5_35 
ROOT
HETATM    1  C8  UNL     1       1.348  12.609  20.073  1.00  0.00     0.001 C 
HETATM    2  C9  UNL     1       0.223  13.655  19.866  1.00  0.00     0.038 C 
HETATM    3  C10 UNL     1      -0.564  13.217  18.605  1.00  0.00     0.131 C 
HETATM    4  C11 UNL     1      -0.119  11.748  18.355  1.00  0.00     0.014 C 
HETATM    5  C12 UNL     1      -0.961  10.817  19.289  1.00  0.00     0.023 C 
HETATM    6  C13 UNL     1      -0.255  11.110  16.971  1.00  0.00    -0.058 C 
HETATM    7  C14 UNL     1       0.530  10.057  16.607  1.00  0.00    -0.000 C 
HETATM    8  C15 UNL     1       1.727   9.689  17.482  1.00  0.00     0.157 C 
HETATM    9  O2  UNL     1       2.498   8.790  17.145  1.00  0.00    -0.293 OA
HETATM   10  C16 UNL     1       1.992  10.451  18.776  1.00  0.00     0.094 C 
HETATM   11  C17 UNL     1       1.404  11.860  18.711  1.00  0.00    -0.019 C 
HETATM   12  C18 UNL     1       2.228  12.678  17.667  1.00  0.00     0.017 C 
HETATM   13  C19 UNL     1       0.293   9.230  15.310  1.00  0.00    -0.008 C 
HETATM   14  C20 UNL     1       1.400   9.669  14.322  1.00  0.00     0.021 C 
HETATM   15  C21 UNL     1       0.414   7.685  15.545  1.00  0.00     0.022 C 
HETATM   16  C22 UNL     1      -0.814   6.861  15.183  1.00  0.00     0.080 C 
HETATM   17  C23 UNL     1      -1.338   7.217  13.813  1.00  0.00     0.135 C 
HETATM   18  O3  UNL     1      -1.588   6.331  12.986  1.00  0.00    -0.297 OA
HETATM   19  C24 UNL     1      -1.641   8.701  13.551  1.00  0.00     0.018 C 
HETATM   20  C25 UNL     1      -1.014   9.101  12.203  1.00  0.00     0.023 C 
HETATM   21  C26 UNL     1      -3.181   8.816  13.421  1.00  0.00     0.023 C 
HETATM   22  C27 UNL     1      -1.161   9.530  14.787  1.00  0.00     0.014 C 
HETATM   23  C28 UNL     1      -1.401  11.041  14.682  1.00  0.00     0.011 C 
HETATM   24  C29 UNL     1      -1.347  11.658  16.079  1.00  0.00     0.036 C 
ENDROOT
BRANCH   1  25
HETATM   25  C6  UNL     1       2.676  13.127  20.702  1.00  0.00    -0.013 C 
HETATM   26  C7  UNL     1       3.401  14.014  19.671  1.00  0.00     0.010 C 
BRANCH  25  27
HETATM   27  C5  UNL     1       3.650  12.031  21.193  1.00  0.00     0.008 C 
BRANCH  27  28
HETATM   28  C4  UNL     1       4.032  12.179  22.673  1.00  0.00     0.028 C 
BRANCH  28  29
HETATM   29  C3  UNL     1       5.514  12.006  22.869  1.00  0.00    -0.013 C 
HETATM   30  C2  UNL     1       6.439  12.978  23.013  1.00  0.00     0.008 C 
HETATM   31  C1  UNL     1       6.173  14.452  22.982  1.00  0.00     0.055 C 
BRANCH  30  32
HETATM   32  C30 UNL     1       7.871  12.639  23.232  1.00  0.00     0.171 C 
HETATM   33  O4  UNL     1       8.371  11.545  23.045  1.00  0.00    -0.646 OA
BRANCH  32  34
HETATM   34  O5  UNL     1       8.621  13.674  23.654  1.00  0.00    -0.773 OA
HETATM   35  H44 UNL     1       9.514  13.283  23.739  1.00  0.00     0.167 HD
ENDBRANCH  32  34
ENDBRANCH  30  32
ENDBRANCH  28  29
ENDBRANCH  27  28
ENDBRANCH  25  27
ENDBRANCH   1  25
BRANCH   3  36
HETATM   36  O1  UNL     1      -1.953  13.390  18.845  1.00  0.00    -0.394 OA
HETATM   37  H17 UNL     1      -2.437  13.154  18.037  1.00  0.00     0.210 HD
ENDBRANCH   3  36
TORSDOF 7
ENDMDL
MODEL 3
REMARK minimizedAffinity -7.42839003
REMARK CNNscore 0.489840478
REMARK CNNaffinity 6.14518023
REMARK  7 active torsions:
REMARK  status: ('A' for Active; 'I' for Inactive)
REMARK    1  A    between atoms: C2_2  and  C30_33 
REMARK    2  A    between atoms: C3_3  and  C4_4 
REMARK    3  A    between atoms: C4_4  and  C5_5 
REMARK    4  A    between atoms: C5_5  and  C6_6 
REMARK    5  A    between atoms: C6_6  and  C8_8 
REMARK    6  A    between atoms: C10_10  and  O1_11 
REMARK    7  A    between atoms: C30_33  and  O5_35 
ROOT
HETATM    1  C8  UNL     1       0.451  12.599  19.832  1.00  0.00     0.001 C 
HETATM    2  C9  UNL     1      -0.718  13.567  19.516  1.00  0.00     0.038 C 
HETATM    3  C10 UNL     1      -1.358  13.075  18.194  1.00  0.00     0.131 C 
HETATM    4  C11 UNL     1      -0.795  11.639  17.994  1.00  0.00     0.014 C 
HETATM    5  C12 UNL     1      -1.654  10.655  18.856  1.00  0.00     0.023 C 
HETATM    6  C13 UNL     1      -0.763  10.992  16.609  1.00  0.00    -0.058 C 
HETATM    7  C14 UNL     1       0.120   9.994  16.324  1.00  0.00    -0.000 C 
HETATM    8  C15 UNL     1       1.255   9.707  17.306  1.00  0.00     0.157 C 
HETATM    9  O2  UNL     1       2.111   8.861  17.046  1.00  0.00    -0.293 OA
HETATM   10  C16 UNL     1       1.351  10.487  18.613  1.00  0.00     0.094 C 
HETATM   11  C17 UNL     1       0.679  11.854  18.485  1.00  0.00    -0.019 C 
HETATM   12  C18 UNL     1       1.537  12.724  17.514  1.00  0.00     0.017 C 
HETATM   13  C19 UNL     1       0.056   9.151  15.017  1.00  0.00    -0.008 C 
HETATM   14  C20 UNL     1       1.216   9.662  14.130  1.00  0.00     0.021 C 
HETATM   15  C21 UNL     1       0.258   7.618  15.273  1.00  0.00     0.022 C 
HETATM   16  C22 UNL     1      -0.876   6.714  14.808  1.00  0.00     0.080 C 
HETATM   17  C23 UNL     1      -1.296   7.031  13.394  1.00  0.00     0.135 C 
HETATM   18  O3  UNL     1      -1.411   6.130  12.554  1.00  0.00    -0.297 OA
HETATM   19  C24 UNL     1      -1.672   8.492  13.095  1.00  0.00     0.018 C 
HETATM   20  C25 UNL     1      -0.955   8.931  11.807  1.00  0.00     0.023 C 
HETATM   21  C26 UNL     1      -3.199   8.503  12.827  1.00  0.00     0.023 C 
HETATM   22  C27 UNL     1      -1.362   9.352  14.363  1.00  0.00     0.014 C 
HETATM   23  C28 UNL     1      -1.691  10.844  14.227  1.00  0.00     0.011 C 
HETATM   24  C29 UNL     1      -1.805  11.465  15.618  1.00  0.00     0.036 C 
ENDROOT
BRANCH   1  25
HETATM   25  C6  UNL     1       1.679  13.204  20.573  1.00  0.00    -0.013 C 
HETATM   26  C7  UNL     1       1.443  14.715  20.776  1.00  0.00     0.010 C 
BRANCH  25  27
HETATM   27  C5  UNL     1       3.044  13.001  19.876  1.00  0.00     0.008 C 
BRANCH  27  28
HETATM   28  C4  UNL     1       4.062  12.247  20.744  1.00  0.00     0.028 C 
BRANCH  28  29
HETATM   29  C3  UNL     1       3.395  11.146  21.525  1.00  0.00    -0.013 C 
HETATM   30  C2  UNL     1       3.887  10.488  22.595  1.00  0.00     0.008 C 
HETATM   31  C1  UNL     1       5.232  10.710  23.218  1.00  0.00     0.055 C 
BRANCH  30  32
HETATM   32  C30 UNL     1       3.085   9.439  23.280  1.00  0.00     0.171 C 
HETATM   33  O4  UNL     1       2.752   8.376  22.788  1.00  0.00    -0.646 OA
BRANCH  32  34
HETATM   34  O5  UNL     1       2.747   9.746  24.546  1.00  0.00    -0.773 OA
HETATM   35  H44 UNL     1       2.239   8.962  24.838  1.00  0.00     0.167 HD
ENDBRANCH  32  34
ENDBRANCH  30  32
ENDBRANCH  28  29
ENDBRANCH  27  28
ENDBRANCH  25  27
ENDBRANCH   1  25
BRANCH   3  36
HETATM   36  O1  UNL     1      -2.771  13.155  18.307  1.00  0.00    -0.394 OA
HETATM   37  H17 UNL     1      -3.163  12.887  17.460  1.00  0.00     0.210 HD
ENDBRANCH   3  36
TORSDOF 7
ENDMDL
MODEL 4
REMARK minimizedAffinity -8.27612019
REMARK CNNscore 0.438952744
REMARK CNNaffinity 7.04875231
REMARK  7 active torsions:
REMARK  status: ('A' for Active; 'I' for Inactive)
REMARK    1  A    between atoms: C2_2  and  C30_33 
REMARK    2  A    between atoms: C3_3  and  C4_4 
REMARK    3  A    between atoms: C4_4  and  C5_5 
REMARK    4  A    between atoms: C5_5  and  C6_6 
REMARK    5  A    between atoms: C6_6  and  C8_8 
REMARK    6  A    between atoms: C10_10  and  O1_11 
REMARK    7  A    between atoms: C30_33  and  O5_35 
ROOT
HETATM    1  C8  UNL     1      -5.946   6.033  14.738  1.00  0.00     0.001 C 
HETATM    2  C9  UNL     1      -6.079   4.880  13.711  1.00  0.00     0.038 C 
HETATM    3  C10 UNL     1      -4.747   4.831  12.921  1.00  0.00     0.131 C 
HETATM    4  C11 UNL     1      -3.759   5.689  13.762  1.00  0.00     0.014 C 
HETATM    5  C12 UNL     1      -3.190   4.791  14.911  1.00  0.00     0.023 C 
HETATM    6  C13 UNL     1      -2.516   6.311  13.124  1.00  0.00    -0.058 C 
HETATM    7  C14 UNL     1      -1.925   7.410  13.671  1.00  0.00    -0.000 C 
HETATM    8  C15 UNL     1      -2.661   8.177  14.768  1.00  0.00     0.157 C 
HETATM    9  O2  UNL     1      -2.188   9.215  15.234  1.00  0.00    -0.293 OA
HETATM   10  C16 UNL     1      -4.006   7.675  15.282  1.00  0.00     0.094 C 
HETATM   11  C17 UNL     1      -4.720   6.841  14.220  1.00  0.00    -0.019 C 
HETATM   12  C18 UNL     1      -5.142   7.796  13.060  1.00  0.00     0.017 C 
HETATM   13  C19 UNL     1      -0.544   7.954  13.201  1.00  0.00    -0.008 C 
HETATM   14  C20 UNL     1      -0.851   9.226  12.377  1.00  0.00     0.021 C 
HETATM   15  C21 UNL     1       0.393   8.343  14.396  1.00  0.00     0.022 C 
HETATM   16  C22 UNL     1       1.736   7.627  14.445  1.00  0.00     0.080 C 
HETATM   17  C23 UNL     1       2.432   7.658  13.107  1.00  0.00     0.135 C 
HETATM   18  O3  UNL     1       3.616   8.008  13.021  1.00  0.00    -0.297 OA
HETATM   19  C24 UNL     1       1.636   7.137  11.899  1.00  0.00     0.018 C 
HETATM   20  C25 UNL     1       1.764   8.152  10.750  1.00  0.00     0.023 C 
HETATM   21  C26 UNL     1       2.323   5.819  11.460  1.00  0.00     0.023 C 
HETATM   22  C27 UNL     1       0.175   6.830  12.365  1.00  0.00     0.014 C 
HETATM   23  C28 UNL     1      -0.752   6.291  11.268  1.00  0.00     0.011 C 
HETATM   24  C29 UNL     1      -1.949   5.597  11.916  1.00  0.00     0.036 C 
ENDROOT
BRANCH   1  25
HETATM   25  C6  UNL     1      -7.252   6.799  15.102  1.00  0.00    -0.013 C 
HETATM   26  C7  UNL     1      -7.331   6.944  16.635  1.00  0.00     0.010 C 
BRANCH  25  27
HETATM   27  C5  UNL     1      -8.563   6.158  14.591  1.00  0.00     0.008 C 
BRANCH  27  28
HETATM   28  C4  UNL     1      -9.378   7.089  13.682  1.00  0.00     0.028 C 
BRANCH  28  29
HETATM   29  C3  UNL     1     -10.845   6.764  13.752  1.00  0.00    -0.013 C 
HETATM   30  C2  UNL     1     -11.868   7.481  13.242  1.00  0.00     0.008 C 
HETATM   31  C1  UNL     1     -11.745   8.784  12.511  1.00  0.00     0.055 C 
BRANCH  30  32
HETATM   32  C30 UNL     1     -13.272   7.004  13.368  1.00  0.00     0.171 C 
HETATM   33  O4  UNL     1     -13.614   5.962  13.897  1.00  0.00    -0.646 OA
BRANCH  32  34
HETATM   34  O5  UNL     1     -14.186   7.847  12.853  1.00  0.00    -0.773 OA
HETATM   35  H44 UNL     1     -15.033   7.388  13.024  1.00  0.00     0.167 HD
ENDBRANCH  32  34
ENDBRANCH  30  32
ENDBRANCH  28  29
ENDBRANCH  27  28
ENDBRANCH  25  27
ENDBRANCH   1  25
BRANCH   3  36
HETATM   36  O1  UNL     1      -4.363   3.475  12.745  1.00  0.00    -0.394 OA
HETATM   37  H17 UNL     1      -3.552   3.451  12.212  1.00  0.00     0.210 HD
ENDBRANCH   3  36
TORSDOF 7
ENDMDL
MODEL 5
REMARK minimizedAffinity -6.93761301
REMARK CNNscore 0.336015731
REMARK CNNaffinity 6.13175964
REMARK  7 active torsions:
REMARK  status: ('A' for Active; 'I' for Inactive)
REMARK    1  A    between atoms: C2_2  and  C30_33 
REMARK    2  A    between atoms: C3_3  and  C4_4 
REMARK    3  A    between atoms: C4_4  and  C5_5 
REMARK    4  A    between atoms: C5_5  and  C6_6 
REMARK    5  A    between atoms: C6_6  and  C8_8 
REMARK    6  A    between atoms: C10_10  and  O1_11 
REMARK    7  A    between atoms: C30_33  and  O5_35 
ROOT
HETATM    1  C8  UNL     1     -16.776   3.682  14.769  1.00  0.00     0.001 C 
HETATM    2  C9  UNL     1     -17.220   3.640  13.284  1.00  0.00     0.038 C 
HETATM    3  C10 UNL     1     -17.384   2.145  12.911  1.00  0.00     0.131 C 
HETATM    4  C11 UNL     1     -17.405   1.399  14.276  1.00  0.00     0.014 C 
HETATM    5  C12 UNL     1     -18.857   1.485  14.856  1.00  0.00     0.023 C 
HETATM    6  C13 UNL     1     -17.054  -0.087  14.366  1.00  0.00    -0.058 C 
HETATM    7  C14 UNL     1     -16.606  -0.629  15.533  1.00  0.00    -0.000 C 
HETATM    8  C15 UNL     1     -16.199   0.302  16.674  1.00  0.00     0.157 C 
HETATM    9  O2  UNL     1     -15.722  -0.152  17.715  1.00  0.00    -0.293 OA
HETATM   10  C16 UNL     1     -16.360   1.811  16.524  1.00  0.00     0.094 C 
HETATM   11  C17 UNL     1     -16.319   2.222  15.053  1.00  0.00    -0.019 C 
HETATM   12  C18 UNL     1     -14.868   1.987  14.527  1.00  0.00     0.017 C 
HETATM   13  C19 UNL     1     -16.442  -2.162  15.749  1.00  0.00    -0.008 C 
HETATM   14  C20 UNL     1     -14.921  -2.436  15.693  1.00  0.00     0.021 C 
HETATM   15  C21 UNL     1     -16.987  -2.640  17.139  1.00  0.00     0.022 C 
HETATM   16  C22 UNL     1     -18.077  -3.703  17.093  1.00  0.00     0.080 C 
HETATM   17  C23 UNL     1     -17.705  -4.841  16.176  1.00  0.00     0.135 C 
HETATM   18  O3  UNL     1     -17.802  -6.015  16.556  1.00  0.00    -0.297 OA
HETATM   19  C24 UNL     1     -17.313  -4.471  14.736  1.00  0.00     0.018 C 
HETATM   20  C25 UNL     1     -16.014  -5.212  14.373  1.00  0.00     0.023 C 
HETATM   21  C26 UNL     1     -18.447  -5.006  13.824  1.00  0.00     0.023 C 
HETATM   22  C27 UNL     1     -17.251  -2.912  14.626  1.00  0.00     0.014 C 
HETATM   23  C28 UNL     1     -16.876  -2.378  13.237  1.00  0.00     0.011 C 
HETATM   24  C29 UNL     1     -17.307  -0.916  13.126  1.00  0.00     0.036 C 
ENDROOT
BRANCH   1  25
HETATM   25  C6  UNL     1     -15.842   4.856  15.186  1.00  0.00    -0.013 C 
HETATM   26  C7  UNL     1     -16.591   5.754  16.192  1.00  0.00     0.010 C 
BRANCH  25  27
HETATM   27  C5  UNL     1     -15.319   5.734  14.025  1.00  0.00     0.008 C 
BRANCH  27  28
HETATM   28  C4  UNL     1     -13.815   6.027  14.118  1.00  0.00     0.028 C 
BRANCH  28  29
HETATM   29  C3  UNL     1     -13.495   7.393  13.575  1.00  0.00    -0.013 C 
HETATM   30  C2  UNL     1     -12.276   7.895  13.286  1.00  0.00     0.008 C 
HETATM   31  C1  UNL     1     -10.970   7.185  13.473  1.00  0.00     0.055 C 
BRANCH  30  32
HETATM   32  C30 UNL     1     -12.130   9.264  12.721  1.00  0.00     0.171 C 
HETATM   33  O4  UNL     1     -12.793   9.722  11.809  1.00  0.00    -0.646 OA
BRANCH  32  34
HETATM   34  O5  UNL     1     -11.183  10.007  13.324  1.00  0.00    -0.773 OA
HETATM   35  H44 UNL     1     -11.226  10.857  12.841  1.00  0.00     0.167 HD
ENDBRANCH  32  34
ENDBRANCH  30  32
ENDBRANCH  28  29
ENDBRANCH  27  28
ENDBRANCH  25  27
ENDBRANCH   1  25
BRANCH   3  36
HETATM   36  O1  UNL     1     -18.557   1.991  12.126  1.00  0.00    -0.394 OA
HETATM   37  H17 UNL     1     -18.630   1.060  11.860  1.00  0.00     0.210 HD
ENDBRANCH   3  36
TORSDOF 7
ENDMDL
MODEL 6
REMARK minimizedAffinity -9.21345139
REMARK CNNscore 0.298386931
REMARK CNNaffinity 6.80137587
REMARK  7 active torsions:
REMARK  status: ('A' for Active; 'I' for Inactive)
REMARK    1  A    between atoms: C2_2  and  C30_33 
REMARK    2  A    between atoms: C3_3  and  C4_4 
REMARK    3  A    between atoms: C4_4  and  C5_5 
REMARK    4  A    between atoms: C5_5  and  C6_6 
REMARK    5  A    between atoms: C6_6  and  C8_8 
REMARK    6  A    between atoms: C10_10  and  O1_11 
REMARK    7  A    between atoms: C30_33  and  O5_35 
ROOT
HETATM    1  C8  UNL     1      -6.284   7.319  14.492  1.00  0.00     0.001 C 
HETATM    2  C9  UNL     1      -6.082   8.655  15.251  1.00  0.00     0.038 C 
HETATM    3  C10 UNL     1      -4.582   9.021  15.116  1.00  0.00     0.131 C 
HETATM    4  C11 UNL     1      -4.054   8.102  13.978  1.00  0.00     0.014 C 
HETATM    5  C12 UNL     1      -4.411   8.769  12.607  1.00  0.00     0.023 C 
HETATM    6  C13 UNL     1      -2.565   7.775  13.858  1.00  0.00    -0.058 C 
HETATM    7  C14 UNL     1      -2.146   6.649  13.216  1.00  0.00    -0.000 C 
HETATM    8  C15 UNL     1      -3.174   5.579  12.852  1.00  0.00     0.157 C 
HETATM    9  O2  UNL     1      -2.821   4.518  12.336  1.00  0.00    -0.293 OA
HETATM   10  C16 UNL     1      -4.653   5.808  13.146  1.00  0.00     0.094 C 
HETATM   11  C17 UNL     1      -4.835   6.783  14.309  1.00  0.00    -0.019 C 
HETATM   12  C18 UNL     1      -4.340   6.078  15.611  1.00  0.00     0.017 C 
HETATM   13  C19 UNL     1      -0.653   6.374  12.871  1.00  0.00    -0.008 C 
HETATM   14  C20 UNL     1      -0.180   5.297  13.876  1.00  0.00     0.021 C 
HETATM   15  C21 UNL     1      -0.459   5.822  11.416  1.00  0.00     0.022 C 
HETATM   16  C22 UNL     1       0.450   6.645  10.512  1.00  0.00     0.080 C 
HETATM   17  C23 UNL     1       1.749   6.991  11.196  1.00  0.00     0.135 C 
HETATM   18  O3  UNL     1       2.831   6.796  10.629  1.00  0.00    -0.297 OA
HETATM   19  C24 UNL     1       1.647   7.688  12.563  1.00  0.00     0.018 C 
HETATM   20  C25 UNL     1       2.595   6.980  13.548  1.00  0.00     0.023 C 
HETATM   21  C26 UNL     1       2.159   9.136  12.354  1.00  0.00     0.023 C 
HETATM   22  C27 UNL     1       0.143   7.726  12.989  1.00  0.00     0.014 C 
HETATM   23  C28 UNL     1      -0.129   8.402  14.339  1.00  0.00     0.011 C 
HETATM   24  C29 UNL     1      -1.602   8.801  14.416  1.00  0.00     0.036 C 
ENDROOT
BRANCH   1  25
HETATM   25  C6  UNL     1      -7.376   6.358  15.047  1.00  0.00    -0.013 C 
HETATM   26  C7  UNL     1      -7.210   6.247  16.576  1.00  0.00     0.010 C 
BRANCH  25  27
HETATM   27  C5  UNL     1      -7.383   4.936  14.440  1.00  0.00     0.008 C 
BRANCH  27  28
HETATM   28  C4  UNL     1      -7.853   4.904  12.979  1.00  0.00     0.028 C 
BRANCH  28  29
HETATM   29  C3  UNL     1      -6.895   4.124  12.119  1.00  0.00    -0.013 C 
HETATM   30  C2  UNL     1      -6.691   2.790  12.123  1.00  0.00     0.008 C 
HETATM   31  C1  UNL     1      -7.375   1.802  13.019  1.00  0.00     0.055 C 
BRANCH  30  32
HETATM   32  C30 UNL     1      -5.722   2.165  11.183  1.00  0.00     0.171 C 
HETATM   33  O4  UNL     1      -5.585   0.967  11.009  1.00  0.00    -0.646 OA
BRANCH  32  34
HETATM   34  O5  UNL     1      -4.983   3.049  10.488  1.00  0.00    -0.773 OA
HETATM   35  H44 UNL     1      -4.419   2.478   9.929  1.00  0.00     0.167 HD
ENDBRANCH  32  34
ENDBRANCH  30  32
ENDBRANCH  28  29
ENDBRANCH  27  28
ENDBRANCH  25  27
ENDBRANCH   1  25
BRANCH   3  36
HETATM   36  O1  UNL     1      -4.467  10.414  14.864  1.00  0.00    -0.394 OA
HETATM   37  H17 UNL     1      -3.525  10.643  14.824  1.00  0.00     0.210 HD
ENDBRANCH   3  36
TORSDOF 7
ENDMDL
MODEL 7
REMARK minimizedAffinity -7.33250618
REMARK CNNscore 0.291191429
REMARK CNNaffinity 6.05609274
REMARK  7 active torsions:
REMARK  status: ('A' for Active; 'I' for Inactive)
REMARK    1  A    between atoms: C2_2  and  C30_33 
REMARK    2  A    between atoms: C3_3  and  C4_4 
REMARK    3  A    between atoms: C4_4  and  C5_5 
REMARK    4  A    between atoms: C5_5  and  C6_6 
REMARK    5  A    between atoms: C6_6  and  C8_8 
REMARK    6  A    between atoms: C10_10  and  O1_11 
REMARK    7  A    between atoms: C30_33  and  O5_35 
ROOT
HETATM    1  C8  UNL     1     -12.721  10.315  22.378  1.00  0.00     0.001 C 
HETATM    2  C9  UNL     1     -12.702  10.914  23.807  1.00  0.00     0.038 C 
HETATM    3  C10 UNL     1     -13.068   9.763  24.777  1.00  0.00     0.131 C 
HETATM    4  C11 UNL     1     -12.911   8.469  23.929  1.00  0.00     0.014 C 
HETATM    5  C12 UNL     1     -11.397   8.072  23.920  1.00  0.00     0.023 C 
HETATM    6  C13 UNL     1     -13.633   7.179  24.320  1.00  0.00    -0.058 C 
HETATM    7  C14 UNL     1     -13.903   6.220  23.391  1.00  0.00    -0.000 C 
HETATM    8  C15 UNL     1     -13.724   6.552  21.911  1.00  0.00     0.157 C 
HETATM    9  O2  UNL     1     -14.028   5.733  21.043  1.00  0.00    -0.293 OA
HETATM   10  C16 UNL     1     -13.186   7.916  21.493  1.00  0.00     0.094 C 
HETATM   11  C17 UNL     1     -13.484   8.971  22.558  1.00  0.00    -0.019 C 
HETATM   12  C18 UNL     1     -15.026   9.213  22.579  1.00  0.00     0.017 C 
HETATM   13  C19 UNL     1     -14.433   4.804  23.763  1.00  0.00    -0.008 C 
HETATM   14  C20 UNL     1     -15.931   4.800  23.378  1.00  0.00     0.021 C 
HETATM   15  C21 UNL     1     -13.709   3.659  22.972  1.00  0.00     0.022 C 
HETATM   16  C22 UNL     1     -13.014   2.604  23.823  1.00  0.00     0.080 C 
HETATM   17  C23 UNL     1     -13.915   2.093  24.920  1.00  0.00     0.135 C 
HETATM   18  O3  UNL     1     -14.059   0.878  25.101  1.00  0.00    -0.297 OA
HETATM   19  C24 UNL     1     -14.540   3.146  25.849  1.00  0.00     0.018 C 
HETATM   20  C25 UNL     1     -16.043   2.849  25.990  1.00  0.00     0.023 C 
HETATM   21  C26 UNL     1     -13.876   2.952  27.237  1.00  0.00     0.023 C 
HETATM   22  C27 UNL     1     -14.185   4.566  25.299  1.00  0.00     0.014 C 
HETATM   23  C28 UNL     1     -14.734   5.735  26.126  1.00  0.00     0.011 C 
HETATM   24  C29 UNL     1     -13.951   7.003  25.790  1.00  0.00     0.036 C 
ENDROOT
BRANCH   1  25
HETATM   25  C6  UNL     1     -13.145  11.272  21.225  1.00  0.00    -0.013 C 
HETATM   26  C7  UNL     1     -13.264  10.457  19.921  1.00  0.00     0.010 C 
BRANCH  25  27
HETATM   27  C5  UNL     1     -12.205  12.475  20.978  1.00  0.00     0.008 C 
BRANCH  27  28
HETATM   28  C4  UNL     1     -10.806  12.062  20.500  1.00  0.00     0.028 C 
BRANCH  28  29
HETATM   29  C3  UNL     1      -9.807  12.139  21.623  1.00  0.00    -0.013 C 
HETATM   30  C2  UNL     1      -8.712  12.925  21.692  1.00  0.00     0.008 C 
HETATM   31  C1  UNL     1      -8.251  13.880  20.633  1.00  0.00     0.055 C 
BRANCH  30  32
HETATM   32  C30 UNL     1      -7.835  12.906  22.894  1.00  0.00     0.171 C 
HETATM   33  O4  UNL     1      -6.626  13.050  22.884  1.00  0.00    -0.646 OA
BRANCH  32  34
HETATM   34  O5  UNL     1      -8.497  12.729  24.053  1.00  0.00    -0.773 OA
HETATM   35  H44 UNL     1      -7.783  12.747  24.722  1.00  0.00     0.167 HD
ENDBRANCH  32  34
ENDBRANCH  30  32
ENDBRANCH  28  29
ENDBRANCH  27  28
ENDBRANCH  25  27
ENDBRANCH   1  25
BRANCH   3  36
HETATM   36  O1  UNL     1     -12.228   9.837  25.920  1.00  0.00    -0.394 OA
HETATM   37  H17 UNL     1     -12.492   9.140  26.542  1.00  0.00     0.210 HD
ENDBRANCH   3  36
TORSDOF 7
ENDMDL
MODEL 8
REMARK minimizedAffinity -8.70903587
REMARK CNNscore 0.275470018
REMARK CNNaffinity 6.20380211
REMARK  7 active torsions:
REMARK  status: ('A' for Active; 'I' for Inactive)
REMARK    1  A    between atoms: C2_2  and  C30_33 
REMARK    2  A    between atoms: C3_3  and  C4_4 
REMARK    3  A    between atoms: C4_4  and  C5_5 
REMARK    4  A    between atoms: C5_5  and  C6_6 
REMARK    5  A    between atoms: C6_6  and  C8_8 
REMARK    6  A    between atoms: C10_10  and  O1_11 
REMARK    7  A    between atoms: C30_33  and  O5_35 
ROOT
HETATM    1  C8  UNL     1      -1.896   7.431  13.883  1.00  0.00     0.001 C 
HETATM    2  C9  UNL     1      -0.703   7.590  12.905  1.00  0.00     0.038 C 
HETATM    3  C10 UNL     1       0.267   8.612  13.550  1.00  0.00     0.131 C 
HETATM    4  C11 UNL     1      -0.198   8.716  15.031  1.00  0.00     0.014 C 
HETATM    5  C12 UNL     1       0.426   7.519  15.823  1.00  0.00     0.023 C 
HETATM    6  C13 UNL     1       0.142   9.942  15.878  1.00  0.00    -0.058 C 
HETATM    7  C14 UNL     1      -0.617  10.279  16.958  1.00  0.00    -0.000 C 
HETATM    8  C15 UNL     1      -1.963   9.584  17.161  1.00  0.00     0.157 C 
HETATM    9  O2  UNL     1      -2.707   9.914  18.085  1.00  0.00    -0.293 OA
HETATM   10  C16 UNL     1      -2.409   8.486  16.202  1.00  0.00     0.094 C 
HETATM   11  C17 UNL     1      -1.753   8.655  14.832  1.00  0.00    -0.019 C 
HETATM   12  C18 UNL     1      -2.345   9.938  14.169  1.00  0.00     0.017 C 
HETATM   13  C19 UNL     1      -0.201  11.376  17.980  1.00  0.00    -0.008 C 
HETATM   14  C20 UNL     1      -1.100  12.597  17.677  1.00  0.00     0.021 C 
HETATM   15  C21 UNL     1      -0.434  10.938  19.468  1.00  0.00     0.022 C 
HETATM   16  C22 UNL     1       0.798  10.951  20.363  1.00  0.00     0.080 C 
HETATM   17  C23 UNL     1       1.565  12.243  20.235  1.00  0.00     0.135 C 
HETATM   18  O3  UNL     1       1.911  12.872  21.243  1.00  0.00    -0.297 OA
HETATM   19  C24 UNL     1       1.979  12.666  18.816  1.00  0.00     0.018 C 
HETATM   20  C25 UNL     1       1.612  14.148  18.617  1.00  0.00     0.023 C 
HETATM   21  C26 UNL     1       3.522  12.537  18.755  1.00  0.00     0.023 C 
HETATM   22  C27 UNL     1       1.334  11.672  17.796  1.00  0.00     0.014 C 
HETATM   23  C28 UNL     1       1.660  11.956  16.324  1.00  0.00     0.011 C 
HETATM   24  C29 UNL     1       1.397  10.699  15.497  1.00  0.00     0.036 C 
ENDROOT
BRANCH   1  25
HETATM   25  C6  UNL     1      -3.285   7.131  13.247  1.00  0.00    -0.013 C 
HETATM   26  C7  UNL     1      -4.098   8.441  13.188  1.00  0.00     0.010 C 
BRANCH  25  27
HETATM   27  C5  UNL     1      -4.127   6.052  13.966  1.00  0.00     0.008 C 
BRANCH  27  28
HETATM   28  C4  UNL     1      -4.303   4.770  13.139  1.00  0.00     0.028 C 
BRANCH  28  29
HETATM   29  C3  UNL     1      -5.723   4.275  13.206  1.00  0.00    -0.013 C 
HETATM   30  C2  UNL     1      -6.267   3.253  12.512  1.00  0.00     0.008 C 
HETATM   31  C1  UNL     1      -5.557   2.407  11.499  1.00  0.00     0.055 C 
BRANCH  30  32
HETATM   32  C30 UNL     1      -7.688   2.865  12.716  1.00  0.00     0.171 C 
HETATM   33  O4  UNL     1      -8.602   3.637  12.943  1.00  0.00    -0.646 OA
BRANCH  32  34
HETATM   34  O5  UNL     1      -7.916   1.542  12.613  1.00  0.00    -0.773 OA
HETATM   35  H44 UNL     1      -8.879   1.469  12.767  1.00  0.00     0.167 HD
ENDBRANCH  32  34
ENDBRANCH  30  32
ENDBRANCH  28  29
ENDBRANCH  27  28
ENDBRANCH  25  27
ENDBRANCH   1  25
BRANCH   3  36
HETATM   36  O1  UNL     1       1.601   8.158  13.371  1.00  0.00    -0.394 OA
HETATM   37  H17 UNL     1       2.205   8.824  13.739  1.00  0.00     0.210 HD
ENDBRANCH   3  36
TORSDOF 7
ENDMDL
MODEL 9
REMARK minimizedAffinity -7.49425077
REMARK CNNscore 0.252604485
REMARK CNNaffinity 6.12506247
REMARK  7 active torsions:
REMARK  status: ('A' for Active; 'I' for Inactive)
REMARK    1  A    between atoms: C2_2  and  C30_33 
REMARK    2  A    between atoms: C3_3  and  C4_4 
REMARK    3  A    between atoms: C4_4  and  C5_5 
REMARK    4  A    between atoms: C5_5  and  C6_6 
REMARK    5  A    between atoms: C6_6  and  C8_8 
REMARK    6  A    between atoms: C10_10  and  O1_11 
REMARK    7  A    between atoms: C30_33  and  O5_35 
ROOT
HETATM    1  C8  UNL     1       7.422   9.971  13.993  1.00  0.00     0.001 C 
HETATM    2  C9  UNL     1       7.816   9.926  12.494  1.00  0.00     0.038 C 
HETATM    3  C10 UNL     1       6.540   9.531  11.710  1.00  0.00     0.131 C 
HETATM    4  C11 UNL     1       5.377   9.734  12.722  1.00  0.00     0.014 C 
HETATM    5  C12 UNL     1       4.990  11.250  12.722  1.00  0.00     0.023 C 
HETATM    6  C13 UNL     1       4.043   9.008  12.544  1.00  0.00    -0.058 C 
HETATM    7  C14 UNL     1       3.222   8.784  13.607  1.00  0.00    -0.000 C 
HETATM    8  C15 UNL     1       3.757   9.021  15.019  1.00  0.00     0.157 C 
HETATM    9  O2  UNL     1       3.066   8.760  16.004  1.00  0.00    -0.293 OA
HETATM   10  C16 UNL     1       5.168   9.563  15.220  1.00  0.00     0.094 C 
HETATM   11  C17 UNL     1       6.063   9.213  14.033  1.00  0.00    -0.019 C 
HETATM   12  C18 UNL     1       6.295   7.669  14.042  1.00  0.00     0.017 C 
HETATM   13  C19 UNL     1       1.766   8.252  13.459  1.00  0.00    -0.008 C 
HETATM   14  C20 UNL     1       1.812   6.771  13.903  1.00  0.00     0.021 C 
HETATM   15  C21 UNL     1       0.745   9.017  14.369  1.00  0.00     0.022 C 
HETATM   16  C22 UNL     1      -0.416   9.686  13.646  1.00  0.00     0.080 C 
HETATM   17  C23 UNL     1      -1.077   8.746  12.668  1.00  0.00     0.135 C 
HETATM   18  O3  UNL     1      -2.307   8.605  12.664  1.00  0.00    -0.297 OA
HETATM   19  C24 UNL     1      -0.166   8.074  11.629  1.00  0.00     0.018 C 
HETATM   20  C25 UNL     1      -0.484   6.569  11.594  1.00  0.00     0.023 C 
HETATM   21  C26 UNL     1      -0.549   8.682  10.255  1.00  0.00     0.023 C 
HETATM   22  C27 UNL     1       1.318   8.439  11.962  1.00  0.00     0.014 C 
HETATM   23  C28 UNL     1       2.359   7.846  11.004  1.00  0.00     0.011 C 
HETATM   24  C29 UNL     1       3.664   8.631  11.128  1.00  0.00     0.036 C 
ENDROOT
BRANCH   1  25
HETATM   25  C6  UNL     1       8.528   9.586  15.019  1.00  0.00    -0.013 C 
HETATM   26  C7  UNL     1       9.409   8.477  14.407  1.00  0.00     0.010 C 
BRANCH  25  27
HETATM   27  C5  UNL     1       8.019   9.114  16.401  1.00  0.00     0.008 C 
BRANCH  27  28
HETATM   28  C4  UNL     1       8.225  10.156  17.509  1.00  0.00     0.028 C 
BRANCH  28  29
HETATM   29  C3  UNL     1       9.679  10.265  17.884  1.00  0.00    -0.013 C 
HETATM   30  C2  UNL     1      10.202  10.889  18.961  1.00  0.00     0.008 C 
HETATM   31  C1  UNL     1       9.425  11.632  20.006  1.00  0.00     0.055 C 
BRANCH  30  32
HETATM   32  C30 UNL     1      11.669  10.880  19.209  1.00  0.00     0.171 C 
HETATM   33  O4  UNL     1      12.198  11.001  20.299  1.00  0.00    -0.646 OA
BRANCH  32  34
HETATM   34  O5  UNL     1      12.411  10.703  18.101  1.00  0.00    -0.773 OA
HETATM   35  H44 UNL     1      13.328  10.718  18.441  1.00  0.00     0.167 HD
ENDBRANCH  32  34
ENDBRANCH  30  32
ENDBRANCH  28  29
ENDBRANCH  27  28
ENDBRANCH  25  27
ENDBRANCH   1  25
BRANCH   3  36
HETATM   36  O1  UNL     1       6.457  10.323  10.534  1.00  0.00    -0.394 OA
HETATM   37  H17 UNL     1       5.679  10.040  10.026  1.00  0.00     0.210 HD
ENDBRANCH   3  36
TORSDOF 7
ENDMDL
