MODEL 1
REMARK minimizedAffinity -7.15840578
REMARK CNNscore 0.598069668
REMARK CNNaffinity 6.53404474
REMARK  7 active torsions:
REMARK  status: ('A' for Active; 'I' for Inactive)
REMARK    1  A    between atoms: C2_2  and  C4_4 
REMARK    2  A    between atoms: C7_7  and  O1_9 
REMARK    3  A    between atoms: C9_10  and  C10_11 
REMARK    4  A    between atoms: C11_12  and  C12_13 
REMARK    5  A    between atoms: C14_15  and  C15_16 
REMARK    6  A    between atoms: C24_26  and  C26_28 
REMARK    7  A    between atoms: C29_32  and  O4_34 
ROOT
HETATM    1  C15 UNL     1      -7.530  47.313 -26.872  1.00  0.00     0.149 C 
HETATM    2  C16 UNL     1      -9.023  47.627 -26.795  1.00  0.00     0.054 C 
HETATM    3  C17 UNL     1      -9.724  46.356 -27.317  1.00  0.00     0.050 C 
HETATM    4  C18 UNL     1      -8.735  45.320 -26.721  1.00  0.00     0.272 C 
HETATM    5  O2  UNL     1      -8.926  45.059 -25.333  1.00  0.00    -0.360 OA
HETATM    6  C19 UNL     1      -9.855  44.029 -25.063  1.00  0.00     0.171 C 
HETATM    7  C20 UNL     1     -11.247  44.593 -24.838  1.00  0.00     0.027 C 
HETATM    8  C21 UNL     1     -11.440  46.032 -25.310  1.00  0.00     0.012 C 
HETATM    9  C22 UNL     1     -11.220  46.299 -26.816  1.00  0.00     0.032 C 
HETATM   10  C23 UNL     1     -12.139  45.411 -27.683  1.00  0.00    -0.066 C 
HETATM   11  C24 UNL     1     -13.482  45.564 -27.796  1.00  0.00    -0.021 C 
HETATM   12  C25 UNL     1     -14.376  44.687 -28.627  1.00  0.00     0.052 C 
HETATM   13  C27 UNL     1     -11.398  44.352 -28.463  1.00  0.00     0.038 C 
HETATM   14  C28 UNL     1     -10.348  44.953 -29.393  1.00  0.00     0.042 C 
HETATM   15  C29 UNL     1      -9.732  46.287 -28.904  1.00  0.00     0.067 C 
HETATM   16  C30 UNL     1     -10.469  47.473 -29.567  1.00  0.00     0.047 C 
HETATM   17  O5  UNL     1      -7.420  45.888 -26.824  1.00  0.00    -0.351 OA
ENDROOT
BRANCH   1  18
HETATM   18  C14 UNL     1      -6.734  47.967 -25.769  1.00  0.00     0.011 C 
HETATM   19  C12 UNL     1      -5.433  48.330 -25.769  1.00  0.00    -0.064 C 
HETATM   20  C13 UNL     1      -4.540  48.198 -26.977  1.00  0.00     0.048 C 
BRANCH  19  21
HETATM   21  C11 UNL     1      -4.867  48.912 -24.549  1.00  0.00     0.003 C 
HETATM   22  C10 UNL     1      -4.130  48.265 -23.630  1.00  0.00    -0.018 C 
BRANCH  22  23
HETATM   23  C9  UNL     1      -3.525  48.803 -22.338  1.00  0.00     0.050 C 
HETATM   24  C4  UNL     1      -1.969  48.801 -22.242  1.00  0.00     0.024 C 
HETATM   25  C5  UNL     1      -1.665  47.395 -21.698  1.00  0.00     0.013 C 
HETATM   26  C6  UNL     1      -2.823  47.022 -20.773  1.00  0.00     0.039 C 
HETATM   27  C7  UNL     1      -3.961  48.016 -21.063  1.00  0.00     0.062 C 
HETATM   28  C8  UNL     1      -5.321  47.320 -21.133  1.00  0.00     0.046 C 
BRANCH  24  29
HETATM   29  C2  UNL     1      -1.403  49.980 -21.444  1.00  0.00    -0.088 C 
HETATM   30  C1  UNL     1      -1.724  51.272 -21.629  1.00  0.00     0.014 C 
HETATM   31  C3  UNL     1      -0.436  49.600 -20.348  1.00  0.00     0.043 C 
ENDBRANCH  24  29
BRANCH  27  32
HETATM   32  O1  UNL     1      -4.050  48.948 -19.973  1.00  0.00    -0.390 OA
HETATM   33  H14 UNL     1      -4.215  48.444 -19.158  1.00  0.00     0.210 HD
ENDBRANCH  27  32
ENDBRANCH  22  23
ENDBRANCH  19  21
ENDBRANCH   1  18
BRANCH  15  34
HETATM   34  O4  UNL     1      -8.404  46.337 -29.438  1.00  0.00    -0.389 OA
HETATM   35  H44 UNL     1      -8.453  46.264 -30.407  1.00  0.00     0.210 HD
ENDBRANCH  15  34
BRANCH  11  36
HETATM   36  C26 UNL     1     -14.231  46.648 -27.087  1.00  0.00     0.265 C 
HETATM   37  O3  UNL     1     -14.953  46.459 -26.118  1.00  0.00    -0.302 OA
ENDBRANCH  11  36
TORSDOF 7
ENDMDL
MODEL 2
REMARK minimizedAffinity -7.17974567
REMARK CNNscore 0.502663136
REMARK CNNaffinity 5.83801603
REMARK  7 active torsions:
REMARK  status: ('A' for Active; 'I' for Inactive)
REMARK    1  A    between atoms: C2_2  and  C4_4 
REMARK    2  A    between atoms: C7_7  and  O1_9 
REMARK    3  A    between atoms: C9_10  and  C10_11 
REMARK    4  A    between atoms: C11_12  and  C12_13 
REMARK    5  A    between atoms: C14_15  and  C15_16 
REMARK    6  A    between atoms: C24_26  and  C26_28 
REMARK    7  A    between atoms: C29_32  and  O4_34 
ROOT
HETATM    1  C15 UNL     1     -11.532  45.928 -26.710  1.00  0.00     0.149 C 
HETATM    2  C16 UNL     1     -12.870  46.628 -26.474  1.00  0.00     0.054 C 
HETATM    3  C17 UNL     1     -13.780  45.546 -25.856  1.00  0.00     0.050 C 
HETATM    4  C18 UNL     1     -12.695  44.825 -25.014  1.00  0.00     0.272 C 
HETATM    5  O2  UNL     1     -12.366  45.483 -23.794  1.00  0.00    -0.360 OA
HETATM    6  C19 UNL     1     -13.180  45.109 -22.700  1.00  0.00     0.171 C 
HETATM    7  C20 UNL     1     -14.355  46.058 -22.543  1.00  0.00     0.027 C 
HETATM    8  C21 UNL     1     -14.635  46.939 -23.757  1.00  0.00     0.012 C 
HETATM    9  C22 UNL     1     -14.981  46.208 -25.074  1.00  0.00     0.032 C 
HETATM   10  C23 UNL     1     -16.202  45.280 -24.897  1.00  0.00    -0.066 C 
HETATM   11  C24 UNL     1     -17.481  45.706 -24.732  1.00  0.00    -0.021 C 
HETATM   12  C25 UNL     1     -18.664  44.799 -24.542  1.00  0.00     0.052 C 
HETATM   13  C27 UNL     1     -15.864  43.812 -24.971  1.00  0.00     0.038 C 
HETATM   14  C28 UNL     1     -15.208  43.440 -26.299  1.00  0.00     0.042 C 
HETATM   15  C29 UNL     1     -14.384  44.575 -26.958  1.00  0.00     0.067 C 
HETATM   16  C30 UNL     1     -15.253  45.303 -28.009  1.00  0.00     0.047 C 
HETATM   17  O5  UNL     1     -11.487  44.834 -25.790  1.00  0.00    -0.351 OA
ENDROOT
BRANCH   1  18
HETATM   18  C14 UNL     1     -10.348  46.849 -26.535  1.00  0.00     0.011 C 
HETATM   19  C12 UNL     1      -9.097  46.545 -26.125  1.00  0.00    -0.064 C 
HETATM   20  C13 UNL     1      -8.644  45.136 -25.835  1.00  0.00     0.048 C 
BRANCH  19  21
HETATM   21  C11 UNL     1      -8.122  47.630 -25.987  1.00  0.00     0.003 C 
HETATM   22  C10 UNL     1      -7.051  47.635 -25.176  1.00  0.00    -0.018 C 
BRANCH  22  23
HETATM   23  C9  UNL     1      -6.009  48.729 -24.975  1.00  0.00     0.050 C 
HETATM   24  C4  UNL     1      -4.534  48.262 -24.782  1.00  0.00     0.024 C 
HETATM   25  C5  UNL     1      -4.450  48.022 -23.266  1.00  0.00     0.013 C 
HETATM   26  C6  UNL     1      -5.372  49.046 -22.606  1.00  0.00     0.039 C 
HETATM   27  C7  UNL     1      -6.266  49.620 -23.719  1.00  0.00     0.062 C 
HETATM   28  C8  UNL     1      -7.723  49.747 -23.271  1.00  0.00     0.046 C 
BRANCH  24  29
HETATM   29  C2  UNL     1      -3.504  49.226 -25.380  1.00  0.00    -0.088 C 
HETATM   30  C1  UNL     1      -2.524  49.842 -24.696  1.00  0.00     0.014 C 
HETATM   31  C3  UNL     1      -3.621  49.437 -26.870  1.00  0.00     0.043 C 
ENDBRANCH  24  29
BRANCH  27  32
HETATM   32  O1  UNL     1      -5.828  50.954 -24.023  1.00  0.00    -0.390 OA
HETATM   33  H14 UNL     1      -5.887  51.483 -23.209  1.00  0.00     0.210 HD
ENDBRANCH  27  32
ENDBRANCH  22  23
ENDBRANCH  19  21
ENDBRANCH   1  18
BRANCH  15  34
HETATM   34  O4  UNL     1     -13.353  43.934 -27.717  1.00  0.00    -0.389 OA
HETATM   35  H44 UNL     1     -13.764  43.330 -28.359  1.00  0.00     0.210 HD
ENDBRANCH  15  34
BRANCH  11  36
HETATM   36  C26 UNL     1     -17.852  47.154 -24.723  1.00  0.00     0.265 C 
HETATM   37  O3  UNL     1     -19.003  47.565 -24.787  1.00  0.00    -0.302 OA
ENDBRANCH  11  36
TORSDOF 7
ENDMDL
MODEL 3
REMARK minimizedAffinity -9.30268192
REMARK CNNscore 0.463418841
REMARK CNNaffinity 6.47980261
REMARK  7 active torsions:
REMARK  status: ('A' for Active; 'I' for Inactive)
REMARK    1  A    between atoms: C2_2  and  C4_4 
REMARK    2  A    between atoms: C7_7  and  O1_9 
REMARK    3  A    between atoms: C9_10  and  C10_11 
REMARK    4  A    between atoms: C11_12  and  C12_13 
REMARK    5  A    between atoms: C14_15  and  C15_16 
REMARK    6  A    between atoms: C24_26  and  C26_28 
REMARK    7  A    between atoms: C29_32  and  O4_34 
ROOT
HETATM    1  C15 UNL     1      -6.068  47.353 -28.040  1.00  0.00     0.149 C 
HETATM    2  C16 UNL     1      -6.100  46.546 -29.338  1.00  0.00     0.054 C 
HETATM    3  C17 UNL     1      -7.595  46.440 -29.702  1.00  0.00     0.050 C 
HETATM    4  C18 UNL     1      -8.025  47.847 -29.211  1.00  0.00     0.272 C 
HETATM    5  O2  UNL     1      -7.708  48.904 -30.113  1.00  0.00    -0.360 OA
HETATM    6  C19 UNL     1      -8.708  49.155 -31.079  1.00  0.00     0.171 C 
HETATM    7  C20 UNL     1      -8.436  48.386 -32.361  1.00  0.00     0.027 C 
HETATM    8  C21 UNL     1      -7.419  47.256 -32.227  1.00  0.00     0.012 C 
HETATM    9  C22 UNL     1      -7.774  46.123 -31.237  1.00  0.00     0.032 C 
HETATM   10  C23 UNL     1      -9.130  45.474 -31.591  1.00  0.00    -0.066 C 
HETATM   11  C24 UNL     1      -9.349  44.677 -32.668  1.00  0.00    -0.021 C 
HETATM   12  C25 UNL     1     -10.675  44.061 -33.018  1.00  0.00     0.052 C 
HETATM   13  C27 UNL     1     -10.219  45.761 -30.588  1.00  0.00     0.038 C 
HETATM   14  C28 UNL     1      -9.848  45.287 -29.185  1.00  0.00     0.042 C 
HETATM   15  C29 UNL     1      -8.331  45.300 -28.874  1.00  0.00     0.067 C 
HETATM   16  C30 UNL     1      -7.741  43.891 -29.111  1.00  0.00     0.047 C 
HETATM   17  O5  UNL     1      -7.271  48.125 -28.020  1.00  0.00    -0.351 OA
ENDROOT
BRANCH   1  18
HETATM   18  C14 UNL     1      -4.845  48.230 -27.923  1.00  0.00     0.011 C 
HETATM   19  C12 UNL     1      -4.260  48.717 -26.807  1.00  0.00    -0.064 C 
HETATM   20  C13 UNL     1      -4.726  48.373 -25.415  1.00  0.00     0.048 C 
BRANCH  19  21
HETATM   21  C11 UNL     1      -3.096  49.596 -26.951  1.00  0.00     0.003 C 
HETATM   22  C10 UNL     1      -2.971  50.835 -26.449  1.00  0.00    -0.018 C 
BRANCH  22  23
HETATM   23  C9  UNL     1      -1.800  51.804 -26.572  1.00  0.00     0.050 C 
HETATM   24  C4  UNL     1      -0.465  51.219 -27.123  1.00  0.00     0.024 C 
HETATM   25  C5  UNL     1       0.220  50.685 -25.855  1.00  0.00     0.013 C 
HETATM   26  C6  UNL     1      -0.180  51.618 -24.713  1.00  0.00     0.039 C 
HETATM   27  C7  UNL     1      -1.373  52.449 -25.217  1.00  0.00     0.062 C 
HETATM   28  C8  UNL     1      -2.468  52.578 -24.157  1.00  0.00     0.046 C 
BRANCH  24  29
HETATM   29  C2  UNL     1       0.338  52.214 -27.967  1.00  0.00    -0.088 C 
HETATM   30  C1  UNL     1      -0.158  53.319 -28.551  1.00  0.00     0.014 C 
HETATM   31  C3  UNL     1       1.810  51.901 -28.091  1.00  0.00     0.043 C 
ENDBRANCH  24  29
BRANCH  27  32
HETATM   32  O1  UNL     1      -0.923  53.788 -25.483  1.00  0.00    -0.390 OA
HETATM   33  H14 UNL     1      -0.557  54.152 -24.660  1.00  0.00     0.210 HD
ENDBRANCH  27  32
ENDBRANCH  22  23
ENDBRANCH  19  21
ENDBRANCH   1  18
BRANCH  15  34
HETATM   34  O4  UNL     1      -8.211  45.515 -27.463  1.00  0.00    -0.389 OA
HETATM   35  H44 UNL     1      -8.696  44.813 -26.997  1.00  0.00     0.210 HD
ENDBRANCH  15  34
BRANCH  11  36
HETATM   36  C26 UNL     1      -8.270  44.322 -33.640  1.00  0.00     0.265 C 
HETATM   37  O3  UNL     1      -8.322  43.364 -34.399  1.00  0.00    -0.302 OA
ENDBRANCH  11  36
TORSDOF 7
ENDMDL
MODEL 4
REMARK minimizedAffinity -8.90451717
REMARK CNNscore 0.410643905
REMARK CNNaffinity 6.86195755
REMARK  7 active torsions:
REMARK  status: ('A' for Active; 'I' for Inactive)
REMARK    1  A    between atoms: C2_2  and  C4_4 
REMARK    2  A    between atoms: C7_7  and  O1_9 
REMARK    3  A    between atoms: C9_10  and  C10_11 
REMARK    4  A    between atoms: C11_12  and  C12_13 
REMARK    5  A    between atoms: C14_15  and  C15_16 
REMARK    6  A    between atoms: C24_26  and  C26_28 
REMARK    7  A    between atoms: C29_32  and  O4_34 
ROOT
HETATM    1  C15 UNL     1      -0.014  52.083 -18.707  1.00  0.00     0.149 C 
HETATM    2  C16 UNL     1       0.727  50.903 -18.081  1.00  0.00     0.054 C 
HETATM    3  C17 UNL     1       0.356  50.951 -16.584  1.00  0.00     0.050 C 
HETATM    4  C18 UNL     1      -1.109  51.431 -16.753  1.00  0.00     0.272 C 
HETATM    5  O2  UNL     1      -2.024  50.401 -17.118  1.00  0.00    -0.360 OA
HETATM    6  C19 UNL     1      -2.586  49.714 -16.019  1.00  0.00     0.171 C 
HETATM    7  C20 UNL     1      -1.785  48.467 -15.686  1.00  0.00     0.027 C 
HETATM    8  C21 UNL     1      -0.392  48.414 -16.308  1.00  0.00     0.012 C 
HETATM    9  C22 UNL     1       0.584  49.543 -15.908  1.00  0.00     0.032 C 
HETATM   10  C23 UNL     1       0.773  49.606 -14.376  1.00  0.00    -0.066 C 
HETATM   11  C24 UNL     1       1.448  48.686 -13.642  1.00  0.00    -0.021 C 
HETATM   12  C25 UNL     1       1.615  48.741 -12.149  1.00  0.00     0.052 C 
HETATM   13  C27 UNL     1       0.171  50.834 -13.741  1.00  0.00     0.038 C 
HETATM   14  C28 UNL     1       0.753  52.123 -14.316  1.00  0.00     0.042 C 
HETATM   15  C29 UNL     1       1.218  52.024 -15.791  1.00  0.00     0.067 C 
HETATM   16  C30 UNL     1       2.738  51.748 -15.837  1.00  0.00     0.047 C 
HETATM   17  O5  UNL     1      -1.123  52.360 -17.848  1.00  0.00    -0.351 OA
ENDROOT
BRANCH   1  18
HETATM   18  C14 UNL     1      -0.463  51.811 -20.123  1.00  0.00     0.011 C 
HETATM   19  C12 UNL     1       0.052  52.287 -21.277  1.00  0.00    -0.064 C 
HETATM   20  C13 UNL     1       1.282  53.159 -21.334  1.00  0.00     0.048 C 
BRANCH  19  21
HETATM   21  C11 UNL     1      -0.592  51.914 -22.539  1.00  0.00     0.003 C 
HETATM   22  C10 UNL     1      -0.373  52.478 -23.739  1.00  0.00    -0.018 C 
BRANCH  22  23
HETATM   23  C9  UNL     1      -1.015  52.149 -25.082  1.00  0.00     0.050 C 
HETATM   24  C4  UNL     1      -0.835  50.691 -25.604  1.00  0.00     0.024 C 
HETATM   25  C5  UNL     1       0.502  50.764 -26.357  1.00  0.00     0.013 C 
HETATM   26  C6  UNL     1       0.592  52.164 -26.962  1.00  0.00     0.039 C 
HETATM   27  C7  UNL     1      -0.481  53.018 -26.264  1.00  0.00     0.062 C 
HETATM   28  C8  UNL     1       0.044  54.406 -25.896  1.00  0.00     0.046 C 
BRANCH  24  29
HETATM   29  C2  UNL     1      -2.039  50.172 -26.396  1.00  0.00    -0.088 C 
HETATM   30  C1  UNL     1      -2.412  50.597 -27.616  1.00  0.00     0.014 C 
HETATM   31  C3  UNL     1      -2.814  49.066 -25.722  1.00  0.00     0.043 C 
ENDBRANCH  24  29
BRANCH  27  32
HETATM   32  O1  UNL     1      -1.566  53.237 -27.181  1.00  0.00    -0.390 OA
HETATM   33  H14 UNL     1      -1.210  53.684 -27.967  1.00  0.00     0.210 HD
ENDBRANCH  27  32
ENDBRANCH  22  23
ENDBRANCH  19  21
ENDBRANCH   1  18
BRANCH  15  34
HETATM   34  O4  UNL     1       1.068  53.335 -16.348  1.00  0.00    -0.389 OA
HETATM   35  H44 UNL     1       1.588  53.963 -15.818  1.00  0.00     0.210 HD
ENDBRANCH  15  34
BRANCH  11  36
HETATM   36  C26 UNL     1       2.112  47.495 -14.255  1.00  0.00     0.265 C 
HETATM   37  O3  UNL     1       3.208  47.071 -13.913  1.00  0.00    -0.302 OA
ENDBRANCH  11  36
TORSDOF 7
ENDMDL
MODEL 5
REMARK minimizedAffinity -6.93956041
REMARK CNNscore 0.371433824
REMARK CNNaffinity 5.37477922
REMARK  7 active torsions:
REMARK  status: ('A' for Active; 'I' for Inactive)
REMARK    1  A    between atoms: C2_2  and  C4_4 
REMARK    2  A    between atoms: C7_7  and  O1_9 
REMARK    3  A    between atoms: C9_10  and  C10_11 
REMARK    4  A    between atoms: C11_12  and  C12_13 
REMARK    5  A    between atoms: C14_15  and  C15_16 
REMARK    6  A    between atoms: C24_26  and  C26_28 
REMARK    7  A    between atoms: C29_32  and  O4_34 
ROOT
HETATM    1  C15 UNL     1     -13.336  44.087 -26.794  1.00  0.00     0.149 C 
HETATM    2  C16 UNL     1     -14.618  44.912 -26.690  1.00  0.00     0.054 C 
HETATM    3  C17 UNL     1     -15.168  44.613 -25.279  1.00  0.00     0.050 C 
HETATM    4  C18 UNL     1     -13.804  44.510 -24.547  1.00  0.00     0.272 C 
HETATM    5  O2  UNL     1     -13.211  45.767 -24.233  1.00  0.00    -0.360 OA
HETATM    6  C19 UNL     1     -13.613  46.298 -22.987  1.00  0.00     0.171 C 
HETATM    7  C20 UNL     1     -14.795  47.238 -23.149  1.00  0.00     0.027 C 
HETATM    8  C21 UNL     1     -15.525  47.126 -24.485  1.00  0.00     0.012 C 
HETATM    9  C22 UNL     1     -16.154  45.753 -24.813  1.00  0.00     0.032 C 
HETATM   10  C23 UNL     1     -17.148  45.314 -23.715  1.00  0.00    -0.066 C 
HETATM   11  C24 UNL     1     -18.362  45.881 -23.498  1.00  0.00    -0.021 C 
HETATM   12  C25 UNL     1     -19.318  45.462 -22.417  1.00  0.00     0.052 C 
HETATM   13  C27 UNL     1     -16.672  44.134 -22.904  1.00  0.00     0.038 C 
HETATM   14  C28 UNL     1     -16.398  42.911 -23.776  1.00  0.00     0.042 C 
HETATM   15  C29 UNL     1     -15.949  43.231 -25.223  1.00  0.00     0.067 C 
HETATM   16  C30 UNL     1     -17.171  43.178 -26.169  1.00  0.00     0.047 C 
HETATM   17  O5  UNL     1     -12.889  43.872 -25.453  1.00  0.00    -0.351 OA
ENDROOT
BRANCH   1  18
HETATM   18  C14 UNL     1     -12.274  44.756 -27.632  1.00  0.00     0.011 C 
HETATM   19  C12 UNL     1     -11.566  44.244 -28.663  1.00  0.00    -0.064 C 
HETATM   20  C13 UNL     1     -11.801  42.862 -29.218  1.00  0.00     0.048 C 
BRANCH  19  21
HETATM   21  C11 UNL     1     -10.544  45.082 -29.296  1.00  0.00     0.003 C 
HETATM   22  C10 UNL     1      -9.935  46.144 -28.743  1.00  0.00    -0.018 C 
BRANCH  22  23
HETATM   23  C9  UNL     1      -8.879  47.063 -29.347  1.00  0.00     0.050 C 
HETATM   24  C4  UNL     1      -8.353  46.686 -30.764  1.00  0.00     0.024 C 
HETATM   25  C5  UNL     1      -7.205  45.712 -30.453  1.00  0.00     0.013 C 
HETATM   26  C6  UNL     1      -6.580  46.176 -29.138  1.00  0.00     0.039 C 
HETATM   27  C7  UNL     1      -7.573  47.162 -28.498  1.00  0.00     0.062 C 
HETATM   28  C8  UNL     1      -7.725  46.923 -26.995  1.00  0.00     0.046 C 
BRANCH  24  29
HETATM   29  C2  UNL     1      -8.003  47.900 -31.631  1.00  0.00    -0.088 C 
HETATM   30  C1  UNL     1      -7.116  47.907 -32.641  1.00  0.00     0.014 C 
HETATM   31  C3  UNL     1      -8.773  49.157 -31.305  1.00  0.00     0.043 C 
ENDBRANCH  24  29
BRANCH  27  32
HETATM   32  O1  UNL     1      -7.053  48.495 -28.634  1.00  0.00    -0.390 OA
HETATM   33  H14 UNL     1      -6.186  48.527 -28.196  1.00  0.00     0.210 HD
ENDBRANCH  27  32
ENDBRANCH  22  23
ENDBRANCH  19  21
ENDBRANCH   1  18
BRANCH  15  34
HETATM   34  O4  UNL     1     -15.119  42.141 -25.637  1.00  0.00    -0.389 OA
HETATM   35  H44 UNL     1     -15.626  41.314 -25.562  1.00  0.00     0.210 HD
ENDBRANCH  15  34
BRANCH  11  36
HETATM   36  C26 UNL     1     -18.886  47.007 -24.330  1.00  0.00     0.265 C 
HETATM   37  O3  UNL     1     -19.784  46.889 -25.153  1.00  0.00    -0.302 OA
ENDBRANCH  11  36
TORSDOF 7
ENDMDL
MODEL 6
REMARK minimizedAffinity -7.74786711
REMARK CNNscore 0.348280668
REMARK CNNaffinity 5.9554925
REMARK  7 active torsions:
REMARK  status: ('A' for Active; 'I' for Inactive)
REMARK    1  A    between atoms: C2_2  and  C4_4 
REMARK    2  A    between atoms: C7_7  and  O1_9 
REMARK    3  A    between atoms: C9_10  and  C10_11 
REMARK    4  A    between atoms: C11_12  and  C12_13 
REMARK    5  A    between atoms: C14_15  and  C15_16 
REMARK    6  A    between atoms: C24_26  and  C26_28 
REMARK    7  A    between atoms: C29_32  and  O4_34 
ROOT
HETATM    1  C15 UNL     1      -6.913  47.699 -20.766  1.00  0.00     0.149 C 
HETATM    2  C16 UNL     1      -5.981  48.655 -20.024  1.00  0.00     0.054 C 
HETATM    3  C17 UNL     1      -4.730  48.766 -20.921  1.00  0.00     0.050 C 
HETATM    4  C18 UNL     1      -5.456  48.698 -22.290  1.00  0.00     0.272 C 
HETATM    5  O2  UNL     1      -6.061  49.924 -22.694  1.00  0.00    -0.360 OA
HETATM    6  C19 UNL     1      -5.199  50.779 -23.418  1.00  0.00     0.171 C 
HETATM    7  C20 UNL     1      -4.514  51.772 -22.496  1.00  0.00     0.027 C 
HETATM    8  C21 UNL     1      -4.577  51.419 -21.013  1.00  0.00     0.012 C 
HETATM    9  C22 UNL     1      -3.924  50.082 -20.594  1.00  0.00     0.032 C 
HETATM   10  C23 UNL     1      -2.438  50.029 -21.009  1.00  0.00    -0.066 C 
HETATM   11  C24 UNL     1      -1.447  50.756 -20.435  1.00  0.00    -0.021 C 
HETATM   12  C25 UNL     1      -0.004  50.714 -20.854  1.00  0.00     0.052 C 
HETATM   13  C27 UNL     1      -2.152  49.036 -22.108  1.00  0.00     0.038 C 
HETATM   14  C28 UNL     1      -2.560  47.616 -21.721  1.00  0.00     0.042 C 
HETATM   15  C29 UNL     1      -3.751  47.529 -20.735  1.00  0.00     0.067 C 
HETATM   16  C30 UNL     1      -3.219  47.378 -19.291  1.00  0.00     0.047 C 
HETATM   17  O5  UNL     1      -6.541  47.768 -22.145  1.00  0.00    -0.351 OA
ENDROOT
BRANCH   1  18
HETATM   18  C14 UNL     1      -8.373  48.030 -20.569  1.00  0.00     0.011 C 
HETATM   19  C12 UNL     1      -9.125  47.896 -19.454  1.00  0.00    -0.064 C 
HETATM   20  C13 UNL     1      -8.564  47.437 -18.132  1.00  0.00     0.048 C 
BRANCH  19  21
HETATM   21  C11 UNL     1     -10.547  48.244 -19.522  1.00  0.00     0.003 C 
HETATM   22  C10 UNL     1     -11.529  47.472 -20.015  1.00  0.00    -0.018 C 
BRANCH  22  23
HETATM   23  C9  UNL     1     -13.019  47.775 -20.127  1.00  0.00     0.050 C 
HETATM   24  C4  UNL     1     -13.917  47.321 -18.936  1.00  0.00     0.024 C 
HETATM   25  C5  UNL     1     -14.270  45.873 -19.312  1.00  0.00     0.013 C 
HETATM   26  C6  UNL     1     -14.362  45.823 -20.836  1.00  0.00     0.039 C 
HETATM   27  C7  UNL     1     -13.705  47.112 -21.362  1.00  0.00     0.062 C 
HETATM   28  C8  UNL     1     -12.805  46.841 -22.568  1.00  0.00     0.046 C 
BRANCH  24  29
HETATM   29  C2  UNL     1     -15.093  48.263 -18.661  1.00  0.00    -0.088 C 
HETATM   30  C1  UNL     1     -14.992  49.571 -18.371  1.00  0.00     0.014 C 
HETATM   31  C3  UNL     1     -16.457  47.626 -18.775  1.00  0.00     0.043 C 
ENDBRANCH  24  29
BRANCH  27  32
HETATM   32  O1  UNL     1     -14.735  47.998 -21.830  1.00  0.00    -0.390 OA
HETATM   33  H14 UNL     1     -15.233  47.540 -22.528  1.00  0.00     0.210 HD
ENDBRANCH  27  32
ENDBRANCH  22  23
ENDBRANCH  19  21
ENDBRANCH   1  18
BRANCH  15  34
HETATM   34  O4  UNL     1      -4.412  46.289 -21.011  1.00  0.00    -0.389 OA
HETATM   35  H44 UNL     1      -3.772  45.563 -20.913  1.00  0.00     0.210 HD
ENDBRANCH  15  34
BRANCH  11  36
HETATM   36  C26 UNL     1      -1.693  51.697 -19.299  1.00  0.00     0.265 C 
HETATM   37  O3  UNL     1      -0.869  52.503 -18.888  1.00  0.00    -0.302 OA
ENDBRANCH  11  36
TORSDOF 7
ENDMDL
MODEL 7
REMARK minimizedAffinity -8.85056973
REMARK CNNscore 0.301351547
REMARK CNNaffinity 6.01485062
REMARK  7 active torsions:
REMARK  status: ('A' for Active; 'I' for Inactive)
REMARK    1  A    between atoms: C2_2  and  C4_4 
REMARK    2  A    between atoms: C7_7  and  O1_9 
REMARK    3  A    between atoms: C9_10  and  C10_11 
REMARK    4  A    between atoms: C11_12  and  C12_13 
REMARK    5  A    between atoms: C14_15  and  C15_16 
REMARK    6  A    between atoms: C24_26  and  C26_28 
REMARK    7  A    between atoms: C29_32  and  O4_34 
ROOT
HETATM    1  C15 UNL     1      -7.913  47.106 -27.130  1.00  0.00     0.149 C 
HETATM    2  C16 UNL     1      -7.741  46.276 -28.402  1.00  0.00     0.054 C 
HETATM    3  C17 UNL     1      -8.995  46.582 -29.247  1.00  0.00     0.050 C 
HETATM    4  C18 UNL     1      -9.141  48.077 -28.860  1.00  0.00     0.272 C 
HETATM    5  O2  UNL     1      -8.255  48.950 -29.554  1.00  0.00    -0.360 OA
HETATM    6  C19 UNL     1      -8.761  49.426 -30.785  1.00  0.00     0.171 C 
HETATM    7  C20 UNL     1      -8.310  48.546 -31.938  1.00  0.00     0.027 C 
HETATM    8  C21 UNL     1      -7.764  47.181 -31.527  1.00  0.00     0.012 C 
HETATM    9  C22 UNL     1      -8.736  46.250 -30.768  1.00  0.00     0.032 C 
HETATM   10  C23 UNL     1     -10.023  45.997 -31.584  1.00  0.00    -0.066 C 
HETATM   11  C24 UNL     1     -10.090  45.241 -32.709  1.00  0.00    -0.021 C 
HETATM   12  C25 UNL     1     -11.341  45.012 -33.510  1.00  0.00     0.052 C 
HETATM   13  C27 UNL     1     -11.253  46.635 -30.988  1.00  0.00     0.038 C 
HETATM   14  C28 UNL     1     -11.521  46.148 -29.566  1.00  0.00     0.042 C 
HETATM   15  C29 UNL     1     -10.257  45.744 -28.768  1.00  0.00     0.067 C 
HETATM   16  C30 UNL     1     -10.051  44.215 -28.861  1.00  0.00     0.047 C 
HETATM   17  O5  UNL     1      -8.780  48.189 -27.475  1.00  0.00    -0.351 OA
ENDROOT
BRANCH   1  18
HETATM   18  C14 UNL     1      -6.601  47.602 -26.571  1.00  0.00     0.011 C 
HETATM   19  C12 UNL     1      -5.468  47.918 -27.234  1.00  0.00    -0.064 C 
HETATM   20  C13 UNL     1      -5.358  47.894 -28.738  1.00  0.00     0.048 C 
BRANCH  19  21
HETATM   21  C11 UNL     1      -4.296  48.337 -26.460  1.00  0.00     0.003 C 
HETATM   22  C10 UNL     1      -4.283  48.667 -25.158  1.00  0.00    -0.018 C 
BRANCH  22  23
HETATM   23  C9  UNL     1      -3.109  49.121 -24.298  1.00  0.00     0.050 C 
HETATM   24  C4  UNL     1      -3.334  49.129 -22.755  1.00  0.00     0.024 C 
HETATM   25  C5  UNL     1      -3.943  50.519 -22.508  1.00  0.00     0.013 C 
HETATM   26  C6  UNL     1      -3.310  51.464 -23.530  1.00  0.00     0.039 C 
HETATM   27  C7  UNL     1      -2.638  50.580 -24.595  1.00  0.00     0.062 C 
HETATM   28  C8  UNL     1      -2.898  51.096 -26.011  1.00  0.00     0.046 C 
BRANCH  24  29
HETATM   29  C2  UNL     1      -2.078  48.779 -21.951  1.00  0.00    -0.088 C 
HETATM   30  C1  UNL     1      -1.283  49.663 -21.324  1.00  0.00     0.014 C 
HETATM   31  C3  UNL     1      -1.775  47.304 -21.856  1.00  0.00     0.043 C 
ENDBRANCH  24  29
BRANCH  27  32
HETATM   32  O1  UNL     1      -1.214  50.635 -24.410  1.00  0.00    -0.390 OA
HETATM   33  H14 UNL     1      -0.936  51.562 -24.489  1.00  0.00     0.210 HD
ENDBRANCH  27  32
ENDBRANCH  22  23
ENDBRANCH  19  21
ENDBRANCH   1  18
BRANCH  15  34
HETATM   34  O4  UNL     1     -10.556  45.989 -27.389  1.00  0.00    -0.389 OA
HETATM   35  H44 UNL     1     -11.349  45.480 -27.144  1.00  0.00     0.210 HD
ENDBRANCH  15  34
BRANCH  11  36
HETATM   36  C26 UNL     1      -8.899  44.542 -33.283  1.00  0.00     0.265 C 
HETATM   37  O3  UNL     1      -8.575  44.597 -34.461  1.00  0.00    -0.302 OA
ENDBRANCH  11  36
TORSDOF 7
ENDMDL
MODEL 8
REMARK minimizedAffinity -7.72250223
REMARK CNNscore 0.277063251
REMARK CNNaffinity 5.81750441
REMARK  7 active torsions:
REMARK  status: ('A' for Active; 'I' for Inactive)
REMARK    1  A    between atoms: C2_2  and  C4_4 
REMARK    2  A    between atoms: C7_7  and  O1_9 
REMARK    3  A    between atoms: C9_10  and  C10_11 
REMARK    4  A    between atoms: C11_12  and  C12_13 
REMARK    5  A    between atoms: C14_15  and  C15_16 
REMARK    6  A    between atoms: C24_26  and  C26_28 
REMARK    7  A    between atoms: C29_32  and  O4_34 
ROOT
HETATM    1  C15 UNL     1      -6.745  48.869 -19.545  1.00  0.00     0.149 C 
HETATM    2  C16 UNL     1      -6.152  50.051 -20.311  1.00  0.00     0.054 C 
HETATM    3  C17 UNL     1      -4.902  49.482 -21.013  1.00  0.00     0.050 C 
HETATM    4  C18 UNL     1      -5.471  48.075 -21.331  1.00  0.00     0.272 C 
HETATM    5  O2  UNL     1      -6.333  48.034 -22.465  1.00  0.00    -0.360 OA
HETATM    6  C19 UNL     1      -5.662  47.821 -23.691  1.00  0.00     0.171 C 
HETATM    7  C20 UNL     1      -5.331  49.138 -24.369  1.00  0.00     0.027 C 
HETATM    8  C21 UNL     1      -5.424  50.366 -23.467  1.00  0.00     0.012 C 
HETATM    9  C22 UNL     1      -4.489  50.389 -22.237  1.00  0.00     0.032 C 
HETATM   10  C23 UNL     1      -3.009  50.245 -22.654  1.00  0.00    -0.066 C 
HETATM   11  C24 UNL     1      -2.287  51.202 -23.290  1.00  0.00    -0.021 C 
HETATM   12  C25 UNL     1      -0.852  51.051 -23.710  1.00  0.00     0.052 C 
HETATM   13  C27 UNL     1      -2.389  48.933 -22.243  1.00  0.00     0.038 C 
HETATM   14  C28 UNL     1      -2.452  48.715 -20.734  1.00  0.00     0.042 C 
HETATM   15  C29 UNL     1      -3.658  49.384 -20.029  1.00  0.00     0.067 C 
HETATM   16  C30 UNL     1      -3.227  50.749 -19.447  1.00  0.00     0.047 C 
HETATM   17  O5  UNL     1      -6.290  47.691 -20.216  1.00  0.00    -0.351 OA
ENDROOT
BRANCH   1  18
HETATM   18  C14 UNL     1      -8.252  48.916 -19.467  1.00  0.00     0.011 C 
HETATM   19  C12 UNL     1      -9.069  48.321 -18.570  1.00  0.00    -0.064 C 
HETATM   20  C13 UNL     1      -8.562  47.532 -17.389  1.00  0.00     0.048 C 
BRANCH  19  21
HETATM   21  C11 UNL     1     -10.517  48.475 -18.730  1.00  0.00     0.003 C 
HETATM   22  C10 UNL     1     -11.280  47.877 -19.660  1.00  0.00    -0.018 C 
BRANCH  22  23
HETATM   23  C9  UNL     1     -12.782  48.002 -19.890  1.00  0.00     0.050 C 
HETATM   24  C4  UNL     1     -13.709  47.523 -18.733  1.00  0.00     0.024 C 
HETATM   25  C5  UNL     1     -13.875  46.024 -19.030  1.00  0.00     0.013 C 
HETATM   26  C6  UNL     1     -13.850  45.871 -20.550  1.00  0.00     0.039 C 
HETATM   27  C7  UNL     1     -13.300  47.191 -21.119  1.00  0.00     0.062 C 
HETATM   28  C8  UNL     1     -12.290  46.951 -22.242  1.00  0.00     0.046 C 
BRANCH  24  29
HETATM   29  C2  UNL     1     -14.998  48.341 -18.601  1.00  0.00    -0.088 C 
HETATM   30  C1  UNL     1     -15.061  49.666 -18.385  1.00  0.00     0.014 C 
HETATM   31  C3  UNL     1     -16.273  47.551 -18.771  1.00  0.00     0.043 C 
ENDBRANCH  24  29
BRANCH  27  32
HETATM   32  O1  UNL     1     -14.383  47.926 -21.713  1.00  0.00    -0.390 OA
HETATM   33  H14 UNL     1     -14.776  47.373 -22.409  1.00  0.00     0.210 HD
ENDBRANCH  27  32
ENDBRANCH  22  23
ENDBRANCH  19  21
ENDBRANCH   1  18
BRANCH  15  34
HETATM   34  O4  UNL     1      -3.956  48.576 -18.885  1.00  0.00    -0.389 OA
HETATM   35  H44 UNL     1      -3.162  48.520 -18.326  1.00  0.00     0.210 HD
ENDBRANCH  15  34
BRANCH  11  36
HETATM   36  C26 UNL     1      -2.858  52.537 -23.648  1.00  0.00     0.265 C 
HETATM   37  O3  UNL     1      -2.932  52.965 -24.792  1.00  0.00    -0.302 OA
ENDBRANCH  11  36
TORSDOF 7
ENDMDL
MODEL 9
REMARK minimizedAffinity -7.0686574
REMARK CNNscore 0.274977386
REMARK CNNaffinity 5.78195381
REMARK  7 active torsions:
REMARK  status: ('A' for Active; 'I' for Inactive)
REMARK    1  A    between atoms: C2_2  and  C4_4 
REMARK    2  A    between atoms: C7_7  and  O1_9 
REMARK    3  A    between atoms: C9_10  and  C10_11 
REMARK    4  A    between atoms: C11_12  and  C12_13 
REMARK    5  A    between atoms: C14_15  and  C15_16 
REMARK    6  A    between atoms: C24_26  and  C26_28 
REMARK    7  A    between atoms: C29_32  and  O4_34 
ROOT
HETATM    1  C15 UNL     1      -5.209  47.057 -21.115  1.00  0.00     0.149 C 
HETATM    2  C16 UNL     1      -5.506  45.755 -21.858  1.00  0.00     0.054 C 
HETATM    3  C17 UNL     1      -6.918  45.344 -21.389  1.00  0.00     0.050 C 
HETATM    4  C18 UNL     1      -7.519  46.770 -21.282  1.00  0.00     0.272 C 
HETATM    5  O2  UNL     1      -7.914  47.334 -22.529  1.00  0.00    -0.360 OA
HETATM    6  C19 UNL     1      -9.239  47.020 -22.909  1.00  0.00     0.171 C 
HETATM    7  C20 UNL     1      -9.276  45.790 -23.799  1.00  0.00     0.027 C 
HETATM    8  C21 UNL     1      -8.001  44.951 -23.786  1.00  0.00     0.012 C 
HETATM    9  C22 UNL     1      -7.582  44.355 -22.424  1.00  0.00     0.032 C 
HETATM   10  C23 UNL     1      -8.705  43.481 -21.824  1.00  0.00    -0.066 C 
HETATM   11  C24 UNL     1      -9.081  42.268 -22.302  1.00  0.00    -0.021 C 
HETATM   12  C25 UNL     1     -10.187  41.428 -21.727  1.00  0.00     0.052 C 
HETATM   13  C27 UNL     1      -9.344  44.076 -20.594  1.00  0.00     0.038 C 
HETATM   14  C28 UNL     1      -8.328  44.324 -19.482  1.00  0.00     0.042 C 
HETATM   15  C29 UNL     1      -6.891  44.630 -19.970  1.00  0.00     0.067 C 
HETATM   16  C30 UNL     1      -6.049  43.334 -19.951  1.00  0.00     0.047 C 
HETATM   17  O5  UNL     1      -6.479  47.629 -20.788  1.00  0.00    -0.351 OA
ENDROOT
BRANCH   1  18
HETATM   18  C14 UNL     1      -4.362  48.013 -21.921  1.00  0.00     0.011 C 
HETATM   19  C12 UNL     1      -3.015  48.079 -22.005  1.00  0.00    -0.064 C 
HETATM   20  C13 UNL     1      -2.096  47.097 -21.325  1.00  0.00     0.048 C 
BRANCH  19  21
HETATM   21  C11 UNL     1      -2.416  49.136 -22.825  1.00  0.00     0.003 C 
HETATM   22  C10 UNL     1      -2.911  49.625 -23.974  1.00  0.00    -0.018 C 
BRANCH  22  23
HETATM   23  C9  UNL     1      -2.336  50.709 -24.879  1.00  0.00     0.050 C 
HETATM   24  C4  UNL     1      -0.857  51.126 -24.617  1.00  0.00     0.024 C 
HETATM   25  C5  UNL     1      -0.998  52.216 -23.544  1.00  0.00     0.013 C 
HETATM   26  C6  UNL     1      -2.310  52.947 -23.827  1.00  0.00     0.039 C 
HETATM   27  C7  UNL     1      -3.106  52.064 -24.805  1.00  0.00     0.062 C 
HETATM   28  C8  UNL     1      -4.584  51.980 -24.422  1.00  0.00     0.046 C 
BRANCH  24  29
HETATM   29  C2  UNL     1      -0.095  51.512 -25.889  1.00  0.00    -0.088 C 
HETATM   30  C1  UNL     1      -0.271  50.958 -27.101  1.00  0.00     0.014 C 
HETATM   31  C3  UNL     1       0.897  52.637 -25.719  1.00  0.00     0.043 C 
ENDBRANCH  24  29
BRANCH  27  32
HETATM   32  O1  UNL     1      -3.070  52.670 -26.108  1.00  0.00    -0.390 OA
HETATM   33  H14 UNL     1      -3.453  53.560 -26.037  1.00  0.00     0.210 HD
ENDBRANCH  27  32
ENDBRANCH  22  23
ENDBRANCH  19  21
ENDBRANCH   1  18
BRANCH  15  34
HETATM   34  O4  UNL     1      -6.296  45.467 -18.972  1.00  0.00    -0.389 OA
HETATM   35  H44 UNL     1      -6.325  45.005 -18.117  1.00  0.00     0.210 HD
ENDBRANCH  15  34
BRANCH  11  36
HETATM   36  C26 UNL     1      -8.419  41.625 -23.479  1.00  0.00     0.265 C 
HETATM   37  O3  UNL     1      -7.624  40.699 -23.394  1.00  0.00    -0.302 OA
ENDBRANCH  11  36
TORSDOF 7
ENDMDL
