MODEL 1
REMARK minimizedAffinity -9.9301033
REMARK  7 active torsions:
REMARK  status: ('A' for Active; 'I' for Inactive)
REMARK    1  A    between atoms: C2_2  and  C30_34 
REMARK    2  A    between atoms: C3_3  and  C4_4 
REMARK    3  A    between atoms: C4_4  and  C5_5 
REMARK    4  A    between atoms: C5_5  and  C6_6 
REMARK    5  A    between atoms: C6_6  and  C8_8 
REMARK    6  A    between atoms: C15_16  and  O2_17 
REMARK    7  A    between atoms: C30_34  and  O6_36 
ROOT
HETATM    1  C8  UNL     1      -1.498   6.027  12.281  1.00  0.00     0.006 C 
HETATM    2  C9  UNL     1      -1.442   6.479  13.760  1.00  0.00     0.085 C 
HETATM    3  C10 UNL     1      -0.270   7.458  13.789  1.00  0.00     0.141 C 
HETATM    4  O1  UNL     1       0.177   7.906  14.833  1.00  0.00    -0.297 OA
HETATM    5  C11 UNL     1       0.245   7.746  12.370  1.00  0.00     0.055 C 
HETATM    6  C12 UNL     1      -0.641   8.892  11.815  1.00  0.00     0.030 C 
HETATM    7  C13 UNL     1       1.679   8.106  12.080  1.00  0.00     0.010 C 
HETATM    8  C14 UNL     1       2.329   7.720  10.952  1.00  0.00    -0.032 C 
HETATM    9  C15 UNL     1       1.559   6.895   9.897  1.00  0.00     0.149 C 
HETATM   10  C16 UNL     1       0.151   6.364  10.278  1.00  0.00     0.047 C 
HETATM   11  C17 UNL     1      -0.041   6.303  11.793  1.00  0.00    -0.018 C 
HETATM   12  C18 UNL     1       0.924   5.207  12.356  1.00  0.00     0.017 C 
HETATM   13  C19 UNL     1       3.854   8.027  10.690  1.00  0.00    -0.012 C 
HETATM   14  C20 UNL     1       4.005   8.616   9.269  1.00  0.00     0.021 C 
HETATM   15  C21 UNL     1       4.608   6.671  10.789  1.00  0.00     0.021 C 
HETATM   16  C22 UNL     1       6.116   6.781  10.664  1.00  0.00     0.080 C 
HETATM   17  C23 UNL     1       6.670   7.697  11.723  1.00  0.00     0.135 C 
HETATM   18  O3  UNL     1       7.628   7.338  12.411  1.00  0.00    -0.297 OA
HETATM   19  C24 UNL     1       6.075   9.106  11.818  1.00  0.00     0.018 C 
HETATM   20  C25 UNL     1       6.569   9.758  13.134  1.00  0.00     0.023 C 
HETATM   21  C26 UNL     1       6.694   9.952  10.684  1.00  0.00     0.023 C 
HETATM   22  C27 UNL     1       4.490   9.044  11.743  1.00  0.00     0.020 C 
HETATM   23  C28 UNL     1       3.871   8.792  13.131  1.00  0.00     0.090 C 
HETATM   24  C29 UNL     1       2.392   8.991  13.024  1.00  0.00     0.157 C 
HETATM   25  O4  UNL     1       1.811   9.888  13.624  1.00  0.00    -0.293 OA
ENDROOT
BRANCH   1  26
HETATM   26  C6  UNL     1      -2.084   4.614  11.993  1.00  0.00    -0.013 C 
HETATM   27  C7  UNL     1      -1.073   3.464  11.942  1.00  0.00     0.010 C 
BRANCH  26  28
HETATM   28  C5  UNL     1      -3.241   4.265  12.969  1.00  0.00     0.008 C 
BRANCH  28  29
HETATM   29  C4  UNL     1      -4.540   5.045  12.756  1.00  0.00     0.028 C 
BRANCH  29  30
HETATM   30  C3  UNL     1      -5.743   4.168  12.974  1.00  0.00    -0.013 C 
HETATM   31  C2  UNL     1      -6.177   3.189  12.151  1.00  0.00     0.008 C 
HETATM   32  C1  UNL     1      -5.559   2.872  10.820  1.00  0.00     0.055 C 
BRANCH  31  33
HETATM   33  C30 UNL     1      -7.350   2.349  12.510  1.00  0.00     0.171 C 
HETATM   34  O5  UNL     1      -8.404   2.763  12.957  1.00  0.00    -0.646 OA
BRANCH  33  35
HETATM   35  O6  UNL     1      -7.166   1.035  12.299  1.00  0.00    -0.773 OA
HETATM   36  H42 UNL     1      -8.018   0.639  12.575  1.00  0.00     0.167 HD
ENDBRANCH  33  35
ENDBRANCH  31  33
ENDBRANCH  29  30
ENDBRANCH  28  29
ENDBRANCH  26  28
ENDBRANCH   1  26
BRANCH   9  37
HETATM   37  O2  UNL     1       1.381   7.703   8.737  1.00  0.00    -0.391 OA
HETATM   38  H20 UNL     1       1.020   7.138   8.035  1.00  0.00     0.210 HD
ENDBRANCH   9  37
TORSDOF 7
ENDMDL
MODEL 2
REMARK minimizedAffinity -9.47961712
REMARK  7 active torsions:
REMARK  status: ('A' for Active; 'I' for Inactive)
REMARK    1  A    between atoms: C2_2  and  C30_34 
REMARK    2  A    between atoms: C3_3  and  C4_4 
REMARK    3  A    between atoms: C4_4  and  C5_5 
REMARK    4  A    between atoms: C5_5  and  C6_6 
REMARK    5  A    between atoms: C6_6  and  C8_8 
REMARK    6  A    between atoms: C15_16  and  O2_17 
REMARK    7  A    between atoms: C30_34  and  O6_36 
ROOT
HETATM    1  C8  UNL     1      -2.221   7.375  14.605  1.00  0.00     0.006 C 
HETATM    2  C9  UNL     1      -1.579   7.680  15.979  1.00  0.00     0.085 C 
HETATM    3  C10 UNL     1      -0.220   8.274  15.614  1.00  0.00     0.141 C 
HETATM    4  O1  UNL     1       0.640   8.496  16.453  1.00  0.00    -0.297 OA
HETATM    5  C11 UNL     1      -0.107   8.506  14.099  1.00  0.00     0.055 C 
HETATM    6  C12 UNL     1      -0.739   9.897  13.828  1.00  0.00     0.030 C 
HETATM    7  C13 UNL     1       1.206   8.458  13.362  1.00  0.00     0.010 C 
HETATM    8  C14 UNL     1       1.330   7.985  12.095  1.00  0.00    -0.032 C 
HETATM    9  C15 UNL     1       0.063   7.498  11.356  1.00  0.00     0.149 C 
HETATM   10  C16 UNL     1      -1.249   7.369  12.175  1.00  0.00     0.047 C 
HETATM   11  C17 UNL     1      -0.972   7.254  13.675  1.00  0.00    -0.018 C 
HETATM   12  C18 UNL     1      -0.252   5.887  13.927  1.00  0.00     0.017 C 
HETATM   13  C19 UNL     1       2.718   7.857  11.356  1.00  0.00    -0.012 C 
HETATM   14  C20 UNL     1       2.590   8.481   9.948  1.00  0.00     0.021 C 
HETATM   15  C21 UNL     1       3.027   6.338  11.242  1.00  0.00     0.021 C 
HETATM   16  C22 UNL     1       4.384   6.018  10.642  1.00  0.00     0.080 C 
HETATM   17  C23 UNL     1       5.483   6.653  11.451  1.00  0.00     0.135 C 
HETATM   18  O3  UNL     1       6.455   5.983  11.807  1.00  0.00    -0.297 OA
HETATM   19  C24 UNL     1       5.394   8.163  11.698  1.00  0.00     0.018 C 
HETATM   20  C25 UNL     1       6.441   8.546  12.775  1.00  0.00     0.023 C 
HETATM   21  C26 UNL     1       5.854   8.876  10.408  1.00  0.00     0.023 C 
HETATM   22  C27 UNL     1       3.920   8.567  12.130  1.00  0.00     0.020 C 
HETATM   23  C28 UNL     1       3.715   8.402  13.649  1.00  0.00     0.090 C 
HETATM   24  C29 UNL     1       2.404   9.027  14.012  1.00  0.00     0.157 C 
HETATM   25  O4  UNL     1       2.331  10.006  14.745  1.00  0.00    -0.293 OA
ENDROOT
BRANCH   1  26
HETATM   26  C6  UNL     1      -3.259   6.217  14.549  1.00  0.00    -0.013 C 
HETATM   27  C7  UNL     1      -4.256   6.150  15.711  1.00  0.00     0.010 C 
BRANCH  26  28
HETATM   28  C5  UNL     1      -4.015   6.191  13.193  1.00  0.00     0.008 C 
BRANCH  28  29
HETATM   29  C4  UNL     1      -4.247   4.802  12.594  1.00  0.00     0.028 C 
BRANCH  29  30
HETATM   30  C3  UNL     1      -5.660   4.339  12.826  1.00  0.00    -0.013 C 
HETATM   31  C2  UNL     1      -6.209   3.192  12.370  1.00  0.00     0.008 C 
HETATM   32  C1  UNL     1      -5.502   2.219  11.471  1.00  0.00     0.055 C 
BRANCH  31  33
HETATM   33  C30 UNL     1      -7.605   2.819  12.720  1.00  0.00     0.171 C 
HETATM   34  O5  UNL     1      -8.473   3.592  13.081  1.00  0.00    -0.646 OA
BRANCH  33  35
HETATM   35  O6  UNL     1      -7.864   1.505  12.605  1.00  0.00    -0.773 OA
HETATM   36  H42 UNL     1      -8.807   1.436  12.860  1.00  0.00     0.167 HD
ENDBRANCH  33  35
ENDBRANCH  31  33
ENDBRANCH  29  30
ENDBRANCH  28  29
ENDBRANCH  26  28
ENDBRANCH   1  26
BRANCH   9  37
HETATM   37  O2  UNL     1      -0.215   8.406  10.295  1.00  0.00    -0.391 OA
HETATM   38  H20 UNL     1      -0.927   8.023   9.756  1.00  0.00     0.210 HD
ENDBRANCH   9  37
TORSDOF 7
ENDMDL
MODEL 3
REMARK minimizedAffinity -9.27082253
REMARK  7 active torsions:
REMARK  status: ('A' for Active; 'I' for Inactive)
REMARK    1  A    between atoms: C2_2  and  C30_34 
REMARK    2  A    between atoms: C3_3  and  C4_4 
REMARK    3  A    between atoms: C4_4  and  C5_5 
REMARK    4  A    between atoms: C5_5  and  C6_6 
REMARK    5  A    between atoms: C6_6  and  C8_8 
REMARK    6  A    between atoms: C15_16  and  O2_17 
REMARK    7  A    between atoms: C30_34  and  O6_36 
ROOT
HETATM    1  C8  UNL     1      -4.954   6.234  13.528  1.00  0.00     0.006 C 
HETATM    2  C9  UNL     1      -5.774   7.150  14.468  1.00  0.00     0.085 C 
HETATM    3  C10 UNL     1      -4.827   8.315  14.747  1.00  0.00     0.141 C 
HETATM    4  O1  UNL     1      -5.075   9.169  15.583  1.00  0.00    -0.297 OA
HETATM    5  C11 UNL     1      -3.565   8.223  13.873  1.00  0.00     0.055 C 
HETATM    6  C12 UNL     1      -3.926   8.897  12.523  1.00  0.00     0.030 C 
HETATM    7  C13 UNL     1      -2.231   8.771  14.306  1.00  0.00     0.010 C 
HETATM    8  C14 UNL     1      -1.048   8.186  13.988  1.00  0.00    -0.032 C 
HETATM    9  C15 UNL     1      -1.061   6.911  13.115  1.00  0.00     0.149 C 
HETATM   10  C16 UNL     1      -2.432   6.242  12.830  1.00  0.00     0.047 C 
HETATM   11  C17 UNL     1      -3.485   6.645  13.863  1.00  0.00    -0.018 C 
HETATM   12  C18 UNL     1      -3.063   6.036  15.242  1.00  0.00     0.017 C 
HETATM   13  C19 UNL     1       0.343   8.715  14.513  1.00  0.00    -0.012 C 
HETATM   14  C20 UNL     1       1.318   8.818  13.318  1.00  0.00     0.021 C 
HETATM   15  C21 UNL     1       0.863   7.668  15.537  1.00  0.00     0.021 C 
HETATM   16  C22 UNL     1       2.155   8.058  16.232  1.00  0.00     0.080 C 
HETATM   17  C23 UNL     1       1.993   9.369  16.952  1.00  0.00     0.135 C 
HETATM   18  O3  UNL     1       2.351   9.477  18.128  1.00  0.00    -0.297 OA
HETATM   19  C24 UNL     1       1.488  10.564  16.137  1.00  0.00     0.018 C 
HETATM   20  C25 UNL     1       1.121  11.707  17.118  1.00  0.00     0.023 C 
HETATM   21  C26 UNL     1       2.675  11.101  15.308  1.00  0.00     0.023 C 
HETATM   22  C27 UNL     1       0.254  10.136  15.234  1.00  0.00     0.020 C 
HETATM   23  C28 UNL     1      -1.072  10.228  16.014  1.00  0.00     0.090 C 
HETATM   24  C29 UNL     1      -2.197  10.052  15.042  1.00  0.00     0.157 C 
HETATM   25  O4  UNL     1      -3.001  10.946  14.808  1.00  0.00    -0.293 OA
ENDROOT
BRANCH   1  26
HETATM   26  C6  UNL     1      -5.285   4.714  13.554  1.00  0.00    -0.013 C 
HETATM   27  C7  UNL     1      -6.612   4.303  12.906  1.00  0.00     0.010 C 
BRANCH  26  28
HETATM   28  C5  UNL     1      -4.122   3.865  12.974  1.00  0.00     0.008 C 
BRANCH  28  29
HETATM   29  C4  UNL     1      -4.053   3.798  11.446  1.00  0.00     0.028 C 
BRANCH  29  30
HETATM   30  C3  UNL     1      -2.721   3.273  10.984  1.00  0.00    -0.013 C 
HETATM   31  C2  UNL     1      -2.290   1.997  11.076  1.00  0.00     0.008 C 
HETATM   32  C1  UNL     1      -3.060   0.893  11.743  1.00  0.00     0.055 C 
BRANCH  31  33
HETATM   33  C30 UNL     1      -0.970   1.592  10.525  1.00  0.00     0.171 C 
HETATM   34  O5  UNL     1       0.105   1.762  11.071  1.00  0.00    -0.646 OA
BRANCH  33  35
HETATM   35  O6  UNL     1      -1.039   0.994   9.323  1.00  0.00    -0.773 OA
HETATM   36  H42 UNL     1      -0.103   0.791   9.116  1.00  0.00     0.167 HD
ENDBRANCH  33  35
ENDBRANCH  31  33
ENDBRANCH  29  30
ENDBRANCH  28  29
ENDBRANCH  26  28
ENDBRANCH   1  26
BRANCH   9  37
HETATM   37  O2  UNL     1      -0.500   7.230  11.845  1.00  0.00    -0.391 OA
HETATM   38  H20 UNL     1      -0.388   6.400  11.353  1.00  0.00     0.210 HD
ENDBRANCH   9  37
TORSDOF 7
ENDMDL
MODEL 4
REMARK minimizedAffinity -9.20867729
REMARK  7 active torsions:
REMARK  status: ('A' for Active; 'I' for Inactive)
REMARK    1  A    between atoms: C2_2  and  C30_34 
REMARK    2  A    between atoms: C3_3  and  C4_4 
REMARK    3  A    between atoms: C4_4  and  C5_5 
REMARK    4  A    between atoms: C5_5  and  C6_6 
REMARK    5  A    between atoms: C6_6  and  C8_8 
REMARK    6  A    between atoms: C15_16  and  O2_17 
REMARK    7  A    between atoms: C30_34  and  O6_36 
ROOT
HETATM    1  C8  UNL     1      -1.356   5.899  12.598  1.00  0.00     0.006 C 
HETATM    2  C9  UNL     1      -0.379   6.676  11.683  1.00  0.00     0.085 C 
HETATM    3  C10 UNL     1      -0.039   7.920  12.501  1.00  0.00     0.141 C 
HETATM    4  O1  UNL     1       0.593   8.854  12.032  1.00  0.00    -0.297 OA
HETATM    5  C11 UNL     1      -0.618   7.824  13.922  1.00  0.00     0.055 C 
HETATM    6  C12 UNL     1       0.427   7.041  14.760  1.00  0.00     0.030 C 
HETATM    7  C13 UNL     1      -1.021   9.034  14.723  1.00  0.00     0.010 C 
HETATM    8  C14 UNL     1      -2.076   9.042  15.577  1.00  0.00    -0.032 C 
HETATM    9  C15 UNL     1      -2.890   7.743  15.765  1.00  0.00     0.149 C 
HETATM   10  C16 UNL     1      -2.597   6.559  14.805  1.00  0.00     0.047 C 
HETATM   11  C17 UNL     1      -1.921   7.028  13.516  1.00  0.00    -0.018 C 
HETATM   12  C18 UNL     1      -2.955   7.894  12.720  1.00  0.00     0.017 C 
HETATM   13  C19 UNL     1      -2.547  10.334  16.351  1.00  0.00    -0.012 C 
HETATM   14  C20 UNL     1      -2.737   9.978  17.843  1.00  0.00     0.021 C 
HETATM   15  C21 UNL     1      -3.904  10.761  15.726  1.00  0.00     0.021 C 
HETATM   16  C22 UNL     1      -4.469  12.057  16.279  1.00  0.00     0.080 C 
HETATM   17  C23 UNL     1      -3.494  13.186  16.082  1.00  0.00     0.135 C 
HETATM   18  O3  UNL     1      -3.872  14.251  15.588  1.00  0.00    -0.297 OA
HETATM   19  C24 UNL     1      -2.073  12.993  16.623  1.00  0.00     0.018 C 
HETATM   20  C25 UNL     1      -1.177  14.127  16.063  1.00  0.00     0.023 C 
HETATM   21  C26 UNL     1      -2.118  13.224  18.150  1.00  0.00     0.023 C 
HETATM   22  C27 UNL     1      -1.524  11.554  16.236  1.00  0.00     0.020 C 
HETATM   23  C28 UNL     1      -0.888  11.554  14.833  1.00  0.00     0.090 C 
HETATM   24  C29 UNL     1      -0.183  10.248  14.642  1.00  0.00     0.157 C 
HETATM   25  O4  UNL     1       1.033  10.179  14.504  1.00  0.00    -0.293 OA
ENDROOT
BRANCH   1  26
HETATM   26  C6  UNL     1      -2.392   4.970  11.900  1.00  0.00    -0.013 C 
HETATM   27  C7  UNL     1      -1.826   3.978  10.879  1.00  0.00     0.010 C 
BRANCH  26  28
HETATM   28  C5  UNL     1      -3.279   4.225  12.934  1.00  0.00     0.008 C 
BRANCH  28  29
HETATM   29  C4  UNL     1      -4.741   4.026  12.526  1.00  0.00     0.028 C 
BRANCH  29  30
HETATM   30  C3  UNL     1      -5.666   4.809  13.418  1.00  0.00    -0.013 C 
HETATM   31  C2  UNL     1      -6.897   4.428  13.822  1.00  0.00     0.008 C 
HETATM   32  C1  UNL     1      -7.583   3.172  13.365  1.00  0.00     0.055 C 
BRANCH  31  33
HETATM   33  C30 UNL     1      -7.692   5.269  14.756  1.00  0.00     0.171 C 
HETATM   34  O5  UNL     1      -8.119   6.383  14.514  1.00  0.00    -0.646 OA
BRANCH  33  35
HETATM   35  O6  UNL     1      -7.924   4.692  15.947  1.00  0.00    -0.773 OA
HETATM   36  H42 UNL     1      -8.453   5.362  16.426  1.00  0.00     0.167 HD
ENDBRANCH  33  35
ENDBRANCH  31  33
ENDBRANCH  29  30
ENDBRANCH  28  29
ENDBRANCH  26  28
ENDBRANCH   1  26
BRANCH   9  37
HETATM   37  O2  UNL     1      -2.660   7.255  17.083  1.00  0.00    -0.391 OA
HETATM   38  H20 UNL     1      -3.276   6.519  17.238  1.00  0.00     0.210 HD
ENDBRANCH   9  37
TORSDOF 7
ENDMDL
MODEL 5
REMARK minimizedAffinity -9.13465595
REMARK  7 active torsions:
REMARK  status: ('A' for Active; 'I' for Inactive)
REMARK    1  A    between atoms: C2_2  and  C30_34 
REMARK    2  A    between atoms: C3_3  and  C4_4 
REMARK    3  A    between atoms: C4_4  and  C5_5 
REMARK    4  A    between atoms: C5_5  and  C6_6 
REMARK    5  A    between atoms: C6_6  and  C8_8 
REMARK    6  A    between atoms: C15_16  and  O2_17 
REMARK    7  A    between atoms: C30_34  and  O6_36 
ROOT
HETATM    1  C8  UNL     1      -2.183   7.150  14.510  1.00  0.00     0.006 C 
HETATM    2  C9  UNL     1      -1.543   7.414  15.894  1.00  0.00     0.085 C 
HETATM    3  C10 UNL     1      -0.184   8.019  15.549  1.00  0.00     0.141 C 
HETATM    4  O1  UNL     1       0.675   8.216  16.394  1.00  0.00    -0.297 OA
HETATM    5  C11 UNL     1      -0.070   8.297  14.041  1.00  0.00     0.055 C 
HETATM    6  C12 UNL     1      -0.702   9.695  13.811  1.00  0.00     0.030 C 
HETATM    7  C13 UNL     1       1.244   8.271  13.304  1.00  0.00     0.010 C 
HETATM    8  C14 UNL     1       1.370   7.837  12.024  1.00  0.00    -0.032 C 
HETATM    9  C15 UNL     1       0.105   7.372  11.270  1.00  0.00     0.149 C 
HETATM   10  C16 UNL     1      -1.208   7.218  12.083  1.00  0.00     0.047 C 
HETATM   11  C17 UNL     1      -0.934   7.058  13.578  1.00  0.00    -0.018 C 
HETATM   12  C18 UNL     1      -0.213   5.684  13.790  1.00  0.00     0.017 C 
HETATM   13  C19 UNL     1       2.759   7.732  11.283  1.00  0.00    -0.012 C 
HETATM   14  C20 UNL     1       2.633   8.399   9.894  1.00  0.00     0.021 C 
HETATM   15  C21 UNL     1       3.069   6.218  11.123  1.00  0.00     0.021 C 
HETATM   16  C22 UNL     1       4.427   5.916  10.516  1.00  0.00     0.080 C 
HETATM   17  C23 UNL     1       5.525   6.527  11.345  1.00  0.00     0.135 C 
HETATM   18  O3  UNL     1       6.496   5.847  11.682  1.00  0.00    -0.297 OA
HETATM   19  C24 UNL     1       5.434   8.029  11.638  1.00  0.00     0.018 C 
HETATM   20  C25 UNL     1       6.480   8.380  12.726  1.00  0.00     0.023 C 
HETATM   21  C26 UNL     1       5.895   8.781  10.370  1.00  0.00     0.023 C 
HETATM   22  C27 UNL     1       3.959   8.419  12.080  1.00  0.00     0.020 C 
HETATM   23  C28 UNL     1       3.753   8.208  13.592  1.00  0.00     0.090 C 
HETATM   24  C29 UNL     1       2.441   8.821  13.972  1.00  0.00     0.157 C 
HETATM   25  O4  UNL     1       2.367   9.778  14.735  1.00  0.00    -0.293 OA
ENDROOT
BRANCH   1  26
HETATM   26  C6  UNL     1      -3.220   5.993  14.418  1.00  0.00    -0.013 C 
HETATM   27  C7  UNL     1      -4.347   6.015  15.457  1.00  0.00     0.010 C 
BRANCH  26  28
HETATM   28  C5  UNL     1      -3.814   5.869  12.989  1.00  0.00     0.008 C 
BRANCH  28  29
HETATM   29  C4  UNL     1      -4.063   4.440  12.501  1.00  0.00     0.028 C 
BRANCH  29  30
HETATM   30  C3  UNL     1      -2.800   3.817  11.973  1.00  0.00    -0.013 C 
HETATM   31  C2  UNL     1      -2.639   2.527  11.606  1.00  0.00     0.008 C 
HETATM   32  C1  UNL     1      -3.698   1.472  11.748  1.00  0.00     0.055 C 
BRANCH  31  33
HETATM   33  C30 UNL     1      -1.350   2.046  11.041  1.00  0.00     0.171 C 
HETATM   34  O5  UNL     1      -0.291   2.645  11.087  1.00  0.00    -0.646 OA
BRANCH  33  35
HETATM   35  O6  UNL     1      -1.430   0.845  10.444  1.00  0.00    -0.773 OA
HETATM   36  H42 UNL     1      -0.513   0.680  10.141  1.00  0.00     0.167 HD
ENDBRANCH  33  35
ENDBRANCH  31  33
ENDBRANCH  29  30
ENDBRANCH  28  29
ENDBRANCH  26  28
ENDBRANCH   1  26
BRANCH   9  37
HETATM   37  O2  UNL     1      -0.174   8.312  10.236  1.00  0.00    -0.391 OA
HETATM   38  H20 UNL     1      -0.884   7.944   9.685  1.00  0.00     0.210 HD
ENDBRANCH   9  37
TORSDOF 7
ENDMDL
MODEL 6
REMARK minimizedAffinity -9.0778017
REMARK  7 active torsions:
REMARK  status: ('A' for Active; 'I' for Inactive)
REMARK    1  A    between atoms: C2_2  and  C30_34 
REMARK    2  A    between atoms: C3_3  and  C4_4 
REMARK    3  A    between atoms: C4_4  and  C5_5 
REMARK    4  A    between atoms: C5_5  and  C6_6 
REMARK    5  A    between atoms: C6_6  and  C8_8 
REMARK    6  A    between atoms: C15_16  and  O2_17 
REMARK    7  A    between atoms: C30_34  and  O6_36 
ROOT
HETATM    1  C8  UNL     1      -1.998   6.846  13.623  1.00  0.00     0.006 C 
HETATM    2  C9  UNL     1      -2.055   6.528  12.110  1.00  0.00     0.085 C 
HETATM    3  C10 UNL     1      -0.585   6.412  11.714  1.00  0.00     0.141 C 
HETATM    4  O1  UNL     1      -0.230   6.319  10.549  1.00  0.00    -0.297 OA
HETATM    5  C11 UNL     1       0.326   6.461  12.952  1.00  0.00     0.055 C 
HETATM    6  C12 UNL     1       0.402   5.008  13.488  1.00  0.00     0.030 C 
HETATM    7  C13 UNL     1       1.733   6.998  12.908  1.00  0.00     0.010 C 
HETATM    8  C14 UNL     1       2.302   7.677  13.937  1.00  0.00    -0.032 C 
HETATM    9  C15 UNL     1       1.483   7.889  15.230  1.00  0.00     0.149 C 
HETATM   10  C16 UNL     1      -0.022   7.508  15.205  1.00  0.00     0.047 C 
HETATM   11  C17 UNL     1      -0.572   7.463  13.780  1.00  0.00    -0.018 C 
HETATM   12  C18 UNL     1      -0.559   8.922  13.214  1.00  0.00     0.017 C 
HETATM   13  C19 UNL     1       3.745   8.310  13.858  1.00  0.00    -0.012 C 
HETATM   14  C20 UNL     1       4.536   7.902  15.121  1.00  0.00     0.021 C 
HETATM   15  C21 UNL     1       3.556   9.852  13.820  1.00  0.00     0.021 C 
HETATM   16  C22 UNL     1       4.843  10.637  13.640  1.00  0.00     0.080 C 
HETATM   17  C23 UNL     1       5.540  10.225  12.371  1.00  0.00     0.135 C 
HETATM   18  O3  UNL     1       5.932  11.082  11.575  1.00  0.00    -0.297 OA
HETATM   19  C24 UNL     1       5.838   8.734  12.182  1.00  0.00     0.018 C 
HETATM   20  C25 UNL     1       6.280   8.505  10.714  1.00  0.00     0.023 C 
HETATM   21  C26 UNL     1       7.076   8.392  13.040  1.00  0.00     0.023 C 
HETATM   22  C27 UNL     1       4.566   7.863  12.564  1.00  0.00     0.020 C 
HETATM   23  C28 UNL     1       3.601   7.725  11.371  1.00  0.00     0.090 C 
HETATM   24  C29 UNL     1       2.568   6.702  11.725  1.00  0.00     0.157 C 
HETATM   25  O4  UNL     1       2.467   5.641  11.120  1.00  0.00    -0.293 OA
ENDROOT
BRANCH   1  26
HETATM   26  C6  UNL     1      -3.186   7.653  14.223  1.00  0.00    -0.013 C 
HETATM   27  C7  UNL     1      -3.174   9.163  13.964  1.00  0.00     0.010 C 
BRANCH  26  28
HETATM   28  C5  UNL     1      -4.555   7.051  13.805  1.00  0.00     0.008 C 
BRANCH  28  29
HETATM   29  C4  UNL     1      -4.624   5.522  13.785  1.00  0.00     0.028 C 
BRANCH  29  30
HETATM   30  C3  UNL     1      -6.045   5.043  13.660  1.00  0.00    -0.013 C 
HETATM   31  C2  UNL     1      -6.461   3.940  13.000  1.00  0.00     0.008 C 
HETATM   32  C1  UNL     1      -5.557   3.046  12.201  1.00  0.00     0.055 C 
BRANCH  31  33
HETATM   33  C30 UNL     1      -7.893   3.541  13.001  1.00  0.00     0.171 C 
HETATM   34  O5  UNL     1      -8.316   2.430  12.737  1.00  0.00    -0.646 OA
BRANCH  33  35
HETATM   35  O6  UNL     1      -8.737   4.534  13.329  1.00  0.00    -0.773 OA
HETATM   36  H42 UNL     1      -9.617   4.107  13.289  1.00  0.00     0.167 HD
ENDBRANCH  33  35
ENDBRANCH  31  33
ENDBRANCH  29  30
ENDBRANCH  28  29
ENDBRANCH  26  28
ENDBRANCH   1  26
BRANCH   9  37
HETATM   37  O2  UNL     1       2.074   7.115  16.269  1.00  0.00    -0.391 OA
HETATM   38  H20 UNL     1       1.640   7.357  17.103  1.00  0.00     0.210 HD
ENDBRANCH   9  37
TORSDOF 7
ENDMDL
MODEL 7
REMARK minimizedAffinity -9.03935432
REMARK  7 active torsions:
REMARK  status: ('A' for Active; 'I' for Inactive)
REMARK    1  A    between atoms: C2_2  and  C30_34 
REMARK    2  A    between atoms: C3_3  and  C4_4 
REMARK    3  A    between atoms: C4_4  and  C5_5 
REMARK    4  A    between atoms: C5_5  and  C6_6 
REMARK    5  A    between atoms: C6_6  and  C8_8 
REMARK    6  A    between atoms: C15_16  and  O2_17 
REMARK    7  A    between atoms: C30_34  and  O6_36 
ROOT
HETATM    1  C8  UNL     1      -0.822   6.292  12.679  1.00  0.00     0.006 C 
HETATM    2  C9  UNL     1       0.288   7.060  11.922  1.00  0.00     0.085 C 
HETATM    3  C10 UNL     1       0.584   8.249  12.833  1.00  0.00     0.141 C 
HETATM    4  O1  UNL     1       1.306   9.171  12.487  1.00  0.00    -0.297 OA
HETATM    5  C11 UNL     1      -0.161   8.118  14.172  1.00  0.00     0.055 C 
HETATM    6  C12 UNL     1       0.745   7.249  15.084  1.00  0.00     0.030 C 
HETATM    7  C13 UNL     1      -0.602   9.310  14.981  1.00  0.00     0.010 C 
HETATM    8  C14 UNL     1      -1.748   9.331  15.709  1.00  0.00    -0.032 C 
HETATM    9  C15 UNL     1      -2.633   8.066  15.737  1.00  0.00     0.149 C 
HETATM   10  C16 UNL     1      -2.282   6.913  14.759  1.00  0.00     0.047 C 
HETATM   11  C17 UNL     1      -1.441   7.405  13.581  1.00  0.00    -0.018 C 
HETATM   12  C18 UNL     1      -2.336   8.354  12.716  1.00  0.00     0.017 C 
HETATM   13  C19 UNL     1      -2.249  10.609  16.487  1.00  0.00    -0.012 C 
HETATM   14  C20 UNL     1      -2.627  10.197  17.927  1.00  0.00     0.021 C 
HETATM   15  C21 UNL     1      -3.505  11.129  15.732  1.00  0.00     0.021 C 
HETATM   16  C22 UNL     1      -4.074  12.425  16.281  1.00  0.00     0.080 C 
HETATM   17  C23 UNL     1      -3.034  13.513  16.253  1.00  0.00     0.135 C 
HETATM   18  O3  UNL     1      -3.307  14.616  15.772  1.00  0.00    -0.297 OA
HETATM   19  C24 UNL     1      -1.696  13.228  16.942  1.00  0.00     0.018 C 
HETATM   20  C25 UNL     1      -0.693  14.340  16.545  1.00  0.00     0.023 C 
HETATM   21  C26 UNL     1      -1.909  13.393  18.463  1.00  0.00     0.023 C 
HETATM   22  C27 UNL     1      -1.168  11.782  16.550  1.00  0.00     0.020 C 
HETATM   23  C28 UNL     1      -0.374  11.813  15.230  1.00  0.00     0.090 C 
HETATM   24  C29 UNL     1       0.292  10.484  15.057  1.00  0.00     0.157 C 
HETATM   25  O4  UNL     1       1.511  10.362  15.056  1.00  0.00    -0.293 OA
ENDROOT
BRANCH   1  26
HETATM   26  C6  UNL     1      -1.809   5.446  11.822  1.00  0.00    -0.013 C 
HETATM   27  C7  UNL     1      -1.202   4.250  11.081  1.00  0.00     0.010 C 
BRANCH  26  28
HETATM   28  C5  UNL     1      -3.041   4.992  12.651  1.00  0.00     0.008 C 
BRANCH  28  29
HETATM   29  C4  UNL     1      -3.735   3.721  12.157  1.00  0.00     0.028 C 
BRANCH  29  30
HETATM   30  C3  UNL     1      -5.175   3.682  12.595  1.00  0.00    -0.013 C 
HETATM   31  C2  UNL     1      -6.108   2.794  12.192  1.00  0.00     0.008 C 
HETATM   32  C1  UNL     1      -5.870   1.733  11.156  1.00  0.00     0.055 C 
BRANCH  31  33
HETATM   33  C30 UNL     1      -7.487   2.826  12.747  1.00  0.00     0.171 C 
HETATM   34  O5  UNL     1      -8.002   3.778  13.304  1.00  0.00    -0.646 OA
BRANCH  33  35
HETATM   35  O6  UNL     1      -8.166   1.677  12.588  1.00  0.00    -0.773 OA
HETATM   36  H42 UNL     1      -9.036   1.869  12.995  1.00  0.00     0.167 HD
ENDBRANCH  33  35
ENDBRANCH  31  33
ENDBRANCH  29  30
ENDBRANCH  28  29
ENDBRANCH  26  28
ENDBRANCH   1  26
BRANCH   9  37
HETATM   37  O2  UNL     1      -2.580   7.509  17.047  1.00  0.00    -0.391 OA
HETATM   38  H20 UNL     1      -3.240   6.799  17.095  1.00  0.00     0.210 HD
ENDBRANCH   9  37
TORSDOF 7
ENDMDL
MODEL 8
REMARK minimizedAffinity -9.00964451
REMARK  7 active torsions:
REMARK  status: ('A' for Active; 'I' for Inactive)
REMARK    1  A    between atoms: C2_2  and  C30_34 
REMARK    2  A    between atoms: C3_3  and  C4_4 
REMARK    3  A    between atoms: C4_4  and  C5_5 
REMARK    4  A    between atoms: C5_5  and  C6_6 
REMARK    5  A    between atoms: C6_6  and  C8_8 
REMARK    6  A    between atoms: C15_16  and  O2_17 
REMARK    7  A    between atoms: C30_34  and  O6_36 
ROOT
HETATM    1  C8  UNL     1       1.683   6.978  10.422  1.00  0.00     0.006 C 
HETATM    2  C9  UNL     1       1.101   8.234   9.732  1.00  0.00     0.085 C 
HETATM    3  C10 UNL     1      -0.096   8.600  10.608  1.00  0.00     0.141 C 
HETATM    4  O1  UNL     1      -0.902   9.458  10.284  1.00  0.00    -0.297 OA
HETATM    5  C11 UNL     1      -0.135   7.735  11.879  1.00  0.00     0.055 C 
HETATM    6  C12 UNL     1       0.781   8.445  12.910  1.00  0.00     0.030 C 
HETATM    7  C13 UNL     1      -1.417   7.381  12.585  1.00  0.00     0.010 C 
HETATM    8  C14 UNL     1      -1.620   6.190  13.205  1.00  0.00    -0.032 C 
HETATM    9  C15 UNL     1      -0.475   5.153  13.214  1.00  0.00     0.149 C 
HETATM   10  C16 UNL     1       0.768   5.438  12.329  1.00  0.00     0.047 C 
HETATM   11  C17 UNL     1       0.451   6.430  11.209  1.00  0.00    -0.018 C 
HETATM   12  C18 UNL     1      -0.546   5.737  10.222  1.00  0.00     0.017 C 
HETATM   13  C19 UNL     1      -2.993   5.789  13.871  1.00  0.00    -0.012 C 
HETATM   14  C20 UNL     1      -2.715   5.243  15.290  1.00  0.00     0.021 C 
HETATM   15  C21 UNL     1      -3.615   4.677  12.982  1.00  0.00     0.021 C 
HETATM   16  C22 UNL     1      -5.001   4.231  13.413  1.00  0.00     0.080 C 
HETATM   17  C23 UNL     1      -5.952   5.397  13.427  1.00  0.00     0.135 C 
HETATM   18  O3  UNL     1      -7.048   5.307  12.870  1.00  0.00    -0.297 OA
HETATM   19  C24 UNL     1      -5.548   6.627  14.248  1.00  0.00     0.018 C 
HETATM   20  C25 UNL     1      -6.505   7.791  13.889  1.00  0.00     0.023 C 
HETATM   21  C26 UNL     1      -5.827   6.309  15.733  1.00  0.00     0.023 C 
HETATM   22  C27 UNL     1      -4.028   7.000  13.975  1.00  0.00     0.020 C 
HETATM   23  C28 UNL     1      -3.885   7.900  12.733  1.00  0.00     0.090 C 
HETATM   24  C29 UNL     1      -2.477   8.406  12.685  1.00  0.00     0.157 C 
HETATM   25  O4  UNL     1      -2.209   9.596  12.800  1.00  0.00    -0.293 OA
ENDROOT
BRANCH   1  26
HETATM   26  C6  UNL     1       2.453   5.968   9.522  1.00  0.00    -0.013 C 
HETATM   27  C7  UNL     1       2.516   6.310   8.029  1.00  0.00     0.010 C 
BRANCH  26  28
HETATM   28  C5  UNL     1       3.879   5.688  10.067  1.00  0.00     0.008 C 
BRANCH  28  29
HETATM   29  C4  UNL     1       4.326   6.575  11.231  1.00  0.00     0.028 C 
BRANCH  29  30
HETATM   30  C3  UNL     1       4.951   7.850  10.734  1.00  0.00    -0.013 C 
HETATM   31  C2  UNL     1       5.989   8.503  11.300  1.00  0.00     0.008 C 
HETATM   32  C1  UNL     1       6.641   8.093  12.589  1.00  0.00     0.055 C 
BRANCH  31  33
HETATM   33  C30 UNL     1       6.556   9.728  10.676  1.00  0.00     0.171 C 
HETATM   34  O5  UNL     1       7.572   9.774  10.006  1.00  0.00    -0.646 OA
BRANCH  33  35
HETATM   35  O6  UNL     1       5.839  10.841  10.908  1.00  0.00    -0.773 OA
HETATM   36  H42 UNL     1       6.337  11.536  10.430  1.00  0.00     0.167 HD
ENDBRANCH  33  35
ENDBRANCH  31  33
ENDBRANCH  29  30
ENDBRANCH  28  29
ENDBRANCH  26  28
ENDBRANCH   1  26
BRANCH   9  37
HETATM   37  O2  UNL     1       0.005   5.026  14.549  1.00  0.00    -0.391 OA
HETATM   38  H20 UNL     1       0.627   4.280  14.571  1.00  0.00     0.210 HD
ENDBRANCH   9  37
TORSDOF 7
ENDMDL
MODEL 9
REMARK minimizedAffinity -8.76780891
REMARK  7 active torsions:
REMARK  status: ('A' for Active; 'I' for Inactive)
REMARK    1  A    between atoms: C2_2  and  C30_34 
REMARK    2  A    between atoms: C3_3  and  C4_4 
REMARK    3  A    between atoms: C4_4  and  C5_5 
REMARK    4  A    between atoms: C5_5  and  C6_6 
REMARK    5  A    between atoms: C6_6  and  C8_8 
REMARK    6  A    between atoms: C15_16  and  O2_17 
REMARK    7  A    between atoms: C30_34  and  O6_36 
ROOT
HETATM    1  C8  UNL     1       1.119   7.219  13.429  1.00  0.00     0.006 C 
HETATM    2  C9  UNL     1       1.348   5.698  13.263  1.00  0.00     0.085 C 
HETATM    3  C10 UNL     1      -0.034   5.169  12.882  1.00  0.00     0.141 C 
HETATM    4  O1  UNL     1      -0.279   3.974  12.820  1.00  0.00    -0.297 OA
HETATM    5  C11 UNL     1      -1.018   6.323  12.633  1.00  0.00     0.055 C 
HETATM    6  C12 UNL     1      -0.819   6.746  11.154  1.00  0.00     0.030 C 
HETATM    7  C13 UNL     1      -2.500   6.197  12.869  1.00  0.00     0.010 C 
HETATM    8  C14 UNL     1      -3.270   7.219  13.323  1.00  0.00    -0.032 C 
HETATM    9  C15 UNL     1      -2.607   8.589  13.586  1.00  0.00     0.149 C 
HETATM   10  C16 UNL     1      -1.058   8.667  13.527  1.00  0.00     0.047 C 
HETATM   11  C17 UNL     1      -0.413   7.295  13.722  1.00  0.00    -0.018 C 
HETATM   12  C18 UNL     1      -0.697   6.836  15.191  1.00  0.00     0.017 C 
HETATM   13  C19 UNL     1      -4.806   7.060  13.650  1.00  0.00    -0.012 C 
HETATM   14  C20 UNL     1      -5.578   8.218  12.978  1.00  0.00     0.021 C 
HETATM   15  C21 UNL     1      -4.947   7.149  15.195  1.00  0.00     0.021 C 
HETATM   16  C22 UNL     1      -6.356   6.915  15.710  1.00  0.00     0.080 C 
HETATM   17  C23 UNL     1      -6.860   5.564  15.276  1.00  0.00     0.135 C 
HETATM   18  O3  UNL     1      -7.369   4.801  16.100  1.00  0.00    -0.297 OA
HETATM   19  C24 UNL     1      -6.820   5.245  13.778  1.00  0.00     0.018 C 
HETATM   20  C25 UNL     1      -7.100   3.732  13.593  1.00  0.00     0.023 C 
HETATM   21  C26 UNL     1      -8.013   5.967  13.114  1.00  0.00     0.023 C 
HETATM   22  C27 UNL     1      -5.422   5.672  13.158  1.00  0.00     0.020 C 
HETATM   23  C28 UNL     1      -4.369   4.560  13.327  1.00  0.00     0.090 C 
HETATM   24  C29 UNL     1      -3.168   4.929  12.512  1.00  0.00     0.157 C 
HETATM   25  O4  UNL     1      -2.803   4.260  11.553  1.00  0.00    -0.293 OA
ENDROOT
BRANCH   1  26
HETATM   26  C6  UNL     1       2.064   7.975  14.407  1.00  0.00    -0.013 C 
HETATM   27  C7  UNL     1       2.463   7.217  15.678  1.00  0.00     0.010 C 
BRANCH  26  28
HETATM   28  C5  UNL     1       3.330   8.507  13.683  1.00  0.00     0.008 C 
BRANCH  28  29
HETATM   29  C4  UNL     1       3.263   8.510  12.154  1.00  0.00     0.028 C 
BRANCH  29  30
HETATM   30  C3  UNL     1       3.652   7.170  11.589  1.00  0.00    -0.013 C 
HETATM   31  C2  UNL     1       3.543   6.786  10.300  1.00  0.00     0.008 C 
HETATM   32  C1  UNL     1       2.925   7.626   9.219  1.00  0.00     0.055 C 
BRANCH  31  33
HETATM   33  C30 UNL     1       4.021   5.450   9.856  1.00  0.00     0.171 C 
HETATM   34  O5  UNL     1       3.370   4.644   9.215  1.00  0.00    -0.646 OA
BRANCH  33  35
HETATM   35  O6  UNL     1       5.283   5.171  10.223  1.00  0.00    -0.773 OA
HETATM   36  H42 UNL     1       5.436   4.278   9.852  1.00  0.00     0.167 HD
ENDBRANCH  33  35
ENDBRANCH  31  33
ENDBRANCH  29  30
ENDBRANCH  28  29
ENDBRANCH  26  28
ENDBRANCH   1  26
BRANCH   9  37
HETATM   37  O2  UNL     1      -3.091   9.516  12.618  1.00  0.00    -0.391 OA
HETATM   38  H20 UNL     1      -2.777  10.399  12.871  1.00  0.00     0.210 HD
ENDBRANCH   9  37
TORSDOF 7
ENDMDL
