MODEL 1
REMARK minimizedAffinity -7.30487919
REMARK CNNscore 0.572826028
REMARK CNNaffinity 6.48861074
REMARK  4 active torsions:
REMARK  status: ('A' for Active; 'I' for Inactive)
REMARK    1  A    between atoms: C4_4  and  C5_5 
REMARK    2  A    between atoms: C5_5  and  C6_6 
REMARK    3  A    between atoms: C6_6  and  C7_7 
REMARK    4  A    between atoms: C7_7  and  C9_9 
ROOT
HETATM    1  C9  UNL     1      -2.409  12.860  18.505  1.00  0.00    -0.002 C 
HETATM    2  C10 UNL     1      -1.104  12.406  19.202  1.00  0.00     0.007 C 
HETATM    3  C11 UNL     1      -0.679  11.082  18.525  1.00  0.00     0.015 C 
HETATM    4  C12 UNL     1      -1.920  10.630  17.720  1.00  0.00    -0.013 C 
HETATM    5  C13 UNL     1      -2.853   9.895  18.737  1.00  0.00     0.021 C 
HETATM    6  C14 UNL     1      -1.767   9.657  16.554  1.00  0.00    -0.070 C 
HETATM    7  C15 UNL     1      -0.672   8.896  16.396  1.00  0.00    -0.022 C 
HETATM    8  C16 UNL     1      -0.550   7.788  15.397  1.00  0.00     0.035 C 
HETATM    9  C17 UNL     1      -1.897   7.377  14.743  1.00  0.00     0.032 C 
HETATM   10  C18 UNL     1      -1.722   6.194  13.704  1.00  0.00     0.068 C 
HETATM   11  C19 UNL     1      -0.490   5.297  13.945  1.00  0.00     0.047 C 
HETATM   12  C20 UNL     1      -2.936   5.238  13.787  1.00  0.00     0.047 C 
HETATM   13  O1  UNL     1      -1.709   6.660  12.342  1.00  0.00    -0.310 OA
HETATM   14  C21 UNL     1      -0.818   7.643  12.066  1.00  0.00     0.259 C 
HETATM   15  O2  UNL     1       0.391   7.493  11.991  1.00  0.00    -0.265 OA
HETATM   16  C22 UNL     1      -1.540   8.943  11.918  1.00  0.00     0.112 C 
HETATM   17  C23 UNL     1      -1.861   9.560  13.278  1.00  0.00     0.020 C 
HETATM   18  C24 UNL     1      -2.687   8.687  14.290  1.00  0.00    -0.029 C 
HETATM   19  C25 UNL     1      -4.050   8.347  13.646  1.00  0.00     0.016 C 
HETATM   20  C26 UNL     1      -2.991   9.512  15.636  1.00  0.00     0.024 C 
HETATM   21  C27 UNL     1      -3.766  10.848  15.389  1.00  0.00     0.010 C 
HETATM   22  C28 UNL     1      -3.823  11.830  16.572  1.00  0.00     0.011 C 
HETATM   23  C29 UNL     1      -2.434  12.019  17.196  1.00  0.00    -0.029 C 
HETATM   24  C30 UNL     1      -1.482  12.613  16.117  1.00  0.00     0.016 C 
ENDROOT
BRANCH   1  25
HETATM   25  C7  UNL     1      -2.752  14.376  18.520  1.00  0.00    -0.014 C 
HETATM   26  C8  UNL     1      -2.249  15.029  17.220  1.00  0.00     0.010 C 
BRANCH  25  27
HETATM   27  C6  UNL     1      -4.166  14.883  18.885  1.00  0.00     0.008 C 
BRANCH  27  28
HETATM   28  C5  UNL     1      -5.314  13.900  19.146  1.00  0.00     0.028 C 
BRANCH  28  29
HETATM   29  C4  UNL     1      -5.568  13.610  20.599  1.00  0.00    -0.025 C 
HETATM   30  C2  UNL     1      -6.752  13.444  21.221  1.00  0.00    -0.091 C 
HETATM   31  C1  UNL     1      -8.099  13.485  20.555  1.00  0.00     0.042 C 
HETATM   32  C3  UNL     1      -6.807  13.182  22.704  1.00  0.00     0.042 C 
ENDBRANCH  28  29
ENDBRANCH  27  28
ENDBRANCH  25  27
ENDBRANCH   1  25
TORSDOF 4
ENDMDL
MODEL 2
REMARK minimizedAffinity -9.07603359
REMARK CNNscore 0.409835577
REMARK CNNaffinity 6.86227655
REMARK  4 active torsions:
REMARK  status: ('A' for Active; 'I' for Inactive)
REMARK    1  A    between atoms: C4_4  and  C5_5 
REMARK    2  A    between atoms: C5_5  and  C6_6 
REMARK    3  A    between atoms: C6_6  and  C7_7 
REMARK    4  A    between atoms: C7_7  and  C9_9 
ROOT
HETATM    1  C9  UNL     1      -3.447   7.058  14.284  1.00  0.00    -0.002 C 
HETATM    2  C10 UNL     1      -3.139   5.667  14.889  1.00  0.00     0.007 C 
HETATM    3  C11 UNL     1      -1.928   5.106  14.110  1.00  0.00     0.015 C 
HETATM    4  C12 UNL     1      -1.801   6.011  12.862  1.00  0.00    -0.013 C 
HETATM    5  C13 UNL     1      -2.822   5.456  11.817  1.00  0.00     0.021 C 
HETATM    6  C14 UNL     1      -0.477   6.100  12.108  1.00  0.00    -0.070 C 
HETATM    7  C15 UNL     1       0.490   5.178  12.248  1.00  0.00    -0.022 C 
HETATM    8  C16 UNL     1       1.715   5.102  11.392  1.00  0.00     0.035 C 
HETATM    9  C17 UNL     1       1.655   5.994  10.123  1.00  0.00     0.032 C 
HETATM   10  C18 UNL     1       2.965   5.872   9.242  1.00  0.00     0.068 C 
HETATM   11  C19 UNL     1       3.743   4.550   9.417  1.00  0.00     0.047 C 
HETATM   12  C20 UNL     1       2.595   5.922   7.740  1.00  0.00     0.047 C 
HETATM   13  O1  UNL     1       3.863   6.979   9.440  1.00  0.00    -0.310 OA
HETATM   14  C21 UNL     1       4.203   7.236  10.726  1.00  0.00     0.259 C 
HETATM   15  O2  UNL     1       4.951   6.552  11.405  1.00  0.00    -0.265 OA
HETATM   16  C22 UNL     1       3.481   8.458  11.197  1.00  0.00     0.112 C 
HETATM   17  C23 UNL     1       2.044   8.134  11.599  1.00  0.00     0.020 C 
HETATM   18  C24 UNL     1       1.130   7.447  10.521  1.00  0.00    -0.029 C 
HETATM   19  C25 UNL     1       1.028   8.382   9.295  1.00  0.00     0.016 C 
HETATM   20  C26 UNL     1      -0.361   7.242  11.087  1.00  0.00     0.024 C 
HETATM   21  C27 UNL     1      -1.047   8.573  11.539  1.00  0.00     0.010 C 
HETATM   22  C28 UNL     1      -2.336   8.429  12.365  1.00  0.00     0.011 C 
HETATM   23  C29 UNL     1      -2.153   7.406  13.494  1.00  0.00    -0.029 C 
HETATM   24  C30 UNL     1      -1.023   7.909  14.441  1.00  0.00     0.016 C 
ENDROOT
BRANCH   1  25
HETATM   25  C7  UNL     1      -4.170   8.098  15.185  1.00  0.00    -0.014 C 
HETATM   26  C8  UNL     1      -3.889   9.517  14.659  1.00  0.00     0.010 C 
BRANCH  25  27
HETATM   27  C6  UNL     1      -5.657   7.936  15.576  1.00  0.00     0.008 C 
BRANCH  27  28
HETATM   28  C5  UNL     1      -6.376   6.591  15.406  1.00  0.00     0.028 C 
BRANCH  28  29
HETATM   29  C4  UNL     1      -7.228   6.492  14.171  1.00  0.00    -0.025 C 
HETATM   30  C2  UNL     1      -7.522   5.394  13.448  1.00  0.00    -0.091 C 
HETATM   31  C1  UNL     1      -7.068   3.996  13.763  1.00  0.00     0.042 C 
HETATM   32  C3  UNL     1      -8.382   5.498  12.214  1.00  0.00     0.042 C 
ENDBRANCH  28  29
ENDBRANCH  27  28
ENDBRANCH  25  27
ENDBRANCH   1  25
TORSDOF 4
ENDMDL
MODEL 3
REMARK minimizedAffinity -7.08544302
REMARK CNNscore 0.389103591
REMARK CNNaffinity 6.29737473
REMARK  4 active torsions:
REMARK  status: ('A' for Active; 'I' for Inactive)
REMARK    1  A    between atoms: C4_4  and  C5_5 
REMARK    2  A    between atoms: C5_5  and  C6_6 
REMARK    3  A    between atoms: C6_6  and  C7_7 
REMARK    4  A    between atoms: C7_7  and  C9_9 
ROOT
HETATM    1  C9  UNL     1     -12.469   9.973  23.240  1.00  0.00    -0.002 C 
HETATM    2  C10 UNL     1     -12.599  10.417  24.717  1.00  0.00     0.007 C 
HETATM    3  C11 UNL     1     -13.269   9.245  25.472  1.00  0.00     0.015 C 
HETATM    4  C12 UNL     1     -13.826   8.322  24.363  1.00  0.00    -0.013 C 
HETATM    5  C13 UNL     1     -15.202   8.932  23.941  1.00  0.00     0.021 C 
HETATM    6  C14 UNL     1     -14.122   6.855  24.661  1.00  0.00    -0.070 C 
HETATM    7  C15 UNL     1     -14.259   6.392  25.914  1.00  0.00    -0.022 C 
HETATM    8  C16 UNL     1     -14.745   5.019  26.260  1.00  0.00     0.035 C 
HETATM    9  C17 UNL     1     -15.368   4.251  25.063  1.00  0.00     0.032 C 
HETATM   10  C18 UNL     1     -15.879   2.810  25.478  1.00  0.00     0.068 C 
HETATM   11  C19 UNL     1     -16.231   2.652  26.972  1.00  0.00     0.047 C 
HETATM   12  C20 UNL     1     -17.189   2.480  24.722  1.00  0.00     0.047 C 
HETATM   13  O1  UNL     1     -14.958   1.772  25.096  1.00  0.00    -0.310 OA
HETATM   14  C21 UNL     1     -13.680   1.938  25.513  1.00  0.00     0.259 C 
HETATM   15  O2  UNL     1     -13.296   1.809  26.665  1.00  0.00    -0.265 OA
HETATM   16  C22 UNL     1     -12.828   2.350  24.357  1.00  0.00     0.112 C 
HETATM   17  C23 UNL     1     -12.970   3.843  24.066  1.00  0.00     0.020 C 
HETATM   18  C24 UNL     1     -14.416   4.391  23.791  1.00  0.00    -0.029 C 
HETATM   19  C25 UNL     1     -14.990   3.661  22.555  1.00  0.00     0.016 C 
HETATM   20  C26 UNL     1     -14.372   5.959  23.438  1.00  0.00     0.024 C 
HETATM   21  C27 UNL     1     -13.473   6.298  22.204  1.00  0.00     0.010 C 
HETATM   22  C28 UNL     1     -13.137   7.784  21.993  1.00  0.00     0.011 C 
HETATM   23  C29 UNL     1     -12.670   8.432  23.304  1.00  0.00    -0.029 C 
HETATM   24  C30 UNL     1     -11.380   7.706  23.784  1.00  0.00     0.016 C 
ENDROOT
BRANCH   1  25
HETATM   25  C7  UNL     1     -11.350  10.626  22.382  1.00  0.00    -0.014 C 
HETATM   26  C8  UNL     1     -11.488  10.164  20.920  1.00  0.00     0.010 C 
BRANCH  25  27
HETATM   27  C6  UNL     1     -11.049  12.140  22.459  1.00  0.00     0.008 C 
BRANCH  27  28
HETATM   28  C5  UNL     1      -9.975  12.685  23.411  1.00  0.00     0.028 C 
BRANCH  28  29
HETATM   29  C4  UNL     1      -8.570  12.591  22.885  1.00  0.00    -0.025 C 
HETATM   30  C2  UNL     1      -7.539  13.428  23.112  1.00  0.00    -0.091 C 
HETATM   31  C1  UNL     1      -7.581  14.645  23.994  1.00  0.00     0.042 C 
HETATM   32  C3  UNL     1      -6.198  13.181  22.470  1.00  0.00     0.042 C 
ENDBRANCH  28  29
ENDBRANCH  27  28
ENDBRANCH  25  27
ENDBRANCH   1  25
TORSDOF 4
ENDMDL
MODEL 4
REMARK minimizedAffinity -7.19855309
REMARK CNNscore 0.35820654
REMARK CNNaffinity 6.29404831
REMARK  4 active torsions:
REMARK  status: ('A' for Active; 'I' for Inactive)
REMARK    1  A    between atoms: C4_4  and  C5_5 
REMARK    2  A    between atoms: C5_5  and  C6_6 
REMARK    3  A    between atoms: C6_6  and  C7_7 
REMARK    4  A    between atoms: C7_7  and  C9_9 
ROOT
HETATM    1  C9  UNL     1      -3.708   8.913  14.956  1.00  0.00    -0.002 C 
HETATM    2  C10 UNL     1      -2.677   8.458  13.894  1.00  0.00     0.007 C 
HETATM    3  C11 UNL     1      -1.335   9.131  14.265  1.00  0.00     0.015 C 
HETATM    4  C12 UNL     1      -1.708  10.222  15.297  1.00  0.00    -0.013 C 
HETATM    5  C13 UNL     1      -2.183  11.459  14.468  1.00  0.00     0.021 C 
HETATM    6  C14 UNL     1      -0.650  10.770  16.250  1.00  0.00    -0.070 C 
HETATM    7  C15 UNL     1       0.665  10.621  16.023  1.00  0.00    -0.022 C 
HETATM    8  C16 UNL     1       1.741  11.306  16.807  1.00  0.00     0.035 C 
HETATM    9  C17 UNL     1       1.225  12.445  17.727  1.00  0.00     0.032 C 
HETATM   10  C18 UNL     1       2.397  13.148  18.526  1.00  0.00     0.068 C 
HETATM   11  C19 UNL     1       3.788  13.041  17.864  1.00  0.00     0.047 C 
HETATM   12  C20 UNL     1       2.122  14.666  18.637  1.00  0.00     0.047 C 
HETATM   13  O1  UNL     1       2.485  12.687  19.888  1.00  0.00    -0.310 OA
HETATM   14  C21 UNL     1       2.566  11.344  20.049  1.00  0.00     0.259 C 
HETATM   15  O2  UNL     1       3.547  10.664  19.791  1.00  0.00    -0.265 OA
HETATM   16  C22 UNL     1       1.256  10.821  20.542  1.00  0.00     0.112 C 
HETATM   17  C23 UNL     1       0.254  10.664  19.401  1.00  0.00     0.020 C 
HETATM   18  C24 UNL     1      -0.056  11.936  18.531  1.00  0.00    -0.029 C 
HETATM   19  C25 UNL     1      -0.633  13.033  19.455  1.00  0.00     0.016 C 
HETATM   20  C26 UNL     1      -1.176  11.609  17.426  1.00  0.00     0.024 C 
HETATM   21  C27 UNL     1      -2.520  11.086  18.031  1.00  0.00     0.010 C 
HETATM   22  C28 UNL     1      -3.520  10.469  17.039  1.00  0.00     0.011 C 
HETATM   23  C29 UNL     1      -2.822   9.468  16.108  1.00  0.00    -0.029 C 
HETATM   24  C30 UNL     1      -2.225   8.319  16.974  1.00  0.00     0.016 C 
ENDROOT
BRANCH   1  25
HETATM   25  C7  UNL     1      -4.930   7.992  15.223  1.00  0.00    -0.014 C 
HETATM   26  C8  UNL     1      -6.224   8.825  15.165  1.00  0.00     0.010 C 
BRANCH  25  27
HETATM   27  C6  UNL     1      -5.106   6.644  14.485  1.00  0.00     0.008 C 
BRANCH  27  28
HETATM   28  C5  UNL     1      -6.155   6.482  13.377  1.00  0.00     0.028 C 
BRANCH  28  29
HETATM   29  C4  UNL     1      -6.928   5.194  13.434  1.00  0.00    -0.025 C 
HETATM   30  C2  UNL     1      -6.565   3.984  12.968  1.00  0.00    -0.091 C 
HETATM   31  C1  UNL     1      -5.254   3.662  12.304  1.00  0.00     0.042 C 
HETATM   32  C3  UNL     1      -7.495   2.804  13.096  1.00  0.00     0.042 C 
ENDBRANCH  28  29
ENDBRANCH  27  28
ENDBRANCH  25  27
ENDBRANCH   1  25
TORSDOF 4
ENDMDL
MODEL 5
REMARK minimizedAffinity -7.31708908
REMARK CNNscore 0.352540374
REMARK CNNaffinity 6.03846359
REMARK  4 active torsions:
REMARK  status: ('A' for Active; 'I' for Inactive)
REMARK    1  A    between atoms: C4_4  and  C5_5 
REMARK    2  A    between atoms: C5_5  and  C6_6 
REMARK    3  A    between atoms: C6_6  and  C7_7 
REMARK    4  A    between atoms: C7_7  and  C9_9 
ROOT
HETATM    1  C9  UNL     1       3.935  11.011  16.881  1.00  0.00    -0.002 C 
HETATM    2  C10 UNL     1       5.034  11.720  16.054  1.00  0.00     0.007 C 
HETATM    3  C11 UNL     1       5.025  11.063  14.653  1.00  0.00     0.015 C 
HETATM    4  C12 UNL     1       4.186   9.775  14.823  1.00  0.00    -0.013 C 
HETATM    5  C13 UNL     1       5.159   8.696  15.401  1.00  0.00     0.021 C 
HETATM    6  C14 UNL     1       3.542   9.112  13.608  1.00  0.00    -0.070 C 
HETATM    7  C15 UNL     1       3.942   9.375  12.353  1.00  0.00    -0.022 C 
HETATM    8  C16 UNL     1       3.492   8.613  11.146  1.00  0.00     0.035 C 
HETATM    9  C17 UNL     1       2.748   7.291  11.475  1.00  0.00     0.032 C 
HETATM   10  C18 UNL     1       2.303   6.513  10.169  1.00  0.00     0.068 C 
HETATM   11  C19 UNL     1       3.143   6.823   8.912  1.00  0.00     0.047 C 
HETATM   12  C20 UNL     1       2.456   4.989  10.387  1.00  0.00     0.047 C 
HETATM   13  O1  UNL     1       0.908   6.706   9.866  1.00  0.00    -0.310 OA
HETATM   14  C21 UNL     1       0.497   7.995   9.790  1.00  0.00     0.259 C 
HETATM   15  O2  UNL     1       0.766   8.765   8.882  1.00  0.00    -0.265 OA
HETATM   16  C22 UNL     1      -0.293   8.339  11.011  1.00  0.00     0.112 C 
HETATM   17  C23 UNL     1       0.619   8.657  12.193  1.00  0.00     0.020 C 
HETATM   18  C24 UNL     1       1.665   7.563  12.614  1.00  0.00    -0.029 C 
HETATM   19  C25 UNL     1       0.899   6.277  13.003  1.00  0.00     0.016 C 
HETATM   20  C26 UNL     1       2.490   8.033  13.911  1.00  0.00     0.024 C 
HETATM   21  C27 UNL     1       1.586   8.354  15.146  1.00  0.00     0.010 C 
HETATM   22  C28 UNL     1       2.263   9.094  16.312  1.00  0.00     0.011 C 
HETATM   23  C29 UNL     1       3.073  10.294  15.803  1.00  0.00    -0.029 C 
HETATM   24  C30 UNL     1       2.102  11.285  15.096  1.00  0.00     0.016 C 
ENDROOT
BRANCH   1  25
HETATM   25  C7  UNL     1       3.298  11.793  18.063  1.00  0.00    -0.014 C 
HETATM   26  C8  UNL     1       1.764  11.757  17.936  1.00  0.00     0.010 C 
BRANCH  25  27
HETATM   27  C6  UNL     1       3.739  11.553  19.525  1.00  0.00     0.008 C 
BRANCH  27  28
HETATM   28  C5  UNL     1       3.247  10.327  20.307  1.00  0.00     0.028 C 
BRANCH  28  29
HETATM   29  C4  UNL     1       3.266  10.492  21.801  1.00  0.00    -0.025 C 
HETATM   30  C2  UNL     1       2.811   9.639  22.739  1.00  0.00    -0.091 C 
HETATM   31  C1  UNL     1       2.203   8.290  22.468  1.00  0.00     0.042 C 
HETATM   32  C3  UNL     1       2.894   9.993  24.201  1.00  0.00     0.042 C 
ENDBRANCH  28  29
ENDBRANCH  27  28
ENDBRANCH  25  27
ENDBRANCH   1  25
TORSDOF 4
ENDMDL
MODEL 6
REMARK minimizedAffinity -6.4128108
REMARK CNNscore 0.337943256
REMARK CNNaffinity 5.34841776
REMARK  4 active torsions:
REMARK  status: ('A' for Active; 'I' for Inactive)
REMARK    1  A    between atoms: C4_4  and  C5_5 
REMARK    2  A    between atoms: C5_5  and  C6_6 
REMARK    3  A    between atoms: C6_6  and  C7_7 
REMARK    4  A    between atoms: C7_7  and  C9_9 
ROOT
HETATM    1  C9  UNL     1       5.957   8.775  12.718  1.00  0.00    -0.002 C 
HETATM    2  C10 UNL     1       5.638   7.674  13.758  1.00  0.00     0.007 C 
HETATM    3  C11 UNL     1       6.564   7.928  14.969  1.00  0.00     0.015 C 
HETATM    4  C12 UNL     1       7.625   8.930  14.457  1.00  0.00    -0.013 C 
HETATM    5  C13 UNL     1       8.706   8.077  13.717  1.00  0.00     0.021 C 
HETATM    6  C14 UNL     1       8.410   9.790  15.444  1.00  0.00    -0.070 C 
HETATM    7  C15 UNL     1       8.490   9.488  16.750  1.00  0.00    -0.022 C 
HETATM    8  C16 UNL     1       9.402  10.171  17.721  1.00  0.00     0.035 C 
HETATM    9  C17 UNL     1      10.478  11.068  17.052  1.00  0.00     0.032 C 
HETATM   10  C18 UNL     1      11.427  11.760  18.115  1.00  0.00     0.068 C 
HETATM   11  C19 UNL     1      11.538  11.018  19.464  1.00  0.00     0.047 C 
HETATM   12  C20 UNL     1      12.874  11.817  17.570  1.00  0.00     0.047 C 
HETATM   13  O1  UNL     1      11.067  13.133  18.358  1.00  0.00    -0.310 OA
HETATM   14  C21 UNL     1       9.773  13.350  18.695  1.00  0.00     0.259 C 
HETATM   15  O2  UNL     1       9.270  13.063  19.769  1.00  0.00    -0.265 OA
HETATM   16  C22 UNL     1       9.049  13.947  17.532  1.00  0.00     0.112 C 
HETATM   17  C23 UNL     1       8.648  12.879  16.518  1.00  0.00     0.020 C 
HETATM   18  C24 UNL     1       9.791  11.974  15.932  1.00  0.00    -0.029 C 
HETATM   19  C25 UNL     1      10.815  12.880  15.212  1.00  0.00     0.016 C 
HETATM   20  C26 UNL     1       9.204  10.956  14.834  1.00  0.00     0.024 C 
HETATM   21  C27 UNL     1       8.480  11.668  13.645  1.00  0.00     0.010 C 
HETATM   22  C28 UNL     1       7.637  10.769  12.725  1.00  0.00     0.011 C 
HETATM   23  C29 UNL     1       6.728   9.844  13.546  1.00  0.00    -0.029 C 
HETATM   24  C30 UNL     1       5.758  10.722  14.391  1.00  0.00     0.016 C 
ENDROOT
BRANCH   1  25
HETATM   25  C7  UNL     1       4.845   9.160  11.703  1.00  0.00    -0.014 C 
HETATM   26  C8  UNL     1       5.395   9.041  10.270  1.00  0.00     0.010 C 
BRANCH  25  27
HETATM   27  C6  UNL     1       3.419   8.571  11.801  1.00  0.00     0.008 C 
BRANCH  27  28
HETATM   28  C5  UNL     1       2.953   7.470  10.839  1.00  0.00     0.028 C 
BRANCH  28  29
HETATM   29  C4  UNL     1       1.628   7.738  10.180  1.00  0.00    -0.025 C 
HETATM   30  C2  UNL     1       1.390   8.091   8.902  1.00  0.00    -0.091 C 
HETATM   31  C1  UNL     1       2.436   8.261   7.835  1.00  0.00     0.042 C 
HETATM   32  C3  UNL     1      -0.018   8.343   8.428  1.00  0.00     0.042 C 
ENDBRANCH  28  29
ENDBRANCH  27  28
ENDBRANCH  25  27
ENDBRANCH   1  25
TORSDOF 4
ENDMDL
MODEL 7
REMARK minimizedAffinity -7.98848104
REMARK CNNscore 0.291386336
REMARK CNNaffinity 6.41356277
REMARK  4 active torsions:
REMARK  status: ('A' for Active; 'I' for Inactive)
REMARK    1  A    between atoms: C4_4  and  C5_5 
REMARK    2  A    between atoms: C5_5  and  C6_6 
REMARK    3  A    between atoms: C6_6  and  C7_7 
REMARK    4  A    between atoms: C7_7  and  C9_9 
ROOT
HETATM    1  C9  UNL     1       2.083   6.172  11.590  1.00  0.00    -0.002 C 
HETATM    2  C10 UNL     1       0.819   5.947  10.726  1.00  0.00     0.007 C 
HETATM    3  C11 UNL     1      -0.345   6.659  11.453  1.00  0.00     0.015 C 
HETATM    4  C12 UNL     1       0.195   6.959  12.871  1.00  0.00    -0.013 C 
HETATM    5  C13 UNL     1       0.002   5.646  13.696  1.00  0.00     0.021 C 
HETATM    6  C14 UNL     1      -0.445   8.054  13.720  1.00  0.00    -0.070 C 
HETATM    7  C15 UNL     1      -1.669   8.542  13.457  1.00  0.00    -0.022 C 
HETATM    8  C16 UNL     1      -2.425   9.462  14.364  1.00  0.00     0.035 C 
HETATM    9  C17 UNL     1      -1.816   9.586  15.787  1.00  0.00     0.032 C 
HETATM   10  C18 UNL     1      -2.655  10.558  16.715  1.00  0.00     0.068 C 
HETATM   11  C19 UNL     1      -4.139  10.713  16.318  1.00  0.00     0.047 C 
HETATM   12  C20 UNL     1      -2.683  10.010  18.162  1.00  0.00     0.047 C 
HETATM   13  O1  UNL     1      -2.056  11.863  16.823  1.00  0.00    -0.310 OA
HETATM   14  C21 UNL     1      -1.779  12.481  15.650  1.00  0.00     0.259 C 
HETATM   15  O2  UNL     1      -2.609  12.963  14.897  1.00  0.00    -0.265 OA
HETATM   16  C22 UNL     1      -0.306  12.438  15.400  1.00  0.00     0.112 C 
HETATM   17  C23 UNL     1       0.123  11.085  14.835  1.00  0.00     0.020 C 
HETATM   18  C24 UNL     1      -0.240   9.805  15.671  1.00  0.00    -0.029 C 
HETATM   19  C25 UNL     1       0.432   9.919  17.059  1.00  0.00     0.016 C 
HETATM   20  C26 UNL     1       0.343   8.483  14.968  1.00  0.00     0.024 C 
HETATM   21  C27 UNL     1       1.894   8.515  14.763  1.00  0.00     0.010 C 
HETATM   22  C28 UNL     1       2.480   7.438  13.834  1.00  0.00     0.011 C 
HETATM   23  C29 UNL     1       1.679   7.345  12.528  1.00  0.00    -0.029 C 
HETATM   24  C30 UNL     1       1.761   8.717  11.796  1.00  0.00     0.016 C 
ENDROOT
BRANCH   1  25
HETATM   25  C7  UNL     1       3.465   6.118  10.883  1.00  0.00    -0.014 C 
HETATM   26  C8  UNL     1       3.429   5.062   9.763  1.00  0.00     0.010 C 
BRANCH  25  27
HETATM   27  C6  UNL     1       4.185   7.402  10.410  1.00  0.00     0.008 C 
BRANCH  27  28
HETATM   28  C5  UNL     1       3.481   8.407   9.488  1.00  0.00     0.028 C 
BRANCH  28  29
HETATM   29  C4  UNL     1       3.059   7.844   8.160  1.00  0.00    -0.025 C 
HETATM   30  C2  UNL     1       1.821   7.798   7.631  1.00  0.00    -0.091 C 
HETATM   31  C1  UNL     1       0.577   8.350   8.273  1.00  0.00     0.042 C 
HETATM   32  C3  UNL     1       1.587   7.165   6.283  1.00  0.00     0.042 C 
ENDBRANCH  28  29
ENDBRANCH  27  28
ENDBRANCH  25  27
ENDBRANCH   1  25
TORSDOF 4
ENDMDL
MODEL 8
REMARK minimizedAffinity -7.59822941
REMARK CNNscore 0.285348803
REMARK CNNaffinity 6.22967577
REMARK  4 active torsions:
REMARK  status: ('A' for Active; 'I' for Inactive)
REMARK    1  A    between atoms: C4_4  and  C5_5 
REMARK    2  A    between atoms: C5_5  and  C6_6 
REMARK    3  A    between atoms: C6_6  and  C7_7 
REMARK    4  A    between atoms: C7_7  and  C9_9 
ROOT
HETATM    1  C9  UNL     1      -0.360   6.532  12.248  1.00  0.00    -0.002 C 
HETATM    2  C10 UNL     1      -0.445   7.552  11.087  1.00  0.00     0.007 C 
HETATM    3  C11 UNL     1      -0.923   8.886  11.705  1.00  0.00     0.015 C 
HETATM    4  C12 UNL     1      -1.439   8.511  13.114  1.00  0.00    -0.013 C 
HETATM    5  C13 UNL     1      -2.901   7.995  12.917  1.00  0.00     0.021 C 
HETATM    6  C14 UNL     1      -1.542   9.575  14.203  1.00  0.00    -0.070 C 
HETATM    7  C15 UNL     1      -1.542  10.889  13.923  1.00  0.00    -0.022 C 
HETATM    8  C16 UNL     1      -1.841  11.965  14.920  1.00  0.00     0.035 C 
HETATM    9  C17 UNL     1      -2.447  11.442  16.250  1.00  0.00     0.032 C 
HETATM   10  C18 UNL     1      -2.759  12.615  17.268  1.00  0.00     0.068 C 
HETATM   11  C19 UNL     1      -2.991  13.994  16.616  1.00  0.00     0.047 C 
HETATM   12  C20 UNL     1      -4.067  12.310  18.037  1.00  0.00     0.047 C 
HETATM   13  O1  UNL     1      -1.749  12.737  18.288  1.00  0.00    -0.310 OA
HETATM   14  C21 UNL     1      -0.475  12.849  17.842  1.00  0.00     0.259 C 
HETATM   15  O2  UNL     1      -0.004  13.839  17.305  1.00  0.00    -0.265 OA
HETATM   16  C22 UNL     1       0.246  11.560  18.066  1.00  0.00     0.112 C 
HETATM   17  C23 UNL     1      -0.087  10.540  16.979  1.00  0.00     0.020 C 
HETATM   18  C24 UNL     1      -1.603  10.188  16.760  1.00  0.00    -0.029 C 
HETATM   19  C25 UNL     1      -2.167   9.606  18.076  1.00  0.00     0.016 C 
HETATM   20  C26 UNL     1      -1.765   9.054  15.632  1.00  0.00     0.024 C 
HETATM   21  C27 UNL     1      -0.994   7.732  15.956  1.00  0.00     0.010 C 
HETATM   22  C28 UNL     1      -0.849   6.727  14.802  1.00  0.00     0.011 C 
HETATM   23  C29 UNL     1      -0.376   7.428  13.520  1.00  0.00    -0.029 C 
HETATM   24  C30 UNL     1       1.019   8.065  13.789  1.00  0.00     0.016 C 
ENDROOT
BRANCH   1  25
HETATM   25  C7  UNL     1       0.617   5.334  12.093  1.00  0.00    -0.014 C 
HETATM   26  C8  UNL     1      -0.182   4.057  11.776  1.00  0.00     0.010 C 
BRANCH  25  27
HETATM   27  C6  UNL     1       1.882   5.429  11.210  1.00  0.00     0.008 C 
BRANCH  27  28
HETATM   28  C5  UNL     1       2.170   6.685  10.376  1.00  0.00     0.028 C 
BRANCH  28  29
HETATM   29  C4  UNL     1       1.930   6.522   8.901  1.00  0.00    -0.025 C 
HETATM   30  C2  UNL     1       2.265   7.364   7.905  1.00  0.00    -0.091 C 
HETATM   31  C1  UNL     1       3.002   8.665   8.073  1.00  0.00     0.042 C 
HETATM   32  C3  UNL     1       1.915   7.038   6.476  1.00  0.00     0.042 C 
ENDBRANCH  28  29
ENDBRANCH  27  28
ENDBRANCH  25  27
ENDBRANCH   1  25
TORSDOF 4
ENDMDL
MODEL 9
REMARK minimizedAffinity -9.12273502
REMARK CNNscore 0.26184535
REMARK CNNaffinity 6.6049881
REMARK  4 active torsions:
REMARK  status: ('A' for Active; 'I' for Inactive)
REMARK    1  A    between atoms: C4_4  and  C5_5 
REMARK    2  A    between atoms: C5_5  and  C6_6 
REMARK    3  A    between atoms: C6_6  and  C7_7 
REMARK    4  A    between atoms: C7_7  and  C9_9 
ROOT
HETATM    1  C9  UNL     1      -2.529   7.957  14.957  1.00  0.00    -0.002 C 
HETATM    2  C10 UNL     1      -2.015   9.357  15.369  1.00  0.00     0.007 C 
HETATM    3  C11 UNL     1      -0.641   9.542  14.684  1.00  0.00     0.015 C 
HETATM    4  C12 UNL     1      -0.243   8.127  14.201  1.00  0.00    -0.013 C 
HETATM    5  C13 UNL     1       0.389   7.408  15.437  1.00  0.00     0.021 C 
HETATM    6  C14 UNL     1       0.781   7.958  13.082  1.00  0.00    -0.070 C 
HETATM    7  C15 UNL     1       1.621   8.943  12.724  1.00  0.00    -0.022 C 
HETATM    8  C16 UNL     1       2.772   8.772  11.782  1.00  0.00     0.035 C 
HETATM    9  C17 UNL     1       3.115   7.291  11.468  1.00  0.00     0.032 C 
HETATM   10  C18 UNL     1       4.345   7.159  10.479  1.00  0.00     0.068 C 
HETATM   11  C19 UNL     1       5.315   8.360  10.486  1.00  0.00     0.047 C 
HETATM   12  C20 UNL     1       5.214   5.942  10.880  1.00  0.00     0.047 C 
HETATM   13  O1  UNL     1       3.934   6.890   9.126  1.00  0.00    -0.310 OA
HETATM   14  C21 UNL     1       3.025   7.750   8.607  1.00  0.00     0.259 C 
HETATM   15  O2  UNL     1       3.258   8.901   8.272  1.00  0.00    -0.265 OA
HETATM   16  C22 UNL     1       1.685   7.089   8.556  1.00  0.00     0.112 C 
HETATM   17  C23 UNL     1       0.997   7.120   9.919  1.00  0.00     0.020 C 
HETATM   18  C24 UNL     1       1.773   6.496  11.134  1.00  0.00    -0.029 C 
HETATM   19  C25 UNL     1       2.044   5.005  10.829  1.00  0.00     0.016 C 
HETATM   20  C26 UNL     1       0.879   6.551  12.469  1.00  0.00     0.024 C 
HETATM   21  C27 UNL     1      -0.497   5.819  12.332  1.00  0.00     0.010 C 
HETATM   22  C28 UNL     1      -1.524   6.086  13.445  1.00  0.00     0.011 C 
HETATM   23  C29 UNL     1      -1.643   7.589  13.732  1.00  0.00    -0.029 C 
HETATM   24  C30 UNL     1      -2.130   8.305  12.438  1.00  0.00     0.016 C 
ENDROOT
BRANCH   1  25
HETATM   25  C7  UNL     1      -4.064   7.714  14.969  1.00  0.00    -0.014 C 
HETATM   26  C8  UNL     1      -4.732   8.595  13.897  1.00  0.00     0.010 C 
BRANCH  25  27
HETATM   27  C6  UNL     1      -4.659   6.287  14.963  1.00  0.00     0.008 C 
BRANCH  27  28
HETATM   28  C5  UNL     1      -5.499   5.787  13.780  1.00  0.00     0.028 C 
BRANCH  28  29
HETATM   29  C4  UNL     1      -4.781   4.833  12.866  1.00  0.00    -0.025 C 
HETATM   30  C2  UNL     1      -5.243   3.685  12.333  1.00  0.00    -0.091 C 
HETATM   31  C1  UNL     1      -6.627   3.128  12.526  1.00  0.00     0.042 C 
HETATM   32  C3  UNL     1      -4.359   2.841  11.451  1.00  0.00     0.042 C 
ENDBRANCH  28  29
ENDBRANCH  27  28
ENDBRANCH  25  27
ENDBRANCH   1  25
TORSDOF 4
ENDMDL
