MODEL 1
REMARK minimizedAffinity -8.34597301
REMARK CNNscore 0.541941702
REMARK CNNaffinity 7.56845999
REMARK  12 active torsions:
REMARK  status: ('A' for Active; 'I' for Inactive)
REMARK    1  A    between atoms: O1_2  and  C2_3 
REMARK    2  A    between atoms: C2_3  and  C5_6 
REMARK    3  A    between atoms: C6_7  and  C7_8 
REMARK    4  A    between atoms: C7_8  and  C8_9 
REMARK    5  A    between atoms: C8_9  and  C10_11 
REMARK    6  A    between atoms: C28_30  and  O3_31 
REMARK    7  A    between atoms: O3_31  and  C29_32 
REMARK    8  A    between atoms: C30_34  and  C31_35 
REMARK    9  A    between atoms: C31_35  and  O5_36 
REMARK   10  A    between atoms: C32_37  and  O6_38 
REMARK   11  A    between atoms: C33_39  and  O7_40 
REMARK   12  A    between atoms: C34_41  and  O8_42 
ROOT
HETATM    1  C10 UNL     1      -1.194  51.327 -22.079  1.00  0.00    -0.002 C 
HETATM    2  C11 UNL     1      -1.312  50.760 -23.534  1.00  0.00     0.006 C 
HETATM    3  C12 UNL     1      -2.320  49.593 -23.503  1.00  0.00     0.011 C 
HETATM    4  C13 UNL     1      -3.008  49.722 -22.135  1.00  0.00    -0.029 C 
HETATM    5  C14 UNL     1      -4.094  50.832 -22.318  1.00  0.00     0.016 C 
HETATM    6  C15 UNL     1      -3.634  48.414 -21.570  1.00  0.00     0.028 C 
HETATM    7  C16 UNL     1      -4.724  47.786 -22.403  1.00  0.00    -0.021 C 
HETATM    8  C17 UNL     1      -5.741  47.140 -21.812  1.00  0.00     0.008 C 
HETATM    9  C18 UNL     1      -5.833  46.960 -20.295  1.00  0.00     0.092 C 
HETATM   10  O2  UNL     1      -6.519  48.163 -19.878  1.00  0.00    -0.374 OA
HETATM   11  C19 UNL     1      -5.512  49.227 -19.877  1.00  0.00     0.179 C 
HETATM   12  C20 UNL     1      -4.099  48.564 -20.072  1.00  0.00    -0.004 C 
HETATM   13  C21 UNL     1      -3.033  49.255 -19.189  1.00  0.00     0.014 C 
HETATM   14  C22 UNL     1      -2.328  50.475 -19.821  1.00  0.00     0.011 C 
HETATM   15  C23 UNL     1      -1.783  50.156 -21.228  1.00  0.00    -0.032 C 
HETATM   16  C24 UNL     1      -0.676  49.062 -21.075  1.00  0.00     0.016 C 
HETATM   17  C25 UNL     1      -4.504  47.183 -19.541  1.00  0.00     0.036 C 
HETATM   18  C26 UNL     1      -3.609  45.964 -19.631  1.00  0.00     0.011 C 
HETATM   19  C27 UNL     1      -4.277  44.814 -18.858  1.00  0.00     0.033 C 
HETATM   20  C28 UNL     1      -5.794  45.015 -18.598  1.00  0.00     0.136 C 
HETATM   21  C35 UNL     1      -6.534  45.612 -19.850  1.00  0.00     0.014 C 
HETATM   22  C36 UNL     1      -8.014  45.866 -19.492  1.00  0.00     0.021 C 
HETATM   23  C37 UNL     1      -6.525  44.528 -20.966  1.00  0.00     0.021 C 
ENDROOT
BRANCH  20  24
HETATM   24  O3  UNL     1      -6.404  43.764 -18.236  1.00  0.00    -0.352 OA
BRANCH  24  25
HETATM   25  C29 UNL     1      -5.475  42.703 -17.988  1.00  0.00     0.292 C 
HETATM   26  O4  UNL     1      -5.647  41.635 -18.910  1.00  0.00    -0.348 OA
HETATM   27  C30 UNL     1      -4.733  40.548 -18.688  1.00  0.00     0.179 C 
HETATM   28  C32 UNL     1      -4.953  39.944 -17.295  1.00  0.00     0.180 C 
HETATM   29  C33 UNL     1      -4.838  41.039 -16.232  1.00  0.00     0.183 C 
HETATM   30  C34 UNL     1      -5.758  42.209 -16.557  1.00  0.00     0.204 C 
BRANCH  27  31
HETATM   31  C31 UNL     1      -4.955  39.495 -19.786  1.00  0.00     0.198 C 
BRANCH  31  32
HETATM   32  O5  UNL     1      -5.140  40.120 -21.060  1.00  0.00    -0.398 OA
HETATM   33  H48 UNL     1      -4.315  40.586 -21.277  1.00  0.00     0.209 HD
ENDBRANCH  31  32
ENDBRANCH  27  31
BRANCH  28  34
HETATM   34  O6  UNL     1      -3.986  38.928 -17.021  1.00  0.00    -0.390 OA
HETATM   35  H50 UNL     1      -4.088  38.730 -16.066  1.00  0.00     0.210 HD
ENDBRANCH  28  34
BRANCH  29  36
HETATM   36  O7  UNL     1      -5.165  40.483 -14.948  1.00  0.00    -0.390 OA
HETATM   37  H52 UNL     1      -5.248  41.254 -14.352  1.00  0.00     0.210 HD
ENDBRANCH  29  36
BRANCH  30  38
HETATM   38  O8  UNL     1      -5.548  43.248 -15.588  1.00  0.00    -0.388 OA
HETATM   39  H54 UNL     1      -6.073  44.008 -15.915  1.00  0.00     0.210 HD
ENDBRANCH  30  38
ENDBRANCH  24  25
ENDBRANCH  20  24
BRANCH   1  40
HETATM   40  C8  UNL     1       0.236  51.878 -21.790  1.00  0.00    -0.010 C 
HETATM   41  C9  UNL     1       0.424  52.248 -20.314  1.00  0.00     0.010 C 
BRANCH  40  42
HETATM   42  C7  UNL     1       0.527  53.109 -22.693  1.00  0.00     0.031 C 
BRANCH  42  43
HETATM   43  C6  UNL     1       0.318  52.855 -24.164  1.00  0.00    -0.027 C 
HETATM   44  C5  UNL     1       1.266  52.342 -24.967  1.00  0.00     0.006 C 
BRANCH  44  45
HETATM   45  C2  UNL     1       1.160  52.037 -26.450  1.00  0.00     0.070 C 
HETATM   46  C3  UNL     1       0.164  50.930 -26.834  1.00  0.00     0.050 C 
HETATM   47  C4  UNL     1       2.555  51.613 -26.941  1.00  0.00     0.050 C 
BRANCH  45  48
HETATM   48  O1  UNL     1       0.878  53.265 -27.145  1.00  0.00    -0.382 OA
HETATM   49  C1  UNL     1      -0.383  53.336 -27.801  1.00  0.00     0.202 C 
ENDBRANCH  45  48
ENDBRANCH  44  45
ENDBRANCH  42  43
ENDBRANCH  40  42
ENDBRANCH   1  40
TORSDOF 12
ENDMDL
MODEL 2
REMARK minimizedAffinity -10.4832458
REMARK CNNscore 0.501453638
REMARK CNNaffinity 7.3855195
REMARK  12 active torsions:
REMARK  status: ('A' for Active; 'I' for Inactive)
REMARK    1  A    between atoms: O1_2  and  C2_3 
REMARK    2  A    between atoms: C2_3  and  C5_6 
REMARK    3  A    between atoms: C6_7  and  C7_8 
REMARK    4  A    between atoms: C7_8  and  C8_9 
REMARK    5  A    between atoms: C8_9  and  C10_11 
REMARK    6  A    between atoms: C28_30  and  O3_31 
REMARK    7  A    between atoms: O3_31  and  C29_32 
REMARK    8  A    between atoms: C30_34  and  C31_35 
REMARK    9  A    between atoms: C31_35  and  O5_36 
REMARK   10  A    between atoms: C32_37  and  O6_38 
REMARK   11  A    between atoms: C33_39  and  O7_40 
REMARK   12  A    between atoms: C34_41  and  O8_42 
ROOT
HETATM    1  C10 UNL     1      -0.120  51.050 -20.866  1.00  0.00    -0.002 C 
HETATM    2  C11 UNL     1      -0.623  51.449 -19.439  1.00  0.00     0.006 C 
HETATM    3  C12 UNL     1      -2.070  50.937 -19.290  1.00  0.00     0.011 C 
HETATM    4  C13 UNL     1      -2.257  49.977 -20.476  1.00  0.00    -0.029 C 
HETATM    5  C14 UNL     1      -1.594  48.633 -20.031  1.00  0.00     0.016 C 
HETATM    6  C15 UNL     1      -3.726  49.751 -20.936  1.00  0.00     0.028 C 
HETATM    7  C16 UNL     1      -4.659  49.156 -19.910  1.00  0.00    -0.021 C 
HETATM    8  C17 UNL     1      -5.649  48.334 -20.292  1.00  0.00     0.008 C 
HETATM    9  C18 UNL     1      -5.920  47.995 -21.759  1.00  0.00     0.092 C 
HETATM   10  O2  UNL     1      -5.058  46.857 -21.982  1.00  0.00    -0.374 OA
HETATM   11  C19 UNL     1      -3.708  47.397 -22.164  1.00  0.00     0.179 C 
HETATM   12  C20 UNL     1      -3.820  48.960 -22.295  1.00  0.00    -0.004 C 
HETATM   13  C21 UNL     1      -2.839  49.501 -23.363  1.00  0.00     0.014 C 
HETATM   14  C22 UNL     1      -1.421  49.844 -22.857  1.00  0.00     0.011 C 
HETATM   15  C23 UNL     1      -1.461  50.749 -21.609  1.00  0.00    -0.032 C 
HETATM   16  C24 UNL     1      -2.100  52.113 -22.028  1.00  0.00     0.016 C 
HETATM   17  C25 UNL     1      -5.278  48.969 -22.771  1.00  0.00     0.036 C 
HETATM   18  C26 UNL     1      -6.098  50.236 -22.912  1.00  0.00     0.011 C 
HETATM   19  C27 UNL     1      -7.444  49.872 -23.562  1.00  0.00     0.033 C 
HETATM   20  C28 UNL     1      -7.803  48.364 -23.486  1.00  0.00     0.136 C 
HETATM   21  C35 UNL     1      -7.448  47.741 -22.086  1.00  0.00     0.014 C 
HETATM   22  C36 UNL     1      -7.749  46.227 -22.113  1.00  0.00     0.021 C 
HETATM   23  C37 UNL     1      -8.406  48.369 -21.033  1.00  0.00     0.021 C 
ENDROOT
BRANCH  20  24
HETATM   24  O3  UNL     1      -9.204  48.175 -23.749  1.00  0.00    -0.352 OA
BRANCH  24  25
HETATM   25  C29 UNL     1      -9.498  47.676 -25.058  1.00  0.00     0.292 C 
HETATM   26  O4  UNL     1      -8.784  46.477 -25.331  1.00  0.00    -0.348 OA
HETATM   27  C30 UNL     1      -9.051  45.949 -26.640  1.00  0.00     0.179 C 
HETATM   28  C32 UNL     1      -8.619  46.953 -27.717  1.00  0.00     0.180 C 
HETATM   29  C33 UNL     1      -9.304  48.300 -27.473  1.00  0.00     0.183 C 
HETATM   30  C34 UNL     1      -9.069  48.777 -26.045  1.00  0.00     0.204 C 
BRANCH  27  31
HETATM   31  C31 UNL     1      -8.293  44.620 -26.791  1.00  0.00     0.198 C 
BRANCH  31  32
HETATM   32  O5  UNL     1      -8.364  43.854 -25.584  1.00  0.00    -0.398 OA
HETATM   33  H48 UNL     1      -9.298  43.632 -25.437  1.00  0.00     0.209 HD
ENDBRANCH  31  32
ENDBRANCH  27  31
BRANCH  28  34
HETATM   34  O6  UNL     1      -8.970  46.484 -29.021  1.00  0.00    -0.390 OA
HETATM   35  H50 UNL     1      -8.823  47.250 -29.616  1.00  0.00     0.210 HD
ENDBRANCH  28  34
BRANCH  29  36
HETATM   36  O7  UNL     1      -8.800  49.260 -28.415  1.00  0.00    -0.390 OA
HETATM   37  H52 UNL     1      -9.133  50.124 -28.099  1.00  0.00     0.210 HD
ENDBRANCH  29  36
BRANCH  30  38
HETATM   38  O8  UNL     1      -9.804  49.992 -25.835  1.00  0.00    -0.388 OA
HETATM   39  H54 UNL     1      -9.709  50.182 -24.879  1.00  0.00     0.210 HD
ENDBRANCH  30  38
ENDBRANCH  24  25
ENDBRANCH  20  24
BRANCH   1  40
HETATM   40  C8  UNL     1       0.887  52.097 -21.435  1.00  0.00    -0.010 C 
HETATM   41  C9  UNL     1       1.365  53.081 -20.361  1.00  0.00     0.010 C 
BRANCH  40  42
HETATM   42  C7  UNL     1       0.241  52.868 -22.620  1.00  0.00     0.031 C 
BRANCH  42  43
HETATM   43  C6  UNL     1       0.313  52.142 -23.939  1.00  0.00    -0.027 C 
HETATM   44  C5  UNL     1       0.999  52.602 -24.999  1.00  0.00     0.006 C 
BRANCH  44  45
HETATM   45  C2  UNL     1       1.146  51.951 -26.362  1.00  0.00     0.070 C 
HETATM   46  C3  UNL     1       0.149  50.823 -26.674  1.00  0.00     0.050 C 
HETATM   47  C4  UNL     1       2.567  51.367 -26.450  1.00  0.00     0.050 C 
BRANCH  45  48
HETATM   48  O1  UNL     1       1.106  52.983 -27.364  1.00  0.00    -0.382 OA
HETATM   49  C1  UNL     1      -0.188  53.457 -27.721  1.00  0.00     0.202 C 
ENDBRANCH  45  48
ENDBRANCH  44  45
ENDBRANCH  42  43
ENDBRANCH  40  42
ENDBRANCH   1  40
TORSDOF 12
ENDMDL
MODEL 3
REMARK minimizedAffinity -8.65676403
REMARK CNNscore 0.497281939
REMARK CNNaffinity 7.47383833
REMARK  12 active torsions:
REMARK  status: ('A' for Active; 'I' for Inactive)
REMARK    1  A    between atoms: O1_2  and  C2_3 
REMARK    2  A    between atoms: C2_3  and  C5_6 
REMARK    3  A    between atoms: C6_7  and  C7_8 
REMARK    4  A    between atoms: C7_8  and  C8_9 
REMARK    5  A    between atoms: C8_9  and  C10_11 
REMARK    6  A    between atoms: C28_30  and  O3_31 
REMARK    7  A    between atoms: O3_31  and  C29_32 
REMARK    8  A    between atoms: C30_34  and  C31_35 
REMARK    9  A    between atoms: C31_35  and  O5_36 
REMARK   10  A    between atoms: C32_37  and  O6_38 
REMARK   11  A    between atoms: C33_39  and  O7_40 
REMARK   12  A    between atoms: C34_41  and  O8_42 
ROOT
HETATM    1  C10 UNL     1      -2.986  50.405 -25.040  1.00  0.00    -0.002 C 
HETATM    2  C11 UNL     1      -3.332  51.899 -24.732  1.00  0.00     0.006 C 
HETATM    3  C12 UNL     1      -3.272  52.091 -23.202  1.00  0.00     0.011 C 
HETATM    4  C13 UNL     1      -2.575  50.820 -22.689  1.00  0.00    -0.029 C 
HETATM    5  C14 UNL     1      -1.048  51.064 -22.913  1.00  0.00     0.016 C 
HETATM    6  C15 UNL     1      -2.870  50.442 -21.208  1.00  0.00     0.028 C 
HETATM    7  C16 UNL     1      -2.461  51.457 -20.170  1.00  0.00    -0.021 C 
HETATM    8  C17 UNL     1      -2.036  51.056 -18.961  1.00  0.00     0.008 C 
HETATM    9  C18 UNL     1      -1.988  49.583 -18.551  1.00  0.00     0.092 C 
HETATM   10  O2  UNL     1      -0.679  49.173 -19.009  1.00  0.00    -0.374 OA
HETATM   11  C19 UNL     1      -0.800  48.959 -20.453  1.00  0.00     0.179 C 
HETATM   12  C20 UNL     1      -2.326  49.012 -20.829  1.00  0.00    -0.004 C 
HETATM   13  C21 UNL     1      -2.674  47.946 -21.896  1.00  0.00     0.014 C 
HETATM   14  C22 UNL     1      -2.500  48.387 -23.365  1.00  0.00     0.011 C 
HETATM   15  C23 UNL     1      -3.206  49.728 -23.649  1.00  0.00    -0.032 C 
HETATM   16  C24 UNL     1      -4.742  49.511 -23.453  1.00  0.00     0.016 C 
HETATM   17  C25 UNL     1      -2.841  48.644 -19.432  1.00  0.00     0.036 C 
HETATM   18  C26 UNL     1      -4.304  48.703 -19.044  1.00  0.00     0.011 C 
HETATM   19  C27 UNL     1      -4.455  48.113 -17.631  1.00  0.00     0.033 C 
HETATM   20  C28 UNL     1      -3.132  48.044 -16.823  1.00  0.00     0.136 C 
HETATM   21  C35 UNL     1      -2.256  49.337 -17.011  1.00  0.00     0.014 C 
HETATM   22  C36 UNL     1      -0.923  49.161 -16.252  1.00  0.00     0.021 C 
HETATM   23  C37 UNL     1      -3.005  50.518 -16.330  1.00  0.00     0.021 C 
ENDROOT
BRANCH  20  24
HETATM   24  O3  UNL     1      -3.415  47.860 -15.425  1.00  0.00    -0.352 OA
BRANCH  24  25
HETATM   25  C29 UNL     1      -3.354  46.500 -14.983  1.00  0.00     0.292 C 
HETATM   26  O4  UNL     1      -2.873  45.641 -16.009  1.00  0.00    -0.348 OA
HETATM   27  C30 UNL     1      -2.802  44.264 -15.602  1.00  0.00     0.179 C 
HETATM   28  C32 UNL     1      -4.200  43.745 -15.236  1.00  0.00     0.180 C 
HETATM   29  C33 UNL     1      -4.822  44.646 -14.167  1.00  0.00     0.183 C 
HETATM   30  C34 UNL     1      -4.793  46.105 -14.603  1.00  0.00     0.204 C 
BRANCH  27  31
HETATM   31  C31 UNL     1      -2.197  43.448 -16.755  1.00  0.00     0.198 C 
BRANCH  31  32
HETATM   32  O5  UNL     1      -1.619  42.232 -16.269  1.00  0.00    -0.398 OA
HETATM   33  H48 UNL     1      -2.339  41.699 -15.893  1.00  0.00     0.209 HD
ENDBRANCH  31  32
ENDBRANCH  27  31
BRANCH  28  34
HETATM   34  O6  UNL     1      -4.131  42.408 -14.735  1.00  0.00    -0.390 OA
HETATM   35  H50 UNL     1      -5.023  42.229 -14.367  1.00  0.00     0.210 HD
ENDBRANCH  28  34
BRANCH  29  36
HETATM   36  O7  UNL     1      -6.172  44.220 -13.923  1.00  0.00    -0.390 OA
HETATM   37  H52 UNL     1      -6.567  44.929 -13.376  1.00  0.00     0.210 HD
ENDBRANCH  29  36
BRANCH  30  38
HETATM   38  O8  UNL     1      -5.300  46.920 -13.534  1.00  0.00    -0.388 OA
HETATM   39  H54 UNL     1      -5.147  47.842 -13.825  1.00  0.00     0.210 HD
ENDBRANCH  30  38
ENDBRANCH  24  25
ENDBRANCH  20  24
BRANCH   1  40
HETATM   40  C8  UNL     1      -3.739  49.887 -26.304  1.00  0.00    -0.010 C 
HETATM   41  C9  UNL     1      -3.774  48.356 -26.368  1.00  0.00     0.010 C 
BRANCH  40  42
HETATM   42  C7  UNL     1      -3.084  50.464 -27.589  1.00  0.00     0.031 C 
BRANCH  42  43
HETATM   43  C6  UNL     1      -2.099  51.574 -27.333  1.00  0.00    -0.027 C 
HETATM   44  C5  UNL     1      -0.768  51.421 -27.441  1.00  0.00     0.006 C 
BRANCH  44  45
HETATM   45  C2  UNL     1       0.308  52.467 -27.218  1.00  0.00     0.070 C 
HETATM   46  C3  UNL     1       0.559  52.863 -25.753  1.00  0.00     0.050 C 
HETATM   47  C4  UNL     1      -0.104  53.733 -27.988  1.00  0.00     0.050 C 
BRANCH  45  48
HETATM   48  O1  UNL     1       1.517  52.019 -27.857  1.00  0.00    -0.382 OA
HETATM   49  C1  UNL     1       2.556  51.578 -26.991  1.00  0.00     0.202 C 
ENDBRANCH  45  48
ENDBRANCH  44  45
ENDBRANCH  42  43
ENDBRANCH  40  42
ENDBRANCH   1  40
TORSDOF 12
ENDMDL
MODEL 4
REMARK minimizedAffinity -8.06530952
REMARK CNNscore 0.406949222
REMARK CNNaffinity 6.1742897
REMARK  12 active torsions:
REMARK  status: ('A' for Active; 'I' for Inactive)
REMARK    1  A    between atoms: O1_2  and  C2_3 
REMARK    2  A    between atoms: C2_3  and  C5_6 
REMARK    3  A    between atoms: C6_7  and  C7_8 
REMARK    4  A    between atoms: C7_8  and  C8_9 
REMARK    5  A    between atoms: C8_9  and  C10_11 
REMARK    6  A    between atoms: C28_30  and  O3_31 
REMARK    7  A    between atoms: O3_31  and  C29_32 
REMARK    8  A    between atoms: C30_34  and  C31_35 
REMARK    9  A    between atoms: C31_35  and  O5_36 
REMARK   10  A    between atoms: C32_37  and  O6_38 
REMARK   11  A    between atoms: C33_39  and  O7_40 
REMARK   12  A    between atoms: C34_41  and  O8_42 
ROOT
HETATM    1  C10 UNL     1      -5.124  46.359 -30.969  1.00  0.00    -0.002 C 
HETATM    2  C11 UNL     1      -5.167  47.916 -31.113  1.00  0.00     0.006 C 
HETATM    3  C12 UNL     1      -6.449  48.418 -30.417  1.00  0.00     0.011 C 
HETATM    4  C13 UNL     1      -6.938  47.207 -29.606  1.00  0.00    -0.029 C 
HETATM    5  C14 UNL     1      -6.073  47.201 -28.304  1.00  0.00     0.016 C 
HETATM    6  C15 UNL     1      -8.458  47.191 -29.268  1.00  0.00     0.028 C 
HETATM    7  C16 UNL     1      -8.964  48.343 -28.436  1.00  0.00    -0.021 C 
HETATM    8  C17 UNL     1      -9.962  48.156 -27.558  1.00  0.00     0.008 C 
HETATM    9  C18 UNL     1     -10.668  46.809 -27.386  1.00  0.00     0.092 C 
HETATM   10  O2  UNL     1      -9.844  46.148 -26.398  1.00  0.00    -0.374 OA
HETATM   11  C19 UNL     1      -8.667  45.650 -27.116  1.00  0.00     0.179 C 
HETATM   12  C20 UNL     1      -8.928  45.817 -28.657  1.00  0.00    -0.004 C 
HETATM   13  C21 UNL     1      -8.385  44.603 -29.448  1.00  0.00     0.014 C 
HETATM   14  C22 UNL     1      -6.908  44.696 -29.889  1.00  0.00     0.011 C 
HETATM   15  C23 UNL     1      -6.608  46.026 -30.610  1.00  0.00    -0.032 C 
HETATM   16  C24 UNL     1      -7.444  46.052 -31.931  1.00  0.00     0.016 C 
HETATM   17  C25 UNL     1     -10.458  45.821 -28.555  1.00  0.00     0.036 C 
HETATM   18  C26 UNL     1     -11.368  46.148 -29.721  1.00  0.00     0.011 C 
HETATM   19  C27 UNL     1     -12.822  45.895 -29.287  1.00  0.00     0.033 C 
HETATM   20  C28 UNL     1     -13.028  45.830 -27.751  1.00  0.00     0.136 C 
HETATM   21  C35 UNL     1     -12.197  46.931 -26.996  1.00  0.00     0.014 C 
HETATM   22  C36 UNL     1     -12.381  46.752 -25.473  1.00  0.00     0.021 C 
HETATM   23  C37 UNL     1     -12.807  48.316 -27.359  1.00  0.00     0.021 C 
ENDROOT
BRANCH  20  24
HETATM   24  O3  UNL     1     -14.422  45.984 -27.432  1.00  0.00    -0.352 OA
BRANCH  24  25
HETATM   25  C29 UNL     1     -15.153  44.755 -27.368  1.00  0.00     0.292 C 
HETATM   26  O4  UNL     1     -16.041  44.619 -28.470  1.00  0.00    -0.348 OA
HETATM   27  C30 UNL     1     -16.797  43.397 -28.436  1.00  0.00     0.179 C 
HETATM   28  C32 UNL     1     -17.673  43.348 -27.177  1.00  0.00     0.180 C 
HETATM   29  C33 UNL     1     -16.803  43.539 -25.933  1.00  0.00     0.183 C 
HETATM   30  C34 UNL     1     -15.954  44.798 -26.053  1.00  0.00     0.204 C 
BRANCH  27  31
HETATM   31  C31 UNL     1     -17.656  43.322 -29.708  1.00  0.00     0.198 C 
BRANCH  31  32
HETATM   32  O5  UNL     1     -18.901  44.002 -29.522  1.00  0.00    -0.398 OA
HETATM   33  H48 UNL     1     -18.699  44.941 -29.372  1.00  0.00     0.209 HD
ENDBRANCH  31  32
ENDBRANCH  27  31
BRANCH  28  34
HETATM   34  O6  UNL     1     -18.355  42.095 -27.080  1.00  0.00    -0.390 OA
HETATM   35  H50 UNL     1     -18.739  42.084 -26.177  1.00  0.00     0.210 HD
ENDBRANCH  28  34
BRANCH  29  36
HETATM   36  O7  UNL     1     -17.650  43.611 -24.775  1.00  0.00    -0.390 OA
HETATM   37  H52 UNL     1     -17.064  43.908 -24.050  1.00  0.00     0.210 HD
ENDBRANCH  29  36
BRANCH  30  38
HETATM   38  O8  UNL     1     -15.089  44.886 -24.910  1.00  0.00    -0.388 OA
HETATM   39  H54 UNL     1     -14.494  45.641 -25.100  1.00  0.00     0.210 HD
ENDBRANCH  30  38
ENDBRANCH  24  25
ENDBRANCH  20  24
BRANCH   1  40
HETATM   40  C8  UNL     1      -4.433  45.686 -32.195  1.00  0.00    -0.010 C 
HETATM   41  C9  UNL     1      -4.319  46.641 -33.389  1.00  0.00     0.010 C 
BRANCH  40  42
HETATM   42  C7  UNL     1      -5.208  44.403 -32.607  1.00  0.00     0.031 C 
BRANCH  42  43
HETATM   43  C6  UNL     1      -4.341  43.179 -32.745  1.00  0.00    -0.027 C 
HETATM   44  C5  UNL     1      -4.604  42.180 -33.605  1.00  0.00     0.006 C 
BRANCH  44  45
HETATM   45  C2  UNL     1      -3.798  40.915 -33.833  1.00  0.00     0.070 C 
HETATM   46  C3  UNL     1      -4.373  39.636 -33.202  1.00  0.00     0.050 C 
HETATM   47  C4  UNL     1      -2.393  41.144 -33.248  1.00  0.00     0.050 C 
BRANCH  45  48
HETATM   48  O1  UNL     1      -3.591  40.758 -35.248  1.00  0.00    -0.382 OA
HETATM   49  C1  UNL     1      -4.437  41.528 -36.093  1.00  0.00     0.202 C 
ENDBRANCH  45  48
ENDBRANCH  44  45
ENDBRANCH  42  43
ENDBRANCH  40  42
ENDBRANCH   1  40
TORSDOF 12
ENDMDL
MODEL 5
REMARK minimizedAffinity -10.7080517
REMARK CNNscore 0.357741624
REMARK CNNaffinity 7.30774498
REMARK  12 active torsions:
REMARK  status: ('A' for Active; 'I' for Inactive)
REMARK    1  A    between atoms: O1_2  and  C2_3 
REMARK    2  A    between atoms: C2_3  and  C5_6 
REMARK    3  A    between atoms: C6_7  and  C7_8 
REMARK    4  A    between atoms: C7_8  and  C8_9 
REMARK    5  A    between atoms: C8_9  and  C10_11 
REMARK    6  A    between atoms: C28_30  and  O3_31 
REMARK    7  A    between atoms: O3_31  and  C29_32 
REMARK    8  A    between atoms: C30_34  and  C31_35 
REMARK    9  A    between atoms: C31_35  and  O5_36 
REMARK   10  A    between atoms: C32_37  and  O6_38 
REMARK   11  A    between atoms: C33_39  and  O7_40 
REMARK   12  A    between atoms: C34_41  and  O8_42 
ROOT
HETATM    1  C10 UNL     1      -0.437  51.280 -20.332  1.00  0.00    -0.002 C 
HETATM    2  C11 UNL     1      -1.226  51.859 -19.110  1.00  0.00     0.006 C 
HETATM    3  C12 UNL     1      -2.581  51.125 -19.035  1.00  0.00     0.011 C 
HETATM    4  C13 UNL     1      -2.416  49.926 -19.983  1.00  0.00    -0.029 C 
HETATM    5  C14 UNL     1      -1.636  48.850 -19.160  1.00  0.00     0.016 C 
HETATM    6  C15 UNL     1      -3.736  49.339 -20.563  1.00  0.00     0.028 C 
HETATM    7  C16 UNL     1      -4.721  48.801 -19.555  1.00  0.00    -0.021 C 
HETATM    8  C17 UNL     1      -5.494  47.747 -19.861  1.00  0.00     0.008 C 
HETATM    9  C18 UNL     1      -5.462  47.072 -21.234  1.00  0.00     0.092 C 
HETATM   10  O2  UNL     1      -4.408  46.095 -21.078  1.00  0.00    -0.374 OA
HETATM   11  C19 UNL     1      -3.148  46.830 -21.205  1.00  0.00     0.179 C 
HETATM   12  C20 UNL     1      -3.478  48.284 -21.704  1.00  0.00    -0.004 C 
HETATM   13  C21 UNL     1      -2.429  48.771 -22.733  1.00  0.00     0.014 C 
HETATM   14  C22 UNL     1      -1.186  49.471 -22.142  1.00  0.00     0.011 C 
HETATM   15  C23 UNL     1      -1.573  50.587 -21.151  1.00  0.00    -0.032 C 
HETATM   16  C24 UNL     1      -2.338  51.692 -21.950  1.00  0.00     0.016 C 
HETATM   17  C25 UNL     1      -4.820  47.922 -22.352  1.00  0.00     0.036 C 
HETATM   18  C26 UNL     1      -5.792  48.956 -22.884  1.00  0.00     0.011 C 
HETATM   19  C27 UNL     1      -6.939  48.221 -23.599  1.00  0.00     0.033 C 
HETATM   20  C28 UNL     1      -7.066  46.720 -23.226  1.00  0.00     0.136 C 
HETATM   21  C35 UNL     1      -6.856  46.473 -21.687  1.00  0.00     0.014 C 
HETATM   22  C36 UNL     1      -6.909  44.956 -21.404  1.00  0.00     0.021 C 
HETATM   23  C37 UNL     1      -8.061  47.110 -20.937  1.00  0.00     0.021 C 
ENDROOT
BRANCH  20  24
HETATM   24  O3  UNL     1      -8.358  46.222 -23.616  1.00  0.00    -0.352 OA
BRANCH  24  25
HETATM   25  C29 UNL     1      -8.712  46.497 -24.975  1.00  0.00     0.292 C 
HETATM   26  O4  UNL     1      -7.584  46.913 -25.733  1.00  0.00    -0.348 OA
HETATM   27  C30 UNL     1      -7.903  47.204 -27.104  1.00  0.00     0.179 C 
HETATM   28  C32 UNL     1      -8.914  48.355 -27.183  1.00  0.00     0.180 C 
HETATM   29  C33 UNL     1     -10.151  48.016 -26.348  1.00  0.00     0.183 C 
HETATM   30  C34 UNL     1      -9.756  47.628 -24.928  1.00  0.00     0.204 C 
BRANCH  27  31
HETATM   31  C31 UNL     1      -6.602  47.562 -27.840  1.00  0.00     0.198 C 
BRANCH  31  32
HETATM   32  O5  UNL     1      -6.852  48.509 -28.884  1.00  0.00    -0.398 OA
HETATM   33  H48 UNL     1      -7.174  49.324 -28.464  1.00  0.00     0.209 HD
ENDBRANCH  31  32
ENDBRANCH  27  31
BRANCH  28  34
HETATM   34  O6  UNL     1      -9.317  48.589 -28.534  1.00  0.00    -0.390 OA
HETATM   35  H50 UNL     1     -10.078  49.204 -28.470  1.00  0.00     0.210 HD
ENDBRANCH  28  34
BRANCH  29  36
HETATM   36  O7  UNL     1     -11.033  49.150 -26.333  1.00  0.00    -0.390 OA
HETATM   37  H52 UNL     1     -11.702  48.941 -25.651  1.00  0.00     0.210 HD
ENDBRANCH  29  36
BRANCH  30  38
HETATM   38  O8  UNL     1     -10.935  47.229 -24.211  1.00  0.00    -0.388 OA
HETATM   39  H54 UNL     1     -10.606  46.883 -23.356  1.00  0.00     0.210 HD
ENDBRANCH  30  38
ENDBRANCH  24  25
ENDBRANCH  20  24
BRANCH   1  40
HETATM   40  C8  UNL     1       0.475  52.359 -20.993  1.00  0.00    -0.010 C 
HETATM   41  C9  UNL     1       0.818  53.496 -20.023  1.00  0.00     0.010 C 
BRANCH  40  42
HETATM   42  C7  UNL     1      -0.210  52.929 -22.266  1.00  0.00     0.031 C 
BRANCH  42  43
HETATM   43  C6  UNL     1       0.399  52.449 -23.558  1.00  0.00    -0.027 C 
HETATM   44  C5  UNL     1      -0.020  52.857 -24.769  1.00  0.00     0.006 C 
BRANCH  44  45
HETATM   45  C2  UNL     1       0.525  52.449 -26.125  1.00  0.00     0.070 C 
HETATM   46  C3  UNL     1      -0.015  53.242 -27.326  1.00  0.00     0.050 C 
HETATM   47  C4  UNL     1       0.180  50.965 -26.341  1.00  0.00     0.050 C 
BRANCH  45  48
HETATM   48  O1  UNL     1       1.963  52.492 -26.068  1.00  0.00    -0.382 OA
HETATM   49  C1  UNL     1       2.644  51.369 -26.614  1.00  0.00     0.202 C 
ENDBRANCH  45  48
ENDBRANCH  44  45
ENDBRANCH  42  43
ENDBRANCH  40  42
ENDBRANCH   1  40
TORSDOF 12
ENDMDL
MODEL 6
REMARK minimizedAffinity -9.81210709
REMARK CNNscore 0.353936255
REMARK CNNaffinity 6.95679903
REMARK  12 active torsions:
REMARK  status: ('A' for Active; 'I' for Inactive)
REMARK    1  A    between atoms: O1_2  and  C2_3 
REMARK    2  A    between atoms: C2_3  and  C5_6 
REMARK    3  A    between atoms: C6_7  and  C7_8 
REMARK    4  A    between atoms: C7_8  and  C8_9 
REMARK    5  A    between atoms: C8_9  and  C10_11 
REMARK    6  A    between atoms: C28_30  and  O3_31 
REMARK    7  A    between atoms: O3_31  and  C29_32 
REMARK    8  A    between atoms: C30_34  and  C31_35 
REMARK    9  A    between atoms: C31_35  and  O5_36 
REMARK   10  A    between atoms: C32_37  and  O6_38 
REMARK   11  A    between atoms: C33_39  and  O7_40 
REMARK   12  A    between atoms: C34_41  and  O8_42 
ROOT
HETATM    1  C10 UNL     1      -1.033  51.284 -20.058  1.00  0.00    -0.002 C 
HETATM    2  C11 UNL     1      -1.906  51.763 -18.851  1.00  0.00     0.006 C 
HETATM    3  C12 UNL     1      -3.219  50.954 -18.870  1.00  0.00     0.011 C 
HETATM    4  C13 UNL     1      -2.945  49.809 -19.859  1.00  0.00    -0.029 C 
HETATM    5  C14 UNL     1      -2.141  48.742 -19.048  1.00  0.00     0.016 C 
HETATM    6  C15 UNL     1      -4.202  49.178 -20.525  1.00  0.00     0.028 C 
HETATM    7  C16 UNL     1      -5.198  48.541 -19.588  1.00  0.00    -0.021 C 
HETATM    8  C17 UNL     1      -5.896  47.460 -19.974  1.00  0.00     0.008 C 
HETATM    9  C18 UNL     1      -5.765  46.851 -21.372  1.00  0.00     0.092 C 
HETATM   10  O2  UNL     1      -4.665  45.927 -21.208  1.00  0.00    -0.374 OA
HETATM   11  C19 UNL     1      -3.444  46.736 -21.245  1.00  0.00     0.179 C 
HETATM   12  C20 UNL     1      -3.835  48.191 -21.697  1.00  0.00    -0.004 C 
HETATM   13  C21 UNL     1      -2.771  48.781 -22.654  1.00  0.00     0.014 C 
HETATM   14  C22 UNL     1      -1.597  49.520 -21.977  1.00  0.00     0.011 C 
HETATM   15  C23 UNL     1      -2.090  50.568 -20.958  1.00  0.00    -0.032 C 
HETATM   16  C24 UNL     1      -2.881  51.664 -21.744  1.00  0.00     0.016 C 
HETATM   17  C25 UNL     1      -5.124  47.785 -22.421  1.00  0.00     0.036 C 
HETATM   18  C26 UNL     1      -6.129  48.787 -22.953  1.00  0.00     0.011 C 
HETATM   19  C27 UNL     1      -7.199  48.023 -23.751  1.00  0.00     0.033 C 
HETATM   20  C28 UNL     1      -7.257  46.502 -23.449  1.00  0.00     0.136 C 
HETATM   21  C35 UNL     1      -7.101  46.198 -21.914  1.00  0.00     0.014 C 
HETATM   22  C36 UNL     1      -7.080  44.669 -21.699  1.00  0.00     0.021 C 
HETATM   23  C37 UNL     1      -8.373  46.733 -21.194  1.00  0.00     0.021 C 
ENDROOT
BRANCH  20  24
HETATM   24  O3  UNL     1      -8.500  45.952 -23.919  1.00  0.00    -0.352 OA
BRANCH  24  25
HETATM   25  C29 UNL     1      -8.848  46.334 -25.254  1.00  0.00     0.292 C 
HETATM   26  O4  UNL     1      -7.699  46.693 -26.010  1.00  0.00    -0.348 OA
HETATM   27  C30 UNL     1      -8.011  47.087 -27.356  1.00  0.00     0.179 C 
HETATM   28  C32 UNL     1      -8.918  48.325 -27.351  1.00  0.00     0.180 C 
HETATM   29  C33 UNL     1     -10.167  48.047 -26.512  1.00  0.00     0.183 C 
HETATM   30  C34 UNL     1      -9.788  47.546 -25.124  1.00  0.00     0.204 C 
BRANCH  27  31
HETATM   31  C31 UNL     1      -6.694  47.372 -28.096  1.00  0.00     0.198 C 
BRANCH  31  32
HETATM   32  O5  UNL     1      -5.889  48.301 -27.362  1.00  0.00    -0.398 OA
HETATM   33  H48 UNL     1      -5.654  47.878 -26.519  1.00  0.00     0.209 HD
ENDBRANCH  31  32
ENDBRANCH  27  31
BRANCH  28  34
HETATM   34  O6  UNL     1      -9.318  48.669 -28.679  1.00  0.00    -0.390 OA
HETATM   35  H50 UNL     1     -10.021  49.343 -28.567  1.00  0.00     0.210 HD
ENDBRANCH  28  34
BRANCH  29  36
HETATM   36  O7  UNL     1     -10.946  49.251 -26.418  1.00  0.00    -0.390 OA
HETATM   37  H52 UNL     1     -11.622  49.063 -25.735  1.00  0.00     0.210 HD
ENDBRANCH  29  36
BRANCH  30  38
HETATM   38  O8  UNL     1     -10.987  47.212 -24.407  1.00  0.00    -0.388 OA
HETATM   39  H54 UNL     1     -10.677  46.790 -23.579  1.00  0.00     0.210 HD
ENDBRANCH  30  38
ENDBRANCH  24  25
ENDBRANCH  20  24
BRANCH   1  40
HETATM   40  C8  UNL     1      -0.156  52.441 -20.629  1.00  0.00    -0.010 C 
HETATM   41  C9  UNL     1       0.809  51.951 -21.715  1.00  0.00     0.010 C 
BRANCH  40  42
HETATM   42  C7  UNL     1       0.634  53.129 -19.481  1.00  0.00     0.031 C 
BRANCH  42  43
HETATM   43  C6  UNL     1       0.767  52.290 -18.237  1.00  0.00    -0.027 C 
HETATM   44  C5  UNL     1       1.388  52.713 -17.123  1.00  0.00     0.006 C 
BRANCH  44  45
HETATM   45  C2  UNL     1       1.569  51.960 -15.818  1.00  0.00     0.070 C 
HETATM   46  C3  UNL     1       3.023  51.770 -15.354  1.00  0.00     0.050 C 
HETATM   47  C4  UNL     1       0.941  50.566 -15.991  1.00  0.00     0.050 C 
BRANCH  45  48
HETATM   48  O1  UNL     1       0.773  52.604 -14.808  1.00  0.00    -0.382 OA
HETATM   49  C1  UNL     1      -0.118  51.764 -14.084  1.00  0.00     0.202 C 
ENDBRANCH  45  48
ENDBRANCH  44  45
ENDBRANCH  42  43
ENDBRANCH  40  42
ENDBRANCH   1  40
TORSDOF 12
ENDMDL
MODEL 7
REMARK minimizedAffinity -8.5551796
REMARK CNNscore 0.353414178
REMARK CNNaffinity 7.35526085
REMARK  12 active torsions:
REMARK  status: ('A' for Active; 'I' for Inactive)
REMARK    1  A    between atoms: O1_2  and  C2_3 
REMARK    2  A    between atoms: C2_3  and  C5_6 
REMARK    3  A    between atoms: C6_7  and  C7_8 
REMARK    4  A    between atoms: C7_8  and  C8_9 
REMARK    5  A    between atoms: C8_9  and  C10_11 
REMARK    6  A    between atoms: C28_30  and  O3_31 
REMARK    7  A    between atoms: O3_31  and  C29_32 
REMARK    8  A    between atoms: C30_34  and  C31_35 
REMARK    9  A    between atoms: C31_35  and  O5_36 
REMARK   10  A    between atoms: C32_37  and  O6_38 
REMARK   11  A    between atoms: C33_39  and  O7_40 
REMARK   12  A    between atoms: C34_41  and  O8_42 
ROOT
HETATM    1  C10 UNL     1      -3.479  50.495 -24.384  1.00  0.00    -0.002 C 
HETATM    2  C11 UNL     1      -4.427  51.663 -23.953  1.00  0.00     0.006 C 
HETATM    3  C12 UNL     1      -4.281  51.850 -22.429  1.00  0.00     0.011 C 
HETATM    4  C13 UNL     1      -3.028  51.037 -22.066  1.00  0.00    -0.029 C 
HETATM    5  C14 UNL     1      -1.816  51.954 -22.430  1.00  0.00     0.016 C 
HETATM    6  C15 UNL     1      -2.941  50.555 -20.588  1.00  0.00     0.028 C 
HETATM    7  C16 UNL     1      -2.919  51.639 -19.538  1.00  0.00    -0.021 C 
HETATM    8  C17 UNL     1      -2.218  51.469 -18.405  1.00  0.00     0.008 C 
HETATM    9  C18 UNL     1      -1.458  50.178 -18.092  1.00  0.00     0.092 C 
HETATM   10  O2  UNL     1      -0.171  50.417 -18.704  1.00  0.00    -0.374 OA
HETATM   11  C19 UNL     1      -0.351  50.180 -20.138  1.00  0.00     0.179 C 
HETATM   12  C20 UNL     1      -1.767  49.531 -20.353  1.00  0.00    -0.004 C 
HETATM   13  C21 UNL     1      -1.716  48.431 -21.440  1.00  0.00     0.014 C 
HETATM   14  C22 UNL     1      -1.936  48.913 -22.891  1.00  0.00     0.011 C 
HETATM   15  C23 UNL     1      -3.202  49.783 -23.020  1.00  0.00    -0.032 C 
HETATM   16  C24 UNL     1      -4.437  48.885 -22.683  1.00  0.00     0.016 C 
HETATM   17  C25 UNL     1      -1.890  48.958 -18.935  1.00  0.00     0.036 C 
HETATM   18  C26 UNL     1      -3.163  48.339 -18.397  1.00  0.00     0.011 C 
HETATM   19  C27 UNL     1      -2.861  47.736 -17.014  1.00  0.00     0.033 C 
HETATM   20  C28 UNL     1      -1.566  48.275 -16.351  1.00  0.00     0.136 C 
HETATM   21  C35 UNL     1      -1.402  49.826 -16.549  1.00  0.00     0.014 C 
HETATM   22  C36 UNL     1      -0.055  50.276 -15.942  1.00  0.00     0.021 C 
HETATM   23  C37 UNL     1      -2.520  50.529 -15.726  1.00  0.00     0.021 C 
ENDROOT
BRANCH  20  24
HETATM   24  O3  UNL     1      -1.568  47.972 -14.945  1.00  0.00    -0.352 OA
BRANCH  24  25
HETATM   25  C29 UNL     1      -1.366  46.589 -14.638  1.00  0.00     0.292 C 
HETATM   26  O4  UNL     1      -2.309  46.125 -13.680  1.00  0.00    -0.348 OA
HETATM   27  C30 UNL     1      -2.133  44.739 -13.343  1.00  0.00     0.179 C 
HETATM   28  C32 UNL     1      -0.750  44.515 -12.718  1.00  0.00     0.180 C 
HETATM   29  C33 UNL     1       0.335  45.034 -13.663  1.00  0.00     0.183 C 
HETATM   30  C34 UNL     1       0.059  46.478 -14.064  1.00  0.00     0.204 C 
BRANCH  27  31
HETATM   31  C31 UNL     1      -3.250  44.331 -12.369  1.00  0.00     0.198 C 
BRANCH  31  32
HETATM   32  O5  UNL     1      -4.310  45.293 -12.378  1.00  0.00    -0.398 OA
HETATM   33  H48 UNL     1      -4.697  45.290 -13.270  1.00  0.00     0.209 HD
ENDBRANCH  31  32
ENDBRANCH  27  31
BRANCH  28  34
HETATM   34  O6  UNL     1      -0.523  43.125 -12.469  1.00  0.00    -0.390 OA
HETATM   35  H50 UNL     1       0.430  43.060 -12.244  1.00  0.00     0.210 HD
ENDBRANCH  28  34
BRANCH  29  36
HETATM   36  O7  UNL     1       1.613  44.928 -13.015  1.00  0.00    -0.390 OA
HETATM   37  H52 UNL     1       2.229  45.431 -13.584  1.00  0.00     0.210 HD
ENDBRANCH  29  36
BRANCH  30  38
HETATM   38  O8  UNL     1       1.047  46.892 -15.021  1.00  0.00    -0.388 OA
HETATM   39  H54 UNL     1       0.751  47.775 -15.325  1.00  0.00     0.210 HD
ENDBRANCH  30  38
ENDBRANCH  24  25
ENDBRANCH  20  24
BRANCH   1  40
HETATM   40  C8  UNL     1      -4.059  49.698 -25.592  1.00  0.00    -0.010 C 
HETATM   41  C9  UNL     1      -4.857  48.469 -25.143  1.00  0.00     0.010 C 
BRANCH  40  42
HETATM   42  C7  UNL     1      -2.912  49.272 -26.551  1.00  0.00     0.031 C 
BRANCH  42  43
HETATM   43  C6  UNL     1      -1.607  49.983 -26.302  1.00  0.00    -0.027 C 
HETATM   44  C5  UNL     1      -1.187  51.033 -27.030  1.00  0.00     0.006 C 
BRANCH  44  45
HETATM   45  C2  UNL     1       0.096  51.825 -26.860  1.00  0.00     0.070 C 
HETATM   46  C3  UNL     1       0.129  52.793 -25.666  1.00  0.00     0.050 C 
HETATM   47  C4  UNL     1       0.312  52.645 -28.143  1.00  0.00     0.050 C 
BRANCH  45  48
HETATM   48  O1  UNL     1       1.198  50.900 -26.819  1.00  0.00    -0.382 OA
HETATM   49  C1  UNL     1       2.483  51.468 -26.596  1.00  0.00     0.202 C 
ENDBRANCH  45  48
ENDBRANCH  44  45
ENDBRANCH  42  43
ENDBRANCH  40  42
ENDBRANCH   1  40
TORSDOF 12
ENDMDL
MODEL 8
REMARK minimizedAffinity -9.78760815
REMARK CNNscore 0.343221277
REMARK CNNaffinity 7.03965998
REMARK  12 active torsions:
REMARK  status: ('A' for Active; 'I' for Inactive)
REMARK    1  A    between atoms: O1_2  and  C2_3 
REMARK    2  A    between atoms: C2_3  and  C5_6 
REMARK    3  A    between atoms: C6_7  and  C7_8 
REMARK    4  A    between atoms: C7_8  and  C8_9 
REMARK    5  A    between atoms: C8_9  and  C10_11 
REMARK    6  A    between atoms: C28_30  and  O3_31 
REMARK    7  A    between atoms: O3_31  and  C29_32 
REMARK    8  A    between atoms: C30_34  and  C31_35 
REMARK    9  A    between atoms: C31_35  and  O5_36 
REMARK   10  A    between atoms: C32_37  and  O6_38 
REMARK   11  A    between atoms: C33_39  and  O7_40 
REMARK   12  A    between atoms: C34_41  and  O8_42 
ROOT
HETATM    1  C10 UNL     1      -0.468  51.142 -20.662  1.00  0.00    -0.002 C 
HETATM    2  C11 UNL     1      -1.090  51.815 -19.393  1.00  0.00     0.006 C 
HETATM    3  C12 UNL     1      -2.533  51.291 -19.243  1.00  0.00     0.011 C 
HETATM    4  C13 UNL     1      -2.604  50.095 -20.206  1.00  0.00    -0.029 C 
HETATM    5  C14 UNL     1      -1.949  48.902 -19.436  1.00  0.00     0.016 C 
HETATM    6  C15 UNL     1      -4.028  49.720 -20.711  1.00  0.00     0.028 C 
HETATM    7  C16 UNL     1      -5.024  49.321 -19.651  1.00  0.00    -0.021 C 
HETATM    8  C17 UNL     1      -5.963  48.399 -19.918  1.00  0.00     0.008 C 
HETATM    9  C18 UNL     1      -6.110  47.746 -21.294  1.00  0.00     0.092 C 
HETATM   10  O2  UNL     1      -5.208  46.621 -21.205  1.00  0.00    -0.374 OA
HETATM   11  C19 UNL     1      -3.861  47.161 -21.401  1.00  0.00     0.179 C 
HETATM   12  C20 UNL     1      -3.997  48.655 -21.872  1.00  0.00    -0.004 C 
HETATM   13  C21 UNL     1      -2.947  48.995 -22.957  1.00  0.00     0.014 C 
HETATM   14  C22 UNL     1      -1.582  49.492 -22.436  1.00  0.00     0.011 C 
HETATM   15  C23 UNL     1      -1.740  50.639 -21.418  1.00  0.00    -0.032 C 
HETATM   16  C24 UNL     1      -2.374  51.857 -22.164  1.00  0.00     0.016 C 
HETATM   17  C25 UNL     1      -5.413  48.508 -22.443  1.00  0.00     0.036 C 
HETATM   18  C26 UNL     1      -6.247  49.683 -22.911  1.00  0.00     0.011 C 
HETATM   19  C27 UNL     1      -7.530  49.138 -23.562  1.00  0.00     0.033 C 
HETATM   20  C28 UNL     1      -7.860  47.668 -23.191  1.00  0.00     0.136 C 
HETATM   21  C35 UNL     1      -7.602  47.370 -21.669  1.00  0.00     0.014 C 
HETATM   22  C36 UNL     1      -7.866  45.874 -21.392  1.00  0.00     0.021 C 
HETATM   23  C37 UNL     1      -8.653  48.169 -20.846  1.00  0.00     0.021 C 
ENDROOT
BRANCH  20  24
HETATM   24  O3  UNL     1      -9.231  47.374 -23.507  1.00  0.00    -0.352 OA
BRANCH  24  25
HETATM   25  C29 UNL     1      -9.474  47.105 -24.893  1.00  0.00     0.292 C 
HETATM   26  O4  UNL     1     -10.665  47.736 -25.345  1.00  0.00    -0.348 OA
HETATM   27  C30 UNL     1     -10.943  47.484 -26.732  1.00  0.00     0.179 C 
HETATM   28  C32 UNL     1     -11.144  45.981 -26.970  1.00  0.00     0.180 C 
HETATM   29  C33 UNL     1      -9.924  45.209 -26.463  1.00  0.00     0.183 C 
HETATM   30  C34 UNL     1      -9.613  45.576 -25.017  1.00  0.00     0.204 C 
BRANCH  27  31
HETATM   31  C31 UNL     1     -12.199  48.276 -27.127  1.00  0.00     0.198 C 
BRANCH  31  32
HETATM   32  O5  UNL     1     -12.244  48.488 -28.542  1.00  0.00    -0.398 OA
HETATM   33  H48 UNL     1     -12.316  47.615 -28.963  1.00  0.00     0.209 HD
ENDBRANCH  31  32
ENDBRANCH  27  31
BRANCH  28  34
HETATM   34  O6  UNL     1     -11.323  45.705 -28.361  1.00  0.00    -0.390 OA
HETATM   35  H50 UNL     1     -11.265  44.728 -28.436  1.00  0.00     0.210 HD
ENDBRANCH  28  34
BRANCH  29  36
HETATM   36  O7  UNL     1     -10.177  43.801 -26.581  1.00  0.00    -0.390 OA
HETATM   37  H52 UNL     1      -9.452  43.370 -26.085  1.00  0.00     0.210 HD
ENDBRANCH  29  36
BRANCH  30  38
HETATM   38  O8  UNL     1      -8.411  44.901 -24.615  1.00  0.00    -0.388 OA
HETATM   39  H54 UNL     1      -8.201  45.265 -23.730  1.00  0.00     0.210 HD
ENDBRANCH  30  38
ENDBRANCH  24  25
ENDBRANCH  20  24
BRANCH   1  40
HETATM   40  C8  UNL     1       0.557  52.082 -21.368  1.00  0.00    -0.010 C 
HETATM   41  C9  UNL     1       1.190  53.082 -20.393  1.00  0.00     0.010 C 
BRANCH  40  42
HETATM   42  C7  UNL     1      -0.132  52.838 -22.539  1.00  0.00     0.031 C 
BRANCH  42  43
HETATM   43  C6  UNL     1       0.539  52.645 -23.874  1.00  0.00    -0.027 C 
HETATM   44  C5  UNL     1      -0.130  52.611 -25.039  1.00  0.00     0.006 C 
BRANCH  44  45
HETATM   45  C2  UNL     1       0.442  52.434 -26.433  1.00  0.00     0.070 C 
HETATM   46  C3  UNL     1      -0.154  53.344 -27.519  1.00  0.00     0.050 C 
HETATM   47  C4  UNL     1       0.206  50.974 -26.855  1.00  0.00     0.050 C 
BRANCH  45  48
HETATM   48  O1  UNL     1       1.873  52.572 -26.357  1.00  0.00    -0.382 OA
HETATM   49  C1  UNL     1       2.631  51.411 -26.676  1.00  0.00     0.202 C 
ENDBRANCH  45  48
ENDBRANCH  44  45
ENDBRANCH  42  43
ENDBRANCH  40  42
ENDBRANCH   1  40
TORSDOF 12
ENDMDL
MODEL 9
REMARK minimizedAffinity -8.35739613
REMARK CNNscore 0.339849442
REMARK CNNaffinity 7.12742186
REMARK  12 active torsions:
REMARK  status: ('A' for Active; 'I' for Inactive)
REMARK    1  A    between atoms: O1_2  and  C2_3 
REMARK    2  A    between atoms: C2_3  and  C5_6 
REMARK    3  A    between atoms: C6_7  and  C7_8 
REMARK    4  A    between atoms: C7_8  and  C8_9 
REMARK    5  A    between atoms: C8_9  and  C10_11 
REMARK    6  A    between atoms: C28_30  and  O3_31 
REMARK    7  A    between atoms: O3_31  and  C29_32 
REMARK    8  A    between atoms: C30_34  and  C31_35 
REMARK    9  A    between atoms: C31_35  and  O5_36 
REMARK   10  A    between atoms: C32_37  and  O6_38 
REMARK   11  A    between atoms: C33_39  and  O7_40 
REMARK   12  A    between atoms: C34_41  and  O8_42 
ROOT
HETATM    1  C10 UNL     1      -0.797  50.253 -21.318  1.00  0.00    -0.002 C 
HETATM    2  C11 UNL     1      -0.367  50.265 -19.813  1.00  0.00     0.006 C 
HETATM    3  C12 UNL     1      -1.453  49.523 -19.007  1.00  0.00     0.011 C 
HETATM    4  C13 UNL     1      -2.300  48.813 -20.076  1.00  0.00    -0.029 C 
HETATM    5  C14 UNL     1      -1.502  47.521 -20.449  1.00  0.00     0.016 C 
HETATM    6  C15 UNL     1      -3.760  48.470 -19.661  1.00  0.00     0.028 C 
HETATM    7  C16 UNL     1      -3.913  47.541 -18.482  1.00  0.00    -0.021 C 
HETATM    8  C17 UNL     1      -4.938  46.676 -18.430  1.00  0.00     0.008 C 
HETATM    9  C18 UNL     1      -6.019  46.614 -19.511  1.00  0.00     0.092 C 
HETATM   10  O2  UNL     1      -5.452  45.690 -20.467  1.00  0.00    -0.374 OA
HETATM   11  C19 UNL     1      -4.466  46.452 -21.237  1.00  0.00     0.179 C 
HETATM   12  C20 UNL     1      -4.633  47.973 -20.874  1.00  0.00    -0.004 C 
HETATM   13  C21 UNL     1      -4.465  48.866 -22.127  1.00  0.00     0.014 C 
HETATM   14  C22 UNL     1      -3.020  49.305 -22.447  1.00  0.00     0.011 C 
HETATM   15  C23 UNL     1      -2.320  49.914 -21.216  1.00  0.00    -0.032 C 
HETATM   16  C24 UNL     1      -3.083  51.224 -20.831  1.00  0.00     0.016 C 
HETATM   17  C25 UNL     1      -6.093  47.862 -20.417  1.00  0.00     0.036 C 
HETATM   18  C26 UNL     1      -6.839  48.993 -19.738  1.00  0.00     0.011 C 
HETATM   19  C27 UNL     1      -8.311  48.573 -19.576  1.00  0.00     0.033 C 
HETATM   20  C28 UNL     1      -8.557  47.046 -19.700  1.00  0.00     0.136 C 
HETATM   21  C35 UNL     1      -7.449  46.206 -18.966  1.00  0.00     0.014 C 
HETATM   22  C36 UNL     1      -7.709  44.703 -19.205  1.00  0.00     0.021 C 
HETATM   23  C37 UNL     1      -7.606  46.450 -17.437  1.00  0.00     0.021 C 
ENDROOT
BRANCH  20  24
HETATM   24  O3  UNL     1      -9.846  46.708 -19.160  1.00  0.00    -0.352 OA
BRANCH  24  25
HETATM   25  C29 UNL     1     -10.811  46.305 -20.138  1.00  0.00     0.292 C 
HETATM   26  O4  UNL     1     -10.230  46.212 -21.433  1.00  0.00    -0.348 OA
HETATM   27  C30 UNL     1     -11.171  45.814 -22.443  1.00  0.00     0.179 C 
HETATM   28  C32 UNL     1     -12.298  46.849 -22.558  1.00  0.00     0.180 C 
HETATM   29  C33 UNL     1     -12.953  47.055 -21.190  1.00  0.00     0.183 C 
HETATM   30  C34 UNL     1     -11.907  47.386 -20.133  1.00  0.00     0.204 C 
BRANCH  27  31
HETATM   31  C31 UNL     1     -10.420  45.668 -23.776  1.00  0.00     0.198 C 
BRANCH  31  32
HETATM   32  O5  UNL     1      -9.008  45.580 -23.557  1.00  0.00    -0.398 OA
HETATM   33  H48 UNL     1      -8.844  44.768 -23.050  1.00  0.00     0.209 HD
ENDBRANCH  31  32
ENDBRANCH  27  31
BRANCH  28  34
HETATM   34  O6  UNL     1     -13.294  46.417 -23.489  1.00  0.00    -0.390 OA
HETATM   35  H50 UNL     1     -14.044  47.038 -23.366  1.00  0.00     0.210 HD
ENDBRANCH  28  34
BRANCH  29  36
HETATM   36  O7  UNL     1     -13.922  48.110 -21.288  1.00  0.00    -0.390 OA
HETATM   37  H52 UNL     1     -14.170  48.313 -20.364  1.00  0.00     0.210 HD
ENDBRANCH  29  36
BRANCH  30  38
HETATM   38  O8  UNL     1     -12.553  47.479 -18.854  1.00  0.00    -0.388 OA
HETATM   39  H54 UNL     1     -11.822  47.574 -18.208  1.00  0.00     0.210 HD
ENDBRANCH  30  38
ENDBRANCH  24  25
ENDBRANCH  20  24
BRANCH   1  40
HETATM   40  C8  UNL     1      -0.316  51.534 -22.065  1.00  0.00    -0.010 C 
HETATM   41  C9  UNL     1       0.095  52.648 -21.095  1.00  0.00     0.010 C 
BRANCH  40  42
HETATM   42  C7  UNL     1      -1.429  52.042 -23.024  1.00  0.00     0.031 C 
BRANCH  42  43
HETATM   43  C6  UNL     1      -1.048  52.005 -24.481  1.00  0.00    -0.027 C 
HETATM   44  C5  UNL     1       0.223  52.065 -24.915  1.00  0.00     0.006 C 
BRANCH  44  45
HETATM   45  C2  UNL     1       0.716  52.024 -26.349  1.00  0.00     0.070 C 
HETATM   46  C3  UNL     1      -0.117  51.168 -27.317  1.00  0.00     0.050 C 
HETATM   47  C4  UNL     1       2.150  51.466 -26.335  1.00  0.00     0.050 C 
BRANCH  45  48
HETATM   48  O1  UNL     1       0.848  53.377 -26.822  1.00  0.00    -0.382 OA
HETATM   49  C1  UNL     1      -0.234  53.876 -27.600  1.00  0.00     0.202 C 
ENDBRANCH  45  48
ENDBRANCH  44  45
ENDBRANCH  42  43
ENDBRANCH  40  42
ENDBRANCH   1  40
TORSDOF 12
ENDMDL
