MODEL 1
REMARK minimizedAffinity -10.3359871
REMARK  6 active torsions:
REMARK  status: ('A' for Active; 'I' for Inactive)
REMARK    1  A    between atoms: N1_2  and  C2_3 
REMARK    2  A    between atoms: C4_5  and  N3_29 
REMARK    3  A    between atoms: C5_7  and  N2_12 
REMARK    4  A    between atoms: C7_9  and  O2_10 
REMARK    5  A    between atoms: C27_32  and  O3_33 
REMARK    6  A    between atoms: C28_36  and  O4_37 
ROOT
HETATM    1  C2  UNL     1       9.293  -9.336  25.137  1.00  0.00     0.257 C 
HETATM    2  C3  UNL     1       8.293  -9.066  26.267  1.00  0.00     0.092 C 
HETATM    3  C4  UNL     1       8.870  -9.416  27.646  1.00  0.00     0.234 C 
HETATM    4  O1  UNL     1      10.125 -10.091  27.604  1.00  0.00    -0.333 OA
HETATM    5  C5  UNL     1      11.180  -9.500  26.804  1.00  0.00     0.168 C 
HETATM    6  C6  UNL     1      11.914 -10.784  26.349  1.00  0.00     0.074 C 
HETATM    7  C7  UNL     1      10.654  -8.723  25.548  1.00  0.00     0.209 C 
ENDROOT
BRANCH   1   8
HETATM    8  N1  UNL     1       8.806  -8.784  23.853  1.00  0.00     0.086 N 
HETATM    9  C1  UNL     1       9.623  -9.182  22.715  1.00  0.00     0.307 C 
HETATM   10  H4  UNL     1       8.769  -7.767  23.898  1.00  0.00     0.316 HD
ENDBRANCH   1   8
BRANCH   7  11
HETATM   11  O2  UNL     1      10.415  -7.332  25.839  1.00  0.00    -0.384 OA
HETATM   12  C8  UNL     1      11.588  -6.616  26.190  1.00  0.00     0.202 C 
ENDBRANCH   7  11
BRANCH   3  13
HETATM   13  N3  UNL     1       8.889  -8.339  28.629  1.00  0.00    -0.316 N 
HETATM   14  C24 UNL     1      10.024  -7.909  29.303  1.00  0.00     0.048 A 
HETATM   15  C19 UNL     1       9.669  -6.760  30.029  1.00  0.00     0.004 A 
HETATM   16  C23 UNL     1      11.330  -8.431  29.321  1.00  0.00     0.030 A 
HETATM   17  C18 UNL     1       8.282  -6.506  29.788  1.00  0.00     0.021 A 
HETATM   18  C20 UNL     1      10.675  -6.129  30.795  1.00  0.00     0.014 A 
HETATM   19  C17 UNL     1       7.282  -5.590  30.144  1.00  0.00     0.040 A 
HETATM   20  C25 UNL     1       7.853  -7.515  28.941  1.00  0.00     0.077 A 
HETATM   21  C16 UNL     1       5.930  -5.638  29.724  1.00  0.00     0.019 A 
HETATM   22  C27 UNL     1       7.310  -4.427  30.999  1.00  0.00     0.150 A 
HETATM   23  C15 UNL     1       5.446  -6.661  28.894  1.00  0.00     0.017 A 
HETATM   24  C28 UNL     1       5.211  -4.492  30.389  1.00  0.00     0.256 A 
HETATM   25  C14 UNL     1       4.193  -7.067  28.360  1.00  0.00     0.004 A 
HETATM   26  C26 UNL     1       6.367  -7.598  28.475  1.00  0.00     0.077 A 
HETATM   27  C9  UNL     1       4.391  -8.275  27.663  1.00  0.00     0.049 A 
HETATM   28  C13 UNL     1       2.890  -6.529  28.453  1.00  0.00     0.014 A 
HETATM   29  N2  UNL     1       5.760  -8.541  27.684  1.00  0.00    -0.308 N 
HETATM   30  C10 UNL     1       3.290  -8.967  27.121  1.00  0.00     0.030 A 
HETATM   31  C11 UNL     1       2.010  -8.413  27.236  1.00  0.00     0.002 A 
HETATM   32  C12 UNL     1       1.811  -7.204  27.884  1.00  0.00     0.001 A 
HETATM   33  N4  UNL     1       6.220  -3.756  31.191  1.00  0.00    -0.340 N 
ATOM     34  H4  UNL     1       6.086  -2.919  31.759  1.00  0.00     0.164 HD
HETATM   35  C21 UNL     1      11.975  -6.644  30.819  1.00  0.00     0.001 A 
HETATM   36  C22 UNL     1      12.296  -7.781  30.091  1.00  0.00     0.002 A 
BRANCH  24  37
HETATM   37  O4  UNL     1       4.600  -3.672  29.418  1.00  0.00    -0.372 OA
HETATM   38  H26 UNL     1       4.831  -2.778  29.722  1.00  0.00     0.212 HD
ENDBRANCH  24  37
BRANCH  22  39
HETATM   39  O3  UNL     1       8.437  -4.038  31.585  1.00  0.00    -0.346 OA
HETATM   40  H24 UNL     1       8.237  -3.244  32.108  1.00  0.00     0.219 HD
ENDBRANCH  22  39
ENDBRANCH   3  13
TORSDOF 6
ENDMDL
MODEL 2
REMARK minimizedAffinity -10.0806313
REMARK  6 active torsions:
REMARK  status: ('A' for Active; 'I' for Inactive)
REMARK    1  A    between atoms: N1_2  and  C2_3 
REMARK    2  A    between atoms: C4_5  and  N3_29 
REMARK    3  A    between atoms: C5_7  and  N2_12 
REMARK    4  A    between atoms: C7_9  and  O2_10 
REMARK    5  A    between atoms: C27_32  and  O3_33 
REMARK    6  A    between atoms: C28_36  and  O4_37 
ROOT
HETATM    1  C2  UNL     1      11.333  -3.789  33.361  1.00  0.00     0.257 C 
HETATM    2  C3  UNL     1      11.584  -4.830  32.264  1.00  0.00     0.092 C 
HETATM    3  C4  UNL     1      10.453  -5.865  32.179  1.00  0.00     0.234 C 
HETATM    4  O1  UNL     1       9.499  -5.781  33.235  1.00  0.00    -0.333 OA
HETATM    5  C5  UNL     1       8.912  -4.484  33.511  1.00  0.00     0.168 C 
HETATM    6  C6  UNL     1       8.698  -4.613  35.038  1.00  0.00     0.074 C 
HETATM    7  C7  UNL     1       9.876  -3.284  33.215  1.00  0.00     0.209 C 
ENDROOT
BRANCH   1   8
HETATM    8  N1  UNL     1      12.311  -2.681  33.276  1.00  0.00     0.086 N 
HETATM    9  C1  UNL     1      12.014  -1.739  32.205  1.00  0.00     0.307 C 
HETATM   10  H4  UNL     1      13.251  -3.049  33.145  1.00  0.00     0.316 HD
ENDBRANCH   1   8
BRANCH   7  11
HETATM   11  O2  UNL     1       9.735  -2.802  31.864  1.00  0.00    -0.384 OA
HETATM   12  C8  UNL     1       8.595  -1.979  31.673  1.00  0.00     0.202 C 
ENDBRANCH   7  11
BRANCH   3  13
HETATM   13  N3  UNL     1       9.789  -5.990  30.885  1.00  0.00    -0.316 N 
HETATM   14  C24 UNL     1       8.478  -5.614  30.635  1.00  0.00     0.048 A 
HETATM   15  C19 UNL     1       8.265  -5.735  29.251  1.00  0.00     0.004 A 
HETATM   16  C23 UNL     1       7.470  -5.168  31.510  1.00  0.00     0.030 A 
HETATM   17  C18 UNL     1       9.482  -6.204  28.665  1.00  0.00     0.021 A 
HETATM   18  C20 UNL     1       6.990  -5.393  28.749  1.00  0.00     0.014 A 
HETATM   19  C17 UNL     1      10.008  -6.541  27.410  1.00  0.00     0.040 A 
HETATM   20  C25 UNL     1      10.373  -6.362  29.715  1.00  0.00     0.077 A 
HETATM   21  C16 UNL     1      11.318  -7.020  27.163  1.00  0.00     0.019 A 
HETATM   22  C27 UNL     1       9.417  -6.533  26.092  1.00  0.00     0.150 A 
HETATM   23  C15 UNL     1      12.241  -7.226  28.201  1.00  0.00     0.017 A 
HETATM   24  C28 UNL     1      11.425  -7.299  25.686  1.00  0.00     0.256 A 
HETATM   25  C14 UNL     1      13.555  -7.749  28.341  1.00  0.00     0.004 A 
HETATM   26  C26 UNL     1      11.817  -6.899  29.472  1.00  0.00     0.077 A 
HETATM   27  C9  UNL     1      13.871  -7.763  29.713  1.00  0.00     0.049 A 
HETATM   28  C13 UNL     1      14.489  -8.259  27.412  1.00  0.00     0.014 A 
HETATM   29  N2  UNL     1      12.808  -7.160  30.385  1.00  0.00    -0.308 N 
HETATM   30  C10 UNL     1      15.079  -8.338  30.155  1.00  0.00     0.030 A 
HETATM   31  C11 UNL     1      15.981  -8.844  29.212  1.00  0.00     0.002 A 
HETATM   32  C12 UNL     1      15.696  -8.797  27.856  1.00  0.00     0.001 A 
HETATM   33  N4  UNL     1      10.122  -6.929  25.080  1.00  0.00    -0.340 N 
ATOM     34  H4  UNL     1       9.847  -6.975  24.099  1.00  0.00     0.164 HD
HETATM   35  C21 UNL     1       5.983  -4.952  29.615  1.00  0.00     0.001 A 
HETATM   36  C22 UNL     1       6.222  -4.843  30.977  1.00  0.00     0.002 A 
BRANCH  24  37
HETATM   37  O4  UNL     1      12.498  -6.573  25.130  1.00  0.00    -0.372 OA
HETATM   38  H26 UNL     1      12.108  -6.212  24.315  1.00  0.00     0.212 HD
ENDBRANCH  24  37
BRANCH  22  39
HETATM   39  O3  UNL     1       8.168  -6.123  25.906  1.00  0.00    -0.346 OA
HETATM   40  H24 UNL     1       7.973  -6.195  24.958  1.00  0.00     0.219 HD
ENDBRANCH  22  39
ENDBRANCH   3  13
TORSDOF 6
ENDMDL
MODEL 3
REMARK minimizedAffinity -9.93592167
REMARK  6 active torsions:
REMARK  status: ('A' for Active; 'I' for Inactive)
REMARK    1  A    between atoms: N1_2  and  C2_3 
REMARK    2  A    between atoms: C4_5  and  N3_29 
REMARK    3  A    between atoms: C5_7  and  N2_12 
REMARK    4  A    between atoms: C7_9  and  O2_10 
REMARK    5  A    between atoms: C27_32  and  O3_33 
REMARK    6  A    between atoms: C28_36  and  O4_37 
ROOT
HETATM    1  C2  UNL     1       8.014 -10.535  26.146  1.00  0.00     0.257 C 
HETATM    2  C3  UNL     1       7.009 -10.303  27.280  1.00  0.00     0.092 C 
HETATM    3  C4  UNL     1       7.527  -9.295  28.315  1.00  0.00     0.234 C 
HETATM    4  O1  UNL     1       8.890  -8.917  28.137  1.00  0.00    -0.333 OA
HETATM    5  C5  UNL     1       9.297  -8.470  26.819  1.00  0.00     0.168 C 
HETATM    6  C6  UNL     1      10.761  -8.971  26.812  1.00  0.00     0.074 C 
HETATM    7  C7  UNL     1       8.503  -9.151  25.652  1.00  0.00     0.209 C 
ENDROOT
BRANCH   1   8
HETATM    8  N1  UNL     1       7.408 -11.327  25.052  1.00  0.00     0.086 N 
HETATM    9  C1  UNL     1       6.027 -11.706  25.320  1.00  0.00     0.307 C 
HETATM   10  H4  UNL     1       7.957 -12.167  24.879  1.00  0.00     0.316 HD
ENDBRANCH   1   8
BRANCH   7  11
HETATM   11  O2  UNL     1       7.329  -8.398  25.290  1.00  0.00    -0.384 OA
HETATM   12  C8  UNL     1       7.454  -7.004  25.525  1.00  0.00     0.202 C 
ENDBRANCH   7  11
BRANCH   3  13
HETATM   13  N3  UNL     1       6.688  -8.124  28.551  1.00  0.00    -0.316 N 
HETATM   14  C24 UNL     1       5.354  -8.025  28.183  1.00  0.00     0.048 A 
HETATM   15  C19 UNL     1       4.859  -6.827  28.725  1.00  0.00     0.004 A 
HETATM   16  C23 UNL     1       4.545  -8.896  27.431  1.00  0.00     0.030 A 
HETATM   17  C18 UNL     1       5.932  -6.192  29.426  1.00  0.00     0.021 A 
HETATM   18  C20 UNL     1       3.503  -6.510  28.490  1.00  0.00     0.014 A 
HETATM   19  C17 UNL     1       6.186  -5.037  30.178  1.00  0.00     0.040 A 
HETATM   20  C25 UNL     1       7.032  -7.021  29.269  1.00  0.00     0.077 A 
HETATM   21  C16 UNL     1       7.433  -4.677  30.746  1.00  0.00     0.019 A 
HETATM   22  C27 UNL     1       5.334  -3.933  30.553  1.00  0.00     0.150 A 
HETATM   23  C15 UNL     1       8.580  -5.471  30.582  1.00  0.00     0.017 A 
HETATM   24  C28 UNL     1       7.254  -3.340  31.417  1.00  0.00     0.256 A 
HETATM   25  C14 UNL     1       9.958  -5.394  30.918  1.00  0.00     0.004 A 
HETATM   26  C26 UNL     1       8.419  -6.642  29.873  1.00  0.00     0.077 A 
HETATM   27  C9  UNL     1      10.603  -6.513  30.355  1.00  0.00     0.049 A 
HETATM   28  C13 UNL     1      10.725  -4.436  31.616  1.00  0.00     0.014 A 
HETATM   29  N2  UNL     1       9.614  -7.310  29.779  1.00  0.00    -0.308 N 
HETATM   30  C10 UNL     1      12.004  -6.638  30.437  1.00  0.00     0.030 A 
HETATM   31  C11 UNL     1      12.738  -5.667  31.129  1.00  0.00     0.002 A 
HETATM   32  C12 UNL     1      12.107  -4.584  31.721  1.00  0.00     0.001 A 
HETATM   33  N4  UNL     1       5.832  -2.954  31.240  1.00  0.00    -0.340 N 
ATOM     34  H4  UNL     1       5.359  -2.116  31.578  1.00  0.00     0.164 HD
HETATM   35  C21 UNL     1       2.694  -7.371  27.740  1.00  0.00     0.001 A 
HETATM   36  C22 UNL     1       3.211  -8.547  27.218  1.00  0.00     0.002 A 
BRANCH  24  37
HETATM   37  O4  UNL     1       7.618  -3.425  32.776  1.00  0.00    -0.372 OA
HETATM   38  H26 UNL     1       6.894  -2.951  33.218  1.00  0.00     0.212 HD
ENDBRANCH  24  37
BRANCH  22  39
HETATM   39  O3  UNL     1       4.052  -3.912  30.208  1.00  0.00    -0.346 OA
HETATM   40  H24 UNL     1       3.667  -3.092  30.558  1.00  0.00     0.219 HD
ENDBRANCH  22  39
ENDBRANCH   3  13
TORSDOF 6
ENDMDL
MODEL 4
REMARK minimizedAffinity -9.8500185
REMARK  6 active torsions:
REMARK  status: ('A' for Active; 'I' for Inactive)
REMARK    1  A    between atoms: N1_2  and  C2_3 
REMARK    2  A    between atoms: C4_5  and  N3_29 
REMARK    3  A    between atoms: C5_7  and  N2_12 
REMARK    4  A    between atoms: C7_9  and  O2_10 
REMARK    5  A    between atoms: C27_32  and  O3_33 
REMARK    6  A    between atoms: C28_36  and  O4_37 
ROOT
HETATM    1  C2  UNL     1      10.485  -8.519  26.278  1.00  0.00     0.257 C 
HETATM    2  C3  UNL     1       9.670  -8.638  27.571  1.00  0.00     0.092 C 
HETATM    3  C4  UNL     1      10.477  -8.212  28.806  1.00  0.00     0.234 C 
HETATM    4  O1  UNL     1      11.860  -7.973  28.551  1.00  0.00    -0.333 OA
HETATM    5  C5  UNL     1      12.199  -7.088  27.454  1.00  0.00     0.168 C 
HETATM    6  C6  UNL     1      13.532  -7.728  27.002  1.00  0.00     0.074 C 
HETATM    7  C7  UNL     1      11.169  -7.129  26.273  1.00  0.00     0.209 C 
ENDROOT
BRANCH   1   8
HETATM    8  N1  UNL     1       9.626  -8.714  25.089  1.00  0.00     0.086 N 
HETATM    9  C1  UNL     1      10.378  -8.743  23.842  1.00  0.00     0.307 C 
HETATM   10  H4  UNL     1       8.922  -7.979  25.038  1.00  0.00     0.316 HD
ENDBRANCH   1   8
BRANCH   7  11
HETATM   11  O2  UNL     1      10.125  -6.149  26.436  1.00  0.00    -0.384 OA
HETATM   12  C8  UNL     1      10.590  -4.902  26.927  1.00  0.00     0.202 C 
ENDBRANCH   7  11
BRANCH   3  13
HETATM   13  N3  UNL     1       9.904  -7.140  29.613  1.00  0.00    -0.316 N 
HETATM   14  C24 UNL     1      10.637  -6.293  30.432  1.00  0.00     0.048 A 
HETATM   15  C19 UNL     1       9.759  -5.304  30.905  1.00  0.00     0.004 A 
HETATM   16  C23 UNL     1      12.000  -6.312  30.782  1.00  0.00     0.030 A 
HETATM   17  C18 UNL     1       8.465  -5.577  30.359  1.00  0.00     0.021 A 
HETATM   18  C20 UNL     1      10.286  -4.310  31.759  1.00  0.00     0.014 A 
HETATM   19  C17 UNL     1       7.163  -5.058  30.377  1.00  0.00     0.040 A 
HETATM   20  C25 UNL     1       8.610  -6.723  29.593  1.00  0.00     0.077 A 
HETATM   21  C16 UNL     1       6.043  -5.611  29.708  1.00  0.00     0.019 A 
HETATM   22  C27 UNL     1       6.599  -3.912  31.050  1.00  0.00     0.150 A 
HETATM   23  C15 UNL     1       6.139  -6.788  28.949  1.00  0.00     0.017 A 
HETATM   24  C28 UNL     1       4.848  -4.759  30.049  1.00  0.00     0.256 A 
HETATM   25  C14 UNL     1       5.256  -7.646  28.239  1.00  0.00     0.004 A 
HETATM   26  C26 UNL     1       7.391  -7.359  28.857  1.00  0.00     0.077 A 
HETATM   27  C9  UNL     1       6.004  -8.745  27.771  1.00  0.00     0.049 A 
HETATM   28  C13 UNL     1       3.866  -7.605  27.994  1.00  0.00     0.014 A 
HETATM   29  N2  UNL     1       7.337  -8.503  28.101  1.00  0.00    -0.308 N 
HETATM   30  C10 UNL     1       5.358  -9.816  27.123  1.00  0.00     0.030 A 
HETATM   31  C11 UNL     1       3.978  -9.749  26.902  1.00  0.00     0.002 A 
HETATM   32  C12 UNL     1       3.240  -8.654  27.323  1.00  0.00     0.001 A 
HETATM   33  N4  UNL     1       5.334  -3.664  30.925  1.00  0.00    -0.340 N 
ATOM     34  H4  UNL     1       4.799  -2.897  31.332  1.00  0.00     0.164 HD
HETATM   35  C21 UNL     1      11.639  -4.326  32.113  1.00  0.00     0.001 A 
HETATM   36  C22 UNL     1      12.483  -5.316  31.630  1.00  0.00     0.002 A 
BRANCH  24  37
HETATM   37  O4  UNL     1       4.245  -4.272  28.872  1.00  0.00    -0.372 OA
HETATM   38  H26 UNL     1       4.086  -3.338  29.087  1.00  0.00     0.212 HD
ENDBRANCH  24  37
BRANCH  22  39
HETATM   39  O3  UNL     1       7.359  -3.111  31.788  1.00  0.00    -0.346 OA
HETATM   40  H24 UNL     1       6.789  -2.411  32.144  1.00  0.00     0.219 HD
ENDBRANCH  22  39
ENDBRANCH   3  13
TORSDOF 6
ENDMDL
MODEL 5
REMARK minimizedAffinity -9.68557835
REMARK  6 active torsions:
REMARK  status: ('A' for Active; 'I' for Inactive)
REMARK    1  A    between atoms: N1_2  and  C2_3 
REMARK    2  A    between atoms: C4_5  and  N3_29 
REMARK    3  A    between atoms: C5_7  and  N2_12 
REMARK    4  A    between atoms: C7_9  and  O2_10 
REMARK    5  A    between atoms: C27_32  and  O3_33 
REMARK    6  A    between atoms: C28_36  and  O4_37 
ROOT
HETATM    1  C2  UNL     1      10.768  -7.497  26.455  1.00  0.00     0.257 C 
HETATM    2  C3  UNL     1       9.298  -7.908  26.591  1.00  0.00     0.092 C 
HETATM    3  C4  UNL     1       8.929  -8.270  28.036  1.00  0.00     0.234 C 
HETATM    4  O1  UNL     1      10.041  -8.340  28.927  1.00  0.00    -0.333 OA
HETATM    5  C5  UNL     1      10.952  -7.213  28.955  1.00  0.00     0.168 C 
HETATM    6  C6  UNL     1      12.273  -7.951  29.277  1.00  0.00     0.074 C 
HETATM    7  C7  UNL     1      11.084  -6.478  27.577  1.00  0.00     0.209 C 
ENDROOT
BRANCH   1   8
HETATM    8  N1  UNL     1      11.042  -6.939  25.112  1.00  0.00     0.086 N 
HETATM    9  C1  UNL     1      10.716  -7.863  24.033  1.00  0.00     0.307 C 
HETATM   10  H4  UNL     1      12.021  -6.669  25.035  1.00  0.00     0.316 HD
ENDBRANCH   1   8
BRANCH   7  11
HETATM   11  O2  UNL     1      10.130  -5.405  27.447  1.00  0.00    -0.384 OA
HETATM   12  C8  UNL     1      10.689  -4.207  26.933  1.00  0.00     0.202 C 
ENDBRANCH   7  11
BRANCH   3  13
HETATM   13  N3  UNL     1       7.832  -7.513  28.631  1.00  0.00    -0.316 N 
HETATM   14  C24 UNL     1       7.994  -6.460  29.519  1.00  0.00     0.048 A 
HETATM   15  C19 UNL     1       6.725  -5.893  29.731  1.00  0.00     0.004 A 
HETATM   16  C23 UNL     1       9.151  -5.956  30.140  1.00  0.00     0.030 A 
HETATM   17  C18 UNL     1       5.783  -6.638  28.955  1.00  0.00     0.021 A 
HETATM   18  C20 UNL     1       6.638  -4.784  30.602  1.00  0.00     0.014 A 
HETATM   19  C17 UNL     1       4.411  -6.662  28.669  1.00  0.00     0.040 A 
HETATM   20  C25 UNL     1       6.514  -7.629  28.318  1.00  0.00     0.077 A 
HETATM   21  C16 UNL     1       3.758  -7.596  27.827  1.00  0.00     0.019 A 
HETATM   22  C27 UNL     1       3.323  -5.832  29.129  1.00  0.00     0.150 A 
HETATM   23  C15 UNL     1       4.455  -8.635  27.190  1.00  0.00     0.017 A 
HETATM   24  C28 UNL     1       2.285  -7.276  27.856  1.00  0.00     0.256 A 
HETATM   25  C14 UNL     1       4.140  -9.758  26.378  1.00  0.00     0.004 A 
HETATM   26  C26 UNL     1       5.817  -8.676  27.396  1.00  0.00     0.077 A 
HETATM   27  C9  UNL     1       5.331 -10.476  26.152  1.00  0.00     0.049 A 
HETATM   28  C13 UNL     1       2.926 -10.253  25.853  1.00  0.00     0.014 A 
HETATM   29  N2  UNL     1       6.367  -9.742  26.729  1.00  0.00    -0.308 N 
HETATM   30  C10 UNL     1       5.297 -11.705  25.465  1.00  0.00     0.030 A 
HETATM   31  C11 UNL     1       4.077 -12.174  24.963  1.00  0.00     0.002 A 
HETATM   32  C12 UNL     1       2.907 -11.454  25.144  1.00  0.00     0.001 A 
HETATM   33  N4  UNL     1       2.118  -6.090  28.731  1.00  0.00    -0.340 N 
ATOM     34  H4  UNL     1       1.257  -5.595  28.965  1.00  0.00     0.164 HD
HETATM   35  C21 UNL     1       7.785  -4.280  31.225  1.00  0.00     0.001 A 
HETATM   36  C22 UNL     1       9.024  -4.861  30.996  1.00  0.00     0.002 A 
BRANCH  24  37
HETATM   37  O4  UNL     1       1.812  -7.045  26.548  1.00  0.00    -0.372 OA
HETATM   38  H26 UNL     1       1.267  -6.247  26.659  1.00  0.00     0.212 HD
ENDBRANCH  24  37
BRANCH  22  39
HETATM   39  O3  UNL     1       3.544  -4.810  29.948  1.00  0.00    -0.346 OA
HETATM   40  H24 UNL     1       2.688  -4.388  30.129  1.00  0.00     0.219 HD
ENDBRANCH  22  39
ENDBRANCH   3  13
TORSDOF 6
ENDMDL
MODEL 6
REMARK minimizedAffinity -9.57641602
REMARK  6 active torsions:
REMARK  status: ('A' for Active; 'I' for Inactive)
REMARK    1  A    between atoms: N1_2  and  C2_3 
REMARK    2  A    between atoms: C4_5  and  N3_29 
REMARK    3  A    between atoms: C5_7  and  N2_12 
REMARK    4  A    between atoms: C7_9  and  O2_10 
REMARK    5  A    between atoms: C27_32  and  O3_33 
REMARK    6  A    between atoms: C28_36  and  O4_37 
ROOT
HETATM    1  C2  UNL     1       7.077  -8.559  26.896  1.00  0.00     0.257 C 
HETATM    2  C3  UNL     1       7.458  -8.518  28.380  1.00  0.00     0.092 C 
HETATM    3  C4  UNL     1       8.710  -9.354  28.679  1.00  0.00     0.234 C 
HETATM    4  O1  UNL     1       9.162 -10.148  27.584  1.00  0.00    -0.333 OA
HETATM    5  C5  UNL     1       9.347  -9.489  26.306  1.00  0.00     0.168 C 
HETATM    6  C6  UNL     1       8.990 -10.656  25.355  1.00  0.00     0.074 C 
HETATM    7  C7  UNL     1       8.359  -8.297  26.067  1.00  0.00     0.209 C 
ENDROOT
BRANCH   1   8
HETATM    8  N1  UNL     1       6.015  -7.574  26.593  1.00  0.00     0.086 N 
HETATM    9  C1  UNL     1       4.776  -7.830  27.315  1.00  0.00     0.307 C 
HETATM   10  H4  UNL     1       5.821  -7.561  25.593  1.00  0.00     0.316 HD
ENDBRANCH   1   8
BRANCH   7  11
HETATM   11  O2  UNL     1       8.905  -7.045  26.528  1.00  0.00    -0.384 OA
HETATM   12  C8  UNL     1      10.247  -6.828  26.121  1.00  0.00     0.202 C 
ENDBRANCH   7  11
BRANCH   3  13
HETATM   13  N3  UNL     1       9.823  -8.649  29.305  1.00  0.00    -0.316 N 
HETATM   14  C24 UNL     1      11.125  -9.125  29.363  1.00  0.00     0.048 A 
HETATM   15  C19 UNL     1      11.924  -8.097  29.891  1.00  0.00     0.004 A 
HETATM   16  C23 UNL     1      11.661 -10.369  28.982  1.00  0.00     0.030 A 
HETATM   17  C18 UNL     1      11.071  -6.982  30.164  1.00  0.00     0.021 A 
HETATM   18  C20 UNL     1      13.307  -8.348  30.036  1.00  0.00     0.014 A 
HETATM   19  C17 UNL     1      11.142  -5.676  30.668  1.00  0.00     0.040 A 
HETATM   20  C25 UNL     1       9.794  -7.384  29.805  1.00  0.00     0.077 A 
HETATM   21  C16 UNL     1      10.046  -4.794  30.837  1.00  0.00     0.019 A 
HETATM   22  C27 UNL     1      12.256  -4.899  31.158  1.00  0.00     0.150 A 
HETATM   23  C15 UNL     1       8.733  -5.173  30.517  1.00  0.00     0.017 A 
HETATM   24  C28 UNL     1      10.579  -3.527  31.454  1.00  0.00     0.256 A 
HETATM   25  C14 UNL     1       7.431  -4.614  30.626  1.00  0.00     0.004 A 
HETATM   26  C26 UNL     1       8.569  -6.437  29.993  1.00  0.00     0.077 A 
HETATM   27  C9  UNL     1       6.506  -5.587  30.199  1.00  0.00     0.049 A 
HETATM   28  C13 UNL     1       6.955  -3.371  31.100  1.00  0.00     0.014 A 
HETATM   29  N2  UNL     1       7.242  -6.678  29.739  1.00  0.00    -0.308 N 
HETATM   30  C10 UNL     1       5.122  -5.343  30.304  1.00  0.00     0.030 A 
HETATM   31  C11 UNL     1       4.681  -4.104  30.785  1.00  0.00     0.002 A 
HETATM   32  C12 UNL     1       5.584  -3.125  31.170  1.00  0.00     0.001 A 
HETATM   33  N4  UNL     1      12.045  -3.703  31.607  1.00  0.00    -0.340 N 
ATOM     34  H4  UNL     1      12.725  -3.039  31.978  1.00  0.00     0.164 HD
HETATM   35  C21 UNL     1      13.846  -9.583  29.662  1.00  0.00     0.001 A 
HETATM   36  C22 UNL     1      13.031 -10.580  29.143  1.00  0.00     0.002 A 
BRANCH  24  37
HETATM   37  O4  UNL     1      10.257  -2.418  30.645  1.00  0.00    -0.372 OA
HETATM   38  H26 UNL     1      11.093  -1.923  30.624  1.00  0.00     0.212 HD
ENDBRANCH  24  37
BRANCH  22  39
HETATM   39  O3  UNL     1      13.489  -5.393  31.150  1.00  0.00    -0.346 OA
HETATM   40  H24 UNL     1      14.079  -4.715  31.515  1.00  0.00     0.219 HD
ENDBRANCH  22  39
ENDBRANCH   3  13
TORSDOF 6
ENDMDL
MODEL 7
REMARK minimizedAffinity -9.55726433
REMARK  6 active torsions:
REMARK  status: ('A' for Active; 'I' for Inactive)
REMARK    1  A    between atoms: N1_2  and  C2_3 
REMARK    2  A    between atoms: C4_5  and  N3_29 
REMARK    3  A    between atoms: C5_7  and  N2_12 
REMARK    4  A    between atoms: C7_9  and  O2_10 
REMARK    5  A    between atoms: C27_32  and  O3_33 
REMARK    6  A    between atoms: C28_36  and  O4_37 
ROOT
HETATM    1  C2  UNL     1      10.660 -10.015  27.702  1.00  0.00     0.257 C 
HETATM    2  C3  UNL     1       9.535  -9.855  28.730  1.00  0.00     0.092 C 
HETATM    3  C4  UNL     1       9.457  -8.427  29.288  1.00  0.00     0.234 C 
HETATM    4  O1  UNL     1      10.540  -7.585  28.899  1.00  0.00    -0.333 OA
HETATM    5  C5  UNL     1      10.860  -7.509  27.486  1.00  0.00     0.168 C 
HETATM    6  C6  UNL     1      12.389  -7.288  27.575  1.00  0.00     0.074 C 
HETATM    7  C7  UNL     1      10.564  -8.834  26.704  1.00  0.00     0.209 C 
ENDROOT
BRANCH   1   8
HETATM    8  N1  UNL     1      10.573 -11.323  27.016  1.00  0.00     0.086 N 
HETATM    9  C1  UNL     1      11.159 -12.411  27.787  1.00  0.00     0.307 C 
HETATM   10  H4  UNL     1      11.027 -11.276  26.106  1.00  0.00     0.316 HD
ENDBRANCH   1   8
BRANCH   7  11
HETATM   11  O2  UNL     1       9.229  -8.852  26.163  1.00  0.00    -0.384 OA
HETATM   12  C8  UNL     1       9.187  -8.734  24.750  1.00  0.00     0.202 C 
ENDBRANCH   7  11
BRANCH   3  13
HETATM   13  N3  UNL     1       8.180  -7.741  29.128  1.00  0.00    -0.316 N 
HETATM   14  C24 UNL     1       7.069  -8.282  28.497  1.00  0.00     0.048 A 
HETATM   15  C19 UNL     1       6.001  -7.390  28.692  1.00  0.00     0.004 A 
HETATM   16  C23 UNL     1       6.917  -9.486  27.785  1.00  0.00     0.030 A 
HETATM   17  C18 UNL     1       6.494  -6.283  29.451  1.00  0.00     0.021 A 
HETATM   18  C20 UNL     1       4.746  -7.736  28.143  1.00  0.00     0.014 A 
HETATM   19  C17 UNL     1       6.044  -5.075  30.001  1.00  0.00     0.040 A 
HETATM   20  C25 UNL     1       7.838  -6.542  29.672  1.00  0.00     0.077 A 
HETATM   21  C16 UNL     1       6.838  -4.145  30.718  1.00  0.00     0.019 A 
HETATM   22  C27 UNL     1       4.747  -4.440  29.985  1.00  0.00     0.150 A 
HETATM   23  C15 UNL     1       8.209  -4.353  30.935  1.00  0.00     0.017 A 
HETATM   24  C28 UNL     1       5.955  -2.977  31.071  1.00  0.00     0.256 A 
HETATM   25  C14 UNL     1       9.295  -3.638  31.509  1.00  0.00     0.004 A 
HETATM   26  C26 UNL     1       8.736  -5.530  30.447  1.00  0.00     0.077 A 
HETATM   27  C9  UNL     1      10.466  -4.394  31.308  1.00  0.00     0.049 A 
HETATM   28  C13 UNL     1       9.387  -2.379  32.144  1.00  0.00     0.014 A 
HETATM   29  N2  UNL     1      10.081  -5.597  30.716  1.00  0.00    -0.308 N 
HETATM   30  C10 UNL     1      11.719  -3.870  31.680  1.00  0.00     0.030 A 
HETATM   31  C11 UNL     1      11.780  -2.617  32.300  1.00  0.00     0.002 A 
HETATM   32  C12 UNL     1      10.628  -1.883  32.539  1.00  0.00     0.001 A 
HETATM   33  N4  UNL     1       4.600  -3.286  30.552  1.00  0.00    -0.340 N 
ATOM     34  H4  UNL     1       3.752  -2.722  30.625  1.00  0.00     0.164 HD
HETATM   35  C21 UNL     1       4.590  -8.931  27.431  1.00  0.00     0.001 A 
HETATM   36  C22 UNL     1       5.663  -9.792  27.255  1.00  0.00     0.002 A 
BRANCH  24  37
HETATM   37  O4  UNL     1       5.957  -2.769  32.466  1.00  0.00    -0.372 OA
HETATM   38  H26 UNL     1       5.015  -2.632  32.660  1.00  0.00     0.212 HD
ENDBRANCH  24  37
BRANCH  22  39
HETATM   39  O3  UNL     1       3.708  -5.027  29.401  1.00  0.00    -0.346 OA
HETATM   40  H24 UNL     1       2.942  -4.439  29.505  1.00  0.00     0.219 HD
ENDBRANCH  22  39
ENDBRANCH   3  13
TORSDOF 6
ENDMDL
MODEL 8
REMARK minimizedAffinity -9.27867031
REMARK  6 active torsions:
REMARK  status: ('A' for Active; 'I' for Inactive)
REMARK    1  A    between atoms: N1_2  and  C2_3 
REMARK    2  A    between atoms: C4_5  and  N3_29 
REMARK    3  A    between atoms: C5_7  and  N2_12 
REMARK    4  A    between atoms: C7_9  and  O2_10 
REMARK    5  A    between atoms: C27_32  and  O3_33 
REMARK    6  A    between atoms: C28_36  and  O4_37 
ROOT
HETATM    1  C2  UNL     1      11.352  -6.847  28.203  1.00  0.00     0.257 C 
HETATM    2  C3  UNL     1      10.295  -7.560  29.052  1.00  0.00     0.092 C 
HETATM    3  C4  UNL     1       9.344  -6.573  29.743  1.00  0.00     0.234 C 
HETATM    4  O1  UNL     1       9.728  -5.205  29.623  1.00  0.00    -0.333 OA
HETATM    5  C5  UNL     1      10.025  -4.703  28.295  1.00  0.00     0.168 C 
HETATM    6  C6  UNL     1      11.108  -3.656  28.647  1.00  0.00     0.074 C 
HETATM    7  C7  UNL     1      10.631  -5.785  27.337  1.00  0.00     0.209 C 
ENDROOT
BRANCH   1   8
HETATM    8  N1  UNL     1      12.108  -7.812  27.374  1.00  0.00     0.086 N 
HETATM    9  C1  UNL     1      13.357  -8.238  27.991  1.00  0.00     0.307 C 
HETATM   10  H4  UNL     1      12.308  -7.411  26.459  1.00  0.00     0.316 HD
ENDBRANCH   1   8
BRANCH   7  11
HETATM   11  O2  UNL     1       9.608  -6.477  26.594  1.00  0.00    -0.384 OA
HETATM   12  C8  UNL     1      10.025  -6.885  25.300  1.00  0.00     0.202 C 
ENDBRANCH   7  11
BRANCH   3  13
HETATM   13  N3  UNL     1       7.922  -6.741  29.459  1.00  0.00    -0.316 N 
HETATM   14  C24 UNL     1       6.934  -5.840  29.828  1.00  0.00     0.048 A 
HETATM   15  C19 UNL     1       5.734  -6.270  29.237  1.00  0.00     0.004 A 
HETATM   16  C23 UNL     1       7.004  -4.679  30.620  1.00  0.00     0.030 A 
HETATM   17  C18 UNL     1       6.015  -7.466  28.506  1.00  0.00     0.021 A 
HETATM   18  C20 UNL     1       4.575  -5.494  29.464  1.00  0.00     0.014 A 
HETATM   19  C17 UNL     1       5.360  -8.411  27.704  1.00  0.00     0.040 A 
HETATM   20  C25 UNL     1       7.365  -7.718  28.694  1.00  0.00     0.077 A 
HETATM   21  C16 UNL     1       5.958  -9.554  27.117  1.00  0.00     0.019 A 
HETATM   22  C27 UNL     1       3.983  -8.521  27.285  1.00  0.00     0.150 A 
HETATM   23  C15 UNL     1       7.314  -9.864  27.310  1.00  0.00     0.017 A 
HETATM   24  C28 UNL     1       4.874 -10.306  26.389  1.00  0.00     0.256 A 
HETATM   25  C14 UNL     1       8.202 -10.919  26.966  1.00  0.00     0.004 A 
HETATM   26  C26 UNL     1       8.044  -8.975  28.069  1.00  0.00     0.077 A 
HETATM   27  C9  UNL     1       9.445 -10.653  27.573  1.00  0.00     0.049 A 
HETATM   28  C13 UNL     1       8.037 -12.109  26.224  1.00  0.00     0.014 A 
HETATM   29  N2  UNL     1       9.343  -9.405  28.187  1.00  0.00    -0.308 N 
HETATM   30  C10 UNL     1      10.488 -11.596  27.492  1.00  0.00     0.030 A 
HETATM   31  C11 UNL     1      10.292 -12.771  26.756  1.00  0.00     0.002 A 
HETATM   32  C12 UNL     1       9.086 -13.022  26.121  1.00  0.00     0.001 A 
HETATM   33  N4  UNL     1       3.621  -9.528  26.555  1.00  0.00    -0.340 N 
ATOM     34  H4  UNL     1       2.695  -9.736  26.183  1.00  0.00     0.164 HD
HETATM   35  C21 UNL     1       4.637  -4.341  30.253  1.00  0.00     0.001 A 
HETATM   36  C22 UNL     1       5.837  -3.941  30.824  1.00  0.00     0.002 A 
BRANCH  24  37
HETATM   37  O4  UNL     1       5.222 -10.473  25.034  1.00  0.00    -0.372 OA
HETATM   38  H26 UNL     1       4.396 -10.247  24.574  1.00  0.00     0.212 HD
ENDBRANCH  24  37
BRANCH  22  39
HETATM   39  O3  UNL     1       3.089  -7.603  27.634  1.00  0.00    -0.346 OA
HETATM   40  H24 UNL     1       2.235  -7.864  27.251  1.00  0.00     0.219 HD
ENDBRANCH  22  39
ENDBRANCH   3  13
TORSDOF 6
ENDMDL
MODEL 9
REMARK minimizedAffinity -9.1373415
REMARK  6 active torsions:
REMARK  status: ('A' for Active; 'I' for Inactive)
REMARK    1  A    between atoms: N1_2  and  C2_3 
REMARK    2  A    between atoms: C4_5  and  N3_29 
REMARK    3  A    between atoms: C5_7  and  N2_12 
REMARK    4  A    between atoms: C7_9  and  O2_10 
REMARK    5  A    between atoms: C27_32  and  O3_33 
REMARK    6  A    between atoms: C28_36  and  O4_37 
ROOT
HETATM    1  C2  UNL     1      10.915  -3.882  32.717  1.00  0.00     0.257 C 
HETATM    2  C3  UNL     1      10.916  -5.399  32.500  1.00  0.00     0.092 C 
HETATM    3  C4  UNL     1       9.712  -5.866  31.672  1.00  0.00     0.234 C 
HETATM    4  O1  UNL     1       8.738  -4.854  31.426  1.00  0.00    -0.333 OA
HETATM    5  C5  UNL     1       9.202  -3.590  30.887  1.00  0.00     0.168 C 
HETATM    6  C6  UNL     1       8.177  -2.634  31.541  1.00  0.00     0.074 C 
HETATM    7  C7  UNL     1      10.649  -3.205  31.350  1.00  0.00     0.209 C 
ENDROOT
BRANCH   1   8
HETATM    8  N1  UNL     1      12.190  -3.429  33.317  1.00  0.00     0.086 N 
HETATM    9  C1  UNL     1      12.004  -2.664  34.542  1.00  0.00     0.307 C 
HETATM   10  H4  UNL     1      12.714  -2.867  32.649  1.00  0.00     0.316 HD
ENDBRANCH   1   8
BRANCH   7  11
HETATM   11  O2  UNL     1      11.653  -3.696  30.439  1.00  0.00    -0.384 OA
HETATM   12  C8  UNL     1      11.329  -3.489  29.073  1.00  0.00     0.202 C 
ENDBRANCH   7  11
BRANCH   3  13
HETATM   13  N3  UNL     1      10.017  -6.603  30.449  1.00  0.00    -0.316 N 
HETATM   14  C24 UNL     1      11.286  -7.025  30.081  1.00  0.00     0.048 A 
HETATM   15  C19 UNL     1      11.143  -7.833  28.940  1.00  0.00     0.004 A 
HETATM   16  C23 UNL     1      12.540  -6.772  30.666  1.00  0.00     0.030 A 
HETATM   17  C18 UNL     1       9.751  -7.883  28.616  1.00  0.00     0.021 A 
HETATM   18  C20 UNL     1      12.313  -8.395  28.382  1.00  0.00     0.014 A 
HETATM   19  C17 UNL     1       8.891  -8.457  27.670  1.00  0.00     0.040 A 
HETATM   20  C25 UNL     1       9.112  -7.096  29.561  1.00  0.00     0.077 A 
HETATM   21  C16 UNL     1       7.486  -8.281  27.614  1.00  0.00     0.019 A 
HETATM   22  C27 UNL     1       9.150  -9.312  26.535  1.00  0.00     0.150 A 
HETATM   23  C15 UNL     1       6.804  -7.466  28.532  1.00  0.00     0.017 A 
HETATM   24  C28 UNL     1       6.984  -9.035  26.410  1.00  0.00     0.256 A 
HETATM   25  C14 UNL     1       5.475  -7.004  28.730  1.00  0.00     0.004 A 
HETATM   26  C26 UNL     1       7.569  -6.875  29.515  1.00  0.00     0.077 A 
HETATM   27  C9  UNL     1       5.486  -6.103  29.813  1.00  0.00     0.049 A 
HETATM   28  C13 UNL     1       4.264  -7.241  28.043  1.00  0.00     0.014 A 
HETATM   29  N2  UNL     1       6.781  -6.101  30.330  1.00  0.00    -0.308 N 
HETATM   30  C10 UNL     1       4.316  -5.403  30.163  1.00  0.00     0.030 A 
HETATM   31  C11 UNL     1       3.132  -5.653  29.459  1.00  0.00     0.002 A 
HETATM   32  C12 UNL     1       3.101  -6.568  28.418  1.00  0.00     0.001 A 
HETATM   33  N4  UNL     1       8.162  -9.686  25.786  1.00  0.00    -0.340 N 
ATOM     34  H4  UNL     1       8.189 -10.286  24.961  1.00  0.00     0.164 HD
HETATM   35  C21 UNL     1      13.564  -8.144  28.957  1.00  0.00     0.001 A 
HETATM   36  C22 UNL     1      13.673  -7.342  30.084  1.00  0.00     0.002 A 
BRANCH  24  37
HETATM   37  O4  UNL     1       6.002  -9.970  26.796  1.00  0.00    -0.372 OA
HETATM   38  H26 UNL     1       6.264 -10.766  26.305  1.00  0.00     0.212 HD
ENDBRANCH  24  37
BRANCH  22  39
HETATM   39  O3  UNL     1      10.383  -9.720  26.255  1.00  0.00    -0.346 OA
HETATM   40  H24 UNL     1      10.334 -10.280  25.464  1.00  0.00     0.219 HD
ENDBRANCH  22  39
ENDBRANCH   3  13
TORSDOF 6
ENDMDL
