MODEL 1
REMARK minimizedAffinity -7.12340832
REMARK CNNscore 0.648585796
REMARK CNNaffinity 6.67685747
REMARK  16 active torsions:
REMARK  status: ('A' for Active; 'I' for Inactive)
REMARK    1  A    between atoms: C2_2  and  C3_3 
REMARK    2  A    between atoms: C3_3  and  C4_4 
REMARK    3  A    between atoms: C4_4  and  C5_5 
REMARK    4  A    between atoms: C5_5  and  C6_6 
REMARK    5  A    between atoms: C6_6  and  C7_7 
REMARK    6  A    between atoms: C7_7  and  C8_8 
REMARK    7  A    between atoms: C7_7  and  C30_36 
REMARK    8  A    between atoms: C9_9  and  C11_11 
REMARK    9  A    between atoms: C11_11  and  O1_12 
REMARK   10  A    between atoms: C11_11  and  C12_13 
REMARK   11  A    between atoms: C12_13  and  C14_15 
REMARK   12  A    between atoms: C14_15  and  O3_17 
REMARK   13  A    between atoms: O3_17  and  C15_18 
REMARK   14  A    between atoms: C24_27  and  C26_29 
REMARK   15  A    between atoms: C26_29  and  O4_30 
REMARK   16  A    between atoms: C30_36  and  O7_37 
ROOT
HETATM    1  C14 UNL     1      -9.701   8.004  15.842  1.00  0.00     0.266 C 
HETATM    2  O2  UNL     1      -9.620   8.100  17.060  1.00  0.00    -0.265 OA
ENDROOT
BRANCH   1   3
HETATM    3  C12 UNL     1     -10.789   8.679  15.028  1.00  0.00     0.114 C 
HETATM    4  C13 UNL     1     -11.205   9.956  15.755  1.00  0.00     0.023 C 
BRANCH   3   5
HETATM    5  C11 UNL     1     -11.960   7.718  14.736  1.00  0.00     0.159 C 
BRANCH   5   6
HETATM    6  C9  UNL     1     -12.534   7.797  13.327  1.00  0.00    -0.058 C 
HETATM    7  C8  UNL     1     -13.751   7.399  12.893  1.00  0.00    -0.015 C 
HETATM    8  C10 UNL     1     -11.554   8.327  12.290  1.00  0.00     0.046 C 
BRANCH   7   9
HETATM    9  C7  UNL     1     -14.992   6.774  13.523  1.00  0.00     0.032 C 
BRANCH   9  10
HETATM   10  C6  UNL     1     -14.607   5.484  14.305  1.00  0.00     0.010 C 
BRANCH  10  11
HETATM   11  C5  UNL     1     -15.721   4.848  15.148  1.00  0.00     0.001 C 
BRANCH  11  12
HETATM   12  C4  UNL     1     -16.068   3.417  14.717  1.00  0.00     0.000 C 
BRANCH  12  13
HETATM   13  C3  UNL     1     -17.552   3.076  14.878  1.00  0.00    -0.000 C 
BRANCH  13  14
HETATM   14  C2  UNL     1     -17.826   2.112  16.036  1.00  0.00    -0.005 C 
HETATM   15  C1  UNL     1     -19.273   2.122  16.506  1.00  0.00     0.005 C 
ENDBRANCH  13  14
ENDBRANCH  12  13
ENDBRANCH  11  12
ENDBRANCH  10  11
ENDBRANCH   9  10
BRANCH   9  16
HETATM   16  C30 UNL     1     -16.257   6.555  12.675  1.00  0.00     0.172 C 
BRANCH  16  17
HETATM   17  O7  UNL     1     -16.176   7.120  11.374  1.00  0.00    -0.400 OA
HETATM   18  H48 UNL     1     -15.520   7.836  11.397  1.00  0.00     0.209 HD
ENDBRANCH  16  17
ENDBRANCH   9  16
ENDBRANCH   7   9
ENDBRANCH   5   6
BRANCH   5  19
HETATM   19  O1  UNL     1     -11.496   6.374  14.906  1.00  0.00    -0.390 OA
HETATM   20  H20 UNL     1     -12.222   5.787  14.631  1.00  0.00     0.210 HD
ENDBRANCH   5  19
ENDBRANCH   3   5
ENDBRANCH   1   3
BRANCH   1  21
HETATM   21  O3  UNL     1      -8.899   7.219  15.075  1.00  0.00    -0.312 OA
BRANCH  21  22
HETATM   22  C15 UNL     1      -7.794   6.578  15.741  1.00  0.00     0.170 C 
HETATM   23  C16 UNL     1      -6.814   7.664  16.185  1.00  0.00     0.036 C 
HETATM   24  C17 UNL     1      -6.104   8.325  15.006  1.00  0.00     0.007 C 
HETATM   25  C18 UNL     1      -5.361   7.285  14.145  1.00  0.00    -0.007 C 
HETATM   26  C19 UNL     1      -4.574   8.012  13.049  1.00  0.00     0.011 C 
HETATM   27  C20 UNL     1      -6.318   6.154  13.618  1.00  0.00     0.000 C 
HETATM   28  C21 UNL     1      -7.274   6.684  12.523  1.00  0.00     0.019 C 
HETATM   29  C22 UNL     1      -5.456   4.999  12.995  1.00  0.00     0.055 C 
HETATM   30  C29 UNL     1      -7.126   5.608  14.799  1.00  0.00     0.129 A 
HETATM   31  C23 UNL     1      -6.168   3.690  12.695  1.00  0.00    -0.005 C 
HETATM   32  C24 UNL     1      -5.690   2.740  11.850  1.00  0.00    -0.051 C 
HETATM   33  C27 UNL     1      -7.481   3.485  13.404  1.00  0.00     0.187 C 
HETATM   34  C25 UNL     1      -6.373   1.411  11.609  1.00  0.00     0.046 C 
HETATM   35  O5  UNL     1      -8.411   2.849  12.926  1.00  0.00    -0.290 OA
HETATM   36  C28 UNL     1      -7.677   4.208  14.681  1.00  0.00     0.235 A 
HETATM   37  O6  UNL     1      -6.505   4.495  15.468  1.00  0.00    -0.357 OA
BRANCH  32  38
HETATM   38  C26 UNL     1      -4.406   2.883  11.070  1.00  0.00     0.198 C 
BRANCH  38  39
HETATM   39  O4  UNL     1      -4.727   3.282   9.746  1.00  0.00    -0.397 OA
HETATM   40  H44 UNL     1      -3.885   3.419   9.282  1.00  0.00     0.209 HD
ENDBRANCH  38  39
ENDBRANCH  32  38
ENDBRANCH  21  22
ENDBRANCH   1  21
TORSDOF 16
ENDMDL
MODEL 2
REMARK minimizedAffinity -7.10809946
REMARK CNNscore 0.517042339
REMARK CNNaffinity 7.25567484
REMARK  16 active torsions:
REMARK  status: ('A' for Active; 'I' for Inactive)
REMARK    1  A    between atoms: C2_2  and  C3_3 
REMARK    2  A    between atoms: C3_3  and  C4_4 
REMARK    3  A    between atoms: C4_4  and  C5_5 
REMARK    4  A    between atoms: C5_5  and  C6_6 
REMARK    5  A    between atoms: C6_6  and  C7_7 
REMARK    6  A    between atoms: C7_7  and  C8_8 
REMARK    7  A    between atoms: C7_7  and  C30_36 
REMARK    8  A    between atoms: C9_9  and  C11_11 
REMARK    9  A    between atoms: C11_11  and  O1_12 
REMARK   10  A    between atoms: C11_11  and  C12_13 
REMARK   11  A    between atoms: C12_13  and  C14_15 
REMARK   12  A    between atoms: C14_15  and  O3_17 
REMARK   13  A    between atoms: O3_17  and  C15_18 
REMARK   14  A    between atoms: C24_27  and  C26_29 
REMARK   15  A    between atoms: C26_29  and  O4_30 
REMARK   16  A    between atoms: C30_36  and  O7_37 
ROOT
HETATM    1  C14 UNL     1      -0.711   9.447  16.339  1.00  0.00     0.266 C 
HETATM    2  O2  UNL     1      -1.031  10.262  17.194  1.00  0.00    -0.265 OA
ENDROOT
BRANCH   1   3
HETATM    3  C12 UNL     1       0.685   9.370  15.749  1.00  0.00     0.114 C 
HETATM    4  C13 UNL     1       0.853  10.529  14.769  1.00  0.00     0.023 C 
BRANCH   3   5
HETATM    5  C11 UNL     1       0.965   7.985  15.130  1.00  0.00     0.159 C 
BRANCH   5   6
HETATM    6  C9  UNL     1       2.345   7.815  14.507  1.00  0.00    -0.058 C 
HETATM    7  C8  UNL     1       2.658   7.537  13.221  1.00  0.00    -0.015 C 
HETATM    8  C10 UNL     1       3.489   7.900  15.507  1.00  0.00     0.046 C 
BRANCH   7   9
HETATM    9  C7  UNL     1       1.882   7.307  11.928  1.00  0.00     0.032 C 
BRANCH   9  10
HETATM   10  C6  UNL     1       1.034   8.566  11.578  1.00  0.00     0.010 C 
BRANCH  10  11
HETATM   11  C5  UNL     1      -0.148   8.339  10.625  1.00  0.00     0.001 C 
BRANCH  11  12
HETATM   12  C4  UNL     1       0.279   7.883   9.224  1.00  0.00     0.000 C 
BRANCH  12  13
HETATM   13  C3  UNL     1       1.337   8.787   8.585  1.00  0.00    -0.000 C 
BRANCH  13  14
HETATM   14  C2  UNL     1       2.319   8.025   7.690  1.00  0.00    -0.005 C 
HETATM   15  C1  UNL     1       1.643   7.246   6.573  1.00  0.00     0.005 C 
ENDBRANCH  13  14
ENDBRANCH  12  13
ENDBRANCH  11  12
ENDBRANCH  10  11
ENDBRANCH   9  10
BRANCH   9  16
HETATM   16  C30 UNL     1       1.067   6.016  11.741  1.00  0.00     0.172 C 
BRANCH  16  17
HETATM   17  O7  UNL     1       1.683   5.071  10.878  1.00  0.00    -0.400 OA
HETATM   18  H48 UNL     1       2.291   5.552  10.291  1.00  0.00     0.209 HD
ENDBRANCH  16  17
ENDBRANCH   9  16
ENDBRANCH   7   9
ENDBRANCH   5   6
BRANCH   5  19
HETATM   19  O1  UNL     1       0.867   6.999  16.163  1.00  0.00    -0.390 OA
HETATM   20  H20 UNL     1       1.135   6.149  15.771  1.00  0.00     0.210 HD
ENDBRANCH   5  19
ENDBRANCH   3   5
ENDBRANCH   1   3
BRANCH   1  21
HETATM   21  O3  UNL     1      -1.568   8.575  15.743  1.00  0.00    -0.312 OA
BRANCH  21  22
HETATM   22  C15 UNL     1      -2.217   9.029  14.541  1.00  0.00     0.170 C 
HETATM   23  C16 UNL     1      -3.151  10.182  14.912  1.00  0.00     0.036 C 
HETATM   24  C17 UNL     1      -4.349   9.717  15.737  1.00  0.00     0.007 C 
HETATM   25  C18 UNL     1      -5.150   8.627  14.998  1.00  0.00    -0.007 C 
HETATM   26  C19 UNL     1      -6.400   8.283  15.816  1.00  0.00     0.011 C 
HETATM   27  C20 UNL     1      -4.259   7.388  14.619  1.00  0.00     0.000 C 
HETATM   28  C21 UNL     1      -3.880   6.556  15.867  1.00  0.00     0.019 C 
HETATM   29  C22 UNL     1      -5.061   6.459  13.639  1.00  0.00     0.055 C 
HETATM   30  C29 UNL     1      -2.992   7.892  13.922  1.00  0.00     0.129 A 
HETATM   31  C23 UNL     1      -4.278   5.366  12.928  1.00  0.00    -0.005 C 
HETATM   32  C24 UNL     1      -4.848   4.278  12.348  1.00  0.00    -0.051 C 
HETATM   33  C27 UNL     1      -2.784   5.551  12.894  1.00  0.00     0.187 C 
HETATM   34  C25 UNL     1      -4.067   3.230  11.584  1.00  0.00     0.046 C 
HETATM   35  O5  UNL     1      -1.991   4.619  12.895  1.00  0.00    -0.290 OA
HETATM   36  C28 UNL     1      -2.275   6.937  12.999  1.00  0.00     0.235 A 
HETATM   37  O6  UNL     1      -3.112   7.993  12.490  1.00  0.00    -0.357 OA
BRANCH  32  38
HETATM   38  C26 UNL     1      -6.330   3.996  12.371  1.00  0.00     0.198 C 
BRANCH  38  39
HETATM   39  O4  UNL     1      -6.691   3.598  13.685  1.00  0.00    -0.397 OA
HETATM   40  H44 UNL     1      -7.654   3.476  13.687  1.00  0.00     0.209 HD
ENDBRANCH  38  39
ENDBRANCH  32  38
ENDBRANCH  21  22
ENDBRANCH   1  21
TORSDOF 16
ENDMDL
MODEL 3
REMARK minimizedAffinity -6.95451212
REMARK CNNscore 0.441920877
REMARK CNNaffinity 6.6834178
REMARK  16 active torsions:
REMARK  status: ('A' for Active; 'I' for Inactive)
REMARK    1  A    between atoms: C2_2  and  C3_3 
REMARK    2  A    between atoms: C3_3  and  C4_4 
REMARK    3  A    between atoms: C4_4  and  C5_5 
REMARK    4  A    between atoms: C5_5  and  C6_6 
REMARK    5  A    between atoms: C6_6  and  C7_7 
REMARK    6  A    between atoms: C7_7  and  C8_8 
REMARK    7  A    between atoms: C7_7  and  C30_36 
REMARK    8  A    between atoms: C9_9  and  C11_11 
REMARK    9  A    between atoms: C11_11  and  O1_12 
REMARK   10  A    between atoms: C11_11  and  C12_13 
REMARK   11  A    between atoms: C12_13  and  C14_15 
REMARK   12  A    between atoms: C14_15  and  O3_17 
REMARK   13  A    between atoms: O3_17  and  C15_18 
REMARK   14  A    between atoms: C24_27  and  C26_29 
REMARK   15  A    between atoms: C26_29  and  O4_30 
REMARK   16  A    between atoms: C30_36  and  O7_37 
ROOT
HETATM    1  C14 UNL     1      -9.899   6.970  14.095  1.00  0.00     0.266 C 
HETATM    2  O2  UNL     1      -9.671   6.321  13.082  1.00  0.00    -0.265 OA
ENDROOT
BRANCH   1   3
HETATM    3  C12 UNL     1      -8.932   7.051  15.261  1.00  0.00     0.114 C 
HETATM    4  C13 UNL     1      -8.366   8.468  15.314  1.00  0.00     0.023 C 
BRANCH   3   5
HETATM    5  C11 UNL     1      -7.852   5.952  15.182  1.00  0.00     0.159 C 
BRANCH   5   6
HETATM    6  C9  UNL     1      -6.803   6.144  14.094  1.00  0.00    -0.058 C 
HETATM    7  C8  UNL     1      -6.326   5.233  13.216  1.00  0.00    -0.015 C 
HETATM    8  C10 UNL     1      -6.180   7.533  14.076  1.00  0.00     0.046 C 
BRANCH   7   9
HETATM    9  C7  UNL     1      -6.586   3.761  12.911  1.00  0.00     0.032 C 
BRANCH   9  10
HETATM   10  C6  UNL     1      -5.851   3.344  11.604  1.00  0.00     0.010 C 
BRANCH  10  11
HETATM   11  C5  UNL     1      -4.417   2.823  11.772  1.00  0.00     0.001 C 
BRANCH  11  12
HETATM   12  C4  UNL     1      -3.354   3.779  11.218  1.00  0.00     0.000 C 
BRANCH  12  13
HETATM   13  C3  UNL     1      -2.778   4.727  12.274  1.00  0.00    -0.000 C 
BRANCH  13  14
HETATM   14  C2  UNL     1      -1.247   4.721  12.319  1.00  0.00    -0.005 C 
HETATM   15  C1  UNL     1      -0.626   3.478  11.699  1.00  0.00     0.005 C 
ENDBRANCH  13  14
ENDBRANCH  12  13
ENDBRANCH  11  12
ENDBRANCH  10  11
ENDBRANCH   9  10
BRANCH   9  16
HETATM   16  C30 UNL     1      -8.024   3.214  12.941  1.00  0.00     0.172 C 
BRANCH  16  17
HETATM   17  O7  UNL     1      -8.113   1.827  12.649  1.00  0.00    -0.400 OA
HETATM   18  H48 UNL     1      -7.329   1.578  12.132  1.00  0.00     0.209 HD
ENDBRANCH  16  17
ENDBRANCH   9  16
ENDBRANCH   7   9
ENDBRANCH   5   6
BRANCH   5  19
HETATM   19  O1  UNL     1      -7.142   5.924  16.424  1.00  0.00    -0.390 OA
HETATM   20  H20 UNL     1      -6.412   5.288  16.319  1.00  0.00     0.210 HD
ENDBRANCH   5  19
ENDBRANCH   3   5
ENDBRANCH   1   3
BRANCH   1  21
HETATM   21  O3  UNL     1     -11.066   7.619  14.351  1.00  0.00    -0.312 OA
BRANCH  21  22
HETATM   22  C15 UNL     1     -11.877   7.960  13.211  1.00  0.00     0.170 C 
HETATM   23  C16 UNL     1     -11.585   9.413  12.837  1.00  0.00     0.036 C 
HETATM   24  C17 UNL     1     -12.111  10.399  13.878  1.00  0.00     0.007 C 
HETATM   25  C18 UNL     1     -13.625  10.222  14.103  1.00  0.00    -0.007 C 
HETATM   26  C19 UNL     1     -14.119  11.308  15.065  1.00  0.00     0.011 C 
HETATM   27  C20 UNL     1     -13.997   8.756  14.530  1.00  0.00     0.000 C 
HETATM   28  C21 UNL     1     -13.538   8.450  15.975  1.00  0.00     0.019 C 
HETATM   29  C22 UNL     1     -15.556   8.581  14.467  1.00  0.00     0.055 C 
HETATM   30  C29 UNL     1     -13.335   7.779  13.552  1.00  0.00     0.129 A 
HETATM   31  C23 UNL     1     -16.098   7.163  14.559  1.00  0.00    -0.005 C 
HETATM   32  C24 UNL     1     -17.382   6.859  14.880  1.00  0.00    -0.051 C 
HETATM   33  C27 UNL     1     -15.106   6.068  14.268  1.00  0.00     0.187 C 
HETATM   34  C25 UNL     1     -17.928   5.447  14.902  1.00  0.00     0.046 C 
HETATM   35  O5  UNL     1     -15.151   4.963  14.794  1.00  0.00    -0.290 OA
HETATM   36  C28 UNL     1     -13.956   6.412  13.402  1.00  0.00     0.235 A 
HETATM   37  O6  UNL     1     -14.154   7.444  12.416  1.00  0.00    -0.357 OA
BRANCH  32  38
HETATM   38  C26 UNL     1     -18.427   7.891  15.223  1.00  0.00     0.198 C 
BRANCH  38  39
HETATM   39  O4  UNL     1     -18.238   8.288  16.573  1.00  0.00    -0.397 OA
HETATM   40  H44 UNL     1     -18.885   8.990  16.753  1.00  0.00     0.209 HD
ENDBRANCH  38  39
ENDBRANCH  32  38
ENDBRANCH  21  22
ENDBRANCH   1  21
TORSDOF 16
ENDMDL
MODEL 4
REMARK minimizedAffinity -6.8562336
REMARK CNNscore 0.43164444
REMARK CNNaffinity 6.6189456
REMARK  16 active torsions:
REMARK  status: ('A' for Active; 'I' for Inactive)
REMARK    1  A    between atoms: C2_2  and  C3_3 
REMARK    2  A    between atoms: C3_3  and  C4_4 
REMARK    3  A    between atoms: C4_4  and  C5_5 
REMARK    4  A    between atoms: C5_5  and  C6_6 
REMARK    5  A    between atoms: C6_6  and  C7_7 
REMARK    6  A    between atoms: C7_7  and  C8_8 
REMARK    7  A    between atoms: C7_7  and  C30_36 
REMARK    8  A    between atoms: C9_9  and  C11_11 
REMARK    9  A    between atoms: C11_11  and  O1_12 
REMARK   10  A    between atoms: C11_11  and  C12_13 
REMARK   11  A    between atoms: C12_13  and  C14_15 
REMARK   12  A    between atoms: C14_15  and  O3_17 
REMARK   13  A    between atoms: O3_17  and  C15_18 
REMARK   14  A    between atoms: C24_27  and  C26_29 
REMARK   15  A    between atoms: C26_29  and  O4_30 
REMARK   16  A    between atoms: C30_36  and  O7_37 
ROOT
HETATM    1  C14 UNL     1      -9.942   7.530  13.970  1.00  0.00     0.266 C 
HETATM    2  O2  UNL     1     -10.427   6.602  13.334  1.00  0.00    -0.265 OA
ENDROOT
BRANCH   1   3
HETATM    3  C12 UNL     1     -10.674   8.835  14.219  1.00  0.00     0.114 C 
HETATM    4  C13 UNL     1      -9.783   9.724  15.084  1.00  0.00     0.023 C 
BRANCH   3   5
HETATM    5  C11 UNL     1     -12.078   8.595  14.812  1.00  0.00     0.159 C 
BRANCH   5   6
HETATM    6  C9  UNL     1     -13.211   8.520  13.796  1.00  0.00    -0.058 C 
HETATM    7  C8  UNL     1     -14.270   7.680  13.780  1.00  0.00    -0.015 C 
HETATM    8  C10 UNL     1     -13.053   9.478  12.623  1.00  0.00     0.046 C 
BRANCH   7   9
HETATM    9  C7  UNL     1     -14.793   6.555  14.668  1.00  0.00     0.032 C 
BRANCH   9  10
HETATM   10  C6  UNL     1     -15.656   5.565  13.830  1.00  0.00     0.010 C 
BRANCH  10  11
HETATM   11  C5  UNL     1     -16.909   5.011  14.522  1.00  0.00     0.001 C 
BRANCH  11  12
HETATM   12  C4  UNL     1     -16.990   3.479  14.498  1.00  0.00     0.000 C 
BRANCH  12  13
HETATM   13  C3  UNL     1     -16.010   2.803  15.461  1.00  0.00    -0.000 C 
BRANCH  13  14
HETATM   14  C2  UNL     1     -15.000   1.894  14.755  1.00  0.00    -0.005 C 
HETATM   15  C1  UNL     1     -15.621   1.022  13.673  1.00  0.00     0.005 C 
ENDBRANCH  13  14
ENDBRANCH  12  13
ENDBRANCH  11  12
ENDBRANCH  10  11
ENDBRANCH   9  10
BRANCH   9  16
HETATM   16  C30 UNL     1     -15.469   6.887  16.009  1.00  0.00     0.172 C 
BRANCH  16  17
HETATM   17  O7  UNL     1     -14.552   7.109  17.071  1.00  0.00    -0.400 OA
HETATM   18  H48 UNL     1     -13.723   6.654  16.851  1.00  0.00     0.209 HD
ENDBRANCH  16  17
ENDBRANCH   9  16
ENDBRANCH   7   9
ENDBRANCH   5   6
BRANCH   5  19
HETATM   19  O1  UNL     1     -12.071   7.339  15.498  1.00  0.00    -0.390 OA
HETATM   20  H20 UNL     1     -12.985   7.168  15.785  1.00  0.00     0.210 HD
ENDBRANCH   5  19
ENDBRANCH   3   5
ENDBRANCH   1   3
BRANCH   1  21
HETATM   21  O3  UNL     1      -8.671   7.555  14.451  1.00  0.00    -0.312 OA
BRANCH  21  22
HETATM   22  C15 UNL     1      -8.278   6.454  15.294  1.00  0.00     0.170 C 
HETATM   23  C16 UNL     1      -7.616   7.028  16.546  1.00  0.00     0.036 C 
HETATM   24  C17 UNL     1      -6.262   7.667  16.248  1.00  0.00     0.007 C 
HETATM   25  C18 UNL     1      -5.304   6.664  15.575  1.00  0.00    -0.007 C 
HETATM   26  C19 UNL     1      -3.929   7.321  15.405  1.00  0.00     0.011 C 
HETATM   27  C20 UNL     1      -5.905   6.060  14.254  1.00  0.00     0.000 C 
HETATM   28  C21 UNL     1      -5.941   7.107  13.115  1.00  0.00     0.019 C 
HETATM   29  C22 UNL     1      -5.011   4.859  13.783  1.00  0.00     0.055 C 
HETATM   30  C29 UNL     1      -7.323   5.558  14.546  1.00  0.00     0.129 A 
HETATM   31  C23 UNL     1      -5.578   3.960  12.695  1.00  0.00    -0.005 C 
HETATM   32  C24 UNL     1      -4.827   3.123  11.933  1.00  0.00    -0.051 C 
HETATM   33  C27 UNL     1      -7.067   4.043  12.493  1.00  0.00     0.187 C 
HETATM   34  C25 UNL     1      -5.408   2.183  10.899  1.00  0.00     0.046 C 
HETATM   35  O5  UNL     1      -7.609   3.873  11.408  1.00  0.00    -0.290 OA
HETATM   36  C28 UNL     1      -7.881   4.481  13.648  1.00  0.00     0.235 A 
HETATM   37  O6  UNL     1      -7.380   4.181  14.965  1.00  0.00    -0.357 OA
BRANCH  32  38
HETATM   38  C26 UNL     1      -3.327   3.008  12.044  1.00  0.00     0.198 C 
BRANCH  38  39
HETATM   39  O4  UNL     1      -2.892   1.968  11.181  1.00  0.00    -0.397 OA
HETATM   40  H44 UNL     1      -1.922   1.950  11.228  1.00  0.00     0.209 HD
ENDBRANCH  38  39
ENDBRANCH  32  38
ENDBRANCH  21  22
ENDBRANCH   1  21
TORSDOF 16
ENDMDL
MODEL 5
REMARK minimizedAffinity -7.95683241
REMARK CNNscore 0.379614949
REMARK CNNaffinity 6.43205261
REMARK  16 active torsions:
REMARK  status: ('A' for Active; 'I' for Inactive)
REMARK    1  A    between atoms: C2_2  and  C3_3 
REMARK    2  A    between atoms: C3_3  and  C4_4 
REMARK    3  A    between atoms: C4_4  and  C5_5 
REMARK    4  A    between atoms: C5_5  and  C6_6 
REMARK    5  A    between atoms: C6_6  and  C7_7 
REMARK    6  A    between atoms: C7_7  and  C8_8 
REMARK    7  A    between atoms: C7_7  and  C30_36 
REMARK    8  A    between atoms: C9_9  and  C11_11 
REMARK    9  A    between atoms: C11_11  and  O1_12 
REMARK   10  A    between atoms: C11_11  and  C12_13 
REMARK   11  A    between atoms: C12_13  and  C14_15 
REMARK   12  A    between atoms: C14_15  and  O3_17 
REMARK   13  A    between atoms: O3_17  and  C15_18 
REMARK   14  A    between atoms: C24_27  and  C26_29 
REMARK   15  A    between atoms: C26_29  and  O4_30 
REMARK   16  A    between atoms: C30_36  and  O7_37 
ROOT
HETATM    1  C14 UNL     1      -3.272   6.258  12.980  1.00  0.00     0.266 C 
HETATM    2  O2  UNL     1      -3.916   5.416  12.368  1.00  0.00    -0.265 OA
ENDROOT
BRANCH   1   3
HETATM    3  C12 UNL     1      -3.832   7.036  14.156  1.00  0.00     0.114 C 
HETATM    4  C13 UNL     1      -3.803   6.130  15.384  1.00  0.00     0.023 C 
BRANCH   3   5
HETATM    5  C11 UNL     1      -5.227   7.615  13.841  1.00  0.00     0.159 C 
BRANCH   5   6
HETATM    6  C9  UNL     1      -5.892   8.372  14.984  1.00  0.00    -0.058 C 
HETATM    7  C8  UNL     1      -7.102   8.150  15.546  1.00  0.00    -0.015 C 
HETATM    8  C10 UNL     1      -5.096   9.572  15.477  1.00  0.00     0.046 C 
BRANCH   7   9
HETATM    9  C7  UNL     1      -8.237   7.149  15.350  1.00  0.00     0.032 C 
BRANCH   9  10
HETATM   10  C6  UNL     1      -7.733   5.915  14.546  1.00  0.00     0.010 C 
BRANCH  10  11
HETATM   11  C5  UNL     1      -8.108   5.881  13.058  1.00  0.00     0.001 C 
BRANCH  11  12
HETATM   12  C4  UNL     1      -8.173   4.461  12.479  1.00  0.00     0.000 C 
BRANCH  12  13
HETATM   13  C3  UNL     1      -6.992   3.579  12.896  1.00  0.00    -0.000 C 
BRANCH  13  14
HETATM   14  C2  UNL     1      -7.204   2.098  12.573  1.00  0.00    -0.005 C 
HETATM   15  C1  UNL     1      -6.260   1.569  11.503  1.00  0.00     0.005 C 
ENDBRANCH  13  14
ENDBRANCH  12  13
ENDBRANCH  11  12
ENDBRANCH  10  11
ENDBRANCH   9  10
BRANCH   9  16
HETATM   16  C30 UNL     1      -9.604   7.631  14.835  1.00  0.00     0.172 C 
BRANCH  16  17
HETATM   17  O7  UNL     1     -10.679   6.769  15.178  1.00  0.00    -0.400 OA
HETATM   18  H48 UNL     1     -10.315   5.882  15.336  1.00  0.00     0.209 HD
ENDBRANCH  16  17
ENDBRANCH   9  16
ENDBRANCH   7   9
ENDBRANCH   5   6
BRANCH   5  19
HETATM   19  O1  UNL     1      -5.096   8.549  12.764  1.00  0.00    -0.390 OA
HETATM   20  H20 UNL     1      -5.968   8.966  12.643  1.00  0.00     0.210 HD
ENDBRANCH   5  19
ENDBRANCH   3   5
ENDBRANCH   1   3
BRANCH   1  21
HETATM   21  O3  UNL     1      -2.022   6.671  12.640  1.00  0.00    -0.312 OA
BRANCH  21  22
HETATM   22  C15 UNL     1      -1.036   5.642  12.434  1.00  0.00     0.170 C 
HETATM   23  C16 UNL     1      -0.643   5.080  13.801  1.00  0.00     0.036 C 
HETATM   24  C17 UNL     1       0.149   6.084  14.636  1.00  0.00     0.007 C 
HETATM   25  C18 UNL     1       1.414   6.557  13.893  1.00  0.00    -0.007 C 
HETATM   26  C19 UNL     1       2.228   7.468  14.820  1.00  0.00     0.011 C 
HETATM   27  C20 UNL     1       1.082   7.185  12.491  1.00  0.00     0.000 C 
HETATM   28  C21 UNL     1       0.397   8.565  12.634  1.00  0.00     0.019 C 
HETATM   29  C22 UNL     1       2.416   7.383  11.687  1.00  0.00     0.055 C 
HETATM   30  C29 UNL     1       0.165   6.223  11.729  1.00  0.00     0.129 A 
HETATM   31  C23 UNL     1       2.288   7.703  10.205  1.00  0.00    -0.005 C 
HETATM   32  C24 UNL     1       3.282   8.249   9.457  1.00  0.00    -0.051 C 
HETATM   33  C27 UNL     1       0.958   7.376   9.580  1.00  0.00     0.187 C 
HETATM   34  C25 UNL     1       3.169   8.501   7.969  1.00  0.00     0.046 C 
HETATM   35  O5  UNL     1       0.476   8.014   8.653  1.00  0.00    -0.290 OA
HETATM   36  C28 UNL     1       0.155   6.312  10.223  1.00  0.00     0.235 A 
HETATM   37  O6  UNL     1       0.869   5.268  10.913  1.00  0.00    -0.357 OA
BRANCH  32  38
HETATM   38  C26 UNL     1       4.629   8.642  10.013  1.00  0.00     0.198 C 
BRANCH  38  39
HETATM   39  O4  UNL     1       5.402   7.465  10.189  1.00  0.00    -0.397 OA
HETATM   40  H44 UNL     1       6.280   7.748  10.494  1.00  0.00     0.209 HD
ENDBRANCH  38  39
ENDBRANCH  32  38
ENDBRANCH  21  22
ENDBRANCH   1  21
TORSDOF 16
ENDMDL
MODEL 6
REMARK minimizedAffinity -6.79587078
REMARK CNNscore 0.374777496
REMARK CNNaffinity 6.63684797
REMARK  16 active torsions:
REMARK  status: ('A' for Active; 'I' for Inactive)
REMARK    1  A    between atoms: C2_2  and  C3_3 
REMARK    2  A    between atoms: C3_3  and  C4_4 
REMARK    3  A    between atoms: C4_4  and  C5_5 
REMARK    4  A    between atoms: C5_5  and  C6_6 
REMARK    5  A    between atoms: C6_6  and  C7_7 
REMARK    6  A    between atoms: C7_7  and  C8_8 
REMARK    7  A    between atoms: C7_7  and  C30_36 
REMARK    8  A    between atoms: C9_9  and  C11_11 
REMARK    9  A    between atoms: C11_11  and  O1_12 
REMARK   10  A    between atoms: C11_11  and  C12_13 
REMARK   11  A    between atoms: C12_13  and  C14_15 
REMARK   12  A    between atoms: C14_15  and  O3_17 
REMARK   13  A    between atoms: O3_17  and  C15_18 
REMARK   14  A    between atoms: C24_27  and  C26_29 
REMARK   15  A    between atoms: C26_29  and  O4_30 
REMARK   16  A    between atoms: C30_36  and  O7_37 
ROOT
HETATM    1  C14 UNL     1      -7.768   5.160  13.594  1.00  0.00     0.266 C 
HETATM    2  O2  UNL     1      -7.656   3.942  13.660  1.00  0.00    -0.265 OA
ENDROOT
BRANCH   1   3
HETATM    3  C12 UNL     1      -9.073   5.853  13.250  1.00  0.00     0.114 C 
HETATM    4  C13 UNL     1      -8.971   6.378  11.819  1.00  0.00     0.023 C 
BRANCH   3   5
HETATM    5  C11 UNL     1      -9.431   6.938  14.287  1.00  0.00     0.159 C 
BRANCH   5   6
HETATM    6  C9  UNL     1     -10.646   7.791  13.946  1.00  0.00    -0.058 C 
HETATM    7  C8  UNL     1     -10.932   9.048  14.357  1.00  0.00    -0.015 C 
HETATM    8  C10 UNL     1     -11.685   7.075  13.095  1.00  0.00     0.046 C 
BRANCH   7   9
HETATM    9  C7  UNL     1     -10.255  10.097  15.233  1.00  0.00     0.032 C 
BRANCH   9  10
HETATM   10  C6  UNL     1     -10.649   9.889  16.724  1.00  0.00     0.010 C 
BRANCH  10  11
HETATM   11  C5  UNL     1     -11.471  11.014  17.368  1.00  0.00     0.001 C 
BRANCH  11  12
HETATM   12  C4  UNL     1     -11.157  11.222  18.856  1.00  0.00     0.000 C 
BRANCH  12  13
HETATM   13  C3  UNL     1     -11.341   9.957  19.700  1.00  0.00    -0.000 C 
BRANCH  13  14
HETATM   14  C2  UNL     1     -10.993  10.162  21.177  1.00  0.00    -0.005 C 
HETATM   15  C1  UNL     1     -12.213  10.259  22.080  1.00  0.00     0.005 C 
ENDBRANCH  13  14
ENDBRANCH  12  13
ENDBRANCH  11  12
ENDBRANCH  10  11
ENDBRANCH   9  10
BRANCH   9  16
HETATM   16  C30 UNL     1     -10.322  11.584  14.841  1.00  0.00     0.172 C 
BRANCH  16  17
HETATM   17  O7  UNL     1      -9.079  12.262  14.957  1.00  0.00    -0.400 OA
HETATM   18  H48 UNL     1      -8.533  11.778  15.599  1.00  0.00     0.209 HD
ENDBRANCH  16  17
ENDBRANCH   9  16
ENDBRANCH   7   9
ENDBRANCH   5   6
BRANCH   5  19
HETATM   19  O1  UNL     1      -9.729   6.294  15.530  1.00  0.00    -0.390 OA
HETATM   20  H20 UNL     1     -10.038   6.986  16.141  1.00  0.00     0.210 HD
ENDBRANCH   5  19
ENDBRANCH   3   5
ENDBRANCH   1   3
BRANCH   1  21
HETATM   21  O3  UNL     1      -6.739   6.039  13.727  1.00  0.00    -0.312 OA
BRANCH  21  22
HETATM   22  C15 UNL     1      -5.861   5.839  14.850  1.00  0.00     0.170 C 
HETATM   23  C16 UNL     1      -6.332   6.745  15.988  1.00  0.00     0.036 C 
HETATM   24  C17 UNL     1      -6.097   8.224  15.690  1.00  0.00     0.007 C 
HETATM   25  C18 UNL     1      -4.611   8.507  15.391  1.00  0.00    -0.007 C 
HETATM   26  C19 UNL     1      -4.414  10.017  15.215  1.00  0.00     0.011 C 
HETATM   27  C20 UNL     1      -4.067   7.636  14.201  1.00  0.00     0.000 C 
HETATM   28  C21 UNL     1      -4.643   8.104  12.844  1.00  0.00     0.019 C 
HETATM   29  C22 UNL     1      -2.504   7.769  14.139  1.00  0.00     0.055 C 
HETATM   30  C29 UNL     1      -4.445   6.173  14.453  1.00  0.00     0.129 A 
HETATM   31  C23 UNL     1      -1.761   6.784  13.250  1.00  0.00    -0.005 C 
HETATM   32  C24 UNL     1      -0.492   6.972  12.802  1.00  0.00    -0.051 C 
HETATM   33  C27 UNL     1      -2.524   5.542  12.874  1.00  0.00     0.187 C 
HETATM   34  C25 UNL     1       0.263   5.954  11.974  1.00  0.00     0.046 C 
HETATM   35  O5  UNL     1      -2.369   4.954  11.811  1.00  0.00    -0.290 OA
HETATM   36  C28 UNL     1      -3.602   5.110  13.792  1.00  0.00     0.235 A 
HETATM   37  O6  UNL     1      -3.453   5.431  15.188  1.00  0.00    -0.357 OA
BRANCH  32  38
HETATM   38  C26 UNL     1       0.328   8.203  13.099  1.00  0.00     0.198 C 
BRANCH  38  39
HETATM   39  O4  UNL     1       0.124   9.141  12.053  1.00  0.00    -0.397 OA
HETATM   40  H44 UNL     1       0.616   9.942  12.293  1.00  0.00     0.209 HD
ENDBRANCH  38  39
ENDBRANCH  32  38
ENDBRANCH  21  22
ENDBRANCH   1  21
TORSDOF 16
ENDMDL
MODEL 7
REMARK minimizedAffinity -7.59376001
REMARK CNNscore 0.243488282
REMARK CNNaffinity 5.6955514
REMARK  16 active torsions:
REMARK  status: ('A' for Active; 'I' for Inactive)
REMARK    1  A    between atoms: C2_2  and  C3_3 
REMARK    2  A    between atoms: C3_3  and  C4_4 
REMARK    3  A    between atoms: C4_4  and  C5_5 
REMARK    4  A    between atoms: C5_5  and  C6_6 
REMARK    5  A    between atoms: C6_6  and  C7_7 
REMARK    6  A    between atoms: C7_7  and  C8_8 
REMARK    7  A    between atoms: C7_7  and  C30_36 
REMARK    8  A    between atoms: C9_9  and  C11_11 
REMARK    9  A    between atoms: C11_11  and  O1_12 
REMARK   10  A    between atoms: C11_11  and  C12_13 
REMARK   11  A    between atoms: C12_13  and  C14_15 
REMARK   12  A    between atoms: C14_15  and  O3_17 
REMARK   13  A    between atoms: O3_17  and  C15_18 
REMARK   14  A    between atoms: C24_27  and  C26_29 
REMARK   15  A    between atoms: C26_29  and  O4_30 
REMARK   16  A    between atoms: C30_36  and  O7_37 
ROOT
HETATM    1  C14 UNL     1      -3.426  10.110  16.324  1.00  0.00     0.266 C 
HETATM    2  O2  UNL     1      -4.345  10.901  16.153  1.00  0.00    -0.265 OA
ENDROOT
BRANCH   1   3
HETATM    3  C12 UNL     1      -2.341  10.313  17.365  1.00  0.00     0.114 C 
HETATM    4  C13 UNL     1      -2.977  10.187  18.747  1.00  0.00     0.023 C 
BRANCH   3   5
HETATM    5  C11 UNL     1      -1.585  11.640  17.146  1.00  0.00     0.159 C 
BRANCH   5   6
HETATM    6  C9  UNL     1      -1.089  12.326  18.413  1.00  0.00    -0.058 C 
HETATM    7  C8  UNL     1      -0.127  11.914  19.269  1.00  0.00    -0.015 C 
HETATM    8  C10 UNL     1      -1.852  13.594  18.768  1.00  0.00     0.046 C 
BRANCH   7   9
HETATM    9  C7  UNL     1       0.825  10.725  19.363  1.00  0.00     0.032 C 
BRANCH   9  10
HETATM   10  C6  UNL     1       1.307  10.536  20.831  1.00  0.00     0.010 C 
BRANCH  10  11
HETATM   11  C5  UNL     1       2.688   9.891  21.010  1.00  0.00     0.001 C 
BRANCH  11  12
HETATM   12  C4  UNL     1       2.942   9.384  22.436  1.00  0.00     0.000 C 
BRANCH  12  13
HETATM   13  C3  UNL     1       4.228   9.938  23.058  1.00  0.00    -0.000 C 
BRANCH  13  14
HETATM   14  C2  UNL     1       4.412  11.440  22.824  1.00  0.00    -0.005 C 
HETATM   15  C1  UNL     1       5.858  11.899  22.932  1.00  0.00     0.005 C 
ENDBRANCH  13  14
ENDBRANCH  12  13
ENDBRANCH  11  12
ENDBRANCH  10  11
ENDBRANCH   9  10
BRANCH   9  16
HETATM   16  C30 UNL     1       1.994  10.599  18.371  1.00  0.00     0.172 C 
BRANCH  16  17
HETATM   17  O7  UNL     1       1.864   9.508  17.471  1.00  0.00    -0.400 OA
HETATM   18  H48 UNL     1       1.279   8.849  17.881  1.00  0.00     0.209 HD
ENDBRANCH  16  17
ENDBRANCH   9  16
ENDBRANCH   7   9
ENDBRANCH   5   6
BRANCH   5  19
HETATM   19  O1  UNL     1      -0.423  11.373  16.353  1.00  0.00    -0.390 OA
HETATM   20  H20 UNL     1       0.083  12.203  16.304  1.00  0.00     0.210 HD
ENDBRANCH   5  19
ENDBRANCH   3   5
ENDBRANCH   1   3
BRANCH   1  21
HETATM   21  O3  UNL     1      -3.202   9.009  15.558  1.00  0.00    -0.312 OA
BRANCH  21  22
HETATM   22  C15 UNL     1      -3.324   9.179  14.133  1.00  0.00     0.170 C 
HETATM   23  C16 UNL     1      -4.714   8.699  13.715  1.00  0.00     0.036 C 
HETATM   24  C17 UNL     1      -4.870   7.186  13.846  1.00  0.00     0.007 C 
HETATM   25  C18 UNL     1      -3.801   6.438  13.025  1.00  0.00    -0.007 C 
HETATM   26  C19 UNL     1      -4.076   4.932  13.098  1.00  0.00     0.011 C 
HETATM   27  C20 UNL     1      -2.340   6.854  13.430  1.00  0.00     0.000 C 
HETATM   28  C21 UNL     1      -1.956   6.300  14.821  1.00  0.00     0.019 C 
HETATM   29  C22 UNL     1      -1.330   6.274  12.378  1.00  0.00     0.055 C 
HETATM   30  C29 UNL     1      -2.251   8.384  13.433  1.00  0.00     0.129 A 
HETATM   31  C23 UNL     1       0.095   6.803  12.423  1.00  0.00    -0.005 C 
HETATM   32  C24 UNL     1       1.158   6.175  11.856  1.00  0.00    -0.051 C 
HETATM   33  C27 UNL     1       0.284   8.104  13.156  1.00  0.00     0.187 C 
HETATM   34  C25 UNL     1       2.561   6.743  11.848  1.00  0.00     0.046 C 
HETATM   35  O5  UNL     1       1.308   8.393  13.762  1.00  0.00    -0.290 OA
HETATM   36  C28 UNL     1      -0.888   9.004  13.243  1.00  0.00     0.235 A 
HETATM   37  O6  UNL     1      -1.849   8.949  12.171  1.00  0.00    -0.357 OA
BRANCH  32  38
HETATM   38  C26 UNL     1       1.063   4.851  11.139  1.00  0.00     0.198 C 
BRANCH  38  39
HETATM   39  O4  UNL     1       2.355   4.507  10.660  1.00  0.00    -0.397 OA
HETATM   40  H44 UNL     1       2.280   3.629  10.252  1.00  0.00     0.209 HD
ENDBRANCH  38  39
ENDBRANCH  32  38
ENDBRANCH  21  22
ENDBRANCH   1  21
TORSDOF 16
ENDMDL
MODEL 8
REMARK minimizedAffinity -7.98560143
REMARK CNNscore 0.233974189
REMARK CNNaffinity 6.50852156
REMARK  16 active torsions:
REMARK  status: ('A' for Active; 'I' for Inactive)
REMARK    1  A    between atoms: C2_2  and  C3_3 
REMARK    2  A    between atoms: C3_3  and  C4_4 
REMARK    3  A    between atoms: C4_4  and  C5_5 
REMARK    4  A    between atoms: C5_5  and  C6_6 
REMARK    5  A    between atoms: C6_6  and  C7_7 
REMARK    6  A    between atoms: C7_7  and  C8_8 
REMARK    7  A    between atoms: C7_7  and  C30_36 
REMARK    8  A    between atoms: C9_9  and  C11_11 
REMARK    9  A    between atoms: C11_11  and  O1_12 
REMARK   10  A    between atoms: C11_11  and  C12_13 
REMARK   11  A    between atoms: C12_13  and  C14_15 
REMARK   12  A    between atoms: C14_15  and  O3_17 
REMARK   13  A    between atoms: O3_17  and  C15_18 
REMARK   14  A    between atoms: C24_27  and  C26_29 
REMARK   15  A    between atoms: C26_29  and  O4_30 
REMARK   16  A    between atoms: C30_36  and  O7_37 
ROOT
HETATM    1  C14 UNL     1      -0.921   7.398  14.045  1.00  0.00     0.266 C 
HETATM    2  O2  UNL     1      -0.154   7.320  14.997  1.00  0.00    -0.265 OA
ENDROOT
BRANCH   1   3
HETATM    3  C12 UNL     1      -2.429   7.443  14.199  1.00  0.00     0.114 C 
HETATM    4  C13 UNL     1      -3.019   8.077  12.941  1.00  0.00     0.023 C 
BRANCH   3   5
HETATM    5  C11 UNL     1      -2.847   8.148  15.506  1.00  0.00     0.159 C 
BRANCH   5   6
HETATM    6  C9  UNL     1      -4.265   8.705  15.523  1.00  0.00    -0.058 C 
HETATM    7  C8  UNL     1      -5.432   8.036  15.389  1.00  0.00    -0.015 C 
HETATM    8  C10 UNL     1      -4.331  10.222  15.629  1.00  0.00     0.046 C 
BRANCH   7   9
HETATM    9  C7  UNL     1      -5.847   6.580  15.200  1.00  0.00     0.032 C 
BRANCH   9  10
HETATM   10  C6  UNL     1      -6.309   6.339  13.733  1.00  0.00     0.010 C 
BRANCH  10  11
HETATM   11  C5  UNL     1      -7.723   5.769  13.555  1.00  0.00     0.001 C 
BRANCH  11  12
HETATM   12  C4  UNL     1      -7.799   4.640  12.519  1.00  0.00     0.000 C 
BRANCH  12  13
HETATM   13  C3  UNL     1      -7.070   3.365  12.954  1.00  0.00    -0.000 C 
BRANCH  13  14
HETATM   14  C2  UNL     1      -5.878   3.018  12.058  1.00  0.00    -0.005 C 
HETATM   15  C1  UNL     1      -6.006   1.665  11.374  1.00  0.00     0.005 C 
ENDBRANCH  13  14
ENDBRANCH  12  13
ENDBRANCH  11  12
ENDBRANCH  10  11
ENDBRANCH   9  10
BRANCH   9  16
HETATM   16  C30 UNL     1      -6.810   5.920  16.203  1.00  0.00     0.172 C 
BRANCH  16  17
HETATM   17  O7  UNL     1      -7.272   6.802  17.216  1.00  0.00    -0.400 OA
HETATM   18  H48 UNL     1      -6.625   7.521  17.306  1.00  0.00     0.209 HD
ENDBRANCH  16  17
ENDBRANCH   9  16
ENDBRANCH   7   9
ENDBRANCH   5   6
BRANCH   5  19
HETATM   19  O1  UNL     1      -2.776   7.198  16.575  1.00  0.00    -0.390 OA
HETATM   20  H20 UNL     1      -3.127   7.639  17.369  1.00  0.00     0.210 HD
ENDBRANCH   5  19
ENDBRANCH   3   5
ENDBRANCH   1   3
BRANCH   1  21
HETATM   21  O3  UNL     1      -0.539   7.363  12.741  1.00  0.00    -0.312 OA
BRANCH  21  22
HETATM   22  C15 UNL     1       0.093   8.548  12.221  1.00  0.00     0.170 C 
HETATM   23  C16 UNL     1      -0.463   8.809  10.821  1.00  0.00     0.036 C 
HETATM   24  C17 UNL     1      -0.004   7.762   9.809  1.00  0.00     0.007 C 
HETATM   25  C18 UNL     1       1.534   7.683   9.743  1.00  0.00    -0.007 C 
HETATM   26  C19 UNL     1       1.938   6.705   8.633  1.00  0.00     0.011 C 
HETATM   27  C20 UNL     1       2.176   7.377  11.145  1.00  0.00     0.000 C 
HETATM   28  C21 UNL     1       1.912   5.917  11.584  1.00  0.00     0.019 C 
HETATM   29  C22 UNL     1       3.729   7.586  11.057  1.00  0.00     0.055 C 
HETATM   30  C29 UNL     1       1.587   8.347  12.174  1.00  0.00     0.129 A 
HETATM   31  C23 UNL     1       4.497   7.625  12.369  1.00  0.00    -0.005 C 
HETATM   32  C24 UNL     1       5.838   7.437  12.471  1.00  0.00    -0.051 C 
HETATM   33  C27 UNL     1       3.671   7.892  13.599  1.00  0.00     0.187 C 
HETATM   34  C25 UNL     1       6.603   7.546  13.772  1.00  0.00     0.046 C 
HETATM   35  O5  UNL     1       3.943   7.437  14.703  1.00  0.00    -0.290 OA
HETATM   36  C28 UNL     1       2.402   8.631  13.412  1.00  0.00     0.235 A 
HETATM   37  O6  UNL     1       2.336   9.569  12.320  1.00  0.00    -0.357 OA
BRANCH  32  38
HETATM   38  C26 UNL     1       6.732   7.127  11.296  1.00  0.00     0.198 C 
BRANCH  38  39
HETATM   39  O4  UNL     1       6.419   5.825  10.825  1.00  0.00    -0.397 OA
HETATM   40  H44 UNL     1       6.967   5.671  10.038  1.00  0.00     0.209 HD
ENDBRANCH  38  39
ENDBRANCH  32  38
ENDBRANCH  21  22
ENDBRANCH   1  21
TORSDOF 16
ENDMDL
MODEL 9
REMARK minimizedAffinity -6.94029236
REMARK CNNscore 0.233918473
REMARK CNNaffinity 6.67496538
REMARK  16 active torsions:
REMARK  status: ('A' for Active; 'I' for Inactive)
REMARK    1  A    between atoms: C2_2  and  C3_3 
REMARK    2  A    between atoms: C3_3  and  C4_4 
REMARK    3  A    between atoms: C4_4  and  C5_5 
REMARK    4  A    between atoms: C5_5  and  C6_6 
REMARK    5  A    between atoms: C6_6  and  C7_7 
REMARK    6  A    between atoms: C7_7  and  C8_8 
REMARK    7  A    between atoms: C7_7  and  C30_36 
REMARK    8  A    between atoms: C9_9  and  C11_11 
REMARK    9  A    between atoms: C11_11  and  O1_12 
REMARK   10  A    between atoms: C11_11  and  C12_13 
REMARK   11  A    between atoms: C12_13  and  C14_15 
REMARK   12  A    between atoms: C14_15  and  O3_17 
REMARK   13  A    between atoms: O3_17  and  C15_18 
REMARK   14  A    between atoms: C24_27  and  C26_29 
REMARK   15  A    between atoms: C26_29  and  O4_30 
REMARK   16  A    between atoms: C30_36  and  O7_37 
ROOT
HETATM    1  C14 UNL     1       1.399   7.302  14.784  1.00  0.00     0.266 C 
HETATM    2  O2  UNL     1       1.451   6.353  14.013  1.00  0.00    -0.265 OA
ENDROOT
BRANCH   1   3
HETATM    3  C12 UNL     1       2.558   7.714  15.671  1.00  0.00     0.114 C 
HETATM    4  C13 UNL     1       2.066   8.798  16.627  1.00  0.00     0.023 C 
BRANCH   3   5
HETATM    5  C11 UNL     1       3.791   8.127  14.841  1.00  0.00     0.159 C 
BRANCH   5   6
HETATM    6  C9  UNL     1       3.537   9.190  13.780  1.00  0.00    -0.058 C 
HETATM    7  C8  UNL     1       3.602   9.066  12.434  1.00  0.00    -0.015 C 
HETATM    8  C10 UNL     1       3.252  10.573  14.346  1.00  0.00     0.046 C 
BRANCH   7   9
HETATM    9  C7  UNL     1       3.902   7.941  11.448  1.00  0.00     0.032 C 
BRANCH   9  10
HETATM   10  C6  UNL     1       2.593   7.178  11.088  1.00  0.00     0.010 C 
BRANCH  10  11
HETATM   11  C5  UNL     1       1.358   8.047  10.817  1.00  0.00     0.001 C 
BRANCH  11  12
HETATM   12  C4  UNL     1       0.447   7.485   9.718  1.00  0.00     0.000 C 
BRANCH  12  13
HETATM   13  C3  UNL     1       0.511   8.279   8.410  1.00  0.00    -0.000 C 
BRANCH  13  14
HETATM   14  C2  UNL     1       1.866   8.170   7.704  1.00  0.00    -0.005 C 
HETATM   15  C1  UNL     1       1.939   7.025   6.705  1.00  0.00     0.005 C 
ENDBRANCH  13  14
ENDBRANCH  12  13
ENDBRANCH  11  12
ENDBRANCH  10  11
ENDBRANCH   9  10
BRANCH   9  16
HETATM   16  C30 UNL     1       5.058   6.965  11.727  1.00  0.00     0.172 C 
BRANCH  16  17
HETATM   17  O7  UNL     1       5.560   6.328  10.561  1.00  0.00    -0.400 OA
HETATM   18  H48 UNL     1       4.859   6.337   9.888  1.00  0.00     0.209 HD
ENDBRANCH  16  17
ENDBRANCH   9  16
ENDBRANCH   7   9
ENDBRANCH   5   6
BRANCH   5  19
HETATM   19  O1  UNL     1       4.773   8.672  15.729  1.00  0.00    -0.390 OA
HETATM   20  H20 UNL     1       5.500   9.006  15.175  1.00  0.00     0.210 HD
ENDBRANCH   5  19
ENDBRANCH   3   5
ENDBRANCH   1   3
BRANCH   1  21
HETATM   21  O3  UNL     1       0.286   8.048  15.016  1.00  0.00    -0.312 OA
BRANCH  21  22
HETATM   22  C15 UNL     1      -0.354   8.628  13.863  1.00  0.00     0.170 C 
HETATM   23  C16 UNL     1      -0.464  10.136  14.089  1.00  0.00     0.036 C 
HETATM   24  C17 UNL     1      -1.463  10.488  15.188  1.00  0.00     0.007 C 
HETATM   25  C18 UNL     1      -2.860   9.913  14.882  1.00  0.00    -0.007 C 
HETATM   26  C19 UNL     1      -3.846  10.393  15.953  1.00  0.00     0.011 C 
HETATM   27  C20 UNL     1      -2.830   8.354  14.676  1.00  0.00     0.000 C 
HETATM   28  C21 UNL     1      -2.588   7.609  16.009  1.00  0.00     0.019 C 
HETATM   29  C22 UNL     1      -4.213   7.885  14.099  1.00  0.00     0.055 C 
HETATM   30  C29 UNL     1      -1.719   8.014  13.677  1.00  0.00     0.129 A 
HETATM   31  C23 UNL     1      -4.290   6.466  13.558  1.00  0.00    -0.005 C 
HETATM   32  C24 UNL     1      -5.451   5.788  13.365  1.00  0.00    -0.051 C 
HETATM   33  C27 UNL     1      -2.969   5.819  13.234  1.00  0.00     0.187 C 
HETATM   34  C25 UNL     1      -5.522   4.402  12.762  1.00  0.00     0.046 C 
HETATM   35  O5  UNL     1      -2.768   4.616  13.333  1.00  0.00    -0.290 OA
HETATM   36  C28 UNL     1      -1.840   6.720  12.912  1.00  0.00     0.235 A 
HETATM   37  O6  UNL     1      -2.154   7.988  12.305  1.00  0.00    -0.357 OA
BRANCH  32  38
HETATM   38  C26 UNL     1      -6.813   6.346  13.699  1.00  0.00     0.198 C 
BRANCH  38  39
HETATM   39  O4  UNL     1      -7.775   5.702  12.878  1.00  0.00    -0.397 OA
HETATM   40  H44 UNL     1      -8.646   6.037  13.149  1.00  0.00     0.209 HD
ENDBRANCH  38  39
ENDBRANCH  32  38
ENDBRANCH  21  22
ENDBRANCH   1  21
TORSDOF 16
ENDMDL
