MODEL 1
REMARK minimizedAffinity -7.96198463
REMARK  7 active torsions:
REMARK  status: ('A' for Active; 'I' for Inactive)
REMARK    1  A    between atoms: C2_2  and  C3_3 
REMARK    2  A    between atoms: C3_3  and  N1_4 
REMARK       I    between atoms: N1_4  and  C4_5 
REMARK       I    between atoms: C4_5  and  N2_7 
REMARK    3  A    between atoms: N2_7  and  C5_8 
REMARK    4  A    between atoms: C8_11  and  O2_12 
REMARK    5  A    between atoms: O2_12  and  C9_13 
REMARK    6  A    between atoms: C13_21  and  O3_22 
REMARK    7  A    between atoms: C15_24  and  O4_25 
ROOT
HETATM    1  O2  UNL     1      -4.220  48.048 -28.538  1.00  0.00    -0.293 OA
ENDROOT
BRANCH   1   2
HETATM    2  C8  UNL     1      -3.675  48.874 -27.586  1.00  0.00     0.079 A 
HETATM    3  C7  UNL     1      -3.422  48.339 -26.325  1.00  0.00     0.039 A 
HETATM    4  C6  UNL     1      -2.822  49.126 -25.337  1.00  0.00     0.034 A 
HETATM    5  C5  UNL     1      -2.460  50.449 -25.605  1.00  0.00     0.058 A 
HETATM    6  C20 UNL     1      -2.698  50.963 -26.896  1.00  0.00     0.063 A 
HETATM    7  C19 UNL     1      -3.294  50.181 -27.887  1.00  0.00     0.063 A 
HETATM    8 CL1  UNL     1      -2.250  52.587 -27.304  1.00  0.00    -0.082 Cl
BRANCH   5   9
HETATM    9  N2  UNL     1      -1.845  51.291 -24.649  1.00  0.00    -0.307 N 
HETATM   10  C4  UNL     1      -1.353  50.953 -23.410  1.00  0.00     0.320 C 
HETATM   11  N1  UNL     1      -0.768  52.051 -22.806  1.00  0.00    -0.343 N 
HETATM   12  O1  UNL     1      -1.411  49.855 -22.874  1.00  0.00    -0.247 OA
HETATM   13  H8  UNL     1      -0.346  52.710 -23.442  1.00  0.00     0.164 HD
HETATM   14  H9  UNL     1      -1.907  52.281 -24.843  1.00  0.00     0.170 HD
BRANCH  11  15
HETATM   15  C3  UNL     1      -0.138  51.926 -21.505  1.00  0.00     0.124 C 
BRANCH  15  16
HETATM   16  C2  UNL     1       1.171  52.707 -21.425  1.00  0.00     0.015 C 
HETATM   17  C1  UNL     1       0.983  54.032 -20.705  1.00  0.00     0.006 C 
ENDBRANCH  15  16
ENDBRANCH  11  15
ENDBRANCH   5   9
ENDBRANCH   1   2
BRANCH   1  18
HETATM   18  C9  UNL     1      -5.612  48.019 -28.638  1.00  0.00     0.161 A 
HETATM   19  N3  UNL     1      -6.346  47.997 -27.508  1.00  0.00    -0.332 N 
HETATM   20  C10 UNL     1      -7.665  47.942 -27.687  1.00  0.00     0.182 A 
ATOM     21  H3  UNL     1      -5.921  48.022 -26.581  1.00  0.00     0.168 HD
HETATM   22  N4  UNL     1      -8.301  47.907 -28.867  1.00  0.00    -0.351 N 
HETATM   23  C11 UNL     1      -7.544  47.921 -29.972  1.00  0.00     0.050 A 
ATOM     24  H4  UNL     1      -9.319  47.872 -28.920  1.00  0.00     0.166 HD
HETATM   25  C12 UNL     1      -8.168  47.879 -31.213  1.00  0.00     0.070 A 
HETATM   26  C18 UNL     1      -6.150  47.975 -29.927  1.00  0.00     0.045 A 
HETATM   27  C13 UNL     1      -7.440  47.888 -32.410  1.00  0.00     0.103 A 
HETATM   28  C15 UNL     1      -6.036  47.941 -32.366  1.00  0.00     0.102 A 
HETATM   29  C17 UNL     1      -5.397  47.983 -31.127  1.00  0.00     0.057 A 
BRANCH  27  30
HETATM   30  O3  UNL     1      -8.003  47.849 -33.661  1.00  0.00    -0.353 OA
HETATM   31  C14 UNL     1      -8.872  46.766 -33.961  1.00  0.00     0.210 C 
ENDBRANCH  27  30
BRANCH  28  32
HETATM   32  O4  UNL     1      -5.390  47.946 -33.576  1.00  0.00    -0.353 OA
HETATM   33  C16 UNL     1      -4.108  47.340 -33.647  1.00  0.00     0.210 C 
ENDBRANCH  28  32
ENDBRANCH   1  18
TORSDOF 7
ENDMDL
MODEL 2
REMARK minimizedAffinity -7.89735079
REMARK  7 active torsions:
REMARK  status: ('A' for Active; 'I' for Inactive)
REMARK    1  A    between atoms: C2_2  and  C3_3 
REMARK    2  A    between atoms: C3_3  and  N1_4 
REMARK       I    between atoms: N1_4  and  C4_5 
REMARK       I    between atoms: C4_5  and  N2_7 
REMARK    3  A    between atoms: N2_7  and  C5_8 
REMARK    4  A    between atoms: C8_11  and  O2_12 
REMARK    5  A    between atoms: O2_12  and  C9_13 
REMARK    6  A    between atoms: C13_21  and  O3_22 
REMARK    7  A    between atoms: C15_24  and  O4_25 
ROOT
HETATM    1  O2  UNL     1      -1.310  49.734 -22.825  1.00  0.00    -0.293 OA
ENDROOT
BRANCH   1   2
HETATM    2  C8  UNL     1      -0.940  50.335 -21.648  1.00  0.00     0.079 A 
HETATM    3  C7  UNL     1      -1.323  49.726 -20.455  1.00  0.00     0.039 A 
HETATM    4  C6  UNL     1      -0.927  50.272 -19.230  1.00  0.00     0.034 A 
HETATM    5  C5  UNL     1      -0.137  51.424 -19.188  1.00  0.00     0.058 A 
HETATM    6  C20 UNL     1       0.264  52.009 -20.407  1.00  0.00     0.063 A 
HETATM    7  C19 UNL     1      -0.126  51.466 -21.632  1.00  0.00     0.063 A 
HETATM    8 CL1  UNL     1       1.266  53.424 -20.428  1.00  0.00    -0.082 Cl
BRANCH   5   9
HETATM    9  N2  UNL     1       0.299  52.019 -17.981  1.00  0.00    -0.307 N 
HETATM   10  C4  UNL     1       0.775  51.397 -16.850  1.00  0.00     0.320 C 
HETATM   11  N1  UNL     1       1.160  52.334 -15.909  1.00  0.00    -0.343 N 
HETATM   12  O1  UNL     1       0.854  50.192 -16.656  1.00  0.00    -0.247 OA
HETATM   13  H8  UNL     1       1.510  53.199 -16.291  1.00  0.00     0.164 HD
HETATM   14  H9  UNL     1       0.101  53.006 -17.890  1.00  0.00     0.170 HD
BRANCH  11  15
HETATM   15  C3  UNL     1       1.737  51.913 -14.646  1.00  0.00     0.124 C 
BRANCH  15  16
HETATM   16  C2  UNL     1       3.244  51.691 -14.751  1.00  0.00     0.015 C 
HETATM   17  C1  UNL     1       3.875  52.635 -15.762  1.00  0.00     0.006 C 
ENDBRANCH  15  16
ENDBRANCH  11  15
ENDBRANCH   5   9
ENDBRANCH   1   2
BRANCH   1  18
HETATM   18  C9  UNL     1      -2.218  50.419 -23.635  1.00  0.00     0.161 A 
HETATM   19  N3  UNL     1      -3.537  50.272 -23.402  1.00  0.00    -0.332 N 
HETATM   20  C10 UNL     1      -4.339  50.936 -24.233  1.00  0.00     0.182 A 
ATOM     21  H3  UNL     1      -3.896  49.694 -22.642  1.00  0.00     0.168 HD
HETATM   22  N4  UNL     1      -3.950  51.714 -25.253  1.00  0.00    -0.351 N 
HETATM   23  C11 UNL     1      -2.632  51.833 -25.466  1.00  0.00     0.050 A 
ATOM     24  H4  UNL     1      -4.628  52.196 -25.842  1.00  0.00     0.166 HD
HETATM   25  C12 UNL     1      -2.190  52.626 -26.518  1.00  0.00     0.070 A 
HETATM   26  C18 UNL     1      -1.682  51.189 -24.670  1.00  0.00     0.045 A 
HETATM   27  C13 UNL     1      -0.829  52.793 -26.799  1.00  0.00     0.103 A 
HETATM   28  C15 UNL     1       0.129  52.145 -26.001  1.00  0.00     0.102 A 
HETATM   29  C17 UNL     1      -0.300  51.346 -24.941  1.00  0.00     0.057 A 
BRANCH  27  30
HETATM   30  O3  UNL     1      -0.337  53.564 -27.823  1.00  0.00    -0.353 OA
HETATM   31  C14 UNL     1      -0.158  54.952 -27.579  1.00  0.00     0.210 C 
ENDBRANCH  27  30
BRANCH  28  32
HETATM   32  O4  UNL     1       1.442  52.355 -26.335  1.00  0.00    -0.353 OA
HETATM   33  C16 UNL     1       2.288  51.220 -26.449  1.00  0.00     0.210 C 
ENDBRANCH  28  32
ENDBRANCH   1  18
TORSDOF 7
ENDMDL
MODEL 3
REMARK minimizedAffinity -7.8676405
REMARK  7 active torsions:
REMARK  status: ('A' for Active; 'I' for Inactive)
REMARK    1  A    between atoms: C2_2  and  C3_3 
REMARK    2  A    between atoms: C3_3  and  N1_4 
REMARK       I    between atoms: N1_4  and  C4_5 
REMARK       I    between atoms: C4_5  and  N2_7 
REMARK    3  A    between atoms: N2_7  and  C5_8 
REMARK    4  A    between atoms: C8_11  and  O2_12 
REMARK    5  A    between atoms: O2_12  and  C9_13 
REMARK    6  A    between atoms: C13_21  and  O3_22 
REMARK    7  A    between atoms: C15_24  and  O4_25 
ROOT
HETATM    1  O2  UNL     1      -0.951  52.109 -18.500  1.00  0.00    -0.293 OA
ENDROOT
BRANCH   1   2
HETATM    2  C8  UNL     1      -0.520  52.252 -19.795  1.00  0.00     0.079 A 
HETATM    3  C7  UNL     1      -1.073  51.417 -20.764  1.00  0.00     0.039 A 
HETATM    4  C6  UNL     1      -0.704  51.559 -22.105  1.00  0.00     0.034 A 
HETATM    5  C5  UNL     1       0.211  52.542 -22.490  1.00  0.00     0.058 A 
HETATM    6  C20 UNL     1       0.737  53.396 -21.499  1.00  0.00     0.063 A 
HETATM    7  C19 UNL     1       0.370  53.261 -20.159  1.00  0.00     0.063 A 
HETATM    8 CL1  UNL     1       1.857  54.654 -21.911  1.00  0.00    -0.082 Cl
BRANCH   5   9
HETATM    9  N2  UNL     1       0.618  52.738 -23.831  1.00  0.00    -0.307 N 
HETATM   10  C4  UNL     1      -0.133  53.194 -24.889  1.00  0.00     0.320 C 
HETATM   11  N1  UNL     1       0.649  53.307 -26.023  1.00  0.00    -0.343 N 
HETATM   12  O1  UNL     1      -1.326  53.464 -24.878  1.00  0.00    -0.247 OA
HETATM   13  H8  UNL     1       1.616  53.537 -25.851  1.00  0.00     0.164 HD
HETATM   14  H9  UNL     1       1.526  52.360 -24.066  1.00  0.00     0.170 HD
BRANCH  11  15
HETATM   15  C3  UNL     1       0.083  53.814 -27.260  1.00  0.00     0.124 C 
BRANCH  15  16
HETATM   16  C2  UNL     1       0.058  52.752 -28.356  1.00  0.00     0.015 C 
HETATM   17  C1  UNL     1       1.162  51.726 -28.159  1.00  0.00     0.006 C 
ENDBRANCH  15  16
ENDBRANCH  11  15
ENDBRANCH   5   9
ENDBRANCH   1   2
BRANCH   1  18
HETATM   18  C9  UNL     1      -0.975  50.815 -17.974  1.00  0.00     0.161 A 
HETATM   19  N3  UNL     1      -1.869  49.932 -18.458  1.00  0.00    -0.332 N 
HETATM   20  C10 UNL     1      -1.847  48.728 -17.887  1.00  0.00     0.182 A 
ATOM     21  H3  UNL     1      -2.516  50.167 -19.210  1.00  0.00     0.168 HD
HETATM   22  N4  UNL     1      -1.031  48.339 -16.897  1.00  0.00    -0.351 N 
HETATM   23  C11 UNL     1      -0.159  49.243 -16.429  1.00  0.00     0.050 A 
ATOM     24  H4  UNL     1      -1.071  47.394 -16.516  1.00  0.00     0.166 HD
HETATM   25  C12 UNL     1       0.699  48.879 -15.399  1.00  0.00     0.070 A 
HETATM   26  C18 UNL     1      -0.078  50.541 -16.938  1.00  0.00     0.045 A 
HETATM   27  C13 UNL     1       1.633  49.772 -14.861  1.00  0.00     0.103 A 
HETATM   28  C15 UNL     1       1.715  51.080 -15.370  1.00  0.00     0.102 A 
HETATM   29  C17 UNL     1       0.860  51.459 -16.404  1.00  0.00     0.057 A 
BRANCH  27  30
HETATM   30  O3  UNL     1       2.504  49.466 -13.845  1.00  0.00    -0.353 OA
HETATM   31  C14 UNL     1       1.952  49.036 -12.608  1.00  0.00     0.210 C 
ENDBRANCH  27  30
BRANCH  28  32
HETATM   32  O4  UNL     1       2.652  51.899 -14.794  1.00  0.00    -0.353 OA
HETATM   33  C16 UNL     1       3.610  52.512 -15.645  1.00  0.00     0.210 C 
ENDBRANCH  28  32
ENDBRANCH   1  18
TORSDOF 7
ENDMDL
MODEL 4
REMARK minimizedAffinity -7.82112789
REMARK  7 active torsions:
REMARK  status: ('A' for Active; 'I' for Inactive)
REMARK    1  A    between atoms: C2_2  and  C3_3 
REMARK    2  A    between atoms: C3_3  and  N1_4 
REMARK       I    between atoms: N1_4  and  C4_5 
REMARK       I    between atoms: C4_5  and  N2_7 
REMARK    3  A    between atoms: N2_7  and  C5_8 
REMARK    4  A    between atoms: C8_11  and  O2_12 
REMARK    5  A    between atoms: O2_12  and  C9_13 
REMARK    6  A    between atoms: C13_21  and  O3_22 
REMARK    7  A    between atoms: C15_24  and  O4_25 
ROOT
HETATM    1  O2  UNL     1       0.649  53.553 -23.660  1.00  0.00    -0.293 OA
ENDROOT
BRANCH   1   2
HETATM    2  C8  UNL     1       0.600  53.136 -22.352  1.00  0.00     0.079 A 
HETATM    3  C7  UNL     1       0.822  54.085 -21.356  1.00  0.00     0.039 A 
HETATM    4  C6  UNL     1       0.733  53.721 -20.009  1.00  0.00     0.034 A 
HETATM    5  C5  UNL     1       0.410  52.410 -19.647  1.00  0.00     0.058 A 
HETATM    6  C20 UNL     1       0.162  51.472 -20.670  1.00  0.00     0.063 A 
HETATM    7  C19 UNL     1       0.247  51.831 -22.016  1.00  0.00     0.063 A 
HETATM    8 CL1  UNL     1      -0.268  49.835 -20.292  1.00  0.00    -0.082 Cl
BRANCH   5   9
HETATM    9  N2  UNL     1       0.300  51.984 -18.303  1.00  0.00    -0.307 N 
HETATM   10  C4  UNL     1       1.180  52.199 -17.268  1.00  0.00     0.320 C 
HETATM   11  N1  UNL     1       0.677  51.677 -16.090  1.00  0.00    -0.343 N 
HETATM   12  O1  UNL     1       2.266  52.757 -17.334  1.00  0.00    -0.247 OA
HETATM   13  H8  UNL     1      -0.328  51.692 -16.014  1.00  0.00     0.164 HD
HETATM   14  H9  UNL     1      -0.442  51.322 -18.119  1.00  0.00     0.170 HD
BRANCH  11  15
HETATM   15  C3  UNL     1       1.413  51.823 -14.848  1.00  0.00     0.124 C 
BRANCH  15  16
HETATM   16  C2  UNL     1       2.147  50.541 -14.463  1.00  0.00     0.015 C 
HETATM   17  C1  UNL     1       3.632  50.792 -14.258  1.00  0.00     0.006 C 
ENDBRANCH  15  16
ENDBRANCH  11  15
ENDBRANCH   5   9
ENDBRANCH   1   2
BRANCH   1  18
HETATM   18  C9  UNL     1       0.669  52.563 -24.645  1.00  0.00     0.161 A 
HETATM   19  N3  UNL     1       1.792  52.385 -25.367  1.00  0.00    -0.332 N 
HETATM   20  C10 UNL     1       1.723  51.441 -26.305  1.00  0.00     0.182 A 
ATOM     21  H3  UNL     1       2.637  52.934 -25.206  1.00  0.00     0.168 HD
HETATM   22  N4  UNL     1       0.655  50.678 -26.579  1.00  0.00    -0.351 N 
HETATM   23  C11 UNL     1      -0.450  50.885 -25.851  1.00  0.00     0.050 A 
ATOM     24  H4  UNL     1       0.684  49.969 -27.312  1.00  0.00     0.166 HD
HETATM   25  C12 UNL     1      -1.579  50.118 -26.111  1.00  0.00     0.070 A 
HETATM   26  C18 UNL     1      -0.514  51.844 -24.838  1.00  0.00     0.045 A 
HETATM   27  C13 UNL     1      -2.769  50.281 -25.390  1.00  0.00     0.103 A 
HETATM   28  C15 UNL     1      -2.835  51.247 -24.371  1.00  0.00     0.102 A 
HETATM   29  C17 UNL     1      -1.710  52.024 -24.100  1.00  0.00     0.057 A 
BRANCH  27  30
HETATM   30  O3  UNL     1      -3.912  49.551 -25.604  1.00  0.00    -0.353 OA
HETATM   31  C14 UNL     1      -3.819  48.406 -26.440  1.00  0.00     0.210 C 
ENDBRANCH  27  30
BRANCH  28  32
HETATM   32  O4  UNL     1      -4.031  51.350 -23.709  1.00  0.00    -0.353 OA
HETATM   33  C16 UNL     1      -4.986  52.280 -24.202  1.00  0.00     0.210 C 
ENDBRANCH  28  32
ENDBRANCH   1  18
TORSDOF 7
ENDMDL
MODEL 5
REMARK minimizedAffinity -7.80558634
REMARK  7 active torsions:
REMARK  status: ('A' for Active; 'I' for Inactive)
REMARK    1  A    between atoms: C2_2  and  C3_3 
REMARK    2  A    between atoms: C3_3  and  N1_4 
REMARK       I    between atoms: N1_4  and  C4_5 
REMARK       I    between atoms: C4_5  and  N2_7 
REMARK    3  A    between atoms: N2_7  and  C5_8 
REMARK    4  A    between atoms: C8_11  and  O2_12 
REMARK    5  A    between atoms: O2_12  and  C9_13 
REMARK    6  A    between atoms: C13_21  and  O3_22 
REMARK    7  A    between atoms: C15_24  and  O4_25 
ROOT
HETATM    1  O2  UNL     1      -4.255  47.962 -28.519  1.00  0.00    -0.293 OA
ENDROOT
BRANCH   1   2
HETATM    2  C8  UNL     1      -3.693  48.747 -27.544  1.00  0.00     0.079 A 
HETATM    3  C7  UNL     1      -3.367  50.061 -27.870  1.00  0.00     0.039 A 
HETATM    4  C6  UNL     1      -2.839  50.915 -26.897  1.00  0.00     0.034 A 
HETATM    5  C5  UNL     1      -2.642  50.466 -25.588  1.00  0.00     0.058 A 
HETATM    6  C20 UNL     1      -3.005  49.141 -25.271  1.00  0.00     0.063 A 
HETATM    7  C19 UNL     1      -3.535  48.285 -26.238  1.00  0.00     0.063 A 
HETATM    8 CL1  UNL     1      -2.812  48.527 -23.661  1.00  0.00    -0.082 Cl
BRANCH   5   9
HETATM    9  N2  UNL     1      -2.118  51.284 -24.561  1.00  0.00    -0.307 N 
HETATM   10  C4  UNL     1      -0.813  51.676 -24.368  1.00  0.00     0.320 C 
HETATM   11  N1  UNL     1      -0.720  52.530 -23.285  1.00  0.00    -0.343 N 
HETATM   12  O1  UNL     1       0.159  51.335 -25.029  1.00  0.00    -0.247 OA
HETATM   13  H8  UNL     1      -1.532  53.107 -23.129  1.00  0.00     0.164 HD
HETATM   14  H9  UNL     1      -2.754  51.483 -23.800  1.00  0.00     0.170 HD
BRANCH  11  15
HETATM   15  C3  UNL     1       0.557  53.112 -22.915  1.00  0.00     0.124 C 
BRANCH  15  16
HETATM   16  C2  UNL     1       1.017  52.650 -21.535  1.00  0.00     0.015 C 
HETATM   17  C1  UNL     1       1.261  53.829 -20.608  1.00  0.00     0.006 C 
ENDBRANCH  15  16
ENDBRANCH  11  15
ENDBRANCH   5   9
ENDBRANCH   1   2
BRANCH   1  18
HETATM   18  C9  UNL     1      -5.648  47.963 -28.616  1.00  0.00     0.161 A 
HETATM   19  N3  UNL     1      -6.380  47.958 -27.485  1.00  0.00    -0.332 N 
HETATM   20  C10 UNL     1      -7.700  47.932 -27.661  1.00  0.00     0.182 A 
ATOM     21  H3  UNL     1      -5.953  47.974 -26.559  1.00  0.00     0.168 HD
HETATM   22  N4  UNL     1      -8.340  47.910 -28.839  1.00  0.00    -0.351 N 
HETATM   23  C11 UNL     1      -7.585  47.905 -29.946  1.00  0.00     0.050 A 
ATOM     24  H4  UNL     1      -9.358  47.897 -28.890  1.00  0.00     0.166 HD
HETATM   25  C12 UNL     1      -8.212  47.875 -31.186  1.00  0.00     0.070 A 
HETATM   26  C18 UNL     1      -6.190  47.928 -29.904  1.00  0.00     0.045 A 
HETATM   27  C13 UNL     1      -7.486  47.867 -32.384  1.00  0.00     0.103 A 
HETATM   28  C15 UNL     1      -6.082  47.889 -32.344  1.00  0.00     0.102 A 
HETATM   29  C17 UNL     1      -5.440  47.919 -31.106  1.00  0.00     0.057 A 
BRANCH  27  30
HETATM   30  O3  UNL     1      -8.053  47.839 -33.634  1.00  0.00    -0.353 OA
HETATM   31  C14 UNL     1      -8.745  46.660 -34.020  1.00  0.00     0.210 C 
ENDBRANCH  27  30
BRANCH  28  32
HETATM   32  O4  UNL     1      -5.439  47.879 -33.554  1.00  0.00    -0.353 OA
HETATM   33  C16 UNL     1      -4.062  47.528 -33.573  1.00  0.00     0.210 C 
ENDBRANCH  28  32
ENDBRANCH   1  18
TORSDOF 7
ENDMDL
MODEL 6
REMARK minimizedAffinity -7.67942333
REMARK  7 active torsions:
REMARK  status: ('A' for Active; 'I' for Inactive)
REMARK    1  A    between atoms: C2_2  and  C3_3 
REMARK    2  A    between atoms: C3_3  and  N1_4 
REMARK       I    between atoms: N1_4  and  C4_5 
REMARK       I    between atoms: C4_5  and  N2_7 
REMARK    3  A    between atoms: N2_7  and  C5_8 
REMARK    4  A    between atoms: C8_11  and  O2_12 
REMARK    5  A    between atoms: O2_12  and  C9_13 
REMARK    6  A    between atoms: C13_21  and  O3_22 
REMARK    7  A    between atoms: C15_24  and  O4_25 
ROOT
HETATM    1  O2  UNL     1       0.288  51.845 -23.464  1.00  0.00    -0.293 OA
ENDROOT
BRANCH   1   2
HETATM    2  C8  UNL     1      -1.021  51.511 -23.707  1.00  0.00     0.079 A 
HETATM    3  C7  UNL     1      -2.001  52.458 -23.421  1.00  0.00     0.039 A 
HETATM    4  C6  UNL     1      -3.344  52.184 -23.698  1.00  0.00     0.034 A 
HETATM    5  C5  UNL     1      -3.716  50.966 -24.274  1.00  0.00     0.058 A 
HETATM    6  C20 UNL     1      -2.706  50.032 -24.582  1.00  0.00     0.063 A 
HETATM    7  C19 UNL     1      -1.364  50.302 -24.310  1.00  0.00     0.063 A 
HETATM    8 CL1  UNL     1      -3.095  48.512 -25.321  1.00  0.00    -0.082 Cl
BRANCH   5   9
HETATM    9  N2  UNL     1      -5.056  50.634 -24.582  1.00  0.00    -0.307 N 
HETATM   10  C4  UNL     1      -5.921  49.838 -23.867  1.00  0.00     0.320 C 
HETATM   11  N1  UNL     1      -7.165  49.814 -24.470  1.00  0.00    -0.343 N 
HETATM   12  O1  UNL     1      -5.667  49.213 -22.846  1.00  0.00    -0.247 OA
HETATM   13  H8  UNL     1      -7.417  50.661 -24.956  1.00  0.00     0.164 HD
HETATM   14  H9  UNL     1      -5.363  50.896 -25.509  1.00  0.00     0.170 HD
BRANCH  11  15
HETATM   15  C3  UNL     1      -8.259  49.073 -23.869  1.00  0.00     0.124 C 
BRANCH  15  16
HETATM   16  C2  UNL     1      -8.834  48.029 -24.822  1.00  0.00     0.015 C 
HETATM   17  C1  UNL     1      -7.775  47.510 -25.781  1.00  0.00     0.006 C 
ENDBRANCH  15  16
ENDBRANCH  11  15
ENDBRANCH   5   9
ENDBRANCH   1   2
BRANCH   1  18
HETATM   18  C9  UNL     1       0.557  52.569 -22.301  1.00  0.00     0.161 A 
HETATM   19  N3  UNL     1       1.071  53.810 -22.410  1.00  0.00    -0.332 N 
HETATM   20  C10 UNL     1       1.325  54.424 -21.256  1.00  0.00     0.182 A 
ATOM     21  H3  UNL     1       1.253  54.248 -23.313  1.00  0.00     0.168 HD
HETATM   22  N4  UNL     1       1.117  53.921 -20.031  1.00  0.00    -0.351 N 
HETATM   23  C11 UNL     1       0.614  52.682 -19.954  1.00  0.00     0.050 A 
ATOM     24  H4  UNL     1       1.332  54.460 -19.192  1.00  0.00     0.166 HD
HETATM   25  C12 UNL     1       0.390  52.124 -18.701  1.00  0.00     0.070 A 
HETATM   26  C18 UNL     1       0.304  51.926 -21.086  1.00  0.00     0.045 A 
HETATM   27  C13 UNL     1      -0.133  50.834 -18.547  1.00  0.00     0.103 A 
HETATM   28  C15 UNL     1      -0.443  50.070 -19.685  1.00  0.00     0.102 A 
HETATM   29  C17 UNL     1      -0.224  50.618 -20.949  1.00  0.00     0.057 A 
BRANCH  27  30
HETATM   30  O3  UNL     1      -0.374  50.235 -17.335  1.00  0.00    -0.353 OA
HETATM   31  C14 UNL     1       0.547  50.479 -16.282  1.00  0.00     0.210 C 
ENDBRANCH  27  30
BRANCH  28  32
HETATM   32  O4  UNL     1      -0.950  48.817 -19.457  1.00  0.00    -0.353 OA
HETATM   33  C16 UNL     1      -1.173  47.976 -20.580  1.00  0.00     0.210 C 
ENDBRANCH  28  32
ENDBRANCH   1  18
TORSDOF 7
ENDMDL
MODEL 7
REMARK minimizedAffinity -7.66595602
REMARK  7 active torsions:
REMARK  status: ('A' for Active; 'I' for Inactive)
REMARK    1  A    between atoms: C2_2  and  C3_3 
REMARK    2  A    between atoms: C3_3  and  N1_4 
REMARK       I    between atoms: N1_4  and  C4_5 
REMARK       I    between atoms: C4_5  and  N2_7 
REMARK    3  A    between atoms: N2_7  and  C5_8 
REMARK    4  A    between atoms: C8_11  and  O2_12 
REMARK    5  A    between atoms: O2_12  and  C9_13 
REMARK    6  A    between atoms: C13_21  and  O3_22 
REMARK    7  A    between atoms: C15_24  and  O4_25 
ROOT
HETATM    1  O2  UNL     1      -1.826  50.527 -26.936  1.00  0.00    -0.293 OA
ENDROOT
BRANCH   1   2
HETATM    2  C8  UNL     1      -2.836  50.259 -26.045  1.00  0.00     0.079 A 
HETATM    3  C7  UNL     1      -3.022  48.937 -25.649  1.00  0.00     0.039 A 
HETATM    4  C6  UNL     1      -4.004  48.619 -24.706  1.00  0.00     0.034 A 
HETATM    5  C5  UNL     1      -4.800  49.622 -24.143  1.00  0.00     0.058 A 
HETATM    6  C20 UNL     1      -4.575  50.957 -24.536  1.00  0.00     0.063 A 
HETATM    7  C19 UNL     1      -3.594  51.280 -25.476  1.00  0.00     0.063 A 
HETATM    8 CL1  UNL     1      -5.508  52.253 -23.859  1.00  0.00    -0.082 Cl
BRANCH   5   9
HETATM    9  N2  UNL     1      -5.803  49.364 -23.181  1.00  0.00    -0.307 N 
HETATM   10  C4  UNL     1      -5.703  49.425 -21.810  1.00  0.00     0.320 C 
HETATM   11  N1  UNL     1      -6.928  49.166 -21.224  1.00  0.00    -0.343 N 
HETATM   12  O1  UNL     1      -4.694  49.661 -21.160  1.00  0.00    -0.247 OA
HETATM   13  H8  UNL     1      -7.727  49.458 -21.764  1.00  0.00     0.164 HD
HETATM   14  H9  UNL     1      -6.650  48.946 -23.542  1.00  0.00     0.170 HD
BRANCH  11  15
HETATM   15  C3  UNL     1      -7.079  49.218 -19.781  1.00  0.00     0.124 C 
BRANCH  15  16
HETATM   16  C2  UNL     1      -8.443  48.705 -19.330  1.00  0.00     0.015 C 
HETATM   17  C1  UNL     1      -8.860  49.328 -18.007  1.00  0.00     0.006 C 
ENDBRANCH  15  16
ENDBRANCH  11  15
ENDBRANCH   5   9
ENDBRANCH   1   2
BRANCH   1  18
HETATM   18  C9  UNL     1      -1.182  51.761 -26.819  1.00  0.00     0.161 A 
HETATM   19  N3  UNL     1      -1.093  52.554 -27.904  1.00  0.00    -0.332 N 
HETATM   20  C10 UNL     1      -0.440  53.702 -27.719  1.00  0.00     0.182 A 
ATOM     21  H3  UNL     1      -1.496  52.295 -28.804  1.00  0.00     0.168 HD
HETATM   22  N4  UNL     1       0.118  54.116 -26.572  1.00  0.00    -0.351 N 
HETATM   23  C11 UNL     1       0.020  53.301 -25.513  1.00  0.00     0.050 A 
ATOM     24  H4  UNL     1       0.596  55.014 -26.509  1.00  0.00     0.166 HD
HETATM   25  C12 UNL     1       0.593  53.694 -24.309  1.00  0.00     0.070 A 
HETATM   26  C18 UNL     1      -0.634  52.069 -25.571  1.00  0.00     0.045 A 
HETATM   27  C13 UNL     1       0.531  52.892 -23.163  1.00  0.00     0.103 A 
HETATM   28  C15 UNL     1      -0.126  51.651 -23.219  1.00  0.00     0.102 A 
HETATM   29  C17 UNL     1      -0.705  51.244 -24.421  1.00  0.00     0.057 A 
BRANCH  27  30
HETATM   30  O3  UNL     1       1.076  53.230 -21.949  1.00  0.00    -0.353 OA
HETATM   31  C14 UNL     1       1.582  54.549 -21.796  1.00  0.00     0.210 C 
ENDBRANCH  27  30
BRANCH  28  32
HETATM   32  O4  UNL     1      -0.146  50.920 -22.059  1.00  0.00    -0.353 OA
HETATM   33  C16 UNL     1      -1.212  49.999 -21.872  1.00  0.00     0.210 C 
ENDBRANCH  28  32
ENDBRANCH   1  18
TORSDOF 7
ENDMDL
MODEL 8
REMARK minimizedAffinity -7.65437031
REMARK  7 active torsions:
REMARK  status: ('A' for Active; 'I' for Inactive)
REMARK    1  A    between atoms: C2_2  and  C3_3 
REMARK    2  A    between atoms: C3_3  and  N1_4 
REMARK       I    between atoms: N1_4  and  C4_5 
REMARK       I    between atoms: C4_5  and  N2_7 
REMARK    3  A    between atoms: N2_7  and  C5_8 
REMARK    4  A    between atoms: C8_11  and  O2_12 
REMARK    5  A    between atoms: O2_12  and  C9_13 
REMARK    6  A    between atoms: C13_21  and  O3_22 
REMARK    7  A    between atoms: C15_24  and  O4_25 
ROOT
HETATM    1  O2  UNL     1      -0.368  52.185 -18.266  1.00  0.00    -0.293 OA
ENDROOT
BRANCH   1   2
HETATM    2  C8  UNL     1      -0.035  52.273 -19.594  1.00  0.00     0.079 A 
HETATM    3  C7  UNL     1      -0.459  51.252 -20.443  1.00  0.00     0.039 A 
HETATM    4  C6  UNL     1      -0.188  51.322 -21.813  1.00  0.00     0.034 A 
HETATM    5  C5  UNL     1       0.499  52.416 -22.347  1.00  0.00     0.058 A 
HETATM    6  C20 UNL     1       0.893  53.452 -21.476  1.00  0.00     0.063 A 
HETATM    7  C19 UNL     1       0.623  53.389 -20.108  1.00  0.00     0.063 A 
HETATM    8 CL1  UNL     1       1.725  54.850 -22.075  1.00  0.00    -0.082 Cl
BRANCH   5   9
HETATM    9  N2  UNL     1       0.796  52.546 -23.723  1.00  0.00    -0.307 N 
HETATM   10  C4  UNL     1      -0.015  53.023 -24.727  1.00  0.00     0.320 C 
HETATM   11  N1  UNL     1       0.669  53.050 -25.929  1.00  0.00    -0.343 N 
HETATM   12  O1  UNL     1      -1.182  53.374 -24.621  1.00  0.00    -0.247 OA
HETATM   13  H8  UNL     1       1.660  53.218 -25.849  1.00  0.00     0.164 HD
HETATM   14  H9  UNL     1       1.653  52.100 -24.024  1.00  0.00     0.170 HD
BRANCH  11  15
HETATM   15  C3  UNL     1       0.029  53.560 -27.128  1.00  0.00     0.124 C 
BRANCH  15  16
HETATM   16  C2  UNL     1       0.300  52.675 -28.341  1.00  0.00     0.015 C 
HETATM   17  C1  UNL     1       1.436  51.701 -28.075  1.00  0.00     0.006 C 
ENDBRANCH  15  16
ENDBRANCH  11  15
ENDBRANCH   5   9
ENDBRANCH   1   2
BRANCH   1  18
HETATM   18  C9  UNL     1       0.680  52.064 -17.351  1.00  0.00     0.161 A 
HETATM   19  N3  UNL     1       1.698  52.944 -17.407  1.00  0.00    -0.332 N 
HETATM   20  C10 UNL     1       2.671  52.746 -16.519  1.00  0.00     0.182 A 
ATOM     21  H3  UNL     1       1.721  53.709 -18.081  1.00  0.00     0.168 HD
HETATM   22  N4  UNL     1       2.717  51.769 -15.602  1.00  0.00    -0.351 N 
HETATM   23  C11 UNL     1       1.695  50.904 -15.577  1.00  0.00     0.050 A 
ATOM     24  H4  UNL     1       3.497  51.689 -14.950  1.00  0.00     0.166 HD
HETATM   25  C12 UNL     1       1.710  49.874 -14.644  1.00  0.00     0.070 A 
HETATM   26  C18 UNL     1       0.611  50.995 -16.453  1.00  0.00     0.045 A 
HETATM   27  C13 UNL     1       0.676  48.932 -14.562  1.00  0.00     0.103 A 
HETATM   28  C15 UNL     1      -0.414  49.021 -15.444  1.00  0.00     0.102 A 
HETATM   29  C17 UNL     1      -0.443  50.051 -16.385  1.00  0.00     0.057 A 
BRANCH  27  30
HETATM   30  O3  UNL     1       0.639  47.897 -13.662  1.00  0.00    -0.353 OA
HETATM   31  C14 UNL     1       1.652  47.850 -12.666  1.00  0.00     0.210 C 
ENDBRANCH  27  30
BRANCH  28  32
HETATM   32  O4  UNL     1      -1.388  48.066 -15.306  1.00  0.00    -0.353 OA
HETATM   33  C16 UNL     1      -2.726  48.503 -15.118  1.00  0.00     0.210 C 
ENDBRANCH  28  32
ENDBRANCH   1  18
TORSDOF 7
ENDMDL
MODEL 9
REMARK minimizedAffinity -7.57071733
REMARK  7 active torsions:
REMARK  status: ('A' for Active; 'I' for Inactive)
REMARK    1  A    between atoms: C2_2  and  C3_3 
REMARK    2  A    between atoms: C3_3  and  N1_4 
REMARK       I    between atoms: N1_4  and  C4_5 
REMARK       I    between atoms: C4_5  and  N2_7 
REMARK    3  A    between atoms: N2_7  and  C5_8 
REMARK    4  A    between atoms: C8_11  and  O2_12 
REMARK    5  A    between atoms: O2_12  and  C9_13 
REMARK    6  A    between atoms: C13_21  and  O3_22 
REMARK    7  A    between atoms: C15_24  and  O4_25 
ROOT
HETATM    1  O2  UNL     1      -3.130  51.506 -22.150  1.00  0.00    -0.293 OA
ENDROOT
BRANCH   1   2
HETATM    2  C8  UNL     1      -2.364  51.243 -21.042  1.00  0.00     0.079 A 
HETATM    3  C7  UNL     1      -0.988  51.112 -21.215  1.00  0.00     0.039 A 
HETATM    4  C6  UNL     1      -0.160  50.894 -20.110  1.00  0.00     0.034 A 
HETATM    5  C5  UNL     1      -0.699  50.816 -18.822  1.00  0.00     0.058 A 
HETATM    6  C20 UNL     1      -2.090  50.980 -18.665  1.00  0.00     0.063 A 
HETATM    7  C19 UNL     1      -2.921  51.201 -19.765  1.00  0.00     0.063 A 
HETATM    8 CL1  UNL     1      -2.821  50.921 -17.094  1.00  0.00    -0.082 Cl
BRANCH   5   9
HETATM    9  N2  UNL     1       0.088  50.604 -17.666  1.00  0.00    -0.307 N 
HETATM   10  C4  UNL     1       0.804  51.530 -16.944  1.00  0.00     0.320 C 
HETATM   11  N1  UNL     1       1.388  50.935 -15.841  1.00  0.00    -0.343 N 
HETATM   12  O1  UNL     1       0.942  52.716 -17.207  1.00  0.00    -0.247 OA
HETATM   13  H8  UNL     1       0.869  50.164 -15.450  1.00  0.00     0.164 HD
HETATM   14  H9  UNL     1       0.258  49.635 -17.432  1.00  0.00     0.170 HD
BRANCH  11  15
HETATM   15  C3  UNL     1       2.160  51.726 -14.901  1.00  0.00     0.124 C 
BRANCH  15  16
HETATM   16  C2  UNL     1       3.659  51.475 -15.037  1.00  0.00     0.015 C 
HETATM   17  C1  UNL     1       4.283  52.389 -16.079  1.00  0.00     0.006 C 
ENDBRANCH  15  16
ENDBRANCH  11  15
ENDBRANCH   5   9
ENDBRANCH   1   2
BRANCH   1  18
HETATM   18  C9  UNL     1      -3.068  50.589 -23.202  1.00  0.00     0.161 A 
HETATM   19  N3  UNL     1      -3.603  49.365 -23.032  1.00  0.00    -0.332 N 
HETATM   20  C10 UNL     1      -3.479  48.540 -24.071  1.00  0.00     0.182 A 
ATOM     21  H3  UNL     1      -4.070  49.089 -22.168  1.00  0.00     0.168 HD
HETATM   22  N4  UNL     1      -2.882  48.823 -25.237  1.00  0.00    -0.351 N 
HETATM   23  C11 UNL     1      -2.351  50.045 -25.373  1.00  0.00     0.050 A 
ATOM     24  H4  UNL     1      -2.834  48.136 -25.989  1.00  0.00     0.166 HD
HETATM   25  C12 UNL     1      -1.718  50.373 -26.566  1.00  0.00     0.070 A 
HETATM   26  C18 UNL     1      -2.408  51.006 -24.362  1.00  0.00     0.045 A 
HETATM   27  C13 UNL     1      -1.139  51.631 -26.777  1.00  0.00     0.103 A 
HETATM   28  C15 UNL     1      -1.194  52.599 -25.760  1.00  0.00     0.102 A 
HETATM   29  C17 UNL     1      -1.827  52.283 -24.558  1.00  0.00     0.057 A 
BRANCH  27  30
HETATM   30  O3  UNL     1      -0.503  52.008 -27.934  1.00  0.00    -0.353 OA
HETATM   31  C14 UNL     1       0.859  51.636 -28.090  1.00  0.00     0.210 C 
ENDBRANCH  27  30
BRANCH  28  32
HETATM   32  O4  UNL     1      -0.607  53.806 -26.037  1.00  0.00    -0.353 OA
HETATM   33  C16 UNL     1       0.277  54.353 -25.069  1.00  0.00     0.210 C 
ENDBRANCH  28  32
ENDBRANCH   1  18
TORSDOF 7
ENDMDL
