MODEL 1
REMARK minimizedAffinity -7.1991992
REMARK CNNscore 0.220397651
REMARK CNNaffinity 5.67571211
REMARK  13 active torsions:
REMARK  status: ('A' for Active; 'I' for Inactive)
REMARK    1  A    between atoms: C3_3  and  O1_4 
REMARK    2  A    between atoms: N1_14  and  O2_16 
REMARK    3  A    between atoms: O2_16  and  C13_17 
REMARK    4  A    between atoms: C13_17  and  C14_18 
REMARK       I    between atoms: C14_18  and  N2_20 
REMARK    5  A    between atoms: N2_20  and  C15_21 
REMARK    6  A    between atoms: C15_21  and  C16_22 
REMARK    7  A    between atoms: C15_21  and  C21_32 
REMARK       I    between atoms: C16_22  and  N3_24 
REMARK    8  A    between atoms: N3_24  and  C17_25 
REMARK    9  A    between atoms: C17_25  and  C18_26 
REMARK   10  A    between atoms: C17_25  and  C19_28 
REMARK   11  A    between atoms: C18_26  and  S1_27 
REMARK   12  A    between atoms: C19_28  and  C20_29 
REMARK   13  A    between atoms: C20_29  and  O6_31 
ROOT
HETATM    1  C1  UNL     1      10.674  13.933  19.858  1.00  0.00     0.015 C 
HETATM    2  C2  UNL     1       9.746  13.458  20.460  1.00  0.00    -0.078 C 
HETATM    3  C3  UNL     1       8.615  12.886  21.208  1.00  0.00     0.128 C 
HETATM    4  C4  UNL     1       9.086  12.175  22.474  1.00  0.00     0.052 C 
HETATM    5  C5  UNL     1       7.800  11.986  23.287  1.00  0.00     0.010 C 
HETATM    6  C6  UNL     1       6.842  13.133  22.879  1.00  0.00     0.002 C 
HETATM    7  C7  UNL     1       5.355  12.721  22.661  1.00  0.00    -0.004 C 
HETATM    8  C8  UNL     1       5.101  11.305  22.102  1.00  0.00     0.010 C 
HETATM    9  C9  UNL     1       3.612  10.964  22.044  1.00  0.00     0.035 C 
HETATM   10  C10 UNL     1       2.751  12.009  21.384  1.00  0.00    -0.069 C 
HETATM   11  C11 UNL     1       1.720  11.617  20.609  1.00  0.00     0.030 C 
HETATM   12  C12 UNL     1       0.714  12.584  20.077  1.00  0.00     0.032 C 
HETATM   13  N1  UNL     1      -0.342  12.276  19.385  1.00  0.00    -0.271 N 
ATOM     14  H1  UNL     1      -1.003  12.962  19.020  1.00  0.00     0.194 HD
HETATM   15  C24 UNL     1       0.890  14.049  20.429  1.00  0.00     0.060 C 
HETATM   16  C25 UNL     1       2.351  14.384  20.677  1.00  0.00     0.020 C 
HETATM   17  C26 UNL     1       3.037  13.467  21.729  1.00  0.00    -0.016 C 
HETATM   18  C27 UNL     1       2.399  13.759  23.114  1.00  0.00     0.020 C 
HETATM   19  C28 UNL     1       4.586  13.778  21.821  1.00  0.00     0.002 C 
HETATM   20  C29 UNL     1       5.314  13.928  20.472  1.00  0.00     0.007 C 
HETATM   21  C30 UNL     1       6.692  14.543  20.657  1.00  0.00     0.014 C 
HETATM   22  C31 UNL     1       7.589  13.928  21.751  1.00  0.00     0.003 C 
HETATM   23  C32 UNL     1       8.328  15.127  22.428  1.00  0.00     0.020 C 
ENDROOT
BRANCH   3  24
HETATM   24  O1  UNL     1       7.964  11.922  20.381  1.00  0.00    -0.377 OA
HETATM   25  H2  UNL     1       7.808  12.342  19.515  1.00  0.00     0.211 HD
ENDBRANCH   3  24
BRANCH  13  26
HETATM   26  O2  UNL     1      -0.469  10.891  19.198  1.00  0.00    -0.271 OA
BRANCH  26  27
HETATM   27  C13 UNL     1       0.235  10.524  18.020  1.00  0.00     0.303 C 
BRANCH  27  28
HETATM   28  C14 UNL     1      -0.723  10.480  16.841  1.00  0.00     0.244 C 
HETATM   29  O3  UNL     1      -1.516  11.390  16.599  1.00  0.00    -0.271 OA
HETATM   30  N2  UNL     1      -0.593   9.359  16.033  1.00  0.00    -0.346 N 
HETATM   31  H16 UNL     1       0.307   8.893  16.089  1.00  0.00     0.163 HD
BRANCH  30  32
HETATM   32  C15 UNL     1      -1.239   9.356  14.724  1.00  0.00     0.180 C 
BRANCH  32  33
HETATM   33  C16 UNL     1      -0.200   8.902  13.675  1.00  0.00     0.241 C 
HETATM   34  O4  UNL     1       1.001   8.819  13.928  1.00  0.00    -0.271 OA
HETATM   35  N3  UNL     1      -0.738   8.548  12.458  1.00  0.00    -0.353 N 
HETATM   36  H18 UNL     1      -1.748   8.501  12.358  1.00  0.00     0.163 HD
BRANCH  35  37
HETATM   37  C17 UNL     1       0.068   7.992  11.372  1.00  0.00     0.103 C 
BRANCH  37  38
HETATM   38  C18 UNL     1      -0.329   8.587  10.005  1.00  0.00     0.096 C 
BRANCH  38  39
HETATM   39  S1  UNL     1       0.823   8.200   8.639  1.00  0.00    -0.180 SA
HETATM   40  H22 UNL     1       0.050   8.684   7.653  1.00  0.00     0.101 HD
ENDBRANCH  38  39
ENDBRANCH  37  38
BRANCH  37  41
HETATM   41  C19 UNL     1       0.133   6.463  11.406  1.00  0.00     0.136 C 
BRANCH  41  42
HETATM   42  C20 UNL     1       1.520   5.900  11.440  1.00  0.00     0.141 C 
HETATM   43  O5  UNL     1       2.488   6.415  11.980  1.00  0.00    -0.650 OA
BRANCH  42  44
HETATM   44  O6  UNL     1       1.636   4.722  10.795  1.00  0.00    -0.776 OA
HETATM   45  H25 UNL     1       2.583   4.490  10.900  1.00  0.00     0.167 HD
ENDBRANCH  42  44
ENDBRANCH  41  42
ENDBRANCH  37  41
ENDBRANCH  35  37
ENDBRANCH  32  33
BRANCH  32  46
HETATM   46  C21 UNL     1      -2.508   8.476  14.667  1.00  0.00     0.009 C 
HETATM   47  C22 UNL     1      -2.780   7.696  15.956  1.00  0.00     0.012 C 
HETATM   48  C23 UNL     1      -3.735   9.308  14.295  1.00  0.00     0.012 C 
ENDBRANCH  32  46
ENDBRANCH  30  32
ENDBRANCH  27  28
ENDBRANCH  26  27
ENDBRANCH  13  26
TORSDOF 13
ENDMDL
MODEL 2
REMARK minimizedAffinity -7.29122496
REMARK CNNscore 0.217181861
REMARK CNNaffinity 5.76009703
REMARK  13 active torsions:
REMARK  status: ('A' for Active; 'I' for Inactive)
REMARK    1  A    between atoms: C3_3  and  O1_4 
REMARK    2  A    between atoms: N1_14  and  O2_16 
REMARK    3  A    between atoms: O2_16  and  C13_17 
REMARK    4  A    between atoms: C13_17  and  C14_18 
REMARK       I    between atoms: C14_18  and  N2_20 
REMARK    5  A    between atoms: N2_20  and  C15_21 
REMARK    6  A    between atoms: C15_21  and  C16_22 
REMARK    7  A    between atoms: C15_21  and  C21_32 
REMARK       I    between atoms: C16_22  and  N3_24 
REMARK    8  A    between atoms: N3_24  and  C17_25 
REMARK    9  A    between atoms: C17_25  and  C18_26 
REMARK   10  A    between atoms: C17_25  and  C19_28 
REMARK   11  A    between atoms: C18_26  and  S1_27 
REMARK   12  A    between atoms: C19_28  and  C20_29 
REMARK   13  A    between atoms: C20_29  and  O6_31 
ROOT
HETATM    1  C1  UNL     1      -3.284  -9.161   6.558  1.00  0.00     0.015 C 
HETATM    2  C2  UNL     1      -3.441  -9.590   5.444  1.00  0.00    -0.078 C 
HETATM    3  C3  UNL     1      -3.634 -10.129   4.089  1.00  0.00     0.128 C 
HETATM    4  C4  UNL     1      -2.538 -11.127   3.723  1.00  0.00     0.052 C 
HETATM    5  C5  UNL     1      -3.092 -11.842   2.486  1.00  0.00     0.010 C 
HETATM    6  C6  UNL     1      -4.636 -11.793   2.596  1.00  0.00     0.002 C 
HETATM    7  C7  UNL     1      -5.394 -11.456   1.277  1.00  0.00    -0.004 C 
HETATM    8  C8  UNL     1      -4.687 -10.499   0.293  1.00  0.00     0.010 C 
HETATM    9  C9  UNL     1      -5.462 -10.336  -1.014  1.00  0.00     0.035 C 
HETATM   10  C10 UNL     1      -6.924 -10.017  -0.846  1.00  0.00    -0.069 C 
HETATM   11  C11 UNL     1      -7.511  -9.157  -1.702  1.00  0.00     0.030 C 
HETATM   12  C12 UNL     1      -8.988  -8.935  -1.717  1.00  0.00     0.032 C 
HETATM   13  N1  UNL     1      -9.633  -8.180  -2.555  1.00  0.00    -0.271 N 
ATOM     14  H1  UNL     1     -10.642  -8.035  -2.529  1.00  0.00     0.194 HD
HETATM   15  C24 UNL     1      -9.827  -9.710  -0.719  1.00  0.00     0.060 C 
HETATM   16  C25 UNL     1      -9.026 -10.051   0.526  1.00  0.00     0.020 C 
HETATM   17  C26 UNL     1      -7.685 -10.783   0.231  1.00  0.00    -0.016 C 
HETATM   18  C27 UNL     1      -8.017 -12.191  -0.335  1.00  0.00     0.020 C 
HETATM   19  C28 UNL     1      -6.842 -10.969   1.558  1.00  0.00     0.002 C 
HETATM   20  C29 UNL     1      -6.753  -9.729   2.467  1.00  0.00     0.007 C 
HETATM   21  C30 UNL     1      -6.220 -10.093   3.843  1.00  0.00     0.014 C 
HETATM   22  C31 UNL     1      -4.942 -10.956   3.888  1.00  0.00     0.003 C 
HETATM   23  C32 UNL     1      -5.142 -11.963   5.066  1.00  0.00     0.020 C 
ENDROOT
BRANCH   3  24
HETATM   24  O1  UNL     1      -3.574  -9.050   3.157  1.00  0.00    -0.377 OA
HETATM   25  H2  UNL     1      -4.164  -8.349   3.488  1.00  0.00     0.211 HD
ENDBRANCH   3  24
BRANCH  13  26
HETATM   26  O2  UNL     1      -8.781  -7.587  -3.500  1.00  0.00    -0.271 OA
BRANCH  26  27
HETATM   27  C13 UNL     1      -8.779  -6.182  -3.291  1.00  0.00     0.303 C 
BRANCH  27  28
HETATM   28  C14 UNL     1      -9.170  -5.470  -4.577  1.00  0.00     0.244 C 
HETATM   29  O3  UNL     1      -9.704  -6.055  -5.519  1.00  0.00    -0.271 OA
HETATM   30  N2  UNL     1      -8.923  -4.105  -4.579  1.00  0.00    -0.346 N 
HETATM   31  H16 UNL     1      -8.855  -3.681  -3.659  1.00  0.00     0.163 HD
BRANCH  30  32
HETATM   32  C15 UNL     1      -9.527  -3.283  -5.623  1.00  0.00     0.180 C 
BRANCH  32  33
HETATM   33  C16 UNL     1     -11.059  -3.298  -5.422  1.00  0.00     0.241 C 
HETATM   34  O4  UNL     1     -11.590  -2.960  -4.366  1.00  0.00    -0.271 OA
HETATM   35  N3  UNL     1     -11.775  -3.665  -6.540  1.00  0.00    -0.353 N 
HETATM   36  H18 UNL     1     -11.285  -3.793  -7.421  1.00  0.00     0.163 HD
BRANCH  35  37
HETATM   37  C17 UNL     1     -13.236  -3.638  -6.583  1.00  0.00     0.103 C 
BRANCH  37  38
HETATM   38  C18 UNL     1     -13.774  -4.056  -7.968  1.00  0.00     0.096 C 
BRANCH  38  39
HETATM   39  S1  UNL     1     -13.310  -2.937  -9.337  1.00  0.00    -0.180 SA
HETATM   40  H22 UNL     1     -13.760  -3.723 -10.329  1.00  0.00     0.101 HD
ENDBRANCH  38  39
ENDBRANCH  37  38
BRANCH  37  41
HETATM   41  C19 UNL     1     -13.820  -2.331  -6.042  1.00  0.00     0.136 C 
BRANCH  41  42
HETATM   42  C20 UNL     1     -15.306  -2.342  -5.860  1.00  0.00     0.141 C 
HETATM   43  O5  UNL     1     -16.113  -1.714  -6.528  1.00  0.00    -0.650 OA
BRANCH  42  44
HETATM   44  O6  UNL     1     -15.716  -3.136  -4.850  1.00  0.00    -0.776 OA
HETATM   45  H25 UNL     1     -16.692  -3.035  -4.854  1.00  0.00     0.167 HD
ENDBRANCH  42  44
ENDBRANCH  41  42
ENDBRANCH  37  41
ENDBRANCH  35  37
ENDBRANCH  32  33
BRANCH  32  46
HETATM   46  C21 UNL     1      -8.985  -1.836  -5.656  1.00  0.00     0.009 C 
HETATM   47  C22 UNL     1     -10.033  -0.773  -5.319  1.00  0.00     0.012 C 
HETATM   48  C23 UNL     1      -7.775  -1.683  -4.733  1.00  0.00     0.012 C 
ENDBRANCH  32  46
ENDBRANCH  30  32
ENDBRANCH  27  28
ENDBRANCH  26  27
ENDBRANCH  13  26
TORSDOF 13
ENDMDL
MODEL 3
REMARK minimizedAffinity -8.13018894
REMARK CNNscore 0.195337459
REMARK CNNaffinity 5.95748138
REMARK  13 active torsions:
REMARK  status: ('A' for Active; 'I' for Inactive)
REMARK    1  A    between atoms: C3_3  and  O1_4 
REMARK    2  A    between atoms: N1_14  and  O2_16 
REMARK    3  A    between atoms: O2_16  and  C13_17 
REMARK    4  A    between atoms: C13_17  and  C14_18 
REMARK       I    between atoms: C14_18  and  N2_20 
REMARK    5  A    between atoms: N2_20  and  C15_21 
REMARK    6  A    between atoms: C15_21  and  C16_22 
REMARK    7  A    between atoms: C15_21  and  C21_32 
REMARK       I    between atoms: C16_22  and  N3_24 
REMARK    8  A    between atoms: N3_24  and  C17_25 
REMARK    9  A    between atoms: C17_25  and  C18_26 
REMARK   10  A    between atoms: C17_25  and  C19_28 
REMARK   11  A    between atoms: C18_26  and  S1_27 
REMARK   12  A    between atoms: C19_28  and  C20_29 
REMARK   13  A    between atoms: C20_29  and  O6_31 
ROOT
HETATM    1  C1  UNL     1      -7.434   5.289  15.096  1.00  0.00     0.015 C 
HETATM    2  C2  UNL     1      -6.311   5.720  15.038  1.00  0.00    -0.078 C 
HETATM    3  C3  UNL     1      -4.940   6.247  14.951  1.00  0.00     0.128 C 
HETATM    4  C4  UNL     1      -4.078   5.409  14.011  1.00  0.00     0.052 C 
HETATM    5  C5  UNL     1      -2.851   6.291  13.755  1.00  0.00     0.010 C 
HETATM    6  C6  UNL     1      -3.317   7.760  13.914  1.00  0.00     0.002 C 
HETATM    7  C7  UNL     1      -2.347   8.692  14.700  1.00  0.00    -0.004 C 
HETATM    8  C8  UNL     1      -1.529   8.044  15.837  1.00  0.00     0.010 C 
HETATM    9  C9  UNL     1      -0.526   9.017  16.456  1.00  0.00     0.035 C 
HETATM   10  C10 UNL     1      -1.102  10.353  16.846  1.00  0.00    -0.069 C 
HETATM   11  C11 UNL     1      -0.669  10.950  17.974  1.00  0.00     0.030 C 
HETATM   12  C12 UNL     1      -1.049  12.351  18.328  1.00  0.00     0.032 C 
HETATM   13  N1  UNL     1      -0.618  13.016  19.357  1.00  0.00    -0.271 N 
ATOM     14  H1  UNL     1      -0.910  13.968  19.582  1.00  0.00     0.194 HD
HETATM   15  C24 UNL     1      -1.961  13.095  17.371  1.00  0.00     0.060 C 
HETATM   16  C25 UNL     1      -2.851  12.136  16.599  1.00  0.00     0.020 C 
HETATM   17  C26 UNL     1      -2.072  11.006  15.867  1.00  0.00    -0.016 C 
HETATM   18  C27 UNL     1      -1.233  11.654  14.732  1.00  0.00     0.020 C 
HETATM   19  C28 UNL     1      -3.070   9.967  15.214  1.00  0.00     0.002 C 
HETATM   20  C29 UNL     1      -4.239   9.516  16.110  1.00  0.00     0.007 C 
HETATM   21  C30 UNL     1      -5.305   8.795  15.301  1.00  0.00     0.014 C 
HETATM   22  C31 UNL     1      -4.823   7.681  14.349  1.00  0.00     0.003 C 
HETATM   23  C32 UNL     1      -5.695   7.810  13.058  1.00  0.00     0.020 C 
ENDROOT
BRANCH   3  24
HETATM   24  O1  UNL     1      -4.350   6.197  16.249  1.00  0.00    -0.377 OA
HETATM   25  H2  UNL     1      -4.984   6.598  16.871  1.00  0.00     0.211 HD
ENDBRANCH   3  24
BRANCH  13  26
HETATM   26  O2  UNL     1       0.296  12.277  20.123  1.00  0.00    -0.271 OA
BRANCH  26  27
HETATM   27  C13 UNL     1       1.588  12.414  19.547  1.00  0.00     0.303 C 
BRANCH  27  28
HETATM   28  C14 UNL     1       2.472  11.257  19.987  1.00  0.00     0.244 C 
HETATM   29  O3  UNL     1       2.763  10.326  19.237  1.00  0.00    -0.271 OA
HETATM   30  N2  UNL     1       2.964  11.366  21.280  1.00  0.00    -0.346 N 
HETATM   31  H16 UNL     1       2.988  12.311  21.650  1.00  0.00     0.163 HD
BRANCH  30  32
HETATM   32  C15 UNL     1       4.049  10.484  21.696  1.00  0.00     0.180 C 
BRANCH  32  33
HETATM   33  C16 UNL     1       5.272  11.359  22.050  1.00  0.00     0.241 C 
HETATM   34  O4  UNL     1       5.762  11.385  23.178  1.00  0.00    -0.271 OA
HETATM   35  N3  UNL     1       5.797  12.060  20.987  1.00  0.00    -0.353 N 
HETATM   36  H18 UNL     1       5.437  11.886  20.053  1.00  0.00     0.163 HD
BRANCH  35  37
HETATM   37  C17 UNL     1       7.016  12.860  21.096  1.00  0.00     0.103 C 
BRANCH  37  38
HETATM   38  C18 UNL     1       8.255  12.081  20.609  1.00  0.00     0.096 C 
BRANCH  38  39
HETATM   39  S1  UNL     1       8.135  11.445  18.899  1.00  0.00    -0.180 SA
HETATM   40  H22 UNL     1       9.415  11.049  18.798  1.00  0.00     0.101 HD
ENDBRANCH  38  39
ENDBRANCH  37  38
BRANCH  37  41
HETATM   41  C19 UNL     1       7.175  13.511  22.473  1.00  0.00     0.136 C 
BRANCH  41  42
HETATM   42  C20 UNL     1       8.585  13.863  22.834  1.00  0.00     0.141 C 
HETATM   43  O5  UNL     1       9.229  14.796  22.378  1.00  0.00    -0.650 OA
BRANCH  42  44
HETATM   44  O6  UNL     1       9.128  13.032  23.747  1.00  0.00    -0.776 OA
HETATM   45  H25 UNL     1      10.035  13.383  23.873  1.00  0.00     0.167 HD
ENDBRANCH  42  44
ENDBRANCH  41  42
ENDBRANCH  37  41
ENDBRANCH  35  37
ENDBRANCH  32  33
BRANCH  32  46
HETATM   46  C21 UNL     1       3.670   9.556  22.871  1.00  0.00     0.009 C 
HETATM   47  C22 UNL     1       3.056  10.288  24.067  1.00  0.00     0.012 C 
HETATM   48  C23 UNL     1       2.732   8.441  22.408  1.00  0.00     0.012 C 
ENDBRANCH  32  46
ENDBRANCH  30  32
ENDBRANCH  27  28
ENDBRANCH  26  27
ENDBRANCH  13  26
TORSDOF 13
ENDMDL
MODEL 4
REMARK minimizedAffinity -7.37268209
REMARK CNNscore 0.188004524
REMARK CNNaffinity 5.78115797
REMARK  13 active torsions:
REMARK  status: ('A' for Active; 'I' for Inactive)
REMARK    1  A    between atoms: C3_3  and  O1_4 
REMARK    2  A    between atoms: N1_14  and  O2_16 
REMARK    3  A    between atoms: O2_16  and  C13_17 
REMARK    4  A    between atoms: C13_17  and  C14_18 
REMARK       I    between atoms: C14_18  and  N2_20 
REMARK    5  A    between atoms: N2_20  and  C15_21 
REMARK    6  A    between atoms: C15_21  and  C16_22 
REMARK    7  A    between atoms: C15_21  and  C21_32 
REMARK       I    between atoms: C16_22  and  N3_24 
REMARK    8  A    between atoms: N3_24  and  C17_25 
REMARK    9  A    between atoms: C17_25  and  C18_26 
REMARK   10  A    between atoms: C17_25  and  C19_28 
REMARK   11  A    between atoms: C18_26  and  S1_27 
REMARK   12  A    between atoms: C19_28  and  C20_29 
REMARK   13  A    between atoms: C20_29  and  O6_31 
ROOT
HETATM    1  C1  UNL     1      -6.518   6.784  15.496  1.00  0.00     0.015 C 
HETATM    2  C2  UNL     1      -5.328   6.754  15.323  1.00  0.00    -0.078 C 
HETATM    3  C3  UNL     1      -3.874   6.718  15.096  1.00  0.00     0.128 C 
HETATM    4  C4  UNL     1      -3.482   5.575  14.164  1.00  0.00     0.052 C 
HETATM    5  C5  UNL     1      -2.046   5.915  13.753  1.00  0.00     0.010 C 
HETATM    6  C6  UNL     1      -1.911   7.456  13.831  1.00  0.00     0.002 C 
HETATM    7  C7  UNL     1      -0.593   7.985  14.470  1.00  0.00    -0.004 C 
HETATM    8  C8  UNL     1       0.029   7.126  15.592  1.00  0.00     0.010 C 
HETATM    9  C9  UNL     1       1.378   7.673  16.060  1.00  0.00     0.035 C 
HETATM   10  C10 UNL     1       1.383   9.144  16.386  1.00  0.00    -0.069 C 
HETATM   11  C11 UNL     1       2.114   9.582  17.430  1.00  0.00     0.030 C 
HETATM   12  C12 UNL     1       2.320  11.036  17.702  1.00  0.00     0.032 C 
HETATM   13  N1  UNL     1       3.065  11.534  18.642  1.00  0.00    -0.271 N 
ATOM     14  H1  UNL     1       3.172  12.534  18.813  1.00  0.00     0.194 HD
HETATM   15  C24 UNL     1       1.665  12.028  16.759  1.00  0.00     0.060 C 
HETATM   16  C25 UNL     1       0.411  11.444  16.130  1.00  0.00     0.020 C 
HETATM   17  C26 UNL     1       0.638  10.072  15.433  1.00  0.00    -0.016 C 
HETATM   18  C27 UNL     1       1.544  10.303  14.193  1.00  0.00     0.020 C 
HETATM   19  C28 UNL     1      -0.734   9.461  14.935  1.00  0.00     0.002 C 
HETATM   20  C29 UNL     1      -1.895   9.526  15.946  1.00  0.00     0.007 C 
HETATM   21  C30 UNL     1      -3.226   9.227  15.275  1.00  0.00     0.014 C 
HETATM   22  C31 UNL     1      -3.288   7.973  14.379  1.00  0.00     0.003 C 
HETATM   23  C32 UNL     1      -4.169   8.365  13.149  1.00  0.00     0.020 C 
ENDROOT
BRANCH   3  24
HETATM   24  O1  UNL     1      -3.224   6.505  16.349  1.00  0.00    -0.377 OA
HETATM   25  H2  UNL     1      -3.599   7.144  16.982  1.00  0.00     0.211 HD
ENDBRANCH   3  24
BRANCH  13  26
HETATM   26  O2  UNL     1       3.706  10.538  19.395  1.00  0.00    -0.271 OA
BRANCH  26  27
HETATM   27  C13 UNL     1       2.881  10.202  20.502  1.00  0.00     0.303 C 
BRANCH  27  28
HETATM   28  C14 UNL     1       3.462  10.795  21.776  1.00  0.00     0.244 C 
HETATM   29  O3  UNL     1       3.846  10.097  22.714  1.00  0.00    -0.271 OA
HETATM   30  N2  UNL     1       3.572  12.178  21.770  1.00  0.00    -0.346 N 
HETATM   31  H16 UNL     1       3.598  12.602  20.848  1.00  0.00     0.163 HD
BRANCH  30  32
HETATM   32  C15 UNL     1       4.383  12.823  22.798  1.00  0.00     0.180 C 
BRANCH  32  33
HETATM   33  C16 UNL     1       5.828  12.946  22.264  1.00  0.00     0.241 C 
HETATM   34  O4  UNL     1       6.084  13.036  21.065  1.00  0.00    -0.271 OA
HETATM   35  N3  UNL     1       6.793  13.004  23.245  1.00  0.00    -0.353 N 
HETATM   36  H18 UNL     1       6.507  13.070  24.218  1.00  0.00     0.163 HD
BRANCH  35  37
HETATM   37  C17 UNL     1       8.207  13.227  22.946  1.00  0.00     0.103 C 
BRANCH  37  38
HETATM   38  C18 UNL     1       8.446  14.614  22.315  1.00  0.00     0.096 C 
BRANCH  38  39
HETATM   39  S1  UNL     1       8.470  16.002  23.504  1.00  0.00    -0.180 SA
HETATM   40  H22 UNL     1       8.895  16.934  22.635  1.00  0.00     0.101 HD
ENDBRANCH  38  39
ENDBRANCH  37  38
BRANCH  37  41
HETATM   41  C19 UNL     1       8.840  12.062  22.180  1.00  0.00     0.136 C 
BRANCH  41  42
HETATM   42  C20 UNL     1       9.937  12.459  21.241  1.00  0.00     0.141 C 
HETATM   43  O5  UNL     1      10.396  13.583  21.112  1.00  0.00    -0.650 OA
BRANCH  42  44
HETATM   44  O6  UNL     1      10.406  11.433  20.502  1.00  0.00    -0.776 OA
HETATM   45  H25 UNL     1      11.100  11.845  19.944  1.00  0.00     0.167 HD
ENDBRANCH  42  44
ENDBRANCH  41  42
ENDBRANCH  37  41
ENDBRANCH  35  37
ENDBRANCH  32  33
BRANCH  32  46
HETATM   46  C21 UNL     1       3.835  14.198  23.241  1.00  0.00     0.009 C 
HETATM   47  C22 UNL     1       4.788  15.364  22.965  1.00  0.00     0.012 C 
HETATM   48  C23 UNL     1       2.475  14.477  22.601  1.00  0.00     0.012 C 
ENDBRANCH  32  46
ENDBRANCH  30  32
ENDBRANCH  27  28
ENDBRANCH  26  27
ENDBRANCH  13  26
TORSDOF 13
ENDMDL
MODEL 5
REMARK minimizedAffinity -7.40854836
REMARK CNNscore 0.182412103
REMARK CNNaffinity 5.03510618
REMARK  13 active torsions:
REMARK  status: ('A' for Active; 'I' for Inactive)
REMARK    1  A    between atoms: C3_3  and  O1_4 
REMARK    2  A    between atoms: N1_14  and  O2_16 
REMARK    3  A    between atoms: O2_16  and  C13_17 
REMARK    4  A    between atoms: C13_17  and  C14_18 
REMARK       I    between atoms: C14_18  and  N2_20 
REMARK    5  A    between atoms: N2_20  and  C15_21 
REMARK    6  A    between atoms: C15_21  and  C16_22 
REMARK    7  A    between atoms: C15_21  and  C21_32 
REMARK       I    between atoms: C16_22  and  N3_24 
REMARK    8  A    between atoms: N3_24  and  C17_25 
REMARK    9  A    between atoms: C17_25  and  C18_26 
REMARK   10  A    between atoms: C17_25  and  C19_28 
REMARK   11  A    between atoms: C18_26  and  S1_27 
REMARK   12  A    between atoms: C19_28  and  C20_29 
REMARK   13  A    between atoms: C20_29  and  O6_31 
ROOT
HETATM    1  C1  UNL     1       7.444  19.359  22.913  1.00  0.00     0.015 C 
HETATM    2  C2  UNL     1       7.600  18.202  22.621  1.00  0.00    -0.078 C 
HETATM    3  C3  UNL     1       7.799  16.785  22.277  1.00  0.00     0.128 C 
HETATM    4  C4  UNL     1       9.282  16.439  22.172  1.00  0.00     0.052 C 
HETATM    5  C5  UNL     1       9.303  14.907  22.188  1.00  0.00     0.010 C 
HETATM    6  C6  UNL     1       8.051  14.452  22.979  1.00  0.00     0.002 C 
HETATM    7  C7  UNL     1       7.266  13.253  22.366  1.00  0.00    -0.004 C 
HETATM    8  C8  UNL     1       7.254  13.145  20.826  1.00  0.00     0.010 C 
HETATM    9  C9  UNL     1       6.563  11.871  20.341  1.00  0.00     0.035 C 
HETATM   10  C10 UNL     1       5.208  11.616  20.950  1.00  0.00    -0.069 C 
HETATM   11  C11 UNL     1       4.232  11.093  20.184  1.00  0.00     0.030 C 
HETATM   12  C12 UNL     1       2.929  10.639  20.757  1.00  0.00     0.032 C 
HETATM   13  N1  UNL     1       1.970  10.063  20.096  1.00  0.00    -0.271 N 
ATOM     14  H1  UNL     1       1.083   9.779  20.513  1.00  0.00     0.194 HD
HETATM   15  C24 UNL     1       2.726  10.794  22.252  1.00  0.00     0.060 C 
HETATM   16  C25 UNL     1       3.548  11.946  22.803  1.00  0.00     0.020 C 
HETATM   17  C26 UNL     1       5.060  11.867  22.447  1.00  0.00    -0.016 C 
HETATM   18  C27 UNL     1       5.669  10.649  23.194  1.00  0.00     0.020 C 
HETATM   19  C28 UNL     1       5.819  13.170  22.925  1.00  0.00     0.002 C 
HETATM   20  C29 UNL     1       5.115  14.503  22.607  1.00  0.00     0.007 C 
HETATM   21  C30 UNL     1       5.738  15.653  23.381  1.00  0.00     0.014 C 
HETATM   22  C31 UNL     1       7.276  15.769  23.339  1.00  0.00     0.003 C 
HETATM   23  C32 UNL     1       7.716  16.198  24.775  1.00  0.00     0.020 C 
ENDROOT
BRANCH   3  24
HETATM   24  O1  UNL     1       7.200  16.537  21.005  1.00  0.00    -0.377 OA
HETATM   25  H2  UNL     1       6.299  16.906  21.033  1.00  0.00     0.211 HD
ENDBRANCH   3  24
BRANCH  13  26
HETATM   26  O2  UNL     1       2.294   9.875  18.744  1.00  0.00    -0.271 OA
BRANCH  26  27
HETATM   27  C13 UNL     1       1.313  10.523  17.947  1.00  0.00     0.303 C 
BRANCH  27  28
HETATM   28  C14 UNL     1       0.972   9.656  16.745  1.00  0.00     0.244 C 
HETATM   29  O3  UNL     1       1.255   8.460  16.691  1.00  0.00    -0.271 OA
HETATM   30  N2  UNL     1       0.270  10.310  15.742  1.00  0.00    -0.346 N 
HETATM   31  H16 UNL     1      -0.233  11.140  16.043  1.00  0.00     0.163 HD
BRANCH  30  32
HETATM   32  C15 UNL     1      -0.367   9.516  14.696  1.00  0.00     0.180 C 
BRANCH  32  33
HETATM   33  C16 UNL     1       0.736   8.739  13.944  1.00  0.00     0.241 C 
HETATM   34  O4  UNL     1       1.278   7.740  14.413  1.00  0.00    -0.271 OA
HETATM   35  N3  UNL     1       1.016   9.226  12.686  1.00  0.00    -0.353 N 
HETATM   36  H18 UNL     1       0.435   9.964  12.299  1.00  0.00     0.163 HD
BRANCH  35  37
HETATM   37  C17 UNL     1       1.952   8.565  11.777  1.00  0.00     0.103 C 
BRANCH  37  38
HETATM   38  C18 UNL     1       1.248   7.506  10.903  1.00  0.00     0.096 C 
BRANCH  38  39
HETATM   39  S1  UNL     1       0.317   8.182   9.483  1.00  0.00    -0.180 SA
HETATM   40  H22 UNL     1       0.059   7.000   8.899  1.00  0.00     0.101 HD
ENDBRANCH  38  39
ENDBRANCH  37  38
BRANCH  37  41
HETATM   41  C19 UNL     1       3.214   8.068  12.486  1.00  0.00     0.136 C 
BRANCH  41  42
HETATM   42  C20 UNL     1       4.304   7.610  11.566  1.00  0.00     0.141 C 
HETATM   43  O5  UNL     1       4.672   8.183  10.552  1.00  0.00    -0.650 OA
BRANCH  42  44
HETATM   44  O6  UNL     1       4.882   6.455  11.955  1.00  0.00    -0.776 OA
HETATM   45  H25 UNL     1       5.557   6.288  11.263  1.00  0.00     0.167 HD
ENDBRANCH  42  44
ENDBRANCH  41  42
ENDBRANCH  37  41
ENDBRANCH  35  37
ENDBRANCH  32  33
BRANCH  32  46
HETATM   46  C21 UNL     1      -1.457   8.559  15.229  1.00  0.00     0.009 C 
HETATM   47  C22 UNL     1      -1.031   7.089  15.255  1.00  0.00     0.012 C 
HETATM   48  C23 UNL     1      -1.930   8.987  16.619  1.00  0.00     0.012 C 
ENDBRANCH  32  46
ENDBRANCH  30  32
ENDBRANCH  27  28
ENDBRANCH  26  27
ENDBRANCH  13  26
TORSDOF 13
ENDMDL
MODEL 6
REMARK minimizedAffinity -7.00412655
REMARK CNNscore 0.166364148
REMARK CNNaffinity 5.66651535
REMARK  13 active torsions:
REMARK  status: ('A' for Active; 'I' for Inactive)
REMARK    1  A    between atoms: C3_3  and  O1_4 
REMARK    2  A    between atoms: N1_14  and  O2_16 
REMARK    3  A    between atoms: O2_16  and  C13_17 
REMARK    4  A    between atoms: C13_17  and  C14_18 
REMARK       I    between atoms: C14_18  and  N2_20 
REMARK    5  A    between atoms: N2_20  and  C15_21 
REMARK    6  A    between atoms: C15_21  and  C16_22 
REMARK    7  A    between atoms: C15_21  and  C21_32 
REMARK       I    between atoms: C16_22  and  N3_24 
REMARK    8  A    between atoms: N3_24  and  C17_25 
REMARK    9  A    between atoms: C17_25  and  C18_26 
REMARK   10  A    between atoms: C17_25  and  C19_28 
REMARK   11  A    between atoms: C18_26  and  S1_27 
REMARK   12  A    between atoms: C19_28  and  C20_29 
REMARK   13  A    between atoms: C20_29  and  O6_31 
ROOT
HETATM    1  C1  UNL     1      10.719  13.692  19.988  1.00  0.00     0.015 C 
HETATM    2  C2  UNL     1       9.772  13.248  20.582  1.00  0.00    -0.078 C 
HETATM    3  C3  UNL     1       8.618  12.712  21.322  1.00  0.00     0.128 C 
HETATM    4  C4  UNL     1       9.055  12.007  22.604  1.00  0.00     0.052 C 
HETATM    5  C5  UNL     1       7.755  11.859  23.401  1.00  0.00     0.010 C 
HETATM    6  C6  UNL     1       6.829  13.022  22.966  1.00  0.00     0.002 C 
HETATM    7  C7  UNL     1       5.336  12.643  22.732  1.00  0.00    -0.004 C 
HETATM    8  C8  UNL     1       5.056  11.226  22.189  1.00  0.00     0.010 C 
HETATM    9  C9  UNL     1       3.560  10.919  22.114  1.00  0.00     0.035 C 
HETATM   10  C10 UNL     1       2.733  11.976  21.429  1.00  0.00    -0.069 C 
HETATM   11  C11 UNL     1       1.704  11.598  20.645  1.00  0.00     0.030 C 
HETATM   12  C12 UNL     1       0.728  12.582  20.087  1.00  0.00     0.032 C 
HETATM   13  N1  UNL     1      -0.325  12.289  19.385  1.00  0.00    -0.271 N 
ATOM     14  H1  UNL     1      -0.965  12.986  19.002  1.00  0.00     0.194 HD
HETATM   15  C24 UNL     1       0.934  14.046  20.423  1.00  0.00     0.060 C 
HETATM   16  C25 UNL     1       2.399  14.350  20.686  1.00  0.00     0.020 C 
HETATM   17  C26 UNL     1       3.049  13.431  21.759  1.00  0.00    -0.016 C 
HETATM   18  C27 UNL     1       2.400  13.756  23.132  1.00  0.00     0.020 C 
HETATM   19  C28 UNL     1       4.604  13.707  21.869  1.00  0.00     0.002 C 
HETATM   20  C29 UNL     1       5.353  13.822  20.528  1.00  0.00     0.007 C 
HETATM   21  C30 UNL     1       6.743  14.407  20.724  1.00  0.00     0.014 C 
HETATM   22  C31 UNL     1       7.610  13.785  21.838  1.00  0.00     0.003 C 
HETATM   23  C32 UNL     1       8.368  14.975  22.509  1.00  0.00     0.020 C 
ENDROOT
BRANCH   3  24
HETATM   24  O1  UNL     1       7.955  11.753  20.498  1.00  0.00    -0.377 OA
HETATM   25  H2  UNL     1       7.822  12.165  19.625  1.00  0.00     0.211 HD
ENDBRANCH   3  24
BRANCH  13  26
HETATM   26  O2  UNL     1      -0.483  10.905  19.214  1.00  0.00    -0.271 OA
BRANCH  26  27
HETATM   27  C13 UNL     1      -1.833  10.642  18.856  1.00  0.00     0.303 C 
BRANCH  27  28
HETATM   28  C14 UNL     1      -1.957  10.560  17.343  1.00  0.00     0.244 C 
HETATM   29  O3  UNL     1      -1.417  11.371  16.591  1.00  0.00    -0.271 OA
HETATM   30  N2  UNL     1      -2.680   9.469  16.882  1.00  0.00    -0.346 N 
HETATM   31  H16 UNL     1      -2.738   8.689  17.529  1.00  0.00     0.163 HD
BRANCH  30  32
HETATM   32  C15 UNL     1      -2.607   9.125  15.465  1.00  0.00     0.180 C 
BRANCH  32  33
HETATM   33  C16 UNL     1      -1.377   8.216  15.252  1.00  0.00     0.241 C 
HETATM   34  O4  UNL     1      -1.325   7.063  15.680  1.00  0.00    -0.271 OA
HETATM   35  N3  UNL     1      -0.373   8.783  14.499  1.00  0.00    -0.353 N 
HETATM   36  H18 UNL     1      -0.536   9.683  14.055  1.00  0.00     0.163 HD
BRANCH  35  37
HETATM   37  C17 UNL     1       0.824   8.047  14.099  1.00  0.00     0.103 C 
BRANCH  37  38
HETATM   38  C18 UNL     1       0.481   6.852  13.185  1.00  0.00     0.096 C 
BRANCH  38  39
HETATM   39  S1  UNL     1       1.741   6.475  11.914  1.00  0.00    -0.180 SA
HETATM   40  H22 UNL     1       1.196   5.316  11.507  1.00  0.00     0.101 HD
ENDBRANCH  38  39
ENDBRANCH  37  38
BRANCH  37  41
HETATM   41  C19 UNL     1       1.729   7.700  15.285  1.00  0.00     0.136 C 
BRANCH  41  42
HETATM   42  C20 UNL     1       2.061   8.860  16.173  1.00  0.00     0.141 C 
HETATM   43  O5  UNL     1       2.166   8.822  17.389  1.00  0.00    -0.650 OA
BRANCH  42  44
HETATM   44  O6  UNL     1       2.243  10.014  15.500  1.00  0.00    -0.776 OA
HETATM   45  H25 UNL     1       2.444  10.666  16.204  1.00  0.00     0.167 HD
ENDBRANCH  42  44
ENDBRANCH  41  42
ENDBRANCH  37  41
ENDBRANCH  35  37
ENDBRANCH  32  33
BRANCH  32  46
HETATM   46  C21 UNL     1      -3.893   8.457  14.928  1.00  0.00     0.009 C 
HETATM   47  C22 UNL     1      -5.184   9.048  15.500  1.00  0.00     0.012 C 
HETATM   48  C23 UNL     1      -3.935   8.499  13.400  1.00  0.00     0.012 C 
ENDBRANCH  32  46
ENDBRANCH  30  32
ENDBRANCH  27  28
ENDBRANCH  26  27
ENDBRANCH  13  26
TORSDOF 13
ENDMDL
MODEL 7
REMARK minimizedAffinity -7.00219679
REMARK CNNscore 0.153429151
REMARK CNNaffinity 6.316854
REMARK  13 active torsions:
REMARK  status: ('A' for Active; 'I' for Inactive)
REMARK    1  A    between atoms: C3_3  and  O1_4 
REMARK    2  A    between atoms: N1_14  and  O2_16 
REMARK    3  A    between atoms: O2_16  and  C13_17 
REMARK    4  A    between atoms: C13_17  and  C14_18 
REMARK       I    between atoms: C14_18  and  N2_20 
REMARK    5  A    between atoms: N2_20  and  C15_21 
REMARK    6  A    between atoms: C15_21  and  C16_22 
REMARK    7  A    between atoms: C15_21  and  C21_32 
REMARK       I    between atoms: C16_22  and  N3_24 
REMARK    8  A    between atoms: N3_24  and  C17_25 
REMARK    9  A    between atoms: C17_25  and  C18_26 
REMARK   10  A    between atoms: C17_25  and  C19_28 
REMARK   11  A    between atoms: C18_26  and  S1_27 
REMARK   12  A    between atoms: C19_28  and  C20_29 
REMARK   13  A    between atoms: C20_29  and  O6_31 
ROOT
HETATM    1  C1  UNL     1      -8.303   9.100  15.233  1.00  0.00     0.015 C 
HETATM    2  C2  UNL     1      -7.277   8.472  15.275  1.00  0.00    -0.078 C 
HETATM    3  C3  UNL     1      -6.030   7.692  15.322  1.00  0.00     0.128 C 
HETATM    4  C4  UNL     1      -6.211   6.396  16.108  1.00  0.00     0.052 C 
HETATM    5  C5  UNL     1      -4.975   5.568  15.739  1.00  0.00     0.010 C 
HETATM    6  C6  UNL     1      -4.539   6.024  14.324  1.00  0.00     0.002 C 
HETATM    7  C7  UNL     1      -3.006   6.216  14.121  1.00  0.00    -0.004 C 
HETATM    8  C8  UNL     1      -2.199   6.705  15.342  1.00  0.00     0.010 C 
HETATM    9  C9  UNL     1      -0.696   6.740  15.067  1.00  0.00     0.035 C 
HETATM   10  C10 UNL     1      -0.304   7.444  13.794  1.00  0.00    -0.069 C 
HETATM   11  C11 UNL     1       0.816   8.194  13.777  1.00  0.00     0.030 C 
HETATM   12  C12 UNL     1       1.370   8.766  12.512  1.00  0.00     0.032 C 
HETATM   13  N1  UNL     1       2.477   9.436  12.405  1.00  0.00    -0.271 N 
ATOM     14  H1  UNL     1       2.821   9.829  11.529  1.00  0.00     0.194 HD
HETATM   15  C24 UNL     1       0.620   8.483  11.225  1.00  0.00     0.060 C 
HETATM   16  C25 UNL     1      -0.860   8.260  11.486  1.00  0.00     0.020 C 
HETATM   17  C26 UNL     1      -1.152   7.169  12.556  1.00  0.00    -0.016 C 
HETATM   18  C27 UNL     1      -0.714   5.795  11.979  1.00  0.00     0.020 C 
HETATM   19  C28 UNL     1      -2.699   7.100  12.881  1.00  0.00     0.002 C 
HETATM   20  C29 UNL     1      -3.395   8.458  13.087  1.00  0.00     0.007 C 
HETATM   21  C30 UNL     1      -4.908   8.310  13.062  1.00  0.00     0.014 C 
HETATM   22  C31 UNL     1      -5.513   7.193  13.937  1.00  0.00     0.003 C 
HETATM   23  C32 UNL     1      -6.682   6.577  13.103  1.00  0.00     0.020 C 
ENDROOT
BRANCH   3  24
HETATM   24  O1  UNL     1      -5.031   8.469  15.981  1.00  0.00    -0.377 OA
HETATM   25  H2  UNL     1      -5.035   9.353  15.570  1.00  0.00     0.211 HD
ENDBRANCH   3  24
BRANCH  13  26
HETATM   26  O2  UNL     1       3.146   9.557  13.633  1.00  0.00    -0.271 OA
BRANCH  26  27
HETATM   27  C13 UNL     1       4.141   8.545  13.710  1.00  0.00     0.303 C 
BRANCH  27  28
HETATM   28  C14 UNL     1       5.076   8.831  14.874  1.00  0.00     0.244 C 
HETATM   29  O3  UNL     1       5.345   7.987  15.729  1.00  0.00    -0.271 OA
HETATM   30  N2  UNL     1       5.641  10.099  14.862  1.00  0.00    -0.346 N 
HETATM   31  H16 UNL     1       5.664  10.549  13.953  1.00  0.00     0.163 HD
BRANCH  30  32
HETATM   32  C15 UNL     1       6.770  10.374  15.745  1.00  0.00     0.180 C 
BRANCH  32  33
HETATM   33  C16 UNL     1       8.052  10.426  14.886  1.00  0.00     0.241 C 
HETATM   34  O4  UNL     1       8.120   9.915  13.769  1.00  0.00    -0.271 OA
HETATM   35  N3  UNL     1       9.086  11.138  15.450  1.00  0.00    -0.353 N 
HETATM   36  H18 UNL     1       8.920  11.657  16.308  1.00  0.00     0.163 HD
BRANCH  35  37
HETATM   37  C17 UNL     1      10.344  11.392  14.749  1.00  0.00     0.103 C 
BRANCH  37  38
HETATM   38  C18 UNL     1      10.443  10.577  13.443  1.00  0.00     0.096 C 
BRANCH  38  39
HETATM   39  S1  UNL     1      10.766  11.571  11.943  1.00  0.00    -0.180 SA
HETATM   40  H22 UNL     1      10.984  10.532  11.120  1.00  0.00     0.101 HD
ENDBRANCH  38  39
ENDBRANCH  37  38
BRANCH  37  41
HETATM   41  C19 UNL     1      11.565  11.277  15.664  1.00  0.00     0.136 C 
BRANCH  41  42
HETATM   42  C20 UNL     1      11.291  11.572  17.107  1.00  0.00     0.141 C 
HETATM   43  O5  UNL     1      10.516  12.416  17.529  1.00  0.00    -0.650 OA
BRANCH  42  44
HETATM   44  O6  UNL     1      12.001  10.801  17.955  1.00  0.00    -0.776 OA
HETATM   45  H25 UNL     1      11.721  11.111  18.843  1.00  0.00     0.167 HD
ENDBRANCH  42  44
ENDBRANCH  41  42
ENDBRANCH  37  41
ENDBRANCH  35  37
ENDBRANCH  32  33
BRANCH  32  46
HETATM   46  C21 UNL     1       6.601  11.669  16.572  1.00  0.00     0.009 C 
HETATM   47  C22 UNL     1       5.223  12.320  16.430  1.00  0.00     0.012 C 
HETATM   48  C23 UNL     1       6.907  11.419  18.049  1.00  0.00     0.012 C 
ENDBRANCH  32  46
ENDBRANCH  30  32
ENDBRANCH  27  28
ENDBRANCH  26  27
ENDBRANCH  13  26
TORSDOF 13
ENDMDL
MODEL 8
REMARK minimizedAffinity -7.51660347
REMARK CNNscore 0.152972311
REMARK CNNaffinity 5.83242226
REMARK  13 active torsions:
REMARK  status: ('A' for Active; 'I' for Inactive)
REMARK    1  A    between atoms: C3_3  and  O1_4 
REMARK    2  A    between atoms: N1_14  and  O2_16 
REMARK    3  A    between atoms: O2_16  and  C13_17 
REMARK    4  A    between atoms: C13_17  and  C14_18 
REMARK       I    between atoms: C14_18  and  N2_20 
REMARK    5  A    between atoms: N2_20  and  C15_21 
REMARK    6  A    between atoms: C15_21  and  C16_22 
REMARK    7  A    between atoms: C15_21  and  C21_32 
REMARK       I    between atoms: C16_22  and  N3_24 
REMARK    8  A    between atoms: N3_24  and  C17_25 
REMARK    9  A    between atoms: C17_25  and  C18_26 
REMARK   10  A    between atoms: C17_25  and  C19_28 
REMARK   11  A    between atoms: C18_26  and  S1_27 
REMARK   12  A    between atoms: C19_28  and  C20_29 
REMARK   13  A    between atoms: C20_29  and  O6_31 
ROOT
HETATM    1  C1  UNL     1       7.777  12.459  22.564  1.00  0.00     0.015 C 
HETATM    2  C2  UNL     1       6.634  12.147  22.357  1.00  0.00    -0.078 C 
HETATM    3  C3  UNL     1       5.231  11.772  22.118  1.00  0.00     0.128 C 
HETATM    4  C4  UNL     1       4.649  10.999  23.298  1.00  0.00     0.052 C 
HETATM    5  C5  UNL     1       3.138  11.029  23.047  1.00  0.00     0.010 C 
HETATM    6  C6  UNL     1       2.846  12.317  22.237  1.00  0.00     0.002 C 
HETATM    7  C7  UNL     1       1.841  12.156  21.057  1.00  0.00    -0.004 C 
HETATM    8  C8  UNL     1       1.843  10.799  20.322  1.00  0.00     0.010 C 
HETATM    9  C9  UNL     1       0.739  10.709  19.268  1.00  0.00     0.035 C 
HETATM   10  C10 UNL     1       0.673  11.880  18.322  1.00  0.00    -0.069 C 
HETATM   11  C11 UNL     1       0.376  11.660  17.026  1.00  0.00     0.030 C 
HETATM   12  C12 UNL     1       0.108  12.778  16.072  1.00  0.00     0.032 C 
HETATM   13  N1  UNL     1      -0.253  12.646  14.832  1.00  0.00    -0.271 N 
ATOM     14  H1  UNL     1      -0.412  13.430  14.199  1.00  0.00     0.194 HD
HETATM   15  C24 UNL     1       0.190  14.195  16.608  1.00  0.00     0.060 C 
HETATM   16  C25 UNL     1       1.147  14.284  17.784  1.00  0.00     0.020 C 
HETATM   17  C26 UNL     1       0.841  13.271  18.923  1.00  0.00    -0.016 C 
HETATM   18  C27 UNL     1      -0.511  13.671  19.575  1.00  0.00     0.020 C 
HETATM   19  C28 UNL     1       1.963  13.322  20.038  1.00  0.00     0.002 C 
HETATM   20  C29 UNL     1       3.413  13.344  19.520  1.00  0.00     0.007 C 
HETATM   21  C30 UNL     1       4.386  13.723  20.624  1.00  0.00     0.014 C 
HETATM   22  C31 UNL     1       4.246  12.972  21.964  1.00  0.00     0.003 C 
HETATM   23  C32 UNL     1       4.495  14.035  23.083  1.00  0.00     0.020 C 
ENDROOT
BRANCH   3  24
HETATM   24  O1  UNL     1       5.176  10.926  20.969  1.00  0.00    -0.377 OA
HETATM   25  H2  UNL     1       5.687  11.362  20.264  1.00  0.00     0.211 HD
ENDBRANCH   3  24
BRANCH  13  26
HETATM   26  O2  UNL     1      -0.398  11.300  14.461  1.00  0.00    -0.271 OA
BRANCH  26  27
HETATM   27  C13 UNL     1      -1.768  10.941  14.581  1.00  0.00     0.303 C 
BRANCH  27  28
HETATM   28  C14 UNL     1      -1.883   9.491  15.023  1.00  0.00     0.244 C 
HETATM   29  O3  UNL     1      -1.376   9.076  16.065  1.00  0.00    -0.271 OA
HETATM   30  N2  UNL     1      -2.648   8.691  14.186  1.00  0.00    -0.346 N 
HETATM   31  H16 UNL     1      -3.311   9.192  13.604  1.00  0.00     0.163 HD
BRANCH  30  32
HETATM   32  C15 UNL     1      -3.073   7.379  14.663  1.00  0.00     0.180 C 
BRANCH  32  33
HETATM   33  C16 UNL     1      -4.613   7.306  14.563  1.00  0.00     0.241 C 
HETATM   34  O4  UNL     1      -5.318   8.310  14.488  1.00  0.00    -0.271 OA
HETATM   35  N3  UNL     1      -5.119   6.026  14.509  1.00  0.00    -0.353 N 
HETATM   36  H18 UNL     1      -4.476   5.242  14.431  1.00  0.00     0.163 HD
BRANCH  35  37
HETATM   37  C17 UNL     1      -6.540   5.749  14.308  1.00  0.00     0.103 C 
BRANCH  37  38
HETATM   38  C18 UNL     1      -7.326   5.805  15.634  1.00  0.00     0.096 C 
BRANCH  38  39
HETATM   39  S1  UNL     1      -8.844   6.822  15.581  1.00  0.00    -0.180 SA
HETATM   40  H22 UNL     1      -9.313   6.452  16.784  1.00  0.00     0.101 HD
ENDBRANCH  38  39
ENDBRANCH  37  38
BRANCH  37  41
HETATM   41  C19 UNL     1      -6.784   4.486  13.477  1.00  0.00     0.136 C 
BRANCH  41  42
HETATM   42  C20 UNL     1      -8.107   4.449  12.777  1.00  0.00     0.141 C 
HETATM   43  O5  UNL     1      -8.562   5.327  12.060  1.00  0.00    -0.650 OA
BRANCH  42  44
HETATM   44  O6  UNL     1      -8.804   3.317  13.007  1.00  0.00    -0.776 OA
HETATM   45  H25 UNL     1      -9.631   3.443  12.496  1.00  0.00     0.167 HD
ENDBRANCH  42  44
ENDBRANCH  41  42
ENDBRANCH  37  41
ENDBRANCH  35  37
ENDBRANCH  32  33
BRANCH  32  46
HETATM   46  C21 UNL     1      -2.410   6.206  13.906  1.00  0.00     0.009 C 
HETATM   47  C22 UNL     1      -1.849   6.592  12.534  1.00  0.00     0.012 C 
HETATM   48  C23 UNL     1      -1.313   5.558  14.751  1.00  0.00     0.012 C 
ENDBRANCH  32  46
ENDBRANCH  30  32
ENDBRANCH  27  28
ENDBRANCH  26  27
ENDBRANCH  13  26
TORSDOF 13
ENDMDL
MODEL 9
REMARK minimizedAffinity -7.21159554
REMARK CNNscore 0.151437193
REMARK CNNaffinity 5.76289225
REMARK  13 active torsions:
REMARK  status: ('A' for Active; 'I' for Inactive)
REMARK    1  A    between atoms: C3_3  and  O1_4 
REMARK    2  A    between atoms: N1_14  and  O2_16 
REMARK    3  A    between atoms: O2_16  and  C13_17 
REMARK    4  A    between atoms: C13_17  and  C14_18 
REMARK       I    between atoms: C14_18  and  N2_20 
REMARK    5  A    between atoms: N2_20  and  C15_21 
REMARK    6  A    between atoms: C15_21  and  C16_22 
REMARK    7  A    between atoms: C15_21  and  C21_32 
REMARK       I    between atoms: C16_22  and  N3_24 
REMARK    8  A    between atoms: N3_24  and  C17_25 
REMARK    9  A    between atoms: C17_25  and  C18_26 
REMARK   10  A    between atoms: C17_25  and  C19_28 
REMARK   11  A    between atoms: C18_26  and  S1_27 
REMARK   12  A    between atoms: C19_28  and  C20_29 
REMARK   13  A    between atoms: C20_29  and  O6_31 
ROOT
HETATM    1  C1  UNL     1      -3.671   4.282  13.405  1.00  0.00     0.015 C 
HETATM    2  C2  UNL     1      -2.913   5.215  13.434  1.00  0.00    -0.078 C 
HETATM    3  C3  UNL     1      -1.993   6.364  13.458  1.00  0.00     0.128 C 
HETATM    4  C4  UNL     1      -1.367   6.607  12.087  1.00  0.00     0.052 C 
HETATM    5  C5  UNL     1      -0.765   8.011  12.203  1.00  0.00     0.010 C 
HETATM    6  C6  UNL     1      -1.612   8.775  13.251  1.00  0.00     0.002 C 
HETATM    7  C7  UNL     1      -0.807   9.635  14.270  1.00  0.00    -0.004 C 
HETATM    8  C8  UNL     1       0.584   9.105  14.681  1.00  0.00     0.010 C 
HETATM    9  C9  UNL     1       1.333  10.084  15.585  1.00  0.00     0.035 C 
HETATM   10  C10 UNL     1       0.537  10.593  16.759  1.00  0.00    -0.069 C 
HETATM   11  C11 UNL     1       1.157  10.778  17.941  1.00  0.00     0.030 C 
HETATM   12  C12 UNL     1       0.487  11.453  19.093  1.00  0.00     0.032 C 
HETATM   13  N1  UNL     1       1.040  11.729  20.235  1.00  0.00    -0.271 N 
ATOM     14  H1  UNL     1       0.550  12.176  21.011  1.00  0.00     0.194 HD
HETATM   15  C24 UNL     1      -0.940  11.926  18.897  1.00  0.00     0.060 C 
HETATM   16  C25 UNL     1      -1.664  11.083  17.861  1.00  0.00     0.020 C 
HETATM   17  C26 UNL     1      -0.916  10.978  16.502  1.00  0.00    -0.016 C 
HETATM   18  C27 UNL     1      -0.922  12.382  15.837  1.00  0.00     0.020 C 
HETATM   19  C28 UNL     1      -1.651   9.968  15.531  1.00  0.00     0.002 C 
HETATM   20  C29 UNL     1      -2.091   8.637  16.168  1.00  0.00     0.007 C 
HETATM   21  C30 UNL     1      -3.062   7.890  15.268  1.00  0.00     0.014 C 
HETATM   22  C31 UNL     1      -2.659   7.735  13.787  1.00  0.00     0.003 C 
HETATM   23  C32 UNL     1      -3.974   7.920  12.961  1.00  0.00     0.020 C 
ENDROOT
BRANCH   3  24
HETATM   24  O1  UNL     1      -0.939   6.083  14.378  1.00  0.00    -0.377 OA
HETATM   25  H2  UNL     1      -1.351   5.777  15.206  1.00  0.00     0.211 HD
ENDBRANCH   3  24
BRANCH  13  26
HETATM   26  O2  UNL     1       2.388  11.342  20.281  1.00  0.00    -0.271 OA
BRANCH  26  27
HETATM   27  C13 UNL     1       3.107  12.290  21.058  1.00  0.00     0.303 C 
BRANCH  27  28
HETATM   28  C14 UNL     1       4.442  11.701  21.483  1.00  0.00     0.244 C 
HETATM   29  O3  UNL     1       4.618  10.490  21.616  1.00  0.00    -0.271 OA
HETATM   30  N2  UNL     1       5.456  12.633  21.655  1.00  0.00    -0.346 N 
HETATM   31  H16 UNL     1       5.320  13.509  21.161  1.00  0.00     0.163 HD
BRANCH  30  32
HETATM   32  C15 UNL     1       6.833  12.162  21.763  1.00  0.00     0.180 C 
BRANCH  32  33
HETATM   33  C16 UNL     1       7.566  12.509  20.447  1.00  0.00     0.241 C 
HETATM   34  O4  UNL     1       7.509  13.626  19.934  1.00  0.00    -0.271 OA
HETATM   35  N3  UNL     1       8.328  11.484  19.934  1.00  0.00    -0.353 N 
HETATM   36  H18 UNL     1       8.448  10.635  20.479  1.00  0.00     0.163 HD
BRANCH  35  37
HETATM   37  C17 UNL     1       9.179  11.649  18.756  1.00  0.00     0.103 C 
BRANCH  37  38
HETATM   38  C18 UNL     1       8.346  11.872  17.477  1.00  0.00     0.096 C 
BRANCH  38  39
HETATM   39  S1  UNL     1       9.329  12.177  15.966  1.00  0.00    -0.180 SA
HETATM   40  H22 UNL     1       8.302  12.105  15.104  1.00  0.00     0.101 HD
ENDBRANCH  38  39
ENDBRANCH  37  38
BRANCH  37  41
HETATM   41  C19 UNL     1      10.244  10.556  18.639  1.00  0.00     0.136 C 
BRANCH  41  42
HETATM   42  C20 UNL     1      11.557  10.897  19.273  1.00  0.00     0.141 C 
HETATM   43  O5  UNL     1      11.708  11.454  20.349  1.00  0.00    -0.650 OA
BRANCH  42  44
HETATM   44  O6  UNL     1      12.622  10.529  18.530  1.00  0.00    -0.776 OA
HETATM   45  H25 UNL     1      13.391  10.819  19.065  1.00  0.00     0.167 HD
ENDBRANCH  42  44
ENDBRANCH  41  42
ENDBRANCH  37  41
ENDBRANCH  35  37
ENDBRANCH  32  33
BRANCH  32  46
HETATM   46  C21 UNL     1       7.584  12.735  22.985  1.00  0.00     0.009 C 
HETATM   47  C22 UNL     1       9.107  12.743  22.830  1.00  0.00     0.012 C 
HETATM   48  C23 UNL     1       7.090  14.142  23.322  1.00  0.00     0.012 C 
ENDBRANCH  32  46
ENDBRANCH  30  32
ENDBRANCH  27  28
ENDBRANCH  26  27
ENDBRANCH  13  26
TORSDOF 13
ENDMDL
