MODEL 1
REMARK minimizedAffinity -9.7584095
REMARK  9 active torsions:
REMARK  status: ('A' for Active; 'I' for Inactive)
REMARK    1  A    between atoms: C2_2  and  C17_19 
REMARK    2  A    between atoms: C3_3  and  C4_4 
REMARK    3  A    between atoms: C4_4  and  C5_5 
REMARK    4  A    between atoms: C5_5  and  C6_6 
REMARK    5  A    between atoms: C12_12  and  O1_13 
REMARK    6  A    between atoms: C17_19  and  C18_20 
REMARK    7  A    between atoms: C18_20  and  C19_21 
REMARK    8  A    between atoms: C23_25  and  C24_26 
REMARK    9  A    between atoms: C24_26  and  O3_29 
ROOT
HETATM    1  C1  UNL     1      -2.816  48.588 -24.344  1.00  0.00     0.043 C 
HETATM    2  C2  UNL     1      -3.054  49.254 -25.673  1.00  0.00    -0.087 C 
HETATM    3  C3  UNL     1      -3.111  50.590 -25.857  1.00  0.00    -0.024 C 
ENDROOT
BRANCH   2   4
HETATM    4  C17 UNL     1      -3.300  48.314 -26.844  1.00  0.00     0.037 C 
BRANCH   4   5
HETATM    5  C18 UNL     1      -4.374  48.794 -27.833  1.00  0.00     0.032 C 
BRANCH   5   6
HETATM    6  C19 UNL     1      -5.553  47.865 -27.973  1.00  0.00    -0.013 C 
HETATM    7  C20 UNL     1      -6.006  47.233 -29.077  1.00  0.00     0.013 C 
HETATM    8  C21 UNL     1      -7.170  46.297 -28.989  1.00  0.00     0.047 C 
HETATM    9  C27 UNL     1      -5.379  47.422 -30.412  1.00  0.00     0.289 C 
HETATM   10  C22 UNL     1      -6.890  45.044 -29.795  1.00  0.00     0.040 C 
HETATM   11  C23 UNL     1      -6.645  45.452 -31.242  1.00  0.00     0.166 C 
HETATM   12  O4  UNL     1      -5.582  46.437 -31.320  1.00  0.00    -0.309 OA
HETATM   13  O5  UNL     1      -4.684  48.389 -30.695  1.00  0.00    -0.260 OA
BRANCH  11  14
HETATM   14  C24 UNL     1      -6.250  44.268 -32.169  1.00  0.00     0.077 C 
HETATM   15  C25 UNL     1      -6.641  42.921 -31.544  1.00  0.00     0.048 C 
HETATM   16  C26 UNL     1      -4.753  44.260 -32.495  1.00  0.00     0.048 C 
BRANCH  14  17
HETATM   17  O3  UNL     1      -6.956  44.386 -33.411  1.00  0.00    -0.388 OA
HETATM   18  H36 UNL     1      -7.906  44.389 -33.191  1.00  0.00     0.210 HD
ENDBRANCH  14  17
ENDBRANCH  11  14
ENDBRANCH   5   6
ENDBRANCH   4   5
ENDBRANCH   2   4
BRANCH   3  19
HETATM   19  C4  UNL     1      -2.901  51.676 -24.836  1.00  0.00     0.030 C 
BRANCH  19  20
HETATM   20  C5  UNL     1      -1.772  52.622 -25.272  1.00  0.00     0.046 C 
BRANCH  20  21
HETATM   21  C6  UNL     1      -0.352  52.152 -24.871  1.00  0.00     0.082 C 
HETATM   22  C7  UNL     1       0.248  51.211 -25.926  1.00  0.00     0.051 C 
HETATM   23  C8  UNL     1       0.547  53.366 -24.762  1.00  0.00     0.012 C 
HETATM   24  C9  UNL     1       1.023  53.821 -23.599  1.00  0.00     0.013 C 
HETATM   25  C10 UNL     1       0.644  53.114 -22.385  1.00  0.00     0.000 A 
HETATM   26  C11 UNL     1       1.017  53.612 -21.131  1.00  0.00     0.050 A 
HETATM   27  C16 UNL     1      -0.083  51.920 -22.472  1.00  0.00     0.086 A 
HETATM   28  C12 UNL     1       0.660  52.913 -19.982  1.00  0.00     0.067 A 
HETATM   29  C13 UNL     1      -0.058  51.725 -20.062  1.00  0.00     0.046 A 
HETATM   30  C14 UNL     1      -0.434  51.211 -21.310  1.00  0.00    -0.025 A 
HETATM   31  C15 UNL     1      -1.208  49.927 -21.395  1.00  0.00     0.051 C 
HETATM   32  O2  UNL     1      -0.459  51.366 -23.666  1.00  0.00    -0.335 OA
BRANCH  28  33
HETATM   33  O1  UNL     1       1.002  53.364 -18.740  1.00  0.00    -0.361 OA
HETATM   34  H15 UNL     1       1.494  54.197 -18.834  1.00  0.00     0.217 HD
ENDBRANCH  28  33
ENDBRANCH  20  21
ENDBRANCH  19  20
ENDBRANCH   3  19
TORSDOF 9
ENDMDL
MODEL 2
REMARK minimizedAffinity -9.74750996
REMARK  9 active torsions:
REMARK  status: ('A' for Active; 'I' for Inactive)
REMARK    1  A    between atoms: C2_2  and  C17_19 
REMARK    2  A    between atoms: C3_3  and  C4_4 
REMARK    3  A    between atoms: C4_4  and  C5_5 
REMARK    4  A    between atoms: C5_5  and  C6_6 
REMARK    5  A    between atoms: C12_12  and  O1_13 
REMARK    6  A    between atoms: C17_19  and  C18_20 
REMARK    7  A    between atoms: C18_20  and  C19_21 
REMARK    8  A    between atoms: C23_25  and  C24_26 
REMARK    9  A    between atoms: C24_26  and  O3_29 
ROOT
HETATM    1  C1  UNL     1      -4.640  50.906 -24.419  1.00  0.00     0.043 C 
HETATM    2  C2  UNL     1      -4.618  49.644 -23.597  1.00  0.00    -0.087 C 
HETATM    3  C3  UNL     1      -4.209  49.579 -22.313  1.00  0.00    -0.024 C 
ENDROOT
BRANCH   2   4
HETATM    4  C17 UNL     1      -5.038  48.377 -24.327  1.00  0.00     0.037 C 
BRANCH   4   5
HETATM    5  C18 UNL     1      -4.604  48.315 -25.799  1.00  0.00     0.032 C 
BRANCH   5   6
HETATM    6  C19 UNL     1      -5.692  47.888 -26.752  1.00  0.00    -0.013 C 
HETATM    7  C20 UNL     1      -5.753  48.047 -28.091  1.00  0.00     0.013 C 
HETATM    8  C21 UNL     1      -6.907  47.491 -28.867  1.00  0.00     0.047 C 
HETATM    9  C27 UNL     1      -4.696  48.759 -28.856  1.00  0.00     0.289 C 
HETATM   10  C22 UNL     1      -6.407  46.820 -30.130  1.00  0.00     0.040 C 
HETATM   11  C23 UNL     1      -5.661  47.857 -30.959  1.00  0.00     0.166 C 
HETATM   12  O4  UNL     1      -4.603  48.470 -30.176  1.00  0.00    -0.309 OA
HETATM   13  O5  UNL     1      -3.913  49.547 -28.340  1.00  0.00    -0.260 OA
BRANCH  11  14
HETATM   14  C24 UNL     1      -5.008  47.279 -32.246  1.00  0.00     0.077 C 
HETATM   15  C25 UNL     1      -5.999  47.285 -33.420  1.00  0.00     0.048 C 
HETATM   16  C26 UNL     1      -4.475  45.858 -32.040  1.00  0.00     0.048 C 
BRANCH  14  17
HETATM   17  O3  UNL     1      -3.895  48.101 -32.621  1.00  0.00    -0.388 OA
HETATM   18  H36 UNL     1      -4.246  49.003 -32.749  1.00  0.00     0.210 HD
ENDBRANCH  14  17
ENDBRANCH  11  14
ENDBRANCH   5   6
ENDBRANCH   4   5
ENDBRANCH   2   4
BRANCH   3  19
HETATM   19  C4  UNL     1      -3.757  50.708 -21.425  1.00  0.00     0.030 C 
BRANCH  19  20
HETATM   20  C5  UNL     1      -2.905  50.179 -20.262  1.00  0.00     0.046 C 
BRANCH  20  21
HETATM   21  C6  UNL     1      -1.442  49.843 -20.642  1.00  0.00     0.082 C 
HETATM   22  C7  UNL     1      -1.079  48.400 -20.262  1.00  0.00     0.051 C 
HETATM   23  C8  UNL     1      -1.287  49.983 -22.143  1.00  0.00     0.012 C 
HETATM   24  C9  UNL     1      -0.578  50.960 -22.716  1.00  0.00     0.013 C 
HETATM   25  C10 UNL     1       0.063  51.935 -21.847  1.00  0.00     0.000 A 
HETATM   26  C11 UNL     1       0.722  53.043 -22.394  1.00  0.00     0.050 A 
HETATM   27  C16 UNL     1       0.037  51.755 -20.459  1.00  0.00     0.086 A 
HETATM   28  C12 UNL     1       1.344  53.957 -21.548  1.00  0.00     0.067 A 
HETATM   29  C13 UNL     1       1.325  53.781 -20.168  1.00  0.00     0.046 A 
HETATM   30  C14 UNL     1       0.675  52.674 -19.608  1.00  0.00    -0.025 A 
HETATM   31  C15 UNL     1       0.657  52.486 -18.118  1.00  0.00     0.051 C 
HETATM   32  O2  UNL     1      -0.568  50.683 -19.861  1.00  0.00    -0.335 OA
BRANCH  28  33
HETATM   33  O1  UNL     1       1.994  55.051 -22.039  1.00  0.00    -0.361 OA
HETATM   34  H15 UNL     1       1.926  55.048 -23.008  1.00  0.00     0.217 HD
ENDBRANCH  28  33
ENDBRANCH  20  21
ENDBRANCH  19  20
ENDBRANCH   3  19
TORSDOF 9
ENDMDL
MODEL 3
REMARK minimizedAffinity -9.6553669
REMARK  9 active torsions:
REMARK  status: ('A' for Active; 'I' for Inactive)
REMARK    1  A    between atoms: C2_2  and  C17_19 
REMARK    2  A    between atoms: C3_3  and  C4_4 
REMARK    3  A    between atoms: C4_4  and  C5_5 
REMARK    4  A    between atoms: C5_5  and  C6_6 
REMARK    5  A    between atoms: C12_12  and  O1_13 
REMARK    6  A    between atoms: C17_19  and  C18_20 
REMARK    7  A    between atoms: C18_20  and  C19_21 
REMARK    8  A    between atoms: C23_25  and  C24_26 
REMARK    9  A    between atoms: C24_26  and  O3_29 
ROOT
HETATM    1  C1  UNL     1      -3.266  48.725 -23.157  1.00  0.00     0.043 C 
HETATM    2  C2  UNL     1      -4.119  49.321 -24.245  1.00  0.00    -0.087 C 
HETATM    3  C3  UNL     1      -4.200  50.642 -24.512  1.00  0.00    -0.024 C 
ENDROOT
BRANCH   2   4
HETATM    4  C17 UNL     1      -4.972  48.334 -25.028  1.00  0.00     0.037 C 
BRANCH   4   5
HETATM    5  C18 UNL     1      -4.533  48.126 -26.485  1.00  0.00     0.032 C 
BRANCH   5   6
HETATM    6  C19 UNL     1      -5.658  47.809 -27.437  1.00  0.00    -0.013 C 
HETATM    7  C20 UNL     1      -5.759  48.095 -28.753  1.00  0.00     0.013 C 
HETATM    8  C21 UNL     1      -6.947  47.633 -29.538  1.00  0.00     0.047 C 
HETATM    9  C27 UNL     1      -4.712  48.859 -29.482  1.00  0.00     0.289 C 
HETATM   10  C22 UNL     1      -6.500  47.076 -30.875  1.00  0.00     0.040 C 
HETATM   11  C23 UNL     1      -5.761  48.174 -31.627  1.00  0.00     0.166 C 
HETATM   12  O4  UNL     1      -4.667  48.693 -30.825  1.00  0.00    -0.309 OA
HETATM   13  O5  UNL     1      -3.898  49.581 -28.921  1.00  0.00    -0.260 OA
BRANCH  11  14
HETATM   14  C24 UNL     1      -5.161  47.709 -32.984  1.00  0.00     0.077 C 
HETATM   15  C25 UNL     1      -6.254  47.568 -34.053  1.00  0.00     0.048 C 
HETATM   16  C26 UNL     1      -4.398  46.387 -32.860  1.00  0.00     0.048 C 
BRANCH  14  17
HETATM   17  O3  UNL     1      -4.230  48.696 -33.450  1.00  0.00    -0.388 OA
HETATM   18  H36 UNL     1      -4.726  49.533 -33.525  1.00  0.00     0.210 HD
ENDBRANCH  14  17
ENDBRANCH  11  14
ENDBRANCH   5   6
ENDBRANCH   4   5
ENDBRANCH   2   4
BRANCH   3  19
HETATM   19  C4  UNL     1      -3.448  51.769 -23.854  1.00  0.00     0.030 C 
BRANCH  19  20
HETATM   20  C5  UNL     1      -2.471  52.421 -24.843  1.00  0.00     0.046 C 
BRANCH  20  21
HETATM   21  C6  UNL     1      -1.010  51.923 -24.720  1.00  0.00     0.082 C 
HETATM   22  C7  UNL     1      -0.715  50.792 -25.716  1.00  0.00     0.051 C 
HETATM   23  C8  UNL     1      -0.078  53.077 -25.033  1.00  0.00     0.012 C 
HETATM   24  C9  UNL     1       0.682  53.673 -24.110  1.00  0.00     0.013 C 
HETATM   25  C10 UNL     1       0.595  53.190 -22.740  1.00  0.00     0.000 A 
HETATM   26  C11 UNL     1       1.280  53.850 -21.713  1.00  0.00     0.050 A 
HETATM   27  C16 UNL     1      -0.164  52.049 -22.451  1.00  0.00     0.086 A 
HETATM   28  C12 UNL     1       1.198  53.364 -20.412  1.00  0.00     0.067 A 
HETATM   29  C13 UNL     1       0.449  52.229 -20.118  1.00  0.00     0.046 A 
HETATM   30  C14 UNL     1      -0.236  51.554 -21.137  1.00  0.00    -0.025 A 
HETATM   31  C15 UNL     1      -1.042  50.328 -20.819  1.00  0.00     0.051 C 
HETATM   32  O2  UNL     1      -0.838  51.344 -23.411  1.00  0.00    -0.335 OA
BRANCH  28  33
HETATM   33  O1  UNL     1       1.848  53.978 -19.381  1.00  0.00    -0.361 OA
HETATM   34  H15 UNL     1       2.324  54.751 -19.727  1.00  0.00     0.217 HD
ENDBRANCH  28  33
ENDBRANCH  20  21
ENDBRANCH  19  20
ENDBRANCH   3  19
TORSDOF 9
ENDMDL
MODEL 4
REMARK minimizedAffinity -9.56921673
REMARK  9 active torsions:
REMARK  status: ('A' for Active; 'I' for Inactive)
REMARK    1  A    between atoms: C2_2  and  C17_19 
REMARK    2  A    between atoms: C3_3  and  C4_4 
REMARK    3  A    between atoms: C4_4  and  C5_5 
REMARK    4  A    between atoms: C5_5  and  C6_6 
REMARK    5  A    between atoms: C12_12  and  O1_13 
REMARK    6  A    between atoms: C17_19  and  C18_20 
REMARK    7  A    between atoms: C18_20  and  C19_21 
REMARK    8  A    between atoms: C23_25  and  C24_26 
REMARK    9  A    between atoms: C24_26  and  O3_29 
ROOT
HETATM    1  C1  UNL     1      -5.165  48.472 -25.060  1.00  0.00     0.043 C 
HETATM    2  C2  UNL     1      -3.659  48.464 -25.031  1.00  0.00    -0.087 C 
HETATM    3  C3  UNL     1      -2.919  48.461 -23.903  1.00  0.00    -0.024 C 
ENDROOT
BRANCH   2   4
HETATM    4  C17 UNL     1      -2.975  48.524 -26.389  1.00  0.00     0.037 C 
BRANCH   4   5
HETATM    5  C18 UNL     1      -3.899  48.915 -27.552  1.00  0.00     0.032 C 
BRANCH   5   6
HETATM    6  C19 UNL     1      -5.089  48.007 -27.736  1.00  0.00    -0.013 C 
HETATM    7  C20 UNL     1      -5.731  47.674 -28.876  1.00  0.00     0.013 C 
HETATM    8  C21 UNL     1      -6.866  46.698 -28.848  1.00  0.00     0.047 C 
HETATM    9  C27 UNL     1      -5.346  48.238 -30.197  1.00  0.00     0.289 C 
HETATM   10  C22 UNL     1      -6.737  45.719 -29.998  1.00  0.00     0.040 C 
HETATM   11  C23 UNL     1      -6.747  46.508 -31.300  1.00  0.00     0.166 C 
HETATM   12  O4  UNL     1      -5.709  47.523 -31.289  1.00  0.00    -0.309 OA
HETATM   13  O5  UNL     1      -4.707  49.274 -30.322  1.00  0.00    -0.260 OA
BRANCH  11  14
HETATM   14  C24 UNL     1      -6.525  45.632 -32.565  1.00  0.00     0.077 C 
HETATM   15  C25 UNL     1      -7.855  45.331 -33.271  1.00  0.00     0.048 C 
HETATM   16  C26 UNL     1      -5.813  44.315 -32.243  1.00  0.00     0.048 C 
BRANCH  14  17
HETATM   17  O3  UNL     1      -5.699  46.346 -33.495  1.00  0.00    -0.388 OA
HETATM   18  H36 UNL     1      -6.162  47.182 -33.693  1.00  0.00     0.210 HD
ENDBRANCH  14  17
ENDBRANCH  11  14
ENDBRANCH   5   6
ENDBRANCH   4   5
ENDBRANCH   2   4
BRANCH   3  19
HETATM   19  C4  UNL     1      -3.402  48.408 -22.477  1.00  0.00     0.030 C 
BRANCH  19  20
HETATM   20  C5  UNL     1      -2.244  48.666 -21.501  1.00  0.00     0.046 C 
BRANCH  20  21
HETATM   21  C6  UNL     1      -2.132  50.132 -21.015  1.00  0.00     0.082 C 
HETATM   22  C7  UNL     1      -3.083  50.410 -19.841  1.00  0.00     0.051 C 
HETATM   23  C8  UNL     1      -0.715  50.375 -20.535  1.00  0.00     0.012 C 
HETATM   24  C9  UNL     1       0.152  51.157 -21.185  1.00  0.00     0.013 C 
HETATM   25  C10 UNL     1      -0.294  51.791 -22.417  1.00  0.00     0.000 A 
HETATM   26  C11 UNL     1       0.605  52.526 -23.198  1.00  0.00     0.050 A 
HETATM   27  C16 UNL     1      -1.633  51.680 -22.812  1.00  0.00     0.086 A 
HETATM   28  C12 UNL     1       0.156  53.140 -24.365  1.00  0.00     0.067 A 
HETATM   29  C13 UNL     1      -1.173  53.037 -24.761  1.00  0.00     0.046 A 
HETATM   30  C14 UNL     1      -2.085  52.310 -23.985  1.00  0.00    -0.025 A 
HETATM   31  C15 UNL     1      -3.520  52.201 -24.413  1.00  0.00     0.051 C 
HETATM   32  O2  UNL     1      -2.568  50.997 -22.083  1.00  0.00    -0.335 OA
BRANCH  28  33
HETATM   33  O1  UNL     1       0.999  53.864 -25.156  1.00  0.00    -0.361 OA
HETATM   34  H15 UNL     1       1.888  53.849 -24.764  1.00  0.00     0.217 HD
ENDBRANCH  28  33
ENDBRANCH  20  21
ENDBRANCH  19  20
ENDBRANCH   3  19
TORSDOF 9
ENDMDL
MODEL 5
REMARK minimizedAffinity -9.55547428
REMARK  9 active torsions:
REMARK  status: ('A' for Active; 'I' for Inactive)
REMARK    1  A    between atoms: C2_2  and  C17_19 
REMARK    2  A    between atoms: C3_3  and  C4_4 
REMARK    3  A    between atoms: C4_4  and  C5_5 
REMARK    4  A    between atoms: C5_5  and  C6_6 
REMARK    5  A    between atoms: C12_12  and  O1_13 
REMARK    6  A    between atoms: C17_19  and  C18_20 
REMARK    7  A    between atoms: C18_20  and  C19_21 
REMARK    8  A    between atoms: C23_25  and  C24_26 
REMARK    9  A    between atoms: C24_26  and  O3_29 
ROOT
HETATM    1  C1  UNL     1      -5.332  48.030 -23.079  1.00  0.00     0.043 C 
HETATM    2  C2  UNL     1      -5.182  48.367 -24.539  1.00  0.00    -0.087 C 
HETATM    3  C3  UNL     1      -4.033  48.789 -25.109  1.00  0.00    -0.024 C 
ENDROOT
BRANCH   2   4
HETATM    4  C17 UNL     1      -6.451  48.267 -25.372  1.00  0.00     0.037 C 
BRANCH   4   5
HETATM    5  C18 UNL     1      -6.382  47.250 -26.520  1.00  0.00     0.032 C 
BRANCH   5   6
HETATM    6  C19 UNL     1      -7.096  47.679 -27.778  1.00  0.00    -0.013 C 
HETATM    7  C20 UNL     1      -6.569  48.035 -28.969  1.00  0.00     0.013 C 
HETATM    8  C21 UNL     1      -7.465  48.374 -30.120  1.00  0.00     0.047 C 
HETATM    9  C27 UNL     1      -5.102  48.099 -29.201  1.00  0.00     0.289 C 
HETATM   10  C22 UNL     1      -6.945  47.728 -31.389  1.00  0.00     0.040 C 
HETATM   11  C23 UNL     1      -5.534  48.242 -31.643  1.00  0.00     0.166 C 
HETATM   12  O4  UNL     1      -4.688  48.004 -30.488  1.00  0.00    -0.309 OA
HETATM   13  O5  UNL     1      -4.285  48.199 -28.296  1.00  0.00    -0.260 OA
BRANCH  11  14
HETATM   14  C24 UNL     1      -4.839  47.585 -32.869  1.00  0.00     0.077 C 
HETATM   15  C25 UNL     1      -5.660  47.798 -34.150  1.00  0.00     0.048 C 
HETATM   16  C26 UNL     1      -4.596  46.087 -32.666  1.00  0.00     0.048 C 
BRANCH  14  17
HETATM   17  O3  UNL     1      -3.561  48.201 -33.072  1.00  0.00    -0.388 OA
HETATM   18  H36 UNL     1      -3.728  49.154 -33.201  1.00  0.00     0.210 HD
ENDBRANCH  14  17
ENDBRANCH  11  14
ENDBRANCH   5   6
ENDBRANCH   4   5
ENDBRANCH   2   4
BRANCH   3  19
HETATM   19  C4  UNL     1      -2.684  48.957 -24.461  1.00  0.00     0.030 C 
BRANCH  19  20
HETATM   20  C5  UNL     1      -2.759  49.958 -23.299  1.00  0.00     0.046 C 
BRANCH  20  21
HETATM   21  C6  UNL     1      -2.442  51.421 -23.693  1.00  0.00     0.082 C 
HETATM   22  C7  UNL     1      -3.653  52.339 -23.471  1.00  0.00     0.051 C 
HETATM   23  C8  UNL     1      -1.309  51.923 -22.821  1.00  0.00     0.012 C 
HETATM   24  C9  UNL     1      -0.081  52.165 -23.287  1.00  0.00     0.013 C 
HETATM   25  C10 UNL     1       0.172  51.921 -24.699  1.00  0.00     0.000 A 
HETATM   26  C11 UNL     1       1.467  52.047 -25.217  1.00  0.00     0.050 A 
HETATM   27  C16 UNL     1      -0.888  51.577 -25.547  1.00  0.00     0.086 A 
HETATM   28  C12 UNL     1       1.686  51.826 -26.574  1.00  0.00     0.067 A 
HETATM   29  C13 UNL     1       0.637  51.488 -27.422  1.00  0.00     0.046 A 
HETATM   30  C14 UNL     1      -0.664  51.365 -26.919  1.00  0.00    -0.025 A 
HETATM   31  C15 UNL     1      -1.795  51.001 -27.837  1.00  0.00     0.051 C 
HETATM   32  O2  UNL     1      -2.179  51.461 -25.111  1.00  0.00    -0.335 OA
BRANCH  28  33
HETATM   33  O1  UNL     1       2.932  51.937 -27.119  1.00  0.00    -0.361 OA
HETATM   34  H15 UNL     1       3.562  52.173 -26.418  1.00  0.00     0.217 HD
ENDBRANCH  28  33
ENDBRANCH  20  21
ENDBRANCH  19  20
ENDBRANCH   3  19
TORSDOF 9
ENDMDL
MODEL 6
REMARK minimizedAffinity -9.51460838
REMARK  9 active torsions:
REMARK  status: ('A' for Active; 'I' for Inactive)
REMARK    1  A    between atoms: C2_2  and  C17_19 
REMARK    2  A    between atoms: C3_3  and  C4_4 
REMARK    3  A    between atoms: C4_4  and  C5_5 
REMARK    4  A    between atoms: C5_5  and  C6_6 
REMARK    5  A    between atoms: C12_12  and  O1_13 
REMARK    6  A    between atoms: C17_19  and  C18_20 
REMARK    7  A    between atoms: C18_20  and  C19_21 
REMARK    8  A    between atoms: C23_25  and  C24_26 
REMARK    9  A    between atoms: C24_26  and  O3_29 
ROOT
HETATM    1  C1  UNL     1      -4.609  48.091 -22.983  1.00  0.00     0.043 C 
HETATM    2  C2  UNL     1      -3.250  48.483 -23.499  1.00  0.00    -0.087 C 
HETATM    3  C3  UNL     1      -2.230  48.900 -22.719  1.00  0.00    -0.024 C 
ENDROOT
BRANCH   2   4
HETATM    4  C17 UNL     1      -3.084  48.445 -25.011  1.00  0.00     0.037 C 
BRANCH   4   5
HETATM    5  C18 UNL     1      -4.361  48.771 -25.801  1.00  0.00     0.032 C 
BRANCH   5   6
HETATM    6  C19 UNL     1      -4.302  48.401 -27.262  1.00  0.00    -0.013 C 
HETATM    7  C20 UNL     1      -5.308  48.025 -28.080  1.00  0.00     0.013 C 
HETATM    8  C21 UNL     1      -5.043  47.756 -29.528  1.00  0.00     0.047 C 
HETATM    9  C27 UNL     1      -6.706  47.872 -27.600  1.00  0.00     0.289 C 
HETATM   10  C22 UNL     1      -6.130  48.382 -30.379  1.00  0.00     0.040 C 
HETATM   11  C23 UNL     1      -7.467  47.783 -29.963  1.00  0.00     0.166 C 
HETATM   12  O4  UNL     1      -7.681  47.955 -28.537  1.00  0.00    -0.309 OA
HETATM   13  O5  UNL     1      -6.996  47.711 -26.421  1.00  0.00    -0.260 OA
BRANCH  11  14
HETATM   14  C24 UNL     1      -8.689  48.408 -30.694  1.00  0.00     0.077 C 
HETATM   15  C25 UNL     1     -10.000  47.747 -30.244  1.00  0.00     0.048 C 
HETATM   16  C26 UNL     1      -8.567  48.310 -32.217  1.00  0.00     0.048 C 
BRANCH  14  17
HETATM   17  O3  UNL     1      -8.775  49.800 -30.362  1.00  0.00    -0.388 OA
HETATM   18  H36 UNL     1      -8.852  49.850 -29.390  1.00  0.00     0.210 HD
ENDBRANCH  14  17
ENDBRANCH  11  14
ENDBRANCH   5   6
ENDBRANCH   4   5
ENDBRANCH   2   4
BRANCH   3  19
HETATM   19  C4  UNL     1      -2.197  49.011 -21.218  1.00  0.00     0.030 C 
BRANCH  19  20
HETATM   20  C5  UNL     1      -0.877  49.641 -20.748  1.00  0.00     0.046 C 
BRANCH  20  21
HETATM   21  C6  UNL     1      -0.904  51.186 -20.652  1.00  0.00     0.082 C 
HETATM   22  C7  UNL     1      -1.569  51.657 -19.350  1.00  0.00     0.051 C 
HETATM   23  C8  UNL     1       0.523  51.696 -20.659  1.00  0.00     0.012 C 
HETATM   24  C9  UNL     1       1.053  52.369 -21.684  1.00  0.00     0.013 C 
HETATM   25  C10 UNL     1       0.213  52.609 -22.848  1.00  0.00     0.000 A 
HETATM   26  C11 UNL     1       0.749  53.207 -23.995  1.00  0.00     0.050 A 
HETATM   27  C16 UNL     1      -1.142  52.256 -22.814  1.00  0.00     0.086 A 
HETATM   28  C12 UNL     1      -0.074  53.443 -25.093  1.00  0.00     0.067 A 
HETATM   29  C13 UNL     1      -1.421  53.099 -25.064  1.00  0.00     0.046 A 
HETATM   30  C14 UNL     1      -1.972  52.506 -23.921  1.00  0.00    -0.025 A 
HETATM   31  C15 UNL     1      -3.427  52.136 -23.891  1.00  0.00     0.051 C 
HETATM   32  O2  UNL     1      -1.734  51.691 -21.717  1.00  0.00    -0.335 OA
BRANCH  28  33
HETATM   33  O1  UNL     1       0.408  54.021 -26.230  1.00  0.00    -0.361 OA
HETATM   34  H15 UNL     1       1.355  54.205 -26.112  1.00  0.00     0.217 HD
ENDBRANCH  28  33
ENDBRANCH  20  21
ENDBRANCH  19  20
ENDBRANCH   3  19
TORSDOF 9
ENDMDL
MODEL 7
REMARK minimizedAffinity -9.41404343
REMARK  9 active torsions:
REMARK  status: ('A' for Active; 'I' for Inactive)
REMARK    1  A    between atoms: C2_2  and  C17_19 
REMARK    2  A    between atoms: C3_3  and  C4_4 
REMARK    3  A    between atoms: C4_4  and  C5_5 
REMARK    4  A    between atoms: C5_5  and  C6_6 
REMARK    5  A    between atoms: C12_12  and  O1_13 
REMARK    6  A    between atoms: C17_19  and  C18_20 
REMARK    7  A    between atoms: C18_20  and  C19_21 
REMARK    8  A    between atoms: C23_25  and  C24_26 
REMARK    9  A    between atoms: C24_26  and  O3_29 
ROOT
HETATM    1  C1  UNL     1      -4.545  47.817 -22.290  1.00  0.00     0.043 C 
HETATM    2  C2  UNL     1      -5.066  49.205 -22.030  1.00  0.00    -0.087 C 
HETATM    3  C3  UNL     1      -4.876  49.888 -20.881  1.00  0.00    -0.024 C 
ENDROOT
BRANCH   2   4
HETATM    4  C17 UNL     1      -5.907  49.811 -23.143  1.00  0.00     0.037 C 
BRANCH   4   5
HETATM    5  C18 UNL     1      -5.144  50.768 -24.071  1.00  0.00     0.032 C 
BRANCH   5   6
HETATM    6  C19 UNL     1      -4.161  50.092 -24.993  1.00  0.00    -0.013 C 
HETATM    7  C20 UNL     1      -3.199  50.649 -25.759  1.00  0.00     0.013 C 
HETATM    8  C21 UNL     1      -2.279  49.785 -26.565  1.00  0.00     0.047 C 
HETATM    9  C27 UNL     1      -2.997  52.120 -25.835  1.00  0.00     0.289 C 
HETATM   10  C22 UNL     1      -0.854  50.287 -26.440  1.00  0.00     0.040 C 
HETATM   11  C23 UNL     1      -0.809  51.724 -26.942  1.00  0.00     0.166 C 
HETATM   12  O4  UNL     1      -1.772  52.544 -26.229  1.00  0.00    -0.309 OA
HETATM   13  O5  UNL     1      -3.862  52.931 -25.532  1.00  0.00    -0.260 OA
BRANCH  11  14
HETATM   14  C24 UNL     1       0.583  52.400 -26.782  1.00  0.00     0.077 C 
HETATM   15  C25 UNL     1       1.512  52.036 -27.949  1.00  0.00     0.048 C 
HETATM   16  C26 UNL     1       1.260  52.029 -25.460  1.00  0.00     0.048 C 
BRANCH  14  17
HETATM   17  O3  UNL     1       0.419  53.824 -26.793  1.00  0.00    -0.388 OA
HETATM   18  H36 UNL     1      -0.013  54.048 -27.639  1.00  0.00     0.210 HD
ENDBRANCH  14  17
ENDBRANCH  11  14
ENDBRANCH   5   6
ENDBRANCH   4   5
ENDBRANCH   2   4
BRANCH   3  19
HETATM   19  C4  UNL     1      -4.085  49.464 -19.671  1.00  0.00     0.030 C 
BRANCH  19  20
HETATM   20  C5  UNL     1      -2.938  50.448 -19.398  1.00  0.00     0.046 C 
BRANCH  20  21
HETATM   21  C6  UNL     1      -1.568  50.007 -19.969  1.00  0.00     0.082 C 
HETATM   22  C7  UNL     1      -1.246  48.552 -19.599  1.00  0.00     0.051 C 
HETATM   23  C8  UNL     1      -1.620  50.104 -21.481  1.00  0.00     0.012 C 
HETATM   24  C9  UNL     1      -0.939  51.019 -22.178  1.00  0.00     0.013 C 
HETATM   25  C10 UNL     1      -0.121  51.968 -21.438  1.00  0.00     0.000 A 
HETATM   26  C11 UNL     1       0.521  53.017 -22.106  1.00  0.00     0.050 A 
HETATM   27  C16 UNL     1       0.040  51.820 -20.055  1.00  0.00     0.086 A 
HETATM   28  C12 UNL     1       1.314  53.906 -21.384  1.00  0.00     0.067 A 
HETATM   29  C13 UNL     1       1.480  53.762 -20.011  1.00  0.00     0.046 A 
HETATM   30  C14 UNL     1       0.849  52.713 -19.331  1.00  0.00    -0.025 A 
HETATM   31  C15 UNL     1       1.031  52.559 -17.849  1.00  0.00     0.051 C 
HETATM   32  O2  UNL     1      -0.541  50.804 -19.346  1.00  0.00    -0.335 OA
BRANCH  28  33
HETATM   33  O1  UNL     1       1.956  54.943 -21.996  1.00  0.00    -0.361 OA
HETATM   34  H15 UNL     1       1.750  54.924 -22.945  1.00  0.00     0.217 HD
ENDBRANCH  28  33
ENDBRANCH  20  21
ENDBRANCH  19  20
ENDBRANCH   3  19
TORSDOF 9
ENDMDL
MODEL 8
REMARK minimizedAffinity -9.28411484
REMARK  9 active torsions:
REMARK  status: ('A' for Active; 'I' for Inactive)
REMARK    1  A    between atoms: C2_2  and  C17_19 
REMARK    2  A    between atoms: C3_3  and  C4_4 
REMARK    3  A    between atoms: C4_4  and  C5_5 
REMARK    4  A    between atoms: C5_5  and  C6_6 
REMARK    5  A    between atoms: C12_12  and  O1_13 
REMARK    6  A    between atoms: C17_19  and  C18_20 
REMARK    7  A    between atoms: C18_20  and  C19_21 
REMARK    8  A    between atoms: C23_25  and  C24_26 
REMARK    9  A    between atoms: C24_26  and  O3_29 
ROOT
HETATM    1  C1  UNL     1       0.487  53.932 -20.143  1.00  0.00     0.043 C 
HETATM    2  C2  UNL     1       0.313  52.534 -20.674  1.00  0.00    -0.087 C 
HETATM    3  C3  UNL     1       0.328  52.209 -21.984  1.00  0.00    -0.024 C 
ENDROOT
BRANCH   2   4
HETATM    4  C17 UNL     1       0.047  51.462 -19.629  1.00  0.00     0.037 C 
BRANCH   4   5
HETATM    5  C18 UNL     1       0.001  51.978 -18.182  1.00  0.00     0.032 C 
BRANCH   5   6
HETATM    6  C19 UNL     1       1.342  52.382 -17.621  1.00  0.00    -0.013 C 
HETATM    7  C20 UNL     1       1.850  52.146 -16.393  1.00  0.00     0.013 C 
HETATM    8  C21 UNL     1       3.240  52.586 -16.053  1.00  0.00     0.047 C 
HETATM    9  C27 UNL     1       1.078  51.441 -15.336  1.00  0.00     0.289 C 
HETATM   10  C22 UNL     1       3.961  51.487 -15.297  1.00  0.00     0.040 C 
HETATM   11  C23 UNL     1       3.174  51.185 -14.029  1.00  0.00     0.166 C 
HETATM   12  O4  UNL     1       1.797  50.855 -14.350  1.00  0.00    -0.309 OA
HETATM   13  O5  UNL     1      -0.143  51.350 -15.348  1.00  0.00    -0.260 OA
BRANCH  11  14
HETATM   14  C24 UNL     1       3.753  50.004 -13.199  1.00  0.00     0.077 C 
HETATM   15  C25 UNL     1       2.870  48.754 -13.326  1.00  0.00     0.048 C 
HETATM   16  C26 UNL     1       3.919  50.360 -11.719  1.00  0.00     0.048 C 
BRANCH  14  17
HETATM   17  O3  UNL     1       5.051  49.665 -13.704  1.00  0.00    -0.388 OA
HETATM   18  H36 UNL     1       4.934  49.440 -14.646  1.00  0.00     0.210 HD
ENDBRANCH  14  17
ENDBRANCH  11  14
ENDBRANCH   5   6
ENDBRANCH   4   5
ENDBRANCH   2   4
BRANCH   3  19
HETATM   19  C4  UNL     1       0.569  53.117 -23.162  1.00  0.00     0.030 C 
BRANCH  19  20
HETATM   20  C5  UNL     1       0.865  52.299 -24.428  1.00  0.00     0.046 C 
BRANCH  20  21
HETATM   21  C6  UNL     1      -0.197  52.444 -25.546  1.00  0.00     0.082 C 
HETATM   22  C7  UNL     1      -0.049  53.778 -26.292  1.00  0.00     0.051 C 
HETATM   23  C8  UNL     1      -0.000  51.324 -26.548  1.00  0.00     0.012 C 
HETATM   24  C9  UNL     1      -0.862  50.313 -26.691  1.00  0.00     0.013 C 
HETATM   25  C10 UNL     1      -2.036  50.291 -25.831  1.00  0.00     0.000 A 
HETATM   26  C11 UNL     1      -2.910  49.199 -25.857  1.00  0.00     0.050 A 
HETATM   27  C16 UNL     1      -2.300  51.377 -24.987  1.00  0.00     0.086 A 
HETATM   28  C12 UNL     1      -4.037  49.204 -25.039  1.00  0.00     0.067 A 
HETATM   29  C13 UNL     1      -4.308  50.280 -24.202  1.00  0.00     0.046 A 
HETATM   30  C14 UNL     1      -3.445  51.383 -24.170  1.00  0.00    -0.025 A 
HETATM   31  C15 UNL     1      -3.740  52.545 -23.266  1.00  0.00     0.051 C 
HETATM   32  O2  UNL     1      -1.500  52.485 -24.930  1.00  0.00    -0.335 OA
BRANCH  28  33
HETATM   33  O1  UNL     1      -4.914  48.159 -25.033  1.00  0.00    -0.361 OA
HETATM   34  H15 UNL     1      -4.602  47.483 -25.657  1.00  0.00     0.217 HD
ENDBRANCH  28  33
ENDBRANCH  20  21
ENDBRANCH  19  20
ENDBRANCH   3  19
TORSDOF 9
ENDMDL
MODEL 9
REMARK minimizedAffinity -9.17286301
REMARK  9 active torsions:
REMARK  status: ('A' for Active; 'I' for Inactive)
REMARK    1  A    between atoms: C2_2  and  C17_19 
REMARK    2  A    between atoms: C3_3  and  C4_4 
REMARK    3  A    between atoms: C4_4  and  C5_5 
REMARK    4  A    between atoms: C5_5  and  C6_6 
REMARK    5  A    between atoms: C12_12  and  O1_13 
REMARK    6  A    between atoms: C17_19  and  C18_20 
REMARK    7  A    between atoms: C18_20  and  C19_21 
REMARK    8  A    between atoms: C23_25  and  C24_26 
REMARK    9  A    between atoms: C24_26  and  O3_29 
ROOT
HETATM    1  C1  UNL     1      -5.724  46.178 -21.730  1.00  0.00     0.043 C 
HETATM    2  C2  UNL     1      -5.150  47.461 -22.269  1.00  0.00    -0.087 C 
HETATM    3  C3  UNL     1      -4.260  48.234 -21.610  1.00  0.00    -0.024 C 
ENDROOT
BRANCH   2   4
HETATM    4  C17 UNL     1      -5.684  47.904 -23.623  1.00  0.00     0.037 C 
BRANCH   4   5
HETATM    5  C18 UNL     1      -5.177  49.276 -24.092  1.00  0.00     0.032 C 
BRANCH   5   6
HETATM    6  C19 UNL     1      -4.265  49.227 -25.292  1.00  0.00    -0.013 C 
HETATM    7  C20 UNL     1      -3.575  50.233 -25.871  1.00  0.00     0.013 C 
HETATM    8  C21 UNL     1      -2.669  49.959 -27.030  1.00  0.00     0.047 C 
HETATM    9  C27 UNL     1      -3.668  51.638 -25.392  1.00  0.00     0.289 C 
HETATM   10  C22 UNL     1      -1.363  50.710 -26.857  1.00  0.00     0.040 C 
HETATM   11  C23 UNL     1      -1.676  52.197 -26.767  1.00  0.00     0.166 C 
HETATM   12  O4  UNL     1      -2.633  52.454 -25.706  1.00  0.00    -0.309 OA
HETATM   13  O5  UNL     1      -4.602  52.055 -24.720  1.00  0.00    -0.260 OA
BRANCH  11  14
HETATM   14  C24 UNL     1      -0.430  53.085 -26.491  1.00  0.00     0.077 C 
HETATM   15  C25 UNL     1      -0.216  54.105 -27.619  1.00  0.00     0.048 C 
HETATM   16  C26 UNL     1       0.845  52.255 -26.309  1.00  0.00     0.048 C 
BRANCH  14  17
HETATM   17  O3  UNL     1      -0.635  53.822 -25.279  1.00  0.00    -0.388 OA
HETATM   18  H36 UNL     1      -1.448  54.346 -25.406  1.00  0.00     0.210 HD
ENDBRANCH  14  17
ENDBRANCH  11  14
ENDBRANCH   5   6
ENDBRANCH   4   5
ENDBRANCH   2   4
BRANCH   3  19
HETATM   19  C4  UNL     1      -3.620  47.975 -20.272  1.00  0.00     0.030 C 
BRANCH  19  20
HETATM   20  C5  UNL     1      -2.905  49.234 -19.758  1.00  0.00     0.046 C 
BRANCH  20  21
HETATM   21  C6  UNL     1      -1.373  49.235 -19.981  1.00  0.00     0.082 C 
HETATM   22  C7  UNL     1      -0.922  48.015 -20.797  1.00  0.00     0.051 C 
HETATM   23  C8  UNL     1      -0.997  50.481 -20.757  1.00  0.00     0.012 C 
HETATM   24  C9  UNL     1      -0.315  51.497 -20.221  1.00  0.00     0.013 C 
HETATM   25  C10 UNL     1       0.071  51.396 -18.822  1.00  0.00     0.000 A 
HETATM   26  C11 UNL     1       0.685  52.476 -18.178  1.00  0.00     0.050 A 
HETATM   27  C16 UNL     1      -0.156  50.204 -18.121  1.00  0.00     0.086 A 
HETATM   28  C12 UNL     1       1.063  52.355 -16.844  1.00  0.00     0.067 A 
HETATM   29  C13 UNL     1       0.844  51.173 -16.144  1.00  0.00     0.046 A 
HETATM   30  C14 UNL     1       0.236  50.081 -16.777  1.00  0.00    -0.025 A 
HETATM   31  C15 UNL     1       0.002  48.806 -16.020  1.00  0.00     0.051 C 
HETATM   32  O2  UNL     1      -0.730  49.103 -18.697  1.00  0.00    -0.335 OA
BRANCH  28  33
HETATM   33  O1  UNL     1       1.662  53.384 -16.178  1.00  0.00    -0.361 OA
HETATM   34  H15 UNL     1       1.750  54.140 -16.783  1.00  0.00     0.217 HD
ENDBRANCH  28  33
ENDBRANCH  20  21
ENDBRANCH  19  20
ENDBRANCH   3  19
TORSDOF 9
ENDMDL
