MODEL 1
REMARK minimizedAffinity -10.0223265
REMARK  6 active torsions:
REMARK  status: ('A' for Active; 'I' for Inactive)
REMARK    1  A    between atoms: C3_3  and  C4_4 
REMARK    2  A    between atoms: C4_4  and  O1_5 
REMARK    3  A    between atoms: C6_9  and  C7_10 
REMARK    4  A    between atoms: C7_10  and  C9_12 
REMARK    5  A    between atoms: C21_26  and  C22_27 
REMARK    6  A    between atoms: C22_27  and  O6_28 
ROOT
HETATM    1  C9  UNL     1      -2.102  51.998 -22.862  1.00  0.00     0.000 C 
HETATM    2  C10 UNL     1      -3.595  51.573 -22.730  1.00  0.00     0.006 C 
HETATM    3  C11 UNL     1      -3.819  51.115 -21.283  1.00  0.00     0.006 C 
HETATM    4  C12 UNL     1      -2.524  51.483 -20.578  1.00  0.00    -0.001 C 
HETATM    5  C13 UNL     1      -2.232  50.812 -19.224  1.00  0.00    -0.002 C 
HETATM    6  C14 UNL     1      -3.386  51.083 -18.253  1.00  0.00     0.040 C 
HETATM    7  C15 UNL     1      -3.092  50.731 -16.843  1.00  0.00     0.159 A 
HETATM    8  O4  UNL     1      -2.525  49.444 -16.606  1.00  0.00    -0.368 OA
HETATM    9  C16 UNL     1      -1.677  50.580 -16.332  1.00  0.00     0.104 A 
HETATM   10  C17 UNL     1      -1.489  50.866 -14.861  1.00  0.00     0.042 C 
HETATM   11  C18 UNL     1      -0.098  50.500 -14.378  1.00  0.00     0.010 C 
HETATM   12  C19 UNL     1       0.974  51.259 -15.143  1.00  0.00     0.079 C 
HETATM   13  C20 UNL     1       0.568  51.614 -16.565  1.00  0.00     0.141 C 
HETATM   14  O5  UNL     1       1.098  52.587 -17.104  1.00  0.00    -0.297 OA
HETATM   15  C21 UNL     1      -0.464  50.697 -17.278  1.00  0.00     0.079 C 
HETATM   16  C23 UNL     1      -0.884  51.357 -18.657  1.00  0.00     0.011 C 
HETATM   17  C24 UNL     1       0.243  51.306 -19.730  1.00  0.00     0.007 C 
HETATM   18  C25 UNL     1      -0.155  51.902 -21.090  1.00  0.00     0.010 C 
HETATM   19  C26 UNL     1      -1.434  51.257 -21.656  1.00  0.00    -0.036 C 
HETATM   20  C27 UNL     1      -1.196  49.765 -21.990  1.00  0.00     0.016 C 
ENDROOT
BRANCH   1  21
HETATM   21  C7  UNL     1      -1.545  51.804 -24.316  1.00  0.00     0.016 C 
HETATM   22  C8  UNL     1      -1.856  50.405 -24.861  1.00  0.00     0.013 C 
BRANCH  21  23
HETATM   23  C6  UNL     1       0.001  52.085 -24.364  1.00  0.00     0.140 C 
HETATM   24  O3  UNL     1       0.261  53.505 -24.311  1.00  0.00    -0.311 OA
HETATM   25  C5  UNL     1       0.165  54.272 -25.430  1.00  0.00     0.292 C 
HETATM   26  C3  UNL     1       0.043  53.557 -26.736  1.00  0.00     0.042 C 
HETATM   27  O2  UNL     1       0.214  55.494 -25.362  1.00  0.00    -0.260 OA
HETATM   28  C2  UNL     1       0.400  52.255 -26.812  1.00  0.00    -0.067 C 
HETATM   29  C1  UNL     1       0.444  51.434 -28.068  1.00  0.00     0.044 C 
HETATM   30  C28 UNL     1       0.790  51.529 -25.554  1.00  0.00     0.067 C 
BRANCH  26  31
HETATM   31  C4  UNL     1      -0.373  54.414 -27.895  1.00  0.00     0.209 C 
BRANCH  31  32
HETATM   32  O1  UNL     1      -1.733  54.148 -28.229  1.00  0.00    -0.396 OA
HETATM   33  H6  UNL     1      -1.833  53.188 -28.328  1.00  0.00     0.209 HD
ENDBRANCH  31  32
ENDBRANCH  26  31
ENDBRANCH  21  23
ENDBRANCH   1  21
BRANCH  15  34
HETATM   34  C22 UNL     1       0.252  49.322 -17.445  1.00  0.00     0.185 C 
BRANCH  34  35
HETATM   35  O6  UNL     1      -0.280  48.297 -16.616  1.00  0.00    -0.400 OA
HETATM   36  H30 UNL     1       0.324  47.537 -16.661  1.00  0.00     0.209 HD
ENDBRANCH  34  35
ENDBRANCH  15  34
TORSDOF 6
ENDMDL
MODEL 2
REMARK minimizedAffinity -9.89333725
REMARK  6 active torsions:
REMARK  status: ('A' for Active; 'I' for Inactive)
REMARK    1  A    between atoms: C3_3  and  C4_4 
REMARK    2  A    between atoms: C4_4  and  O1_5 
REMARK    3  A    between atoms: C6_9  and  C7_10 
REMARK    4  A    between atoms: C7_10  and  C9_12 
REMARK    5  A    between atoms: C21_26  and  C22_27 
REMARK    6  A    between atoms: C22_27  and  O6_28 
ROOT
HETATM    1  C9  UNL     1      -0.808  51.902 -19.187  1.00  0.00     0.000 C 
HETATM    2  C10 UNL     1       0.579  52.581 -18.980  1.00  0.00     0.006 C 
HETATM    3  C11 UNL     1       1.114  52.971 -20.363  1.00  0.00     0.006 C 
HETATM    4  C12 UNL     1      -0.054  52.702 -21.298  1.00  0.00    -0.001 C 
HETATM    5  C13 UNL     1       0.244  52.594 -22.803  1.00  0.00    -0.002 C 
HETATM    6  C14 UNL     1       0.944  53.868 -23.286  1.00  0.00     0.040 C 
HETATM    7  C15 UNL     1       1.028  53.997 -24.760  1.00  0.00     0.159 A 
HETATM    8  O4  UNL     1       1.498  52.860 -25.480  1.00  0.00    -0.368 OA
HETATM    9  C16 UNL     1       0.116  53.224 -25.686  1.00  0.00     0.104 A 
HETATM   10  C17 UNL     1      -0.155  53.880 -27.019  1.00  0.00     0.042 C 
HETATM   11  C18 UNL     1      -0.904  52.963 -27.969  1.00  0.00     0.010 C 
HETATM   12  C19 UNL     1      -2.237  52.524 -27.382  1.00  0.00     0.079 C 
HETATM   13  C20 UNL     1      -2.240  52.461 -25.863  1.00  0.00     0.141 C 
HETATM   14  O5  UNL     1      -3.312  52.590 -25.270  1.00  0.00    -0.297 OA
HETATM   15  C21 UNL     1      -0.891  52.188 -25.143  1.00  0.00     0.079 C 
HETATM   16  C23 UNL     1      -1.089  52.359 -23.579  1.00  0.00     0.011 C 
HETATM   17  C24 UNL     1      -1.923  51.212 -22.937  1.00  0.00     0.007 C 
HETATM   18  C25 UNL     1      -2.095  51.333 -21.414  1.00  0.00     0.010 C 
HETATM   19  C26 UNL     1      -0.743  51.456 -20.686  1.00  0.00    -0.036 C 
HETATM   20  C27 UNL     1       0.085  50.157 -20.838  1.00  0.00     0.016 C 
ENDROOT
BRANCH   1  21
HETATM   21  C7  UNL     1      -1.144  50.858 -18.065  1.00  0.00     0.016 C 
HETATM   22  C8  UNL     1      -0.419  49.527 -18.294  1.00  0.00     0.013 C 
BRANCH  21  23
HETATM   23  C6  UNL     1      -2.695  50.632 -17.959  1.00  0.00     0.140 C 
HETATM   24  O3  UNL     1      -3.258  51.453 -16.913  1.00  0.00    -0.311 OA
HETATM   25  C5  UNL     1      -3.191  51.066 -15.611  1.00  0.00     0.292 C 
HETATM   26  C3  UNL     1      -2.757  49.663 -15.341  1.00  0.00     0.042 C 
HETATM   27  O2  UNL     1      -3.508  51.831 -14.709  1.00  0.00    -0.260 OA
HETATM   28  C2  UNL     1      -2.814  48.750 -16.338  1.00  0.00    -0.067 C 
HETATM   29  C1  UNL     1      -2.525  47.284 -16.197  1.00  0.00     0.044 C 
HETATM   30  C28 UNL     1      -3.193  49.202 -17.722  1.00  0.00     0.067 C 
BRANCH  26  31
HETATM   31  C4  UNL     1      -2.394  49.371 -13.915  1.00  0.00     0.209 C 
BRANCH  31  32
HETATM   32  O1  UNL     1      -3.576  49.285 -13.123  1.00  0.00    -0.396 OA
HETATM   33  H6  UNL     1      -4.106  50.080 -13.293  1.00  0.00     0.209 HD
ENDBRANCH  31  32
ENDBRANCH  26  31
ENDBRANCH  21  23
ENDBRANCH   1  21
BRANCH  15  34
HETATM   34  C22 UNL     1      -0.485  50.741 -25.559  1.00  0.00     0.185 C 
BRANCH  34  35
HETATM   35  O6  UNL     1       0.688  50.684 -26.359  1.00  0.00    -0.400 OA
HETATM   36  H30 UNL     1       0.767  49.780 -26.704  1.00  0.00     0.209 HD
ENDBRANCH  34  35
ENDBRANCH  15  34
TORSDOF 6
ENDMDL
MODEL 3
REMARK minimizedAffinity -9.76556492
REMARK  6 active torsions:
REMARK  status: ('A' for Active; 'I' for Inactive)
REMARK    1  A    between atoms: C3_3  and  C4_4 
REMARK    2  A    between atoms: C4_4  and  O1_5 
REMARK    3  A    between atoms: C6_9  and  C7_10 
REMARK    4  A    between atoms: C7_10  and  C9_12 
REMARK    5  A    between atoms: C21_26  and  C22_27 
REMARK    6  A    between atoms: C22_27  and  O6_28 
ROOT
HETATM    1  C9  UNL     1      -0.479  51.017 -22.872  1.00  0.00     0.000 C 
HETATM    2  C10 UNL     1       0.002  51.979 -21.744  1.00  0.00     0.006 C 
HETATM    3  C11 UNL     1      -0.652  51.519 -20.435  1.00  0.00     0.006 C 
HETATM    4  C12 UNL     1      -1.312  50.200 -20.799  1.00  0.00    -0.001 C 
HETATM    5  C13 UNL     1      -2.394  49.656 -19.849  1.00  0.00    -0.002 C 
HETATM    6  C14 UNL     1      -1.820  49.516 -18.436  1.00  0.00     0.040 C 
HETATM    7  C15 UNL     1      -2.675  48.744 -17.503  1.00  0.00     0.159 A 
HETATM    8  O4  UNL     1      -4.055  49.096 -17.454  1.00  0.00    -0.368 OA
HETATM    9  C16 UNL     1      -3.745  47.795 -17.995  1.00  0.00     0.104 A 
HETATM   10  C17 UNL     1      -4.067  46.650 -17.065  1.00  0.00     0.042 C 
HETATM   11  C18 UNL     1      -5.281  45.862 -17.523  1.00  0.00     0.010 C 
HETATM   12  C19 UNL     1      -5.078  45.290 -18.918  1.00  0.00     0.079 C 
HETATM   13  C20 UNL     1      -4.154  46.127 -19.788  1.00  0.00     0.141 C 
HETATM   14  O5  UNL     1      -3.547  45.573 -20.706  1.00  0.00    -0.297 OA
HETATM   15  C21 UNL     1      -4.062  47.651 -19.498  1.00  0.00     0.079 C 
HETATM   16  C23 UNL     1      -2.908  48.283 -20.382  1.00  0.00     0.011 C 
HETATM   17  C24 UNL     1      -3.268  48.362 -21.895  1.00  0.00     0.007 C 
HETATM   18  C25 UNL     1      -2.181  49.010 -22.769  1.00  0.00     0.010 C 
HETATM   19  C26 UNL     1      -1.784  50.408 -22.260  1.00  0.00    -0.036 C 
HETATM   20  C27 UNL     1      -2.967  51.397 -22.391  1.00  0.00     0.016 C 
ENDROOT
BRANCH   1  21
HETATM   21  C7  UNL     1      -0.513  51.708 -24.280  1.00  0.00     0.016 C 
HETATM   22  C8  UNL     1      -0.988  50.743 -25.373  1.00  0.00     0.013 C 
BRANCH  21  23
HETATM   23  C6  UNL     1       0.894  52.306 -24.644  1.00  0.00     0.140 C 
HETATM   24  O3  UNL     1       0.842  53.749 -24.669  1.00  0.00    -0.311 OA
HETATM   25  C5  UNL     1       0.366  54.410 -25.758  1.00  0.00     0.292 C 
HETATM   26  C3  UNL     1       0.154  53.608 -27.000  1.00  0.00     0.042 C 
HETATM   27  O2  UNL     1       0.158  55.616 -25.721  1.00  0.00    -0.260 OA
HETATM   28  C2  UNL     1       0.766  52.408 -27.125  1.00  0.00    -0.067 C 
HETATM   29  C1  UNL     1       0.745  51.541 -28.349  1.00  0.00     0.044 C 
HETATM   30  C28 UNL     1       1.541  51.858 -25.959  1.00  0.00     0.067 C 
BRANCH  26  31
HETATM   31  C4  UNL     1      -0.656  54.286 -28.066  1.00  0.00     0.209 C 
BRANCH  31  32
HETATM   32  O1  UNL     1      -1.981  53.760 -28.074  1.00  0.00    -0.396 OA
HETATM   33  H6  UNL     1      -1.916  52.792 -28.113  1.00  0.00     0.209 HD
ENDBRANCH  31  32
ENDBRANCH  26  31
ENDBRANCH  21  23
ENDBRANCH   1  21
BRANCH  15  34
HETATM   34  C22 UNL     1      -5.475  48.220 -19.829  1.00  0.00     0.185 C 
BRANCH  34  35
HETATM   35  O6  UNL     1      -5.584  49.625 -19.642  1.00  0.00    -0.400 OA
HETATM   36  H30 UNL     1      -6.525  49.860 -19.707  1.00  0.00     0.209 HD
ENDBRANCH  34  35
ENDBRANCH  15  34
TORSDOF 6
ENDMDL
MODEL 4
REMARK minimizedAffinity -9.69543743
REMARK  6 active torsions:
REMARK  status: ('A' for Active; 'I' for Inactive)
REMARK    1  A    between atoms: C3_3  and  C4_4 
REMARK    2  A    between atoms: C4_4  and  O1_5 
REMARK    3  A    between atoms: C6_9  and  C7_10 
REMARK    4  A    between atoms: C7_10  and  C9_12 
REMARK    5  A    between atoms: C21_26  and  C22_27 
REMARK    6  A    between atoms: C22_27  and  O6_28 
ROOT
HETATM    1  C9  UNL     1      -0.651  49.815 -19.106  1.00  0.00     0.000 C 
HETATM    2  C10 UNL     1      -1.700  48.684 -18.891  1.00  0.00     0.006 C 
HETATM    3  C11 UNL     1      -2.436  48.477 -20.220  1.00  0.00     0.006 C 
HETATM    4  C12 UNL     1      -1.659  49.333 -21.206  1.00  0.00    -0.001 C 
HETATM    5  C13 UNL     1      -2.343  49.689 -22.538  1.00  0.00    -0.002 C 
HETATM    6  C14 UNL     1      -2.763  48.407 -23.263  1.00  0.00     0.040 C 
HETATM    7  C15 UNL     1      -3.174  48.611 -24.673  1.00  0.00     0.159 A 
HETATM    8  O4  UNL     1      -4.103  49.661 -24.928  1.00  0.00    -0.368 OA
HETATM    9  C16 UNL     1      -2.772  49.840 -25.456  1.00  0.00     0.104 A 
HETATM   10  C17 UNL     1      -2.673  49.648 -26.951  1.00  0.00     0.042 C 
HETATM   11  C18 UNL     1      -2.468  50.960 -27.686  1.00  0.00     0.010 C 
HETATM   12  C19 UNL     1      -1.204  51.666 -27.221  1.00  0.00     0.079 C 
HETATM   13  C20 UNL     1      -0.839  51.365 -25.776  1.00  0.00     0.141 C 
HETATM   14  O5  UNL     1       0.340  51.465 -25.433  1.00  0.00    -0.297 OA
HETATM   15  C21 UNL     1      -1.986  50.993 -24.796  1.00  0.00     0.079 C 
HETATM   16  C23 UNL     1      -1.364  50.533 -23.413  1.00  0.00     0.011 C 
HETATM   17  C24 UNL     1      -0.744  51.706 -22.598  1.00  0.00     0.007 C 
HETATM   18  C25 UNL     1      -0.171  51.292 -21.233  1.00  0.00     0.010 C 
HETATM   19  C26 UNL     1      -1.209  50.555 -20.366  1.00  0.00    -0.036 C 
HETATM   20  C27 UNL     1      -2.373  51.500 -19.980  1.00  0.00     0.016 C 
ENDROOT
BRANCH   1  21
HETATM   21  C7  UNL     1      -0.346  50.614 -17.790  1.00  0.00     0.016 C 
HETATM   22  C8  UNL     1       0.701  51.710 -18.022  1.00  0.00     0.013 C 
BRANCH  21  23
HETATM   23  C6  UNL     1       0.114  49.645 -16.642  1.00  0.00     0.140 C 
HETATM   24  O3  UNL     1      -1.010  48.900 -16.125  1.00  0.00    -0.311 OA
HETATM   25  C5  UNL     1      -1.854  49.454 -15.214  1.00  0.00     0.292 C 
HETATM   26  C3  UNL     1      -1.425  50.739 -14.585  1.00  0.00     0.042 C 
HETATM   27  O2  UNL     1      -2.899  48.898 -14.903  1.00  0.00    -0.260 OA
HETATM   28  C2  UNL     1      -0.122  51.099 -14.638  1.00  0.00    -0.067 C 
HETATM   29  C1  UNL     1       0.483  52.294 -13.961  1.00  0.00     0.044 C 
HETATM   30  C28 UNL     1       0.837  50.258 -15.437  1.00  0.00     0.067 C 
BRANCH  26  31
HETATM   31  C4  UNL     1      -2.499  51.473 -13.837  1.00  0.00     0.209 C 
BRANCH  31  32
HETATM   32  O1  UNL     1      -3.545  51.842 -14.733  1.00  0.00    -0.396 OA
HETATM   33  H6  UNL     1      -3.142  52.295 -15.491  1.00  0.00     0.209 HD
ENDBRANCH  31  32
ENDBRANCH  26  31
ENDBRANCH  21  23
ENDBRANCH   1  21
BRANCH  15  34
HETATM   34  C22 UNL     1      -2.864  52.276 -24.682  1.00  0.00     0.185 C 
BRANCH  34  35
HETATM   35  O6  UNL     1      -3.270  52.805 -25.937  1.00  0.00    -0.400 OA
HETATM   36  H30 UNL     1      -3.661  53.679 -25.777  1.00  0.00     0.209 HD
ENDBRANCH  34  35
ENDBRANCH  15  34
TORSDOF 6
ENDMDL
MODEL 5
REMARK minimizedAffinity -9.59696388
REMARK  6 active torsions:
REMARK  status: ('A' for Active; 'I' for Inactive)
REMARK    1  A    between atoms: C3_3  and  C4_4 
REMARK    2  A    between atoms: C4_4  and  O1_5 
REMARK    3  A    between atoms: C6_9  and  C7_10 
REMARK    4  A    between atoms: C7_10  and  C9_12 
REMARK    5  A    between atoms: C21_26  and  C22_27 
REMARK    6  A    between atoms: C22_27  and  O6_28 
ROOT
HETATM    1  C9  UNL     1      -1.632  50.935 -23.377  1.00  0.00     0.000 C 
HETATM    2  C10 UNL     1      -0.838  50.383 -22.155  1.00  0.00     0.006 C 
HETATM    3  C11 UNL     1      -1.682  49.273 -21.518  1.00  0.00     0.006 C 
HETATM    4  C12 UNL     1      -2.826  49.073 -22.500  1.00  0.00    -0.001 C 
HETATM    5  C13 UNL     1      -4.077  48.332 -21.998  1.00  0.00    -0.002 C 
HETATM    6  C14 UNL     1      -3.680  46.954 -21.457  1.00  0.00     0.040 C 
HETATM    7  C15 UNL     1      -4.824  46.044 -21.208  1.00  0.00     0.159 A 
HETATM    8  O4  UNL     1      -5.923  46.577 -20.473  1.00  0.00    -0.368 OA
HETATM    9  C16 UNL     1      -6.173  46.255 -21.858  1.00  0.00     0.104 A 
HETATM   10  C17 UNL     1      -6.993  45.004 -22.059  1.00  0.00     0.042 C 
HETATM   11  C18 UNL     1      -8.406  45.311 -22.524  1.00  0.00     0.010 C 
HETATM   12  C19 UNL     1      -8.404  46.086 -23.832  1.00  0.00     0.079 C 
HETATM   13  C20 UNL     1      -7.174  46.959 -24.018  1.00  0.00     0.141 C 
HETATM   14  O5  UNL     1      -6.821  47.244 -25.164  1.00  0.00    -0.297 OA
HETATM   15  C21 UNL     1      -6.454  47.486 -22.745  1.00  0.00     0.079 C 
HETATM   16  C23 UNL     1      -5.103  48.200 -23.166  1.00  0.00     0.011 C 
HETATM   17  C24 UNL     1      -5.327  49.566 -23.879  1.00  0.00     0.007 C 
HETATM   18  C25 UNL     1      -4.030  50.298 -24.260  1.00  0.00     0.010 C 
HETATM   19  C26 UNL     1      -3.098  50.496 -23.050  1.00  0.00    -0.036 C 
HETATM   20  C27 UNL     1      -3.739  51.447 -22.012  1.00  0.00     0.016 C 
ENDROOT
BRANCH   1  21
HETATM   21  C7  UNL     1      -1.306  52.440 -23.680  1.00  0.00     0.016 C 
HETATM   22  C8  UNL     1      -2.134  52.974 -24.854  1.00  0.00     0.013 C 
BRANCH  21  23
HETATM   23  C6  UNL     1       0.230  52.635 -23.952  1.00  0.00     0.140 C 
HETATM   24  O3  UNL     1       0.518  54.015 -24.267  1.00  0.00    -0.311 OA
HETATM   25  C5  UNL     1       0.314  54.500 -25.520  1.00  0.00     0.292 C 
HETATM   26  C3  UNL     1       0.037  53.504 -26.598  1.00  0.00     0.042 C 
HETATM   27  O2  UNL     1       0.391  55.700 -25.751  1.00  0.00    -0.260 OA
HETATM   28  C2  UNL     1       0.360  52.206 -26.398  1.00  0.00    -0.067 C 
HETATM   29  C1  UNL     1       0.252  51.111 -27.419  1.00  0.00     0.044 C 
HETATM   30  C28 UNL     1       0.874  51.781 -25.049  1.00  0.00     0.067 C 
BRANCH  26  31
HETATM   31  C4  UNL     1      -0.489  54.081 -27.880  1.00  0.00     0.209 C 
BRANCH  31  32
HETATM   32  O1  UNL     1      -1.864  53.738 -28.036  1.00  0.00    -0.396 OA
HETATM   33  H6  UNL     1      -1.947  52.778 -27.913  1.00  0.00     0.209 HD
ENDBRANCH  31  32
ENDBRANCH  26  31
ENDBRANCH  21  23
ENDBRANCH   1  21
BRANCH  15  34
HETATM   34  C22 UNL     1      -7.474  48.447 -22.063  1.00  0.00     0.185 C 
BRANCH  34  35
HETATM   35  O6  UNL     1      -7.352  48.498 -20.647  1.00  0.00    -0.400 OA
HETATM   36  H30 UNL     1      -8.121  48.981 -20.301  1.00  0.00     0.209 HD
ENDBRANCH  34  35
ENDBRANCH  15  34
TORSDOF 6
ENDMDL
MODEL 6
REMARK minimizedAffinity -9.47761631
REMARK  6 active torsions:
REMARK  status: ('A' for Active; 'I' for Inactive)
REMARK    1  A    between atoms: C3_3  and  C4_4 
REMARK    2  A    between atoms: C4_4  and  O1_5 
REMARK    3  A    between atoms: C6_9  and  C7_10 
REMARK    4  A    between atoms: C7_10  and  C9_12 
REMARK    5  A    between atoms: C21_26  and  C22_27 
REMARK    6  A    between atoms: C22_27  and  O6_28 
ROOT
HETATM    1  C9  UNL     1      -0.090  51.756 -21.412  1.00  0.00     0.000 C 
HETATM    2  C10 UNL     1       0.536  53.177 -21.276  1.00  0.00     0.006 C 
HETATM    3  C11 UNL     1       0.876  53.392 -19.797  1.00  0.00     0.006 C 
HETATM    4  C12 UNL     1       0.637  52.031 -19.163  1.00  0.00    -0.001 C 
HETATM    5  C13 UNL     1       0.486  51.972 -17.633  1.00  0.00    -0.002 C 
HETATM    6  C14 UNL     1       1.721  52.586 -16.967  1.00  0.00     0.040 C 
HETATM    7  C15 UNL     1       1.818  52.332 -15.509  1.00  0.00     0.159 A 
HETATM    8  O4  UNL     1       0.649  52.584 -14.733  1.00  0.00    -0.368 OA
HETATM    9  C16 UNL     1       1.064  51.206 -14.840  1.00  0.00     0.104 A 
HETATM   10  C17 UNL     1       1.704  50.658 -13.587  1.00  0.00     0.042 C 
HETATM   11  C18 UNL     1       0.800  49.679 -12.860  1.00  0.00     0.010 C 
HETATM   12  C19 UNL     1       0.428  48.502 -13.749  1.00  0.00     0.079 C 
HETATM   13  C20 UNL     1       0.394  48.847 -15.229  1.00  0.00     0.141 C 
HETATM   14  O5  UNL     1       0.579  47.945 -16.048  1.00  0.00    -0.297 OA
HETATM   15  C21 UNL     1       0.081  50.315 -15.629  1.00  0.00     0.079 C 
HETATM   16  C23 UNL     1       0.291  50.488 -17.190  1.00  0.00     0.011 C 
HETATM   17  C24 UNL     1      -0.808  49.784 -18.039  1.00  0.00     0.007 C 
HETATM   18  C25 UNL     1      -0.650  49.972 -19.557  1.00  0.00     0.010 C 
HETATM   19  C26 UNL     1      -0.568  51.459 -19.952  1.00  0.00    -0.036 C 
HETATM   20  C27 UNL     1      -1.902  52.183 -19.651  1.00  0.00     0.016 C 
ENDROOT
BRANCH   1  21
HETATM   21  C7  UNL     1      -1.097  51.651 -22.611  1.00  0.00     0.016 C 
HETATM   22  C8  UNL     1      -1.028  50.279 -23.291  1.00  0.00     0.013 C 
BRANCH  21  23
HETATM   23  C6  UNL     1      -0.845  52.799 -23.654  1.00  0.00     0.140 C 
HETATM   24  O3  UNL     1      -2.080  53.180 -24.298  1.00  0.00    -0.311 OA
HETATM   25  C5  UNL     1      -2.579  52.453 -25.334  1.00  0.00     0.292 C 
HETATM   26  C3  UNL     1      -1.679  51.425 -25.936  1.00  0.00     0.042 C 
HETATM   27  O2  UNL     1      -3.703  52.667 -25.770  1.00  0.00    -0.260 OA
HETATM   28  C2  UNL     1      -0.347  51.499 -25.715  1.00  0.00    -0.067 C 
HETATM   29  C1  UNL     1       0.693  50.615 -26.338  1.00  0.00     0.044 C 
HETATM   30  C28 UNL     1       0.178  52.541 -24.765  1.00  0.00     0.067 C 
BRANCH  26  31
HETATM   31  C4  UNL     1      -2.355  50.442 -26.848  1.00  0.00     0.209 C 
BRANCH  31  32
HETATM   32  O1  UNL     1      -2.669  51.071 -28.088  1.00  0.00    -0.396 OA
HETATM   33  H6  UNL     1      -3.144  51.895 -27.892  1.00  0.00     0.209 HD
ENDBRANCH  31  32
ENDBRANCH  26  31
ENDBRANCH  21  23
ENDBRANCH   1  21
BRANCH  15  34
HETATM   34  C22 UNL     1      -1.389  50.563 -15.173  1.00  0.00     0.185 C 
BRANCH  34  35
HETATM   35  O6  UNL     1      -2.246  51.002 -16.218  1.00  0.00    -0.400 OA
HETATM   36  H30 UNL     1      -3.082  51.288 -15.815  1.00  0.00     0.209 HD
ENDBRANCH  34  35
ENDBRANCH  15  34
TORSDOF 6
ENDMDL
MODEL 7
REMARK minimizedAffinity -9.41341496
REMARK  6 active torsions:
REMARK  status: ('A' for Active; 'I' for Inactive)
REMARK    1  A    between atoms: C3_3  and  C4_4 
REMARK    2  A    between atoms: C4_4  and  O1_5 
REMARK    3  A    between atoms: C6_9  and  C7_10 
REMARK    4  A    between atoms: C7_10  and  C9_12 
REMARK    5  A    between atoms: C21_26  and  C22_27 
REMARK    6  A    between atoms: C22_27  and  O6_28 
ROOT
HETATM    1  C9  UNL     1      -2.832  51.523 -24.811  1.00  0.00     0.000 C 
HETATM    2  C10 UNL     1      -4.386  51.621 -24.755  1.00  0.00     0.006 C 
HETATM    3  C11 UNL     1      -4.829  51.140 -23.368  1.00  0.00     0.006 C 
HETATM    4  C12 UNL     1      -3.527  50.981 -22.601  1.00  0.00    -0.001 C 
HETATM    5  C13 UNL     1      -3.553  50.134 -21.317  1.00  0.00    -0.002 C 
HETATM    6  C14 UNL     1      -4.599  50.693 -20.348  1.00  0.00     0.040 C 
HETATM    7  C15 UNL     1      -4.519  50.138 -18.976  1.00  0.00     0.159 A 
HETATM    8  O4  UNL     1      -4.431  48.720 -18.859  1.00  0.00    -0.368 OA
HETATM    9  C16 UNL     1      -3.267  49.470 -18.453  1.00  0.00     0.104 A 
HETATM   10  C17 UNL     1      -3.075  49.543 -16.957  1.00  0.00     0.042 C 
HETATM   11  C18 UNL     1      -1.917  48.684 -16.483  1.00  0.00     0.010 C 
HETATM   12  C19 UNL     1      -0.611  49.099 -17.144  1.00  0.00     0.079 C 
HETATM   13  C20 UNL     1      -0.796  49.695 -18.530  1.00  0.00     0.141 C 
HETATM   14  O5  UNL     1       0.059  50.474 -18.956  1.00  0.00    -0.297 OA
HETATM   15  C21 UNL     1      -2.035  49.251 -19.356  1.00  0.00     0.079 C 
HETATM   16  C23 UNL     1      -2.133  50.135 -20.668  1.00  0.00     0.011 C 
HETATM   17  C24 UNL     1      -1.032  49.799 -21.717  1.00  0.00     0.007 C 
HETATM   18  C25 UNL     1      -1.130  50.614 -23.017  1.00  0.00     0.010 C 
HETATM   19  C26 UNL     1      -2.519  50.495 -23.673  1.00  0.00    -0.036 C 
HETATM   20  C27 UNL     1      -2.779  49.047 -24.152  1.00  0.00     0.016 C 
ENDROOT
BRANCH   1  21
HETATM   21  C7  UNL     1      -2.294  51.281 -26.265  1.00  0.00     0.016 C 
HETATM   22  C8  UNL     1      -1.230  50.179 -26.300  1.00  0.00     0.013 C 
BRANCH  21  23
HETATM   23  C6  UNL     1      -1.730  52.613 -26.880  1.00  0.00     0.140 C 
HETATM   24  O3  UNL     1      -0.876  52.329 -28.010  1.00  0.00    -0.311 OA
HETATM   25  C5  UNL     1       0.419  51.956 -27.826  1.00  0.00     0.292 C 
HETATM   26  C3  UNL     1       0.982  52.109 -26.452  1.00  0.00     0.042 C 
HETATM   27  O2  UNL     1       1.096  51.550 -28.763  1.00  0.00    -0.260 OA
HETATM   28  C2  UNL     1       0.360  52.922 -25.569  1.00  0.00    -0.067 C 
HETATM   29  C1  UNL     1       0.860  53.268 -24.197  1.00  0.00     0.044 C 
HETATM   30  C28 UNL     1      -0.951  53.553 -25.954  1.00  0.00     0.067 C 
BRANCH  26  31
HETATM   31  C4  UNL     1       2.287  51.406 -26.215  1.00  0.00     0.209 C 
BRANCH  31  32
HETATM   32  O1  UNL     1       3.287  51.939 -27.080  1.00  0.00    -0.396 OA
HETATM   33  H6  UNL     1       2.934  51.930 -27.984  1.00  0.00     0.209 HD
ENDBRANCH  31  32
ENDBRANCH  26  31
ENDBRANCH  21  23
ENDBRANCH   1  21
BRANCH  15  34
HETATM   34  C22 UNL     1      -1.816  47.735 -19.647  1.00  0.00     0.185 C 
BRANCH  34  35
HETATM   35  O6  UNL     1      -2.498  46.875 -18.743  1.00  0.00    -0.400 OA
HETATM   36  H30 UNL     1      -2.174  45.972 -18.894  1.00  0.00     0.209 HD
ENDBRANCH  34  35
ENDBRANCH  15  34
TORSDOF 6
ENDMDL
MODEL 8
REMARK minimizedAffinity -9.40317249
REMARK  6 active torsions:
REMARK  status: ('A' for Active; 'I' for Inactive)
REMARK    1  A    between atoms: C3_3  and  C4_4 
REMARK    2  A    between atoms: C4_4  and  O1_5 
REMARK    3  A    between atoms: C6_9  and  C7_10 
REMARK    4  A    between atoms: C7_10  and  C9_12 
REMARK    5  A    between atoms: C21_26  and  C22_27 
REMARK    6  A    between atoms: C22_27  and  O6_28 
ROOT
HETATM    1  C9  UNL     1      -1.660  51.529 -19.425  1.00  0.00     0.000 C 
HETATM    2  C10 UNL     1      -0.253  52.068 -19.026  1.00  0.00     0.006 C 
HETATM    3  C11 UNL     1       0.465  52.483 -20.316  1.00  0.00     0.006 C 
HETATM    4  C12 UNL     1      -0.609  52.373 -21.386  1.00  0.00    -0.001 C 
HETATM    5  C13 UNL     1      -0.153  52.320 -22.854  1.00  0.00    -0.002 C 
HETATM    6  C14 UNL     1       0.701  53.550 -23.176  1.00  0.00     0.040 C 
HETATM    7  C15 UNL     1       0.960  53.752 -24.621  1.00  0.00     0.159 A 
HETATM    8  O4  UNL     1       1.412  52.619 -25.359  1.00  0.00    -0.368 OA
HETATM    9  C16 UNL     1       0.098  53.116 -25.688  1.00  0.00     0.104 A 
HETATM   10  C17 UNL     1       0.034  53.866 -26.997  1.00  0.00     0.042 C 
HETATM   11  C18 UNL     1      -0.677  53.073 -28.079  1.00  0.00     0.010 C 
HETATM   12  C19 UNL     1      -2.100  52.725 -27.669  1.00  0.00     0.079 C 
HETATM   13  C20 UNL     1      -2.279  52.579 -26.166  1.00  0.00     0.141 C 
HETATM   14  O5  UNL     1      -3.396  52.772 -25.684  1.00  0.00    -0.297 OA
HETATM   15  C21 UNL     1      -1.047  52.147 -25.323  1.00  0.00     0.079 C 
HETATM   16  C23 UNL     1      -1.405  52.249 -23.783  1.00  0.00     0.011 C 
HETATM   17  C24 UNL     1      -2.399  51.148 -23.309  1.00  0.00     0.007 C 
HETATM   18  C25 UNL     1      -2.730  51.201 -21.809  1.00  0.00     0.010 C 
HETATM   19  C26 UNL     1      -1.464  51.162 -20.933  1.00  0.00    -0.036 C 
HETATM   20  C27 UNL     1      -0.736  49.804 -21.079  1.00  0.00     0.016 C 
ENDROOT
BRANCH   1  21
HETATM   21  C7  UNL     1      -2.206  50.460 -18.415  1.00  0.00     0.016 C 
HETATM   22  C8  UNL     1      -2.528  51.080 -17.050  1.00  0.00     0.013 C 
BRANCH  21  23
HETATM   23  C6  UNL     1      -1.190  49.272 -18.256  1.00  0.00     0.140 C 
HETATM   24  O3  UNL     1      -1.709  48.073 -18.873  1.00  0.00    -0.311 OA
HETATM   25  C5  UNL     1      -2.609  47.289 -18.221  1.00  0.00     0.292 C 
HETATM   26  C3  UNL     1      -2.830  47.569 -16.771  1.00  0.00     0.042 C 
HETATM   27  O2  UNL     1      -3.181  46.373 -18.799  1.00  0.00    -0.260 OA
HETATM   28  C2  UNL     1      -1.910  48.287 -16.089  1.00  0.00    -0.067 C 
HETATM   29  C1  UNL     1      -1.929  48.555 -14.612  1.00  0.00     0.044 C 
HETATM   30  C28 UNL     1      -0.753  48.892 -16.837  1.00  0.00     0.067 C 
BRANCH  26  31
HETATM   31  C4  UNL     1      -4.037  46.909 -16.171  1.00  0.00     0.209 C 
BRANCH  31  32
HETATM   32  O1  UNL     1      -5.217  47.380 -16.816  1.00  0.00    -0.396 OA
HETATM   33  H6  UNL     1      -5.191  48.351 -16.810  1.00  0.00     0.209 HD
ENDBRANCH  31  32
ENDBRANCH  26  31
ENDBRANCH  21  23
ENDBRANCH   1  21
BRANCH  15  34
HETATM   34  C22 UNL     1      -0.720  50.695 -25.786  1.00  0.00     0.185 C 
BRANCH  34  35
HETATM   35  O6  UNL     1       0.524  50.577 -26.466  1.00  0.00    -0.400 OA
HETATM   36  H30 UNL     1       0.564  49.689 -26.857  1.00  0.00     0.209 HD
ENDBRANCH  34  35
ENDBRANCH  15  34
TORSDOF 6
ENDMDL
MODEL 9
REMARK minimizedAffinity -9.34097004
REMARK  6 active torsions:
REMARK  status: ('A' for Active; 'I' for Inactive)
REMARK    1  A    between atoms: C3_3  and  C4_4 
REMARK    2  A    between atoms: C4_4  and  O1_5 
REMARK    3  A    between atoms: C6_9  and  C7_10 
REMARK    4  A    between atoms: C7_10  and  C9_12 
REMARK    5  A    between atoms: C21_26  and  C22_27 
REMARK    6  A    between atoms: C22_27  and  O6_28 
ROOT
HETATM    1  C9  UNL     1      -2.951  50.840 -24.228  1.00  0.00     0.000 C 
HETATM    2  C10 UNL     1      -4.326  51.532 -24.470  1.00  0.00     0.006 C 
HETATM    3  C11 UNL     1      -5.347  50.871 -23.536  1.00  0.00     0.006 C 
HETATM    4  C12 UNL     1      -4.503  49.976 -22.644  1.00  0.00    -0.001 C 
HETATM    5  C13 UNL     1      -5.222  48.863 -21.863  1.00  0.00    -0.002 C 
HETATM    6  C14 UNL     1      -6.331  49.470 -20.999  1.00  0.00     0.040 C 
HETATM    7  C15 UNL     1      -6.902  48.539 -19.996  1.00  0.00     0.159 A 
HETATM    8  O4  UNL     1      -7.277  47.244 -20.460  1.00  0.00    -0.368 OA
HETATM    9  C16 UNL     1      -6.165  47.299 -19.541  1.00  0.00     0.104 A 
HETATM   10  C17 UNL     1      -6.497  46.828 -18.146  1.00  0.00     0.042 C 
HETATM   11  C18 UNL     1      -5.881  45.476 -17.834  1.00  0.00     0.010 C 
HETATM   12  C19 UNL     1      -4.367  45.511 -17.968  1.00  0.00     0.079 C 
HETATM   13  C20 UNL     1      -3.872  46.524 -18.988  1.00  0.00     0.141 C 
HETATM   14  O5  UNL     1      -2.736  46.982 -18.860  1.00  0.00    -0.297 OA
HETATM   15  C21 UNL     1      -4.815  46.891 -20.168  1.00  0.00     0.079 C 
HETATM   16  C23 UNL     1      -4.185  48.094 -20.985  1.00  0.00     0.011 C 
HETATM   17  C24 UNL     1      -2.934  47.683 -21.817  1.00  0.00     0.007 C 
HETATM   18  C25 UNL     1      -2.329  48.823 -22.652  1.00  0.00     0.010 C 
HETATM   19  C26 UNL     1      -3.370  49.479 -23.578  1.00  0.00    -0.036 C 
HETATM   20  C27 UNL     1      -3.854  48.481 -24.657  1.00  0.00     0.016 C 
ENDROOT
BRANCH   1  21
HETATM   21  C7  UNL     1      -2.032  50.860 -25.500  1.00  0.00     0.016 C 
HETATM   22  C8  UNL     1      -2.187  49.582 -26.331  1.00  0.00     0.013 C 
BRANCH  21  23
HETATM   23  C6  UNL     1      -0.528  51.080 -25.099  1.00  0.00     0.140 C 
HETATM   24  O3  UNL     1      -0.349  52.378 -24.492  1.00  0.00    -0.311 OA
HETATM   25  C5  UNL     1      -0.227  53.494 -25.259  1.00  0.00     0.292 C 
HETATM   26  C3  UNL     1      -0.024  53.292 -26.725  1.00  0.00     0.042 C 
HETATM   27  O2  UNL     1      -0.248  54.610 -24.756  1.00  0.00    -0.260 OA
HETATM   28  C2  UNL     1       0.398  52.088 -27.174  1.00  0.00    -0.067 C 
HETATM   29  C1  UNL     1       0.756  51.762 -28.595  1.00  0.00     0.044 C 
HETATM   30  C28 UNL     1       0.529  50.949 -26.199  1.00  0.00     0.067 C 
BRANCH  26  31
HETATM   31  C4  UNL     1      -0.208  54.519 -27.569  1.00  0.00     0.209 C 
BRANCH  31  32
HETATM   32  O1  UNL     1       0.226  55.670 -26.850  1.00  0.00    -0.396 OA
HETATM   33  H6  UNL     1      -0.207  55.659 -25.981  1.00  0.00     0.209 HD
ENDBRANCH  31  32
ENDBRANCH  26  31
ENDBRANCH  21  23
ENDBRANCH   1  21
BRANCH  15  34
HETATM   34  C22 UNL     1      -4.958  45.584 -21.005  1.00  0.00     0.185 C 
BRANCH  34  35
HETATM   35  O6  UNL     1      -3.837  44.715 -20.904  1.00  0.00    -0.400 OA
HETATM   36  H30 UNL     1      -3.938  44.022 -21.576  1.00  0.00     0.209 HD
ENDBRANCH  34  35
ENDBRANCH  15  34
TORSDOF 6
ENDMDL
