MODEL 1
REMARK minimizedAffinity -7.08682823
REMARK CNNscore 0.813881934
REMARK CNNaffinity 7.22789192
REMARK  7 active torsions:
REMARK  status: ('A' for Active; 'I' for Inactive)
REMARK    1  A    between atoms: C2_2  and  C3_3 
REMARK    2  A    between atoms: C4_5  and  C5_6 
REMARK    3  A    between atoms: C5_6  and  C6_7 
REMARK    4  A    between atoms: C6_7  and  C7_8 
REMARK    5  A    between atoms: C7_8  and  C9_10 
REMARK    6  A    between atoms: C11_12  and  O2_13 
REMARK    7  A    between atoms: C30_33  and  O4_34 
ROOT
HETATM    1  C9  UNL     1      -0.498  11.277  17.874  1.00  0.00     0.001 C 
HETATM    2  C10 UNL     1      -1.878  11.759  17.341  1.00  0.00     0.038 C 
HETATM    3  C11 UNL     1      -2.139  11.032  16.006  1.00  0.00     0.132 C 
HETATM    4  C12 UNL     1      -1.113   9.869  15.975  1.00  0.00     0.016 C 
HETATM    5  C13 UNL     1      -1.669   8.686  16.831  1.00  0.00     0.023 C 
HETATM    6  C14 UNL     1      -0.710   9.256  14.622  1.00  0.00    -0.037 C 
HETATM    7  C15 UNL     1       0.539   8.740  14.459  1.00  0.00    -0.065 C 
HETATM    8  C16 UNL     1       1.569   8.764  15.600  1.00  0.00     0.036 C 
HETATM    9  C17 UNL     1       1.207   9.542  16.880  1.00  0.00     0.015 C 
HETATM   10  C18 UNL     1       0.136  10.605  16.615  1.00  0.00    -0.026 C 
HETATM   11  C19 UNL     1       0.748  11.711  15.695  1.00  0.00     0.016 C 
HETATM   12  C20 UNL     1       1.026   8.140  13.107  1.00  0.00    -0.015 C 
HETATM   13  C21 UNL     1       2.005   9.171  12.488  1.00  0.00     0.020 C 
HETATM   14  C22 UNL     1       1.777   6.800  13.347  1.00  0.00     0.021 C 
HETATM   15  C23 UNL     1       1.855   5.856  12.148  1.00  0.00     0.080 C 
HETATM   16  C24 UNL     1       1.539   6.528  10.831  1.00  0.00     0.135 C 
HETATM   17  O3  UNL     1       2.294   6.392   9.868  1.00  0.00    -0.297 OA
HETATM   18  C25 UNL     1       0.214   7.297  10.737  1.00  0.00     0.018 C 
HETATM   19  C26 UNL     1      -0.844   6.289  10.241  1.00  0.00     0.023 C 
HETATM   20  C27 UNL     1       0.337   8.401   9.667  1.00  0.00     0.023 C 
HETATM   21  C28 UNL     1      -0.184   7.826  12.158  1.00  0.00     0.016 C 
HETATM   22  C29 UNL     1      -1.171   9.002  12.127  1.00  0.00     0.043 C 
HETATM   23  C30 UNL     1      -1.748   9.258  13.519  1.00  0.00     0.148 C 
ENDROOT
BRANCH   1  24
HETATM   24  C7  UNL     1       0.272  12.405  18.618  1.00  0.00    -0.013 C 
HETATM   25  C8  UNL     1       1.521  12.876  17.867  1.00  0.00     0.010 C 
BRANCH  24  26
HETATM   26  C6  UNL     1       0.616  12.045  20.092  1.00  0.00     0.008 C 
BRANCH  26  27
HETATM   27  C5  UNL     1       2.015  11.497  20.404  1.00  0.00     0.028 C 
BRANCH  27  28
HETATM   28  C4  UNL     1       2.042  10.156  21.076  1.00  0.00    -0.017 C 
HETATM   29  C2  UNL     1       2.638   9.855  22.244  1.00  0.00    -0.028 C 
HETATM   30  C1  UNL     1       3.447  10.778  23.098  1.00  0.00     0.051 C 
BRANCH  29  31
HETATM   31  C3  UNL     1       2.515   8.454  22.754  1.00  0.00     0.265 C 
HETATM   32  O1  UNL     1       1.629   7.680  22.415  1.00  0.00    -0.302 OA
ENDBRANCH  29  31
ENDBRANCH  27  28
ENDBRANCH  26  27
ENDBRANCH  24  26
ENDBRANCH   1  24
BRANCH   3  33
HETATM   33  O2  UNL     1      -3.489  10.601  15.944  1.00  0.00    -0.394 OA
HETATM   34  H18 UNL     1      -4.055  11.390  15.948  1.00  0.00     0.210 HD
ENDBRANCH   3  33
BRANCH  23  35
HETATM   35  O4  UNL     1      -2.717   8.242  13.767  1.00  0.00    -0.391 OA
HETATM   36  H46 UNL     1      -2.328   7.604  14.386  1.00  0.00     0.210 HD
ENDBRANCH  23  35
TORSDOF 7
ENDMDL
MODEL 2
REMARK minimizedAffinity -7.26439619
REMARK CNNscore 0.666286409
REMARK CNNaffinity 6.7520256
REMARK  7 active torsions:
REMARK  status: ('A' for Active; 'I' for Inactive)
REMARK    1  A    between atoms: C2_2  and  C3_3 
REMARK    2  A    between atoms: C4_5  and  C5_6 
REMARK    3  A    between atoms: C5_6  and  C6_7 
REMARK    4  A    between atoms: C6_7  and  C7_8 
REMARK    5  A    between atoms: C7_8  and  C9_10 
REMARK    6  A    between atoms: C11_12  and  O2_13 
REMARK    7  A    between atoms: C30_33  and  O4_34 
ROOT
HETATM    1  C9  UNL     1      -2.497   9.107  15.519  1.00  0.00     0.001 C 
HETATM    2  C10 UNL     1      -1.484   8.618  16.595  1.00  0.00     0.038 C 
HETATM    3  C11 UNL     1      -0.203   8.179  15.857  1.00  0.00     0.132 C 
HETATM    4  C12 UNL     1      -0.337   8.772  14.430  1.00  0.00     0.016 C 
HETATM    5  C13 UNL     1       0.093  10.273  14.467  1.00  0.00     0.023 C 
HETATM    6  C14 UNL     1       0.455   8.136  13.274  1.00  0.00    -0.037 C 
HETATM    7  C15 UNL     1      -0.053   8.164  12.010  1.00  0.00    -0.065 C 
HETATM    8  C16 UNL     1      -1.415   8.811  11.712  1.00  0.00     0.036 C 
HETATM    9  C17 UNL     1      -2.270   9.276  12.907  1.00  0.00     0.015 C 
HETATM   10  C18 UNL     1      -1.888   8.543  14.197  1.00  0.00    -0.026 C 
HETATM   11  C19 UNL     1      -2.282   7.038  14.050  1.00  0.00     0.016 C 
HETATM   12  C20 UNL     1       0.676   7.508  10.802  1.00  0.00    -0.015 C 
HETATM   13  C21 UNL     1      -0.105   6.212  10.460  1.00  0.00     0.020 C 
HETATM   14  C22 UNL     1       0.652   8.459   9.572  1.00  0.00     0.021 C 
HETATM   15  C23 UNL     1       1.728   8.209   8.516  1.00  0.00     0.080 C 
HETATM   16  C24 UNL     1       2.387   6.854   8.637  1.00  0.00     0.135 C 
HETATM   17  O3  UNL     1       2.497   6.126   7.650  1.00  0.00    -0.297 OA
HETATM   18  C25 UNL     1       2.978   6.483  10.004  1.00  0.00     0.018 C 
HETATM   19  C26 UNL     1       4.443   6.966   9.996  1.00  0.00     0.023 C 
HETATM   20  C27 UNL     1       3.000   4.948  10.153  1.00  0.00     0.023 C 
HETATM   21  C28 UNL     1       2.183   7.223  11.134  1.00  0.00     0.016 C 
HETATM   22  C29 UNL     1       2.321   6.570  12.518  1.00  0.00     0.043 C 
HETATM   23  C30 UNL     1       1.789   7.501  13.607  1.00  0.00     0.148 C 
ENDROOT
BRANCH   1  24
HETATM   24  C7  UNL     1      -3.967   8.769  15.899  1.00  0.00    -0.013 C 
HETATM   25  C8  UNL     1      -4.614   7.754  14.951  1.00  0.00     0.010 C 
BRANCH  24  26
HETATM   26  C6  UNL     1      -4.866  10.028  16.057  1.00  0.00     0.008 C 
BRANCH  26  27
HETATM   27  C5  UNL     1      -4.235  11.411  15.848  1.00  0.00     0.028 C 
BRANCH  27  28
HETATM   28  C4  UNL     1      -4.483  12.401  16.947  1.00  0.00    -0.017 C 
HETATM   29  C2  UNL     1      -3.798  12.509  18.100  1.00  0.00    -0.028 C 
HETATM   30  C1  UNL     1      -2.676  11.634  18.558  1.00  0.00     0.051 C 
BRANCH  29  31
HETATM   31  C3  UNL     1      -4.192  13.595  19.051  1.00  0.00     0.265 C 
HETATM   32  O1  UNL     1      -3.401  14.198  19.765  1.00  0.00    -0.302 OA
ENDBRANCH  29  31
ENDBRANCH  27  28
ENDBRANCH  26  27
ENDBRANCH  24  26
ENDBRANCH   1  24
BRANCH   3  33
HETATM   33  O2  UNL     1       0.942   8.638  16.558  1.00  0.00    -0.394 OA
HETATM   34  H18 UNL     1       0.955   8.203  17.426  1.00  0.00     0.210 HD
ENDBRANCH   3  33
BRANCH  23  35
HETATM   35  O4  UNL     1       2.769   8.515  13.810  1.00  0.00    -0.391 OA
HETATM   36  H46 UNL     1       2.446   9.329  13.393  1.00  0.00     0.210 HD
ENDBRANCH  23  35
TORSDOF 7
ENDMDL
MODEL 3
REMARK minimizedAffinity -6.82200909
REMARK CNNscore 0.659414887
REMARK CNNaffinity 6.5682168
REMARK  7 active torsions:
REMARK  status: ('A' for Active; 'I' for Inactive)
REMARK    1  A    between atoms: C2_2  and  C3_3 
REMARK    2  A    between atoms: C4_5  and  C5_6 
REMARK    3  A    between atoms: C5_6  and  C6_7 
REMARK    4  A    between atoms: C6_7  and  C7_8 
REMARK    5  A    between atoms: C7_8  and  C9_10 
REMARK    6  A    between atoms: C11_12  and  O2_13 
REMARK    7  A    between atoms: C30_33  and  O4_34 
ROOT
HETATM    1  C9  UNL     1      -2.981  12.304  17.765  1.00  0.00     0.001 C 
HETATM    2  C10 UNL     1      -2.027  11.788  18.882  1.00  0.00     0.038 C 
HETATM    3  C11 UNL     1      -1.080  10.754  18.241  1.00  0.00     0.132 C 
HETATM    4  C12 UNL     1      -1.231  10.965  16.711  1.00  0.00     0.016 C 
HETATM    5  C13 UNL     1      -0.343  12.177  16.281  1.00  0.00     0.023 C 
HETATM    6  C14 UNL     1      -0.867   9.817  15.753  1.00  0.00    -0.037 C 
HETATM    7  C15 UNL     1      -1.524   9.692  14.567  1.00  0.00    -0.065 C 
HETATM    8  C16 UNL     1      -2.637  10.673  14.163  1.00  0.00     0.036 C 
HETATM    9  C17 UNL     1      -3.107  11.700  15.211  1.00  0.00     0.015 C 
HETATM   10  C18 UNL     1      -2.790  11.241  16.639  1.00  0.00    -0.026 C 
HETATM   11  C19 UNL     1      -3.662   9.985  16.963  1.00  0.00     0.016 C 
HETATM   12  C20 UNL     1      -1.234   8.534  13.569  1.00  0.00    -0.015 C 
HETATM   13  C21 UNL     1      -2.430   7.551  13.666  1.00  0.00     0.020 C 
HETATM   14  C22 UNL     1      -1.137   9.080  12.116  1.00  0.00     0.021 C 
HETATM   15  C23 UNL     1      -0.370   8.205  11.125  1.00  0.00     0.080 C 
HETATM   16  C24 UNL     1      -0.168   6.787  11.606  1.00  0.00     0.135 C 
HETATM   17  O3  UNL     1      -0.446   5.837  10.873  1.00  0.00    -0.297 OA
HETATM   18  C25 UNL     1       0.473   6.600  12.988  1.00  0.00     0.018 C 
HETATM   19  C26 UNL     1       1.996   6.522  12.760  1.00  0.00     0.023 C 
HETATM   20  C27 UNL     1       0.025   5.249  13.581  1.00  0.00     0.023 C 
HETATM   21  C28 UNL     1       0.135   7.837  13.890  1.00  0.00     0.016 C 
HETATM   22  C29 UNL     1       0.264   7.559  15.396  1.00  0.00     0.043 C 
HETATM   23  C30 UNL     1       0.228   8.866  16.189  1.00  0.00     0.148 C 
ENDROOT
BRANCH   1  24
HETATM   24  C7  UNL     1      -4.406  12.611  18.306  1.00  0.00    -0.013 C 
HETATM   25  C8  UNL     1      -5.087  13.775  17.577  1.00  0.00     0.010 C 
BRANCH  24  26
HETATM   26  C6  UNL     1      -4.448  12.824  19.846  1.00  0.00     0.008 C 
BRANCH  26  27
HETATM   27  C5  UNL     1      -5.341  13.938  20.408  1.00  0.00     0.028 C 
BRANCH  27  28
HETATM   28  C4  UNL     1      -6.061  13.602  21.680  1.00  0.00    -0.017 C 
HETATM   29  C2  UNL     1      -7.362  13.286  21.807  1.00  0.00    -0.028 C 
HETATM   30  C1  UNL     1      -8.384  13.253  20.716  1.00  0.00     0.051 C 
BRANCH  29  31
HETATM   31  C3  UNL     1      -7.872  12.951  23.173  1.00  0.00     0.265 C 
HETATM   32  O1  UNL     1      -8.946  12.403  23.385  1.00  0.00    -0.302 OA
ENDBRANCH  29  31
ENDBRANCH  27  28
ENDBRANCH  26  27
ENDBRANCH  24  26
ENDBRANCH   1  24
BRANCH   3  33
HETATM   33  O2  UNL     1       0.243  10.950  18.713  1.00  0.00    -0.394 OA
HETATM   34  H18 UNL     1       0.248  10.777  19.669  1.00  0.00     0.210 HD
ENDBRANCH   3  33
BRANCH  23  35
HETATM   35  O4  UNL     1       1.500   9.489  16.031  1.00  0.00    -0.391 OA
HETATM   36  H46 UNL     1       1.394  10.227  15.410  1.00  0.00     0.210 HD
ENDBRANCH  23  35
TORSDOF 7
ENDMDL
MODEL 4
REMARK minimizedAffinity -8.89902115
REMARK CNNscore 0.629237413
REMARK CNNaffinity 7.08700943
REMARK  7 active torsions:
REMARK  status: ('A' for Active; 'I' for Inactive)
REMARK    1  A    between atoms: C2_2  and  C3_3 
REMARK    2  A    between atoms: C4_5  and  C5_6 
REMARK    3  A    between atoms: C5_6  and  C6_7 
REMARK    4  A    between atoms: C6_7  and  C7_8 
REMARK    5  A    between atoms: C7_8  and  C9_10 
REMARK    6  A    between atoms: C11_12  and  O2_13 
REMARK    7  A    between atoms: C30_33  and  O4_34 
ROOT
HETATM    1  C9  UNL     1      -3.024   8.301  15.318  1.00  0.00     0.001 C 
HETATM    2  C10 UNL     1      -1.963   8.038  16.425  1.00  0.00     0.038 C 
HETATM    3  C11 UNL     1      -0.594   7.892  15.730  1.00  0.00     0.132 C 
HETATM    4  C12 UNL     1      -0.810   8.451  14.299  1.00  0.00     0.016 C 
HETATM    5  C13 UNL     1      -0.719  10.010  14.349  1.00  0.00     0.023 C 
HETATM    6  C14 UNL     1       0.137   8.011  13.168  1.00  0.00    -0.037 C 
HETATM    7  C15 UNL     1      -0.325   7.936  11.889  1.00  0.00    -0.065 C 
HETATM    8  C16 UNL     1      -1.785   8.272  11.547  1.00  0.00     0.036 C 
HETATM    9  C17 UNL     1      -2.757   8.533  12.714  1.00  0.00     0.015 C 
HETATM   10  C18 UNL     1      -2.266   7.892  14.017  1.00  0.00    -0.026 C 
HETATM   11  C19 UNL     1      -2.318   6.338  13.858  1.00  0.00     0.016 C 
HETATM   12  C20 UNL     1       0.567   7.462  10.705  1.00  0.00    -0.015 C 
HETATM   13  C21 UNL     1       0.099   6.030  10.339  1.00  0.00     0.020 C 
HETATM   14  C22 UNL     1       0.375   8.393   9.475  1.00  0.00     0.021 C 
HETATM   15  C23 UNL     1       1.512   8.390   8.453  1.00  0.00     0.080 C 
HETATM   16  C24 UNL     1       2.446   7.211   8.597  1.00  0.00     0.135 C 
HETATM   17  O3  UNL     1       2.744   6.531   7.613  1.00  0.00    -0.297 OA
HETATM   18  C25 UNL     1       3.061   6.969   9.982  1.00  0.00     0.018 C 
HETATM   19  C26 UNL     1       4.385   7.760  10.020  1.00  0.00     0.023 C 
HETATM   20  C27 UNL     1       3.412   5.475  10.132  1.00  0.00     0.023 C 
HETATM   21  C28 UNL     1       2.089   7.510  11.086  1.00  0.00     0.016 C 
HETATM   22  C29 UNL     1       2.322   6.894  12.473  1.00  0.00     0.043 C 
HETATM   23  C30 UNL     1       1.566   7.680  13.545  1.00  0.00     0.148 C 
ENDROOT
BRANCH   1  24
HETATM   24  C7  UNL     1      -4.396   7.648  15.651  1.00  0.00    -0.013 C 
HETATM   25  C8  UNL     1      -4.316   6.125  15.801  1.00  0.00     0.010 C 
BRANCH  24  26
HETATM   26  C6  UNL     1      -5.524   8.046  14.657  1.00  0.00     0.008 C 
BRANCH  26  27
HETATM   27  C5  UNL     1      -5.716   7.202  13.390  1.00  0.00     0.028 C 
BRANCH  27  28
HETATM   28  C4  UNL     1      -6.896   6.277  13.409  1.00  0.00    -0.017 C 
HETATM   29  C2  UNL     1      -6.896   4.968  13.102  1.00  0.00    -0.028 C 
HETATM   30  C1  UNL     1      -5.729   4.163  12.625  1.00  0.00     0.051 C 
BRANCH  29  31
HETATM   31  C3  UNL     1      -8.185   4.219  13.220  1.00  0.00     0.265 C 
HETATM   32  O1  UNL     1      -8.287   3.008  13.068  1.00  0.00    -0.302 OA
ENDBRANCH  29  31
ENDBRANCH  27  28
ENDBRANCH  26  27
ENDBRANCH  24  26
ENDBRANCH   1  24
BRANCH   3  33
HETATM   33  O2  UNL     1       0.400   8.586  16.466  1.00  0.00    -0.394 OA
HETATM   34  H18 UNL     1       0.481   8.158  17.334  1.00  0.00     0.210 HD
ENDBRANCH   3  33
BRANCH  23  35
HETATM   35  O4  UNL     1       2.295   8.882  13.778  1.00  0.00    -0.391 OA
HETATM   36  H46 UNL     1       1.816   9.609  13.351  1.00  0.00     0.210 HD
ENDBRANCH  23  35
TORSDOF 7
ENDMDL
MODEL 5
REMARK minimizedAffinity -7.00988579
REMARK CNNscore 0.619343221
REMARK CNNaffinity 6.39747238
REMARK  7 active torsions:
REMARK  status: ('A' for Active; 'I' for Inactive)
REMARK    1  A    between atoms: C2_2  and  C3_3 
REMARK    2  A    between atoms: C4_5  and  C5_6 
REMARK    3  A    between atoms: C5_6  and  C6_7 
REMARK    4  A    between atoms: C6_7  and  C7_8 
REMARK    5  A    between atoms: C7_8  and  C9_10 
REMARK    6  A    between atoms: C11_12  and  O2_13 
REMARK    7  A    between atoms: C30_33  and  O4_34 
ROOT
HETATM    1  C9  UNL     1       1.078  12.511  18.737  1.00  0.00     0.001 C 
HETATM    2  C10 UNL     1       2.312  11.583  18.937  1.00  0.00     0.038 C 
HETATM    3  C11 UNL     1       2.156  10.392  17.971  1.00  0.00     0.132 C 
HETATM    4  C12 UNL     1       1.059  10.830  16.966  1.00  0.00     0.016 C 
HETATM    5  C13 UNL     1       1.711  11.741  15.877  1.00  0.00     0.023 C 
HETATM    6  C14 UNL     1       0.270   9.755  16.197  1.00  0.00    -0.037 C 
HETATM    7  C15 UNL     1      -1.020   9.995  15.831  1.00  0.00    -0.065 C 
HETATM    8  C16 UNL     1      -1.715  11.321  16.180  1.00  0.00     0.036 C 
HETATM    9  C17 UNL     1      -0.970  12.304  17.104  1.00  0.00     0.015 C 
HETATM   10  C18 UNL     1       0.086  11.593  17.957  1.00  0.00    -0.026 C 
HETATM   11  C19 UNL     1      -0.643  10.648  18.967  1.00  0.00     0.016 C 
HETATM   12  C20 UNL     1      -1.888   8.940  15.086  1.00  0.00    -0.015 C 
HETATM   13  C21 UNL     1      -2.899   8.383  16.121  1.00  0.00     0.020 C 
HETATM   14  C22 UNL     1      -2.666   9.605  13.916  1.00  0.00     0.021 C 
HETATM   15  C23 UNL     1      -3.132   8.663  12.806  1.00  0.00     0.080 C 
HETATM   16  C24 UNL     1      -3.108   7.206  13.203  1.00  0.00     0.135 C 
HETATM   17  O3  UNL     1      -4.094   6.493  13.010  1.00  0.00    -0.297 OA
HETATM   18  C25 UNL     1      -1.790   6.654  13.762  1.00  0.00     0.018 C 
HETATM   19  C26 UNL     1      -0.987   6.125  12.555  1.00  0.00     0.023 C 
HETATM   20  C27 UNL     1      -2.087   5.451  14.681  1.00  0.00     0.023 C 
HETATM   21  C28 UNL     1      -0.995   7.810  14.461  1.00  0.00     0.016 C 
HETATM   22  C29 UNL     1       0.050   7.319  15.475  1.00  0.00     0.043 C 
HETATM   23  C30 UNL     1       0.985   8.459  15.878  1.00  0.00     0.148 C 
ENDROOT
BRANCH   1  24
HETATM   24  C7  UNL     1       0.627  13.184  20.065  1.00  0.00    -0.013 C 
HETATM   25  C8  UNL     1      -0.345  14.348  19.848  1.00  0.00     0.010 C 
BRANCH  24  26
HETATM   26  C6  UNL     1       1.816  13.620  20.968  1.00  0.00     0.008 C 
BRANCH  26  27
HETATM   27  C5  UNL     1       2.344  12.628  22.014  1.00  0.00     0.028 C 
BRANCH  27  28
HETATM   28  C4  UNL     1       3.817  12.705  22.284  1.00  0.00    -0.017 C 
HETATM   29  C2  UNL     1       4.606  11.709  22.724  1.00  0.00    -0.028 C 
HETATM   30  C1  UNL     1       4.175  10.324  23.090  1.00  0.00     0.051 C 
BRANCH  29  31
HETATM   31  C3  UNL     1       6.064  11.992  22.897  1.00  0.00     0.265 C 
HETATM   32  O1  UNL     1       6.509  13.059  23.300  1.00  0.00    -0.302 OA
ENDBRANCH  29  31
ENDBRANCH  27  28
ENDBRANCH  26  27
ENDBRANCH  24  26
ENDBRANCH   1  24
BRANCH   3  33
HETATM   33  O2  UNL     1       3.401  10.096  17.360  1.00  0.00    -0.394 OA
HETATM   34  H18 UNL     1       4.016   9.813  18.057  1.00  0.00     0.210 HD
ENDBRANCH   3  33
BRANCH  23  35
HETATM   35  O4  UNL     1       1.892   8.662  14.797  1.00  0.00    -0.391 OA
HETATM   36  H46 UNL     1       1.622   9.466  14.329  1.00  0.00     0.210 HD
ENDBRANCH  23  35
TORSDOF 7
ENDMDL
MODEL 6
REMARK minimizedAffinity -6.7866044
REMARK CNNscore 0.614271104
REMARK CNNaffinity 6.57016611
REMARK  7 active torsions:
REMARK  status: ('A' for Active; 'I' for Inactive)
REMARK    1  A    between atoms: C2_2  and  C3_3 
REMARK    2  A    between atoms: C4_5  and  C5_6 
REMARK    3  A    between atoms: C5_6  and  C6_7 
REMARK    4  A    between atoms: C6_7  and  C7_8 
REMARK    5  A    between atoms: C7_8  and  C9_10 
REMARK    6  A    between atoms: C11_12  and  O2_13 
REMARK    7  A    between atoms: C30_33  and  O4_34 
ROOT
HETATM    1  C9  UNL     1     -13.670   8.341  14.142  1.00  0.00     0.001 C 
HETATM    2  C10 UNL     1     -13.843   8.337  12.595  1.00  0.00     0.038 C 
HETATM    3  C11 UNL     1     -15.000   7.374  12.262  1.00  0.00     0.132 C 
HETATM    4  C12 UNL     1     -15.726   7.136  13.612  1.00  0.00     0.016 C 
HETATM    5  C13 UNL     1     -16.688   8.337  13.884  1.00  0.00     0.023 C 
HETATM    6  C14 UNL     1     -16.578   5.867  13.795  1.00  0.00    -0.037 C 
HETATM    7  C15 UNL     1     -16.698   5.305  15.029  1.00  0.00    -0.065 C 
HETATM    8  C16 UNL     1     -15.988   5.908  16.253  1.00  0.00     0.036 C 
HETATM    9  C17 UNL     1     -15.000   7.065  16.015  1.00  0.00     0.015 C 
HETATM   10  C18 UNL     1     -14.471   7.074  14.576  1.00  0.00    -0.026 C 
HETATM   11  C19 UNL     1     -13.582   5.806  14.364  1.00  0.00     0.016 C 
HETATM   12  C20 UNL     1     -17.511   4.002  15.279  1.00  0.00    -0.015 C 
HETATM   13  C21 UNL     1     -16.478   2.868  15.506  1.00  0.00     0.020 C 
HETATM   14  C22 UNL     1     -18.396   4.149  16.549  1.00  0.00     0.021 C 
HETATM   15  C23 UNL     1     -19.597   3.208  16.637  1.00  0.00     0.080 C 
HETATM   16  C24 UNL     1     -19.514   2.037  15.686  1.00  0.00     0.135 C 
HETATM   17  O3  UNL     1     -19.705   0.890  16.094  1.00  0.00    -0.297 OA
HETATM   18  C25 UNL     1     -19.275   2.353  14.203  1.00  0.00     0.018 C 
HETATM   19  C26 UNL     1     -20.667   2.514  13.558  1.00  0.00     0.023 C 
HETATM   20  C27 UNL     1     -18.590   1.149  13.526  1.00  0.00     0.023 C 
HETATM   21  C28 UNL     1     -18.475   3.696  14.080  1.00  0.00     0.016 C 
HETATM   22  C29 UNL     1     -17.745   3.860  12.738  1.00  0.00     0.043 C 
HETATM   23  C30 UNL     1     -17.255   5.298  12.565  1.00  0.00     0.148 C 
ENDROOT
BRANCH   1  24
HETATM   24  C7  UNL     1     -12.182   8.498  14.566  1.00  0.00    -0.013 C 
HETATM   25  C8  UNL     1     -11.464   9.635  13.830  1.00  0.00     0.010 C 
BRANCH  24  26
HETATM   26  C6  UNL     1     -11.370   7.176  14.464  1.00  0.00     0.008 C 
BRANCH  26  27
HETATM   27  C5  UNL     1      -9.848   7.234  14.649  1.00  0.00     0.028 C 
BRANCH  27  28
HETATM   28  C4  UNL     1      -9.056   6.355  13.727  1.00  0.00    -0.017 C 
HETATM   29  C2  UNL     1      -8.068   5.510  14.074  1.00  0.00    -0.028 C 
HETATM   30  C1  UNL     1      -7.510   5.304  15.446  1.00  0.00     0.051 C 
BRANCH  29  31
HETATM   31  C3  UNL     1      -7.429   4.697  12.993  1.00  0.00     0.265 C 
HETATM   32  O1  UNL     1      -7.836   3.600  12.632  1.00  0.00    -0.302 OA
ENDBRANCH  29  31
ENDBRANCH  27  28
ENDBRANCH  26  27
ENDBRANCH  24  26
ENDBRANCH   1  24
BRANCH   3  33
HETATM   33  O2  UNL     1     -15.831   7.941  11.262  1.00  0.00    -0.394 OA
HETATM   34  H18 UNL     1     -15.303   8.035  10.452  1.00  0.00     0.210 HD
ENDBRANCH   3  33
BRANCH  23  35
HETATM   35  O4  UNL     1     -18.390   6.091  12.228  1.00  0.00    -0.391 OA
HETATM   36  H46 UNL     1     -18.640   6.602  13.014  1.00  0.00     0.210 HD
ENDBRANCH  23  35
TORSDOF 7
ENDMDL
MODEL 7
REMARK minimizedAffinity -8.63064671
REMARK CNNscore 0.57756561
REMARK CNNaffinity 6.99571371
REMARK  7 active torsions:
REMARK  status: ('A' for Active; 'I' for Inactive)
REMARK    1  A    between atoms: C2_2  and  C3_3 
REMARK    2  A    between atoms: C4_5  and  C5_6 
REMARK    3  A    between atoms: C5_6  and  C6_7 
REMARK    4  A    between atoms: C6_7  and  C7_8 
REMARK    5  A    between atoms: C7_8  and  C9_10 
REMARK    6  A    between atoms: C11_12  and  O2_13 
REMARK    7  A    between atoms: C30_33  and  O4_34 
ROOT
HETATM    1  C9  UNL     1      -0.861   6.215  11.667  1.00  0.00     0.001 C 
HETATM    2  C10 UNL     1      -1.138   5.051  12.662  1.00  0.00     0.038 C 
HETATM    3  C11 UNL     1      -1.625   5.679  13.984  1.00  0.00     0.132 C 
HETATM    4  C12 UNL     1      -1.993   7.142  13.622  1.00  0.00     0.016 C 
HETATM    5  C13 UNL     1      -3.420   7.159  12.985  1.00  0.00     0.023 C 
HETATM    6  C14 UNL     1      -2.016   8.208  14.731  1.00  0.00    -0.037 C 
HETATM    7  C15 UNL     1      -1.711   9.502  14.432  1.00  0.00    -0.065 C 
HETATM    8  C16 UNL     1      -1.330   9.922  13.003  1.00  0.00     0.036 C 
HETATM    9  C17 UNL     1      -1.137   8.812  11.952  1.00  0.00     0.015 C 
HETATM   10  C18 UNL     1      -0.821   7.462  12.604  1.00  0.00    -0.026 C 
HETATM   11  C19 UNL     1       0.586   7.552  13.280  1.00  0.00     0.016 C 
HETATM   12  C20 UNL     1      -1.677  10.623  15.510  1.00  0.00    -0.015 C 
HETATM   13  C21 UNL     1      -0.183  10.944  15.774  1.00  0.00     0.020 C 
HETATM   14  C22 UNL     1      -2.390  11.902  14.987  1.00  0.00     0.021 C 
HETATM   15  C23 UNL     1      -2.890  12.871  16.057  1.00  0.00     0.080 C 
HETATM   16  C24 UNL     1      -2.277  12.634  17.418  1.00  0.00     0.135 C 
HETATM   17  O3  UNL     1      -1.791  13.571  18.052  1.00  0.00    -0.297 OA
HETATM   18  C25 UNL     1      -2.373  11.214  17.992  1.00  0.00     0.018 C 
HETATM   19  C26 UNL     1      -3.685  11.153  18.800  1.00  0.00     0.023 C 
HETATM   20  C27 UNL     1      -1.212  10.981  18.979  1.00  0.00     0.023 C 
HETATM   21  C28 UNL     1      -2.428  10.179  16.815  1.00  0.00     0.016 C 
HETATM   22  C29 UNL     1      -2.016   8.756  17.222  1.00  0.00     0.043 C 
HETATM   23  C30 UNL     1      -2.387   7.755  16.127  1.00  0.00     0.148 C 
ENDROOT
BRANCH   1  24
HETATM   24  C7  UNL     1       0.343   5.913  10.730  1.00  0.00    -0.013 C 
HETATM   25  C8  UNL     1       1.478   5.162  11.434  1.00  0.00     0.010 C 
BRANCH  24  26
HETATM   26  C6  UNL     1       0.886   7.174   9.999  1.00  0.00     0.008 C 
BRANCH  26  27
HETATM   27  C5  UNL     1       2.356   7.191   9.560  1.00  0.00     0.028 C 
BRANCH  27  28
HETATM   28  C4  UNL     1       2.748   6.113   8.593  1.00  0.00    -0.017 C 
HETATM   29  C2  UNL     1       2.538   6.110   7.265  1.00  0.00    -0.028 C 
HETATM   30  C1  UNL     1       1.824   7.157   6.471  1.00  0.00     0.051 C 
BRANCH  29  31
HETATM   31  C3  UNL     1       3.042   4.942   6.477  1.00  0.00     0.265 C 
HETATM   32  O1  UNL     1       3.512   3.930   6.981  1.00  0.00    -0.302 OA
ENDBRANCH  29  31
ENDBRANCH  27  28
ENDBRANCH  26  27
ENDBRANCH  24  26
ENDBRANCH   1  24
BRANCH   3  33
HETATM   33  O2  UNL     1      -2.713   4.932  14.504  1.00  0.00    -0.394 OA
HETATM   34  H18 UNL     1      -2.388   4.042  14.720  1.00  0.00     0.210 HD
ENDBRANCH   3  33
BRANCH  23  35
HETATM   35  O4  UNL     1      -3.794   7.545  16.208  1.00  0.00    -0.391 OA
HETATM   36  H46 UNL     1      -4.210   8.025  15.475  1.00  0.00     0.210 HD
ENDBRANCH  23  35
TORSDOF 7
ENDMDL
MODEL 8
REMARK minimizedAffinity -8.90572166
REMARK CNNscore 0.522264838
REMARK CNNaffinity 7.08762121
REMARK  7 active torsions:
REMARK  status: ('A' for Active; 'I' for Inactive)
REMARK    1  A    between atoms: C2_2  and  C3_3 
REMARK    2  A    between atoms: C4_5  and  C5_6 
REMARK    3  A    between atoms: C5_6  and  C6_7 
REMARK    4  A    between atoms: C6_7  and  C7_8 
REMARK    5  A    between atoms: C7_8  and  C9_10 
REMARK    6  A    between atoms: C11_12  and  O2_13 
REMARK    7  A    between atoms: C30_33  and  O4_34 
ROOT
HETATM    1  C9  UNL     1      -3.853   7.167  14.614  1.00  0.00     0.001 C 
HETATM    2  C10 UNL     1      -4.400   5.982  13.765  1.00  0.00     0.038 C 
HETATM    3  C11 UNL     1      -3.244   5.474  12.880  1.00  0.00     0.132 C 
HETATM    4  C12 UNL     1      -1.964   6.098  13.495  1.00  0.00     0.016 C 
HETATM    5  C13 UNL     1      -1.523   5.235  14.720  1.00  0.00     0.023 C 
HETATM    6  C14 UNL     1      -0.708   6.256  12.619  1.00  0.00    -0.037 C 
HETATM    7  C15 UNL     1       0.154   7.285  12.851  1.00  0.00    -0.065 C 
HETATM    8  C16 UNL     1      -0.106   8.306  13.970  1.00  0.00     0.036 C 
HETATM    9  C17 UNL     1      -1.455   8.236  14.712  1.00  0.00     0.015 C 
HETATM   10  C18 UNL     1      -2.527   7.530  13.875  1.00  0.00    -0.026 C 
HETATM   11  C19 UNL     1      -2.857   8.421  12.634  1.00  0.00     0.016 C 
HETATM   12  C20 UNL     1       1.421   7.526  11.981  1.00  0.00    -0.015 C 
HETATM   13  C21 UNL     1       1.118   8.753  11.082  1.00  0.00     0.020 C 
HETATM   14  C22 UNL     1       2.647   7.843  12.883  1.00  0.00     0.021 C 
HETATM   15  C23 UNL     1       4.018   7.595  12.254  1.00  0.00     0.080 C 
HETATM   16  C24 UNL     1       3.975   7.460  10.750  1.00  0.00     0.135 C 
HETATM   17  O3  UNL     1       4.749   8.109  10.045  1.00  0.00    -0.297 OA
HETATM   18  C25 UNL     1       3.000   6.427  10.167  1.00  0.00     0.018 C 
HETATM   19  C26 UNL     1       3.778   5.100  10.058  1.00  0.00     0.023 C 
HETATM   20  C27 UNL     1       2.603   6.848   8.737  1.00  0.00     0.023 C 
HETATM   21  C28 UNL     1       1.784   6.251  11.141  1.00  0.00     0.016 C 
HETATM   22  C29 UNL     1       0.532   5.666  10.470  1.00  0.00     0.043 C 
HETATM   23  C30 UNL     1      -0.490   5.235  11.521  1.00  0.00     0.148 C 
ENDROOT
BRANCH   1  24
HETATM   24  C7  UNL     1      -4.929   8.264  14.855  1.00  0.00    -0.013 C 
HETATM   25  C8  UNL     1      -4.381   9.492  15.588  1.00  0.00     0.010 C 
BRANCH  24  26
HETATM   26  C6  UNL     1      -6.208   7.726  15.558  1.00  0.00     0.008 C 
BRANCH  26  27
HETATM   27  C5  UNL     1      -7.355   7.195  14.688  1.00  0.00     0.028 C 
BRANCH  27  28
HETATM   28  C4  UNL     1      -7.417   5.702  14.552  1.00  0.00    -0.017 C 
HETATM   29  C2  UNL     1      -7.891   5.011  13.501  1.00  0.00    -0.028 C 
HETATM   30  C1  UNL     1      -8.505   5.579  12.261  1.00  0.00     0.051 C 
BRANCH  29  31
HETATM   31  C3  UNL     1      -7.830   3.517  13.558  1.00  0.00     0.265 C 
HETATM   32  O1  UNL     1      -8.434   2.779  12.790  1.00  0.00    -0.302 OA
ENDBRANCH  29  31
ENDBRANCH  27  28
ENDBRANCH  26  27
ENDBRANCH  24  26
ENDBRANCH   1  24
BRANCH   3  33
HETATM   33  O2  UNL     1      -3.233   4.056  12.863  1.00  0.00    -0.394 OA
HETATM   34  H18 UNL     1      -4.057   3.756  12.446  1.00  0.00     0.210 HD
ENDBRANCH   3  33
BRANCH  23  35
HETATM   35  O4  UNL     1      -0.025   4.012  12.085  1.00  0.00    -0.391 OA
HETATM   36  H46 UNL     1       0.333   4.207  12.966  1.00  0.00     0.210 HD
ENDBRANCH  23  35
TORSDOF 7
ENDMDL
MODEL 9
REMARK minimizedAffinity -6.65523577
REMARK CNNscore 0.519295216
REMARK CNNaffinity 5.73093033
REMARK  7 active torsions:
REMARK  status: ('A' for Active; 'I' for Inactive)
REMARK    1  A    between atoms: C2_2  and  C3_3 
REMARK    2  A    between atoms: C4_5  and  C5_6 
REMARK    3  A    between atoms: C5_6  and  C6_7 
REMARK    4  A    between atoms: C6_7  and  C7_8 
REMARK    5  A    between atoms: C7_8  and  C9_10 
REMARK    6  A    between atoms: C11_12  and  O2_13 
REMARK    7  A    between atoms: C30_33  and  O4_34 
ROOT
HETATM    1  C9  UNL     1      -4.965 -10.065   7.163  1.00  0.00     0.001 C 
HETATM    2  C10 UNL     1      -3.820 -10.992   7.668  1.00  0.00     0.038 C 
HETATM    3  C11 UNL     1      -3.192 -11.667   6.432  1.00  0.00     0.132 C 
HETATM    4  C12 UNL     1      -3.707 -10.846   5.221  1.00  0.00     0.016 C 
HETATM    5  C13 UNL     1      -2.829  -9.561   5.075  1.00  0.00     0.023 C 
HETATM    6  C14 UNL     1      -3.733 -11.497   3.827  1.00  0.00    -0.037 C 
HETATM    7  C15 UNL     1      -4.682 -11.125   2.924  1.00  0.00    -0.065 C 
HETATM    8  C16 UNL     1      -5.743 -10.068   3.271  1.00  0.00     0.036 C 
HETATM    9  C17 UNL     1      -5.810  -9.565   4.726  1.00  0.00     0.015 C 
HETATM   10  C18 UNL     1      -5.191 -10.570   5.704  1.00  0.00    -0.026 C 
HETATM   11  C19 UNL     1      -6.086 -11.851   5.735  1.00  0.00     0.016 C 
HETATM   12  C20 UNL     1      -4.791 -11.768   1.511  1.00  0.00    -0.015 C 
HETATM   13  C21 UNL     1      -6.024 -12.708   1.542  1.00  0.00     0.020 C 
HETATM   14  C22 UNL     1      -5.010 -10.673   0.430  1.00  0.00     0.021 C 
HETATM   15  C23 UNL     1      -4.626 -11.060  -0.998  1.00  0.00     0.080 C 
HETATM   16  C24 UNL     1      -4.468 -12.549  -1.196  1.00  0.00     0.135 C 
HETATM   17  O3  UNL     1      -5.030 -13.114  -2.135  1.00  0.00    -0.297 OA
HETATM   18  C25 UNL     1      -3.519 -13.286  -0.241  1.00  0.00     0.018 C 
HETATM   19  C26 UNL     1      -2.124 -13.259  -0.899  1.00  0.00     0.023 C 
HETATM   20  C27 UNL     1      -3.948 -14.763  -0.131  1.00  0.00     0.023 C 
HETATM   21  C28 UNL     1      -3.472 -12.532   1.132  1.00  0.00     0.016 C 
HETATM   22  C29 UNL     1      -2.993 -13.404   2.303  1.00  0.00     0.043 C 
HETATM   23  C30 UNL     1      -2.677 -12.539   3.523  1.00  0.00     0.148 C 
ENDROOT
BRANCH   1  24
HETATM   24  C7  UNL     1      -6.160 -10.013   8.157  1.00  0.00    -0.013 C 
HETATM   25  C8  UNL     1      -6.637  -8.586   8.446  1.00  0.00     0.010 C 
BRANCH  24  26
HETATM   26  C6  UNL     1      -5.893 -10.784   9.481  1.00  0.00     0.008 C 
BRANCH  26  27
HETATM   27  C5  UNL     1      -5.593  -9.977  10.752  1.00  0.00     0.028 C 
BRANCH  27  28
HETATM   28  C4  UNL     1      -6.673  -9.995  11.792  1.00  0.00    -0.017 C 
HETATM   29  C2  UNL     1      -7.013 -11.031  12.579  1.00  0.00    -0.028 C 
HETATM   30  C1  UNL     1      -6.422 -12.405  12.552  1.00  0.00     0.051 C 
BRANCH  29  31
HETATM   31  C3  UNL     1      -8.105 -10.824  13.580  1.00  0.00     0.265 C 
HETATM   32  O1  UNL     1      -8.531  -9.724  13.907  1.00  0.00    -0.302 OA
ENDBRANCH  29  31
ENDBRANCH  27  28
ENDBRANCH  26  27
ENDBRANCH  24  26
ENDBRANCH   1  24
BRANCH   3  33
HETATM   33  O2  UNL     1      -1.779 -11.679   6.551  1.00  0.00    -0.394 OA
HETATM   34  H18 UNL     1      -1.548 -12.229   7.318  1.00  0.00     0.210 HD
ENDBRANCH   3  33
BRANCH  23  35
HETATM   35  O4  UNL     1      -1.427 -11.902   3.276  1.00  0.00    -0.391 OA
HETATM   36  H46 UNL     1      -1.604 -10.974   3.054  1.00  0.00     0.210 HD
ENDBRANCH  23  35
TORSDOF 7
ENDMDL
