MODEL 1
REMARK minimizedAffinity -7.71084023
REMARK CNNscore 0.583771586
REMARK CNNaffinity 7.80201006
REMARK  12 active torsions:
REMARK  status: ('A' for Active; 'I' for Inactive)
REMARK    1  A    between atoms: C2_2  and  C3_3 
REMARK    2  A    between atoms: C2_2  and  C9_10 
REMARK    3  A    between atoms: C3_3  and  C4_4 
REMARK    4  A    between atoms: C5_5  and  C6_6 
REMARK    5  A    between atoms: C6_6  and  O1_9 
REMARK    6  A    between atoms: C27_29  and  O3_30 
REMARK    7  A    between atoms: O3_30  and  C28_31 
REMARK    8  A    between atoms: C29_33  and  C30_34 
REMARK    9  A    between atoms: C30_34  and  O5_35 
REMARK   10  A    between atoms: C31_36  and  O6_37 
REMARK   11  A    between atoms: C32_38  and  O7_39 
REMARK   12  A    between atoms: C33_40  and  O8_41 
ROOT
HETATM    1  C9  UNL     1     -12.157   9.167  14.814  1.00  0.00    -0.002 C 
HETATM    2  C10 UNL     1     -12.407   8.880  13.307  1.00  0.00     0.006 C 
HETATM    3  C11 UNL     1     -11.281   7.912  12.846  1.00  0.00     0.011 C 
HETATM    4  C12 UNL     1     -10.616   7.425  14.148  1.00  0.00    -0.029 C 
HETATM    5  C13 UNL     1     -11.552   6.271  14.685  1.00  0.00     0.016 C 
HETATM    6  C14 UNL     1      -9.182   6.791  14.090  1.00  0.00     0.028 C 
HETATM    7  C15 UNL     1      -8.362   6.791  12.824  1.00  0.00    -0.021 C 
HETATM    8  C16 UNL     1      -7.086   6.360  12.884  1.00  0.00     0.008 C 
HETATM    9  C17 UNL     1      -6.398   6.094  14.229  1.00  0.00     0.092 C 
HETATM   10  O2  UNL     1      -7.064   4.959  14.849  1.00  0.00    -0.374 OA
HETATM   11  C18 UNL     1      -7.989   5.481  15.845  1.00  0.00     0.179 C 
HETATM   12  C19 UNL     1      -8.281   6.948  15.402  1.00  0.00    -0.004 C 
HETATM   13  C20 UNL     1      -8.841   7.824  16.552  1.00  0.00     0.014 C 
HETATM   14  C21 UNL     1     -10.270   8.379  16.442  1.00  0.00     0.011 C 
HETATM   15  C22 UNL     1     -10.673   8.730  15.008  1.00  0.00    -0.032 C 
HETATM   16  C23 UNL     1      -9.744   9.829  14.467  1.00  0.00     0.016 C 
HETATM   17  C24 UNL     1      -6.771   7.266  15.133  1.00  0.00     0.036 C 
HETATM   18  C25 UNL     1      -6.268   8.605  14.596  1.00  0.00     0.011 C 
HETATM   19  C26 UNL     1      -4.992   8.478  13.755  1.00  0.00     0.033 C 
HETATM   20  C27 UNL     1      -4.091   7.281  14.084  1.00  0.00     0.136 C 
HETATM   21  C34 UNL     1      -4.846   5.896  14.186  1.00  0.00     0.014 C 
HETATM   22  C35 UNL     1      -4.455   4.910  13.052  1.00  0.00     0.021 C 
HETATM   23  C36 UNL     1      -4.349   5.209  15.496  1.00  0.00     0.021 C 
ENDROOT
BRANCH  20  24
HETATM   24  O3  UNL     1      -3.043   7.156  13.109  1.00  0.00    -0.352 OA
BRANCH  24  25
HETATM   25  C28 UNL     1      -1.801   7.775  13.449  1.00  0.00     0.292 C 
HETATM   26  O4  UNL     1      -0.771   7.438  12.514  1.00  0.00    -0.348 OA
HETATM   27  C29 UNL     1      -0.106   6.179  12.699  1.00  0.00     0.179 C 
HETATM   28  C31 UNL     1       0.557   6.112  14.090  1.00  0.00     0.180 C 
HETATM   29  C32 UNL     1       0.055   7.210  15.028  1.00  0.00     0.183 C 
HETATM   30  C33 UNL     1      -1.446   7.376  14.898  1.00  0.00     0.204 C 
BRANCH  27  31
HETATM   31  C30 UNL     1      -1.016   4.961  12.433  1.00  0.00     0.198 C 
BRANCH  31  32
HETATM   32  O5  UNL     1      -0.920   4.569  11.064  1.00  0.00    -0.398 OA
HETATM   33  H46 UNL     1      -1.788   4.216  10.802  1.00  0.00     0.209 HD
ENDBRANCH  31  32
ENDBRANCH  27  31
BRANCH  28  34
HETATM   34  O6  UNL     1       1.987   6.267  13.997  1.00  0.00    -0.390 OA
HETATM   35  H48 UNL     1       2.166   7.042  13.433  1.00  0.00     0.210 HD
ENDBRANCH  28  34
BRANCH  29  36
HETATM   36  O7  UNL     1       0.387   6.863  16.382  1.00  0.00    -0.390 OA
HETATM   37  H50 UNL     1       1.341   6.657  16.372  1.00  0.00     0.210 HD
ENDBRANCH  29  36
BRANCH  30  38
HETATM   38  O8  UNL     1      -1.885   8.373  15.837  1.00  0.00    -0.388 OA
HETATM   39  H52 UNL     1      -1.505   8.094  16.696  1.00  0.00     0.210 HD
ENDBRANCH  30  38
ENDBRANCH  24  25
ENDBRANCH  20  24
BRANCH   1  40
HETATM   40  C2  UNL     1     -12.677  10.531  15.362  1.00  0.00    -0.010 C 
HETATM   41  C1  UNL     1     -12.799  11.510  14.173  1.00  0.00     0.010 C 
BRANCH  40  42
HETATM   42  C3  UNL     1     -11.865  11.204  16.496  1.00  0.00     0.031 C 
BRANCH  42  43
HETATM   43  C4  UNL     1     -11.073  12.426  16.088  1.00  0.00    -0.027 C 
HETATM   44  C5  UNL     1      -9.736  12.529  16.169  1.00  0.00     0.006 C 
BRANCH  44  45
HETATM   45  C6  UNL     1      -8.880  13.713  15.798  1.00  0.00     0.068 C 
HETATM   46  C7  UNL     1      -9.040  14.194  14.352  1.00  0.00     0.050 C 
HETATM   47  C8  UNL     1      -9.155  14.858  16.777  1.00  0.00     0.050 C 
BRANCH  45  48
HETATM   48  O1  UNL     1      -7.526  13.292  15.977  1.00  0.00    -0.387 OA
HETATM   49  H15 UNL     1      -6.950  14.025  15.699  1.00  0.00     0.211 HD
ENDBRANCH  45  48
ENDBRANCH  44  45
ENDBRANCH  42  43
ENDBRANCH  40  42
ENDBRANCH   1  40
TORSDOF 12
ENDMDL
MODEL 2
REMARK minimizedAffinity -7.43981075
REMARK CNNscore 0.558499336
REMARK CNNaffinity 7.52173662
REMARK  12 active torsions:
REMARK  status: ('A' for Active; 'I' for Inactive)
REMARK    1  A    between atoms: C2_2  and  C3_3 
REMARK    2  A    between atoms: C2_2  and  C9_10 
REMARK    3  A    between atoms: C3_3  and  C4_4 
REMARK    4  A    between atoms: C5_5  and  C6_6 
REMARK    5  A    between atoms: C6_6  and  O1_9 
REMARK    6  A    between atoms: C27_29  and  O3_30 
REMARK    7  A    between atoms: O3_30  and  C28_31 
REMARK    8  A    between atoms: C29_33  and  C30_34 
REMARK    9  A    between atoms: C30_34  and  O5_35 
REMARK   10  A    between atoms: C31_36  and  O6_37 
REMARK   11  A    between atoms: C32_38  and  O7_39 
REMARK   12  A    between atoms: C33_40  and  O8_41 
ROOT
HETATM    1  C9  UNL     1     -11.672   9.127  15.251  1.00  0.00    -0.002 C 
HETATM    2  C10 UNL     1     -12.065   9.024  13.752  1.00  0.00     0.006 C 
HETATM    3  C11 UNL     1     -11.061   8.034  13.097  1.00  0.00     0.011 C 
HETATM    4  C12 UNL     1     -10.335   7.362  14.279  1.00  0.00    -0.029 C 
HETATM    5  C13 UNL     1     -11.315   6.227  14.776  1.00  0.00     0.016 C 
HETATM    6  C14 UNL     1      -8.966   6.637  14.030  1.00  0.00     0.028 C 
HETATM    7  C15 UNL     1      -8.253   6.715  12.703  1.00  0.00    -0.021 C 
HETATM    8  C16 UNL     1      -7.015   6.191  12.606  1.00  0.00     0.008 C 
HETATM    9  C17 UNL     1      -6.245   5.732  13.851  1.00  0.00     0.092 C 
HETATM   10  O2  UNL     1      -6.948   4.587  14.408  1.00  0.00    -0.374 OA
HETATM   11  C18 UNL     1      -7.745   5.063  15.530  1.00  0.00     0.179 C 
HETATM   12  C19 UNL     1      -7.953   6.586  15.267  1.00  0.00    -0.004 C 
HETATM   13  C20 UNL     1      -8.346   7.370  16.545  1.00  0.00     0.014 C 
HETATM   14  C21 UNL     1      -9.730   8.035  16.618  1.00  0.00     0.011 C 
HETATM   15  C22 UNL     1     -10.218   8.567  15.269  1.00  0.00    -0.032 C 
HETATM   16  C23 UNL     1      -9.249   9.649  14.762  1.00  0.00     0.016 C 
HETATM   17  C24 UNL     1      -6.449   6.823  14.899  1.00  0.00     0.036 C 
HETATM   18  C25 UNL     1      -5.884   8.173  14.459  1.00  0.00     0.011 C 
HETATM   19  C26 UNL     1      -4.694   8.047  13.501  1.00  0.00     0.033 C 
HETATM   20  C27 UNL     1      -3.869   6.759  13.625  1.00  0.00     0.136 C 
HETATM   21  C34 UNL     1      -4.722   5.429  13.652  1.00  0.00     0.014 C 
HETATM   22  C35 UNL     1      -4.504   4.546  12.393  1.00  0.00     0.021 C 
HETATM   23  C36 UNL     1      -4.179   4.571  14.835  1.00  0.00     0.021 C 
ENDROOT
BRANCH  20  24
HETATM   24  O3  UNL     1      -2.916   6.667  12.554  1.00  0.00    -0.352 OA
BRANCH  24  25
HETATM   25  C28 UNL     1      -1.634   6.144  12.905  1.00  0.00     0.292 C 
HETATM   26  O4  UNL     1      -0.831   7.120  13.577  1.00  0.00    -0.348 OA
HETATM   27  C29 UNL     1      -0.134   8.070  12.758  1.00  0.00     0.179 C 
HETATM   28  C31 UNL     1       0.818   7.349  11.781  1.00  0.00     0.180 C 
HETATM   29  C32 UNL     1       0.528   5.853  11.679  1.00  0.00     0.183 C 
HETATM   30  C33 UNL     1      -0.967   5.604  11.621  1.00  0.00     0.204 C 
BRANCH  27  31
HETATM   31  C30 UNL     1      -1.072   9.056  12.029  1.00  0.00     0.198 C 
BRANCH  31  32
HETATM   32  O5  UNL     1      -1.443  10.116  12.910  1.00  0.00    -0.398 OA
HETATM   33  H46 UNL     1      -2.347  10.388  12.670  1.00  0.00     0.209 HD
ENDBRANCH  31  32
ENDBRANCH  27  31
BRANCH  28  34
HETATM   34  O6  UNL     1       2.193   7.478  12.198  1.00  0.00    -0.390 OA
HETATM   35  H48 UNL     1       2.238   7.250  13.145  1.00  0.00     0.210 HD
ENDBRANCH  28  34
BRANCH  29  36
HETATM   36  O7  UNL     1       1.150   5.328  10.496  1.00  0.00    -0.390 OA
HETATM   37  H50 UNL     1       2.081   5.622  10.539  1.00  0.00     0.210 HD
ENDBRANCH  29  36
BRANCH  30  38
HETATM   38  O8  UNL     1      -1.196   4.193  11.467  1.00  0.00    -0.388 OA
HETATM   39  H52 UNL     1      -0.635   3.928  10.708  1.00  0.00     0.210 HD
ENDBRANCH  30  38
ENDBRANCH  24  25
ENDBRANCH  20  24
BRANCH   1  40
HETATM   40  C2  UNL     1     -12.036  10.457  15.980  1.00  0.00    -0.010 C 
HETATM   41  C1  UNL     1     -10.738  11.277  16.155  1.00  0.00     0.010 C 
BRANCH  40  42
HETATM   42  C3  UNL     1     -12.760  10.352  17.345  1.00  0.00     0.031 C 
BRANCH  42  43
HETATM   43  C4  UNL     1     -11.861  10.374  18.559  1.00  0.00    -0.027 C 
HETATM   44  C5  UNL     1     -12.213  10.867  19.759  1.00  0.00     0.006 C 
BRANCH  44  45
HETATM   45  C6  UNL     1     -11.371  10.938  21.008  1.00  0.00     0.068 C 
HETATM   46  C7  UNL     1     -10.195  11.917  20.934  1.00  0.00     0.050 C 
HETATM   47  C8  UNL     1     -12.271  11.272  22.202  1.00  0.00     0.050 C 
BRANCH  45  48
HETATM   48  O1  UNL     1     -10.844   9.625  21.202  1.00  0.00    -0.387 OA
HETATM   49  H15 UNL     1     -10.257   9.655  21.978  1.00  0.00     0.211 HD
ENDBRANCH  45  48
ENDBRANCH  44  45
ENDBRANCH  42  43
ENDBRANCH  40  42
ENDBRANCH   1  40
TORSDOF 12
ENDMDL
MODEL 3
REMARK minimizedAffinity -8.92377949
REMARK CNNscore 0.541780233
REMARK CNNaffinity 7.48304367
REMARK  12 active torsions:
REMARK  status: ('A' for Active; 'I' for Inactive)
REMARK    1  A    between atoms: C2_2  and  C3_3 
REMARK    2  A    between atoms: C2_2  and  C9_10 
REMARK    3  A    between atoms: C3_3  and  C4_4 
REMARK    4  A    between atoms: C5_5  and  C6_6 
REMARK    5  A    between atoms: C6_6  and  O1_9 
REMARK    6  A    between atoms: C27_29  and  O3_30 
REMARK    7  A    between atoms: O3_30  and  C28_31 
REMARK    8  A    between atoms: C29_33  and  C30_34 
REMARK    9  A    between atoms: C30_34  and  O5_35 
REMARK   10  A    between atoms: C31_36  and  O6_37 
REMARK   11  A    between atoms: C32_38  and  O7_39 
REMARK   12  A    between atoms: C33_40  and  O8_41 
ROOT
HETATM    1  C9  UNL     1      -8.820   6.401  13.918  1.00  0.00    -0.002 C 
HETATM    2  C10 UNL     1      -8.840   5.223  12.904  1.00  0.00     0.006 C 
HETATM    3  C11 UNL     1      -7.395   4.650  12.861  1.00  0.00     0.011 C 
HETATM    4  C12 UNL     1      -6.676   5.291  14.064  1.00  0.00    -0.029 C 
HETATM    5  C13 UNL     1      -7.110   4.429  15.315  1.00  0.00     0.016 C 
HETATM    6  C14 UNL     1      -5.108   5.307  14.104  1.00  0.00     0.028 C 
HETATM    7  C15 UNL     1      -4.277   4.859  12.927  1.00  0.00    -0.021 C 
HETATM    8  C16 UNL     1      -2.941   5.036  12.980  1.00  0.00     0.008 C 
HETATM    9  C17 UNL     1      -2.291   5.872  14.089  1.00  0.00     0.092 C 
HETATM   10  O2  UNL     1      -2.489   5.168  15.346  1.00  0.00    -0.374 OA
HETATM   11  C18 UNL     1      -3.607   5.801  16.033  1.00  0.00     0.179 C 
HETATM   12  C19 UNL     1      -4.429   6.508  14.912  1.00  0.00    -0.004 C 
HETATM   13  C20 UNL     1      -5.362   7.619  15.458  1.00  0.00     0.014 C 
HETATM   14  C21 UNL     1      -6.883   7.450  15.325  1.00  0.00     0.011 C 
HETATM   15  C22 UNL     1      -7.301   6.725  14.043  1.00  0.00    -0.032 C 
HETATM   16  C23 UNL     1      -6.852   7.542  12.820  1.00  0.00     0.016 C 
HETATM   17  C24 UNL     1      -3.155   7.122  14.237  1.00  0.00     0.036 C 
HETATM   18  C25 UNL     1      -3.191   7.965  12.963  1.00  0.00     0.011 C 
HETATM   19  C26 UNL     1      -1.920   7.836  12.117  1.00  0.00     0.033 C 
HETATM   20  C27 UNL     1      -0.640   7.475  12.883  1.00  0.00     0.136 C 
HETATM   21  C34 UNL     1      -0.788   6.256  13.877  1.00  0.00     0.014 C 
HETATM   22  C35 UNL     1       0.033   5.014  13.436  1.00  0.00     0.021 C 
HETATM   23  C36 UNL     1      -0.144   6.696  15.227  1.00  0.00     0.021 C 
ENDROOT
BRANCH  20  24
HETATM   24  O3  UNL     1       0.431   7.190  11.969  1.00  0.00    -0.352 OA
BRANCH  24  25
HETATM   25  C28 UNL     1       1.518   8.117  11.974  1.00  0.00     0.292 C 
HETATM   26  O4  UNL     1       1.989   8.385  10.650  1.00  0.00    -0.348 OA
HETATM   27  C29 UNL     1       2.902   7.437  10.076  1.00  0.00     0.179 C 
HETATM   28  C31 UNL     1       4.167   7.302  10.949  1.00  0.00     0.180 C 
HETATM   29  C32 UNL     1       3.985   7.911  12.338  1.00  0.00     0.183 C 
HETATM   30  C33 UNL     1       2.621   7.558  12.900  1.00  0.00     0.204 C 
BRANCH  27  31
HETATM   31  C30 UNL     1       2.255   6.066   9.779  1.00  0.00     0.198 C 
BRANCH  31  32
HETATM   32  O5  UNL     1       2.980   5.032  10.443  1.00  0.00    -0.398 OA
HETATM   33  H46 UNL     1       2.926   4.236   9.885  1.00  0.00     0.209 HD
ENDBRANCH  31  32
ENDBRANCH  27  31
BRANCH  28  34
HETATM   34  O6  UNL     1       5.293   7.971  10.346  1.00  0.00    -0.390 OA
HETATM   35  H48 UNL     1       5.002   8.864  10.083  1.00  0.00     0.210 HD
ENDBRANCH  28  34
BRANCH  29  36
HETATM   36  O7  UNL     1       5.010   7.413  13.212  1.00  0.00    -0.390 OA
HETATM   37  H50 UNL     1       5.851   7.566  12.741  1.00  0.00     0.210 HD
ENDBRANCH  29  36
BRANCH  30  38
HETATM   38  O8  UNL     1       2.512   8.098  14.228  1.00  0.00    -0.388 OA
HETATM   39  H52 UNL     1       3.318   7.789  14.692  1.00  0.00     0.210 HD
ENDBRANCH  30  38
ENDBRANCH  24  25
ENDBRANCH  20  24
BRANCH   1  40
HETATM   40  C2  UNL     1      -9.873   7.531  13.698  1.00  0.00    -0.010 C 
HETATM   41  C1  UNL     1     -10.603   7.772  15.038  1.00  0.00     0.010 C 
BRANCH  40  42
HETATM   42  C3  UNL     1     -10.921   7.325  12.576  1.00  0.00     0.031 C 
BRANCH  42  43
HETATM   43  C4  UNL     1     -12.322   7.789  12.906  1.00  0.00    -0.027 C 
HETATM   44  C5  UNL     1     -13.424   7.029  12.785  1.00  0.00     0.006 C 
BRANCH  44  45
HETATM   45  C6  UNL     1     -14.850   7.422  13.077  1.00  0.00     0.068 C 
HETATM   46  C7  UNL     1     -15.728   6.294  13.627  1.00  0.00     0.050 C 
HETATM   47  C8  UNL     1     -14.855   8.619  14.033  1.00  0.00     0.050 C 
BRANCH  45  48
HETATM   48  O1  UNL     1     -15.403   7.847  11.830  1.00  0.00    -0.387 OA
HETATM   49  H15 UNL     1     -16.340   8.063  11.983  1.00  0.00     0.211 HD
ENDBRANCH  45  48
ENDBRANCH  44  45
ENDBRANCH  42  43
ENDBRANCH  40  42
ENDBRANCH   1  40
TORSDOF 12
ENDMDL
MODEL 4
REMARK minimizedAffinity -7.33518076
REMARK CNNscore 0.484822214
REMARK CNNaffinity 7.80226326
REMARK  12 active torsions:
REMARK  status: ('A' for Active; 'I' for Inactive)
REMARK    1  A    between atoms: C2_2  and  C3_3 
REMARK    2  A    between atoms: C2_2  and  C9_10 
REMARK    3  A    between atoms: C3_3  and  C4_4 
REMARK    4  A    between atoms: C5_5  and  C6_6 
REMARK    5  A    between atoms: C6_6  and  O1_9 
REMARK    6  A    between atoms: C27_29  and  O3_30 
REMARK    7  A    between atoms: O3_30  and  C28_31 
REMARK    8  A    between atoms: C29_33  and  C30_34 
REMARK    9  A    between atoms: C30_34  and  O5_35 
REMARK   10  A    between atoms: C31_36  and  O6_37 
REMARK   11  A    between atoms: C32_38  and  O7_39 
REMARK   12  A    between atoms: C33_40  and  O8_41 
ROOT
HETATM    1  C9  UNL     1     -11.737   9.144  15.036  1.00  0.00    -0.002 C 
HETATM    2  C10 UNL     1     -12.133   8.935  13.548  1.00  0.00     0.006 C 
HETATM    3  C11 UNL     1     -11.123   7.909  12.959  1.00  0.00     0.011 C 
HETATM    4  C12 UNL     1     -10.389   7.326  14.182  1.00  0.00    -0.029 C 
HETATM    5  C13 UNL     1     -11.358   6.221  14.760  1.00  0.00     0.016 C 
HETATM    6  C14 UNL     1      -9.015   6.597  13.980  1.00  0.00     0.028 C 
HETATM    7  C15 UNL     1      -8.307   6.588  12.647  1.00  0.00    -0.021 C 
HETATM    8  C16 UNL     1      -7.065   6.067  12.583  1.00  0.00     0.008 C 
HETATM    9  C17 UNL     1      -6.288   5.702  13.853  1.00  0.00     0.092 C 
HETATM   10  O2  UNL     1      -6.980   4.593  14.491  1.00  0.00    -0.374 OA
HETATM   11  C18 UNL     1      -7.777   5.139  15.580  1.00  0.00     0.179 C 
HETATM   12  C19 UNL     1      -7.998   6.638  15.213  1.00  0.00    -0.004 C 
HETATM   13  C20 UNL     1      -8.393   7.506  16.435  1.00  0.00     0.014 C 
HETATM   14  C21 UNL     1      -9.782   8.164  16.468  1.00  0.00     0.011 C 
HETATM   15  C22 UNL     1     -10.278   8.598  15.087  1.00  0.00    -0.032 C 
HETATM   16  C23 UNL     1      -9.320   9.650  14.503  1.00  0.00     0.016 C 
HETATM   17  C24 UNL     1      -6.496   6.861  14.824  1.00  0.00     0.036 C 
HETATM   18  C25 UNL     1      -5.943   8.182  14.290  1.00  0.00     0.011 C 
HETATM   19  C26 UNL     1      -4.756   7.999  13.338  1.00  0.00     0.033 C 
HETATM   20  C27 UNL     1      -3.920   6.729  13.548  1.00  0.00     0.136 C 
HETATM   21  C34 UNL     1      -4.763   5.397  13.670  1.00  0.00     0.014 C 
HETATM   22  C35 UNL     1      -4.542   4.431  12.474  1.00  0.00     0.021 C 
HETATM   23  C36 UNL     1      -4.209   4.627  14.908  1.00  0.00     0.021 C 
ENDROOT
BRANCH  20  24
HETATM   24  O3  UNL     1      -2.970   6.570  12.483  1.00  0.00    -0.352 OA
BRANCH  24  25
HETATM   25  C28 UNL     1      -1.690   6.059  12.861  1.00  0.00     0.292 C 
HETATM   26  O4  UNL     1      -0.910   7.043  13.546  1.00  0.00    -0.348 OA
HETATM   27  C29 UNL     1      -0.204   7.997  12.738  1.00  0.00     0.179 C 
HETATM   28  C31 UNL     1       0.773   7.282  11.782  1.00  0.00     0.180 C 
HETATM   29  C32 UNL     1       0.497   5.783  11.679  1.00  0.00     0.183 C 
HETATM   30  C33 UNL     1      -0.994   5.521  11.592  1.00  0.00     0.204 C 
BRANCH  27  31
HETATM   31  C30 UNL     1      -1.136   8.973  11.988  1.00  0.00     0.198 C 
BRANCH  31  32
HETATM   32  O5  UNL     1      -1.449  10.086  12.824  1.00  0.00    -0.398 OA
HETATM   33  H46 UNL     1      -2.352  10.374  12.597  1.00  0.00     0.209 HD
ENDBRANCH  31  32
ENDBRANCH  27  31
BRANCH  28  34
HETATM   34  O6  UNL     1       2.138   7.424  12.226  1.00  0.00    -0.390 OA
HETATM   35  H48 UNL     1       2.167   7.199  13.175  1.00  0.00     0.210 HD
ENDBRANCH  28  34
BRANCH  29  36
HETATM   36  O7  UNL     1       1.148   5.261  10.509  1.00  0.00    -0.390 OA
HETATM   37  H50 UNL     1       2.075   5.562  10.571  1.00  0.00     0.210 HD
ENDBRANCH  29  36
BRANCH  30  38
HETATM   38  O8  UNL     1      -1.208   4.108  11.437  1.00  0.00    -0.388 OA
HETATM   39  H52 UNL     1      -0.630   3.846  10.690  1.00  0.00     0.210 HD
ENDBRANCH  30  38
ENDBRANCH  24  25
ENDBRANCH  20  24
BRANCH   1  40
HETATM   40  C2  UNL     1     -12.108  10.519  15.672  1.00  0.00    -0.010 C 
HETATM   41  C1  UNL     1     -12.255  11.550  14.531  1.00  0.00     0.010 C 
BRANCH  40  42
HETATM   42  C3  UNL     1     -11.158  11.088  16.754  1.00  0.00     0.031 C 
BRANCH  42  43
HETATM   43  C4  UNL     1     -10.526  12.421  16.425  1.00  0.00    -0.027 C 
HETATM   44  C5  UNL     1      -9.206  12.618  16.262  1.00  0.00     0.006 C 
BRANCH  44  45
HETATM   45  C6  UNL     1      -8.501  13.914  15.950  1.00  0.00     0.068 C 
HETATM   46  C7  UNL     1      -8.903  14.560  14.620  1.00  0.00     0.050 C 
HETATM   47  C8  UNL     1      -8.716  14.894  17.107  1.00  0.00     0.050 C 
BRANCH  45  48
HETATM   48  O1  UNL     1      -7.109  13.599  15.887  1.00  0.00    -0.387 OA
HETATM   49  H15 UNL     1      -6.634  14.412  15.640  1.00  0.00     0.211 HD
ENDBRANCH  45  48
ENDBRANCH  44  45
ENDBRANCH  42  43
ENDBRANCH  40  42
ENDBRANCH   1  40
TORSDOF 12
ENDMDL
MODEL 5
REMARK minimizedAffinity -7.1474824
REMARK CNNscore 0.440000534
REMARK CNNaffinity 6.79847574
REMARK  12 active torsions:
REMARK  status: ('A' for Active; 'I' for Inactive)
REMARK    1  A    between atoms: C2_2  and  C3_3 
REMARK    2  A    between atoms: C2_2  and  C9_10 
REMARK    3  A    between atoms: C3_3  and  C4_4 
REMARK    4  A    between atoms: C5_5  and  C6_6 
REMARK    5  A    between atoms: C6_6  and  O1_9 
REMARK    6  A    between atoms: C27_29  and  O3_30 
REMARK    7  A    between atoms: O3_30  and  C28_31 
REMARK    8  A    between atoms: C29_33  and  C30_34 
REMARK    9  A    between atoms: C30_34  and  O5_35 
REMARK   10  A    between atoms: C31_36  and  O6_37 
REMARK   11  A    between atoms: C32_38  and  O7_39 
REMARK   12  A    between atoms: C33_40  and  O8_41 
ROOT
HETATM    1  C9  UNL     1      -6.852  14.850  21.614  1.00  0.00    -0.002 C 
HETATM    2  C10 UNL     1      -5.816  15.252  22.700  1.00  0.00     0.006 C 
HETATM    3  C11 UNL     1      -4.426  15.268  22.004  1.00  0.00     0.011 C 
HETATM    4  C12 UNL     1      -4.735  15.192  20.496  1.00  0.00    -0.029 C 
HETATM    5  C13 UNL     1      -5.098  16.670  20.072  1.00  0.00     0.016 C 
HETATM    6  C14 UNL     1      -3.607  14.749  19.500  1.00  0.00     0.028 C 
HETATM    7  C15 UNL     1      -2.272  14.237  19.985  1.00  0.00    -0.021 C 
HETATM    8  C16 UNL     1      -1.407  13.739  19.079  1.00  0.00     0.008 C 
HETATM    9  C17 UNL     1      -1.834  13.478  17.629  1.00  0.00     0.092 C 
HETATM   10  O2  UNL     1      -2.113  14.766  17.012  1.00  0.00    -0.374 OA
HETATM   11  C18 UNL     1      -3.558  14.952  17.015  1.00  0.00     0.179 C 
HETATM   12  C19 UNL     1      -4.086  14.029  18.155  1.00  0.00    -0.004 C 
HETATM   13  C20 UNL     1      -5.596  13.706  18.018  1.00  0.00     0.014 C 
HETATM   14  C21 UNL     1      -6.569  14.208  19.096  1.00  0.00     0.011 C 
HETATM   15  C22 UNL     1      -5.961  14.221  20.501  1.00  0.00    -0.032 C 
HETATM   16  C23 UNL     1      -5.573  12.789  20.907  1.00  0.00     0.016 C 
HETATM   17  C24 UNL     1      -3.206  12.813  17.706  1.00  0.00     0.036 C 
HETATM   18  C25 UNL     1      -3.168  11.473  18.441  1.00  0.00     0.011 C 
HETATM   19  C26 UNL     1      -1.818  10.757  18.323  1.00  0.00     0.033 C 
HETATM   20  C27 UNL     1      -0.995  11.083  17.070  1.00  0.00     0.136 C 
HETATM   21  C34 UNL     1      -0.850  12.626  16.759  1.00  0.00     0.014 C 
HETATM   22  C35 UNL     1       0.605  13.141  16.923  1.00  0.00     0.021 C 
HETATM   23  C36 UNL     1      -1.166  12.810  15.243  1.00  0.00     0.021 C 
ENDROOT
BRANCH  20  24
HETATM   24  O3  UNL     1       0.320  10.514  17.169  1.00  0.00    -0.352 OA
BRANCH  24  25
HETATM   25  C28 UNL     1       0.853   9.965  15.962  1.00  0.00     0.292 C 
HETATM   26  O4  UNL     1      -0.183   9.537  15.074  1.00  0.00    -0.348 OA
HETATM   27  C29 UNL     1      -0.760   8.244  15.316  1.00  0.00     0.179 C 
HETATM   28  C31 UNL     1       0.321   7.146  15.254  1.00  0.00     0.180 C 
HETATM   29  C32 UNL     1       1.737   7.718  15.310  1.00  0.00     0.183 C 
HETATM   30  C33 UNL     1       1.824   8.825  16.341  1.00  0.00     0.204 C 
BRANCH  27  31
HETATM   31  C30 UNL     1      -1.581   8.175  16.622  1.00  0.00     0.198 C 
BRANCH  31  32
HETATM   32  O5  UNL     1      -2.594   7.176  16.508  1.00  0.00    -0.398 OA
HETATM   33  H46 UNL     1      -3.357   7.476  17.034  1.00  0.00     0.209 HD
ENDBRANCH  31  32
ENDBRANCH  27  31
BRANCH  28  34
HETATM   34  O6  UNL     1       0.227   6.386  14.032  1.00  0.00    -0.390 OA
HETATM   35  H48 UNL     1       0.165   7.020  13.293  1.00  0.00     0.210 HD
ENDBRANCH  28  34
BRANCH  29  36
HETATM   36  O7  UNL     1       2.658   6.669  15.650  1.00  0.00    -0.390 OA
HETATM   37  H50 UNL     1       2.471   5.944  15.022  1.00  0.00     0.210 HD
ENDBRANCH  29  36
BRANCH  30  38
HETATM   38  O8  UNL     1       3.182   9.295  16.405  1.00  0.00    -0.388 OA
HETATM   39  H52 UNL     1       3.723   8.485  16.522  1.00  0.00     0.210 HD
ENDBRANCH  30  38
ENDBRANCH  24  25
ENDBRANCH  20  24
BRANCH   1  40
HETATM   40  C2  UNL     1      -8.147  14.139  22.113  1.00  0.00    -0.010 C 
HETATM   41  C1  UNL     1      -9.276  15.192  22.180  1.00  0.00     0.010 C 
BRANCH  40  42
HETATM   42  C3  UNL     1      -8.075  13.382  23.462  1.00  0.00     0.031 C 
BRANCH  42  43
HETATM   43  C4  UNL     1      -9.353  12.697  23.889  1.00  0.00    -0.027 C 
HETATM   44  C5  UNL     1      -9.989  11.754  23.172  1.00  0.00     0.006 C 
BRANCH  44  45
HETATM   45  C6  UNL     1     -11.269  11.039  23.522  1.00  0.00     0.068 C 
HETATM   46  C7  UNL     1     -11.092   9.800  24.406  1.00  0.00     0.050 C 
HETATM   47  C8  UNL     1     -12.235  12.030  24.177  1.00  0.00     0.050 C 
BRANCH  45  48
HETATM   48  O1  UNL     1     -11.837  10.619  22.280  1.00  0.00    -0.387 OA
HETATM   49  H15 UNL     1     -12.644  10.113  22.481  1.00  0.00     0.211 HD
ENDBRANCH  45  48
ENDBRANCH  44  45
ENDBRANCH  42  43
ENDBRANCH  40  42
ENDBRANCH   1  40
TORSDOF 12
ENDMDL
MODEL 6
REMARK minimizedAffinity -8.57124615
REMARK CNNscore 0.306642085
REMARK CNNaffinity 6.84354544
REMARK  12 active torsions:
REMARK  status: ('A' for Active; 'I' for Inactive)
REMARK    1  A    between atoms: C2_2  and  C3_3 
REMARK    2  A    between atoms: C2_2  and  C9_10 
REMARK    3  A    between atoms: C3_3  and  C4_4 
REMARK    4  A    between atoms: C5_5  and  C6_6 
REMARK    5  A    between atoms: C6_6  and  O1_9 
REMARK    6  A    between atoms: C27_29  and  O3_30 
REMARK    7  A    between atoms: O3_30  and  C28_31 
REMARK    8  A    between atoms: C29_33  and  C30_34 
REMARK    9  A    between atoms: C30_34  and  O5_35 
REMARK   10  A    between atoms: C31_36  and  O6_37 
REMARK   11  A    between atoms: C32_38  and  O7_39 
REMARK   12  A    between atoms: C33_40  and  O8_41 
ROOT
HETATM    1  C9  UNL     1      -2.135   4.133  12.371  1.00  0.00    -0.002 C 
HETATM    2  C10 UNL     1      -1.594   4.737  11.045  1.00  0.00     0.006 C 
HETATM    3  C11 UNL     1      -0.984   6.121  11.404  1.00  0.00     0.011 C 
HETATM    4  C12 UNL     1      -0.903   6.134  12.943  1.00  0.00    -0.029 C 
HETATM    5  C13 UNL     1       0.410   5.330  13.296  1.00  0.00     0.016 C 
HETATM    6  C14 UNL     1      -0.756   7.503  13.695  1.00  0.00     0.028 C 
HETATM    7  C15 UNL     1      -0.854   8.823  12.971  1.00  0.00    -0.021 C 
HETATM    8  C16 UNL     1      -0.863   9.957  13.701  1.00  0.00     0.008 C 
HETATM    9  C17 UNL     1      -1.003   9.921  15.227  1.00  0.00     0.092 C 
HETATM   10  O2  UNL     1       0.196   9.298  15.766  1.00  0.00    -0.374 OA
HETATM   11  C18 UNL     1      -0.128   7.911  16.073  1.00  0.00     0.179 C 
HETATM   12  C19 UNL     1      -1.356   7.570  15.175  1.00  0.00    -0.004 C 
HETATM   13  C20 UNL     1      -2.148   6.337  15.681  1.00  0.00     0.014 C 
HETATM   14  C21 UNL     1      -2.202   5.073  14.809  1.00  0.00     0.011 C 
HETATM   15  C22 UNL     1      -2.221   5.375  13.308  1.00  0.00    -0.032 C 
HETATM   16  C23 UNL     1      -3.480   6.188  12.963  1.00  0.00     0.016 C 
HETATM   17  C24 UNL     1      -2.101   8.903  15.527  1.00  0.00     0.036 C 
HETATM   18  C25 UNL     1      -3.451   9.304  14.933  1.00  0.00     0.011 C 
HETATM   19  C26 UNL     1      -3.629  10.822  14.809  1.00  0.00     0.033 C 
HETATM   20  C27 UNL     1      -2.832  11.673  15.807  1.00  0.00     0.136 C 
HETATM   21  C34 UNL     1      -1.304  11.287  15.929  1.00  0.00     0.014 C 
HETATM   22  C35 UNL     1      -0.357  12.394  15.391  1.00  0.00     0.021 C 
HETATM   23  C36 UNL     1      -0.984  11.199  17.452  1.00  0.00     0.021 C 
ENDROOT
BRANCH  20  24
HETATM   24  O3  UNL     1      -2.924  13.065  15.467  1.00  0.00    -0.352 OA
BRANCH  24  25
HETATM   25  C28 UNL     1      -4.216  13.658  15.614  1.00  0.00     0.292 C 
HETATM   26  O4  UNL     1      -4.650  14.284  14.402  1.00  0.00    -0.348 OA
HETATM   27  C29 UNL     1      -4.159  15.606  14.136  1.00  0.00     0.179 C 
HETATM   28  C31 UNL     1      -4.558  16.573  15.271  1.00  0.00     0.180 C 
HETATM   29  C32 UNL     1      -5.043  15.838  16.520  1.00  0.00     0.183 C 
HETATM   30  C33 UNL     1      -4.163  14.637  16.807  1.00  0.00     0.204 C 
BRANCH  27  31
HETATM   31  C30 UNL     1      -2.643  15.650  13.846  1.00  0.00     0.198 C 
BRANCH  31  32
HETATM   32  O5  UNL     1      -2.298  14.635  12.904  1.00  0.00    -0.398 OA
HETATM   33  H46 UNL     1      -1.397  14.336  13.119  1.00  0.00     0.209 HD
ENDBRANCH  31  32
ENDBRANCH  27  31
BRANCH  28  34
HETATM   34  O6  UNL     1      -5.629  17.447  14.861  1.00  0.00    -0.390 OA
HETATM   35  H48 UNL     1      -6.323  16.896  14.454  1.00  0.00     0.210 HD
ENDBRANCH  28  34
BRANCH  29  36
HETATM   36  O7  UNL     1      -5.012  16.737  17.640  1.00  0.00    -0.390 OA
HETATM   37  H50 UNL     1      -5.497  17.533  17.348  1.00  0.00     0.210 HD
ENDBRANCH  29  36
BRANCH  30  38
HETATM   38  O8  UNL     1      -4.614  14.010  18.019  1.00  0.00    -0.388 OA
HETATM   39  H52 UNL     1      -4.664  14.736  18.675  1.00  0.00     0.210 HD
ENDBRANCH  30  38
ENDBRANCH  24  25
ENDBRANCH  20  24
BRANCH   1  40
HETATM   40  C2  UNL     1      -3.321   3.127  12.249  1.00  0.00    -0.010 C 
HETATM   41  C1  UNL     1      -2.800   1.855  11.545  1.00  0.00     0.010 C 
BRANCH  40  42
HETATM   42  C3  UNL     1      -4.604   3.616  11.533  1.00  0.00     0.031 C 
BRANCH  42  43
HETATM   43  C4  UNL     1      -5.871   3.547  12.355  1.00  0.00    -0.027 C 
HETATM   44  C5  UNL     1      -6.635   4.608  12.668  1.00  0.00     0.006 C 
BRANCH  44  45
HETATM   45  C6  UNL     1      -7.898   4.621  13.492  1.00  0.00     0.068 C 
HETATM   46  C7  UNL     1      -7.677   4.743  15.004  1.00  0.00     0.050 C 
HETATM   47  C8  UNL     1      -8.812   5.743  12.992  1.00  0.00     0.050 C 
BRANCH  45  48
HETATM   48  O1  UNL     1      -8.546   3.373  13.238  1.00  0.00    -0.387 OA
HETATM   49  H15 UNL     1      -9.343   3.337  13.796  1.00  0.00     0.211 HD
ENDBRANCH  45  48
ENDBRANCH  44  45
ENDBRANCH  42  43
ENDBRANCH  40  42
ENDBRANCH   1  40
TORSDOF 12
ENDMDL
MODEL 7
REMARK minimizedAffinity -7.6667738
REMARK CNNscore 0.253032535
REMARK CNNaffinity 6.06489944
REMARK  12 active torsions:
REMARK  status: ('A' for Active; 'I' for Inactive)
REMARK    1  A    between atoms: C2_2  and  C3_3 
REMARK    2  A    between atoms: C2_2  and  C9_10 
REMARK    3  A    between atoms: C3_3  and  C4_4 
REMARK    4  A    between atoms: C5_5  and  C6_6 
REMARK    5  A    between atoms: C6_6  and  O1_9 
REMARK    6  A    between atoms: C27_29  and  O3_30 
REMARK    7  A    between atoms: O3_30  and  C28_31 
REMARK    8  A    between atoms: C29_33  and  C30_34 
REMARK    9  A    between atoms: C30_34  and  O5_35 
REMARK   10  A    between atoms: C31_36  and  O6_37 
REMARK   11  A    between atoms: C32_38  and  O7_39 
REMARK   12  A    between atoms: C33_40  and  O8_41 
ROOT
HETATM    1  C9  UNL     1      -6.469 -11.612  -2.127  1.00  0.00    -0.002 C 
HETATM    2  C10 UNL     1      -5.679 -10.291  -2.340  1.00  0.00     0.006 C 
HETATM    3  C11 UNL     1      -4.787 -10.099  -1.081  1.00  0.00     0.011 C 
HETATM    4  C12 UNL     1      -4.847 -11.449  -0.341  1.00  0.00    -0.029 C 
HETATM    5  C13 UNL     1      -3.807 -12.377  -1.083  1.00  0.00     0.016 C 
HETATM    6  C14 UNL     1      -4.443 -11.516   1.174  1.00  0.00     0.028 C 
HETATM    7  C15 UNL     1      -4.152 -10.271   1.976  1.00  0.00    -0.021 C 
HETATM    8  C16 UNL     1      -3.953 -10.394   3.304  1.00  0.00     0.008 C 
HETATM    9  C17 UNL     1      -4.237 -11.712   4.033  1.00  0.00     0.092 C 
HETATM   10  O2  UNL     1      -3.280 -12.697   3.555  1.00  0.00    -0.374 OA
HETATM   11  C18 UNL     1      -3.957 -13.526   2.567  1.00  0.00     0.179 C 
HETATM   12  C19 UNL     1      -5.143 -12.657   2.048  1.00  0.00    -0.004 C 
HETATM   13  C20 UNL     1      -6.253 -13.498   1.368  1.00  0.00     0.014 C 
HETATM   14  C21 UNL     1      -6.531 -13.297  -0.130  1.00  0.00     0.011 C 
HETATM   15  C22 UNL     1      -6.338 -11.851  -0.593  1.00  0.00    -0.032 C 
HETATM   16  C23 UNL     1      -7.325 -10.937   0.152  1.00  0.00     0.016 C 
HETATM   17  C24 UNL     1      -5.572 -12.216   3.490  1.00  0.00     0.036 C 
HETATM   18  C25 UNL     1      -6.724 -11.254   3.776  1.00  0.00     0.011 C 
HETATM   19  C26 UNL     1      -6.517 -10.427   5.050  1.00  0.00     0.033 C 
HETATM   20  C27 UNL     1      -5.633 -11.068   6.128  1.00  0.00     0.136 C 
HETATM   21  C34 UNL     1      -4.262 -11.648   5.597  1.00  0.00     0.014 C 
HETATM   22  C35 UNL     1      -3.030 -10.866   6.128  1.00  0.00     0.021 C 
HETATM   23  C36 UNL     1      -4.114 -13.077   6.203  1.00  0.00     0.021 C 
ENDROOT
BRANCH  20  24
HETATM   24  O3  UNL     1      -5.354 -10.126   7.176  1.00  0.00    -0.352 OA
BRANCH  24  25
HETATM   25  C28 UNL     1      -5.370 -10.651   8.505  1.00  0.00     0.292 C 
HETATM   26  O4  UNL     1      -6.697 -10.980   8.927  1.00  0.00    -0.348 OA
HETATM   27  C29 UNL     1      -7.511  -9.906   9.423  1.00  0.00     0.179 C 
HETATM   28  C31 UNL     1      -6.841  -9.235  10.640  1.00  0.00     0.180 C 
HETATM   29  C32 UNL     1      -5.371  -9.624  10.786  1.00  0.00     0.183 C 
HETATM   30  C33 UNL     1      -4.684  -9.626   9.434  1.00  0.00     0.204 C 
BRANCH  27  31
HETATM   31  C30 UNL     1      -7.899  -8.879   8.338  1.00  0.00     0.198 C 
BRANCH  31  32
HETATM   32  O5  UNL     1      -8.638  -9.522   7.301  1.00  0.00    -0.398 OA
HETATM   33  H46 UNL     1      -8.426  -9.065   6.468  1.00  0.00     0.209 HD
ENDBRANCH  31  32
ENDBRANCH  27  31
BRANCH  28  34
HETATM   34  O6  UNL     1      -7.494  -9.609  11.870  1.00  0.00    -0.390 OA
HETATM   35  H48 UNL     1      -7.593 -10.580  11.870  1.00  0.00     0.210 HD
ENDBRANCH  28  34
BRANCH  29  36
HETATM   36  O7  UNL     1      -4.717  -8.688  11.658  1.00  0.00    -0.390 OA
HETATM   37  H50 UNL     1      -5.272  -8.648  12.461  1.00  0.00     0.210 HD
ENDBRANCH  29  36
BRANCH  30  38
HETATM   38  O8  UNL     1      -3.293  -9.938   9.621  1.00  0.00    -0.388 OA
HETATM   39  H52 UNL     1      -2.986  -9.317  10.315  1.00  0.00     0.210 HD
ENDBRANCH  30  38
ENDBRANCH  24  25
ENDBRANCH  20  24
BRANCH   1  40
HETATM   40  C2  UNL     1      -7.847 -11.726  -2.849  1.00  0.00    -0.010 C 
HETATM   41  C1  UNL     1      -7.959 -13.147  -3.446  1.00  0.00     0.010 C 
BRANCH  40  42
HETATM   42  C3  UNL     1      -8.168 -10.685  -3.949  1.00  0.00     0.031 C 
BRANCH  42  43
HETATM   43  C4  UNL     1      -8.796  -9.399  -3.461  1.00  0.00    -0.027 C 
HETATM   44  C5  UNL     1      -8.374  -8.169  -3.798  1.00  0.00     0.006 C 
BRANCH  44  45
HETATM   45  C6  UNL     1      -8.935  -6.846  -3.343  1.00  0.00     0.068 C 
HETATM   46  C7  UNL     1     -10.137  -6.345  -4.151  1.00  0.00     0.050 C 
HETATM   47  C8  UNL     1      -9.289  -6.935  -1.856  1.00  0.00     0.050 C 
BRANCH  45  48
HETATM   48  O1  UNL     1      -7.876  -5.897  -3.491  1.00  0.00    -0.387 OA
HETATM   49  H15 UNL     1      -8.228  -5.023  -3.247  1.00  0.00     0.211 HD
ENDBRANCH  45  48
ENDBRANCH  44  45
ENDBRANCH  42  43
ENDBRANCH  40  42
ENDBRANCH   1  40
TORSDOF 12
ENDMDL
MODEL 8
REMARK minimizedAffinity -7.87005997
REMARK CNNscore 0.237888306
REMARK CNNaffinity 6.69480753
REMARK  12 active torsions:
REMARK  status: ('A' for Active; 'I' for Inactive)
REMARK    1  A    between atoms: C2_2  and  C3_3 
REMARK    2  A    between atoms: C2_2  and  C9_10 
REMARK    3  A    between atoms: C3_3  and  C4_4 
REMARK    4  A    between atoms: C5_5  and  C6_6 
REMARK    5  A    between atoms: C6_6  and  O1_9 
REMARK    6  A    between atoms: C27_29  and  O3_30 
REMARK    7  A    between atoms: O3_30  and  C28_31 
REMARK    8  A    between atoms: C29_33  and  C30_34 
REMARK    9  A    between atoms: C30_34  and  O5_35 
REMARK   10  A    between atoms: C31_36  and  O6_37 
REMARK   11  A    between atoms: C32_38  and  O7_39 
REMARK   12  A    between atoms: C33_40  and  O8_41 
ROOT
HETATM    1  C9  UNL     1      -3.416   9.563  14.748  1.00  0.00    -0.002 C 
HETATM    2  C10 UNL     1      -4.370   9.470  15.970  1.00  0.00     0.006 C 
HETATM    3  C11 UNL     1      -3.749  10.356  17.087  1.00  0.00     0.011 C 
HETATM    4  C12 UNL     1      -2.648  11.172  16.382  1.00  0.00    -0.029 C 
HETATM    5  C13 UNL     1      -3.403  12.372  15.684  1.00  0.00     0.016 C 
HETATM    6  C14 UNL     1      -1.520  11.845  17.240  1.00  0.00     0.028 C 
HETATM    7  C15 UNL     1      -1.383  11.586  18.720  1.00  0.00    -0.021 C 
HETATM    8  C16 UNL     1      -0.306  12.082  19.363  1.00  0.00     0.008 C 
HETATM    9  C17 UNL     1       0.869  12.695  18.591  1.00  0.00     0.092 C 
HETATM   10  O2  UNL     1       0.392  13.910  17.949  1.00  0.00    -0.374 OA
HETATM   11  C18 UNL     1       0.121  13.594  16.554  1.00  0.00     0.179 C 
HETATM   12  C19 UNL     1      -0.106  12.051  16.521  1.00  0.00    -0.004 C 
HETATM   13  C20 UNL     1       0.070  11.446  15.104  1.00  0.00     0.014 C 
HETATM   14  C21 UNL     1      -1.143  10.810  14.408  1.00  0.00     0.011 C 
HETATM   15  C22 UNL     1      -2.098  10.108  15.376  1.00  0.00    -0.032 C 
HETATM   16  C23 UNL     1      -1.359   8.959  16.085  1.00  0.00     0.016 C 
HETATM   17  C24 UNL     1       1.142  11.754  17.420  1.00  0.00     0.036 C 
HETATM   18  C25 UNL     1       1.548  10.353  17.875  1.00  0.00     0.011 C 
HETATM   19  C26 UNL     1       2.259  10.341  19.233  1.00  0.00     0.033 C 
HETATM   20  C27 UNL     1       3.008  11.626  19.608  1.00  0.00     0.136 C 
HETATM   21  C34 UNL     1       2.176  12.955  19.412  1.00  0.00     0.014 C 
HETATM   22  C35 UNL     1       1.843  13.662  20.754  1.00  0.00     0.021 C 
HETATM   23  C36 UNL     1       3.102  13.958  18.657  1.00  0.00     0.021 C 
ENDROOT
BRANCH  20  24
HETATM   24  O3  UNL     1       3.459  11.568  20.970  1.00  0.00    -0.352 OA
BRANCH  24  25
HETATM   25  C28 UNL     1       4.778  11.055  21.168  1.00  0.00     0.292 C 
HETATM   26  O4  UNL     1       5.182  11.152  22.538  1.00  0.00    -0.348 OA
HETATM   27  C29 UNL     1       5.692  12.419  22.981  1.00  0.00     0.179 C 
HETATM   28  C31 UNL     1       6.927  12.828  22.152  1.00  0.00     0.180 C 
HETATM   29  C32 UNL     1       7.078  11.995  20.879  1.00  0.00     0.183 C 
HETATM   30  C33 UNL     1       5.732  11.799  20.209  1.00  0.00     0.204 C 
BRANCH  27  31
HETATM   31  C30 UNL     1       4.623  13.533  23.013  1.00  0.00     0.198 C 
BRANCH  31  32
HETATM   32  O5  UNL     1       5.030  14.622  22.185  1.00  0.00    -0.398 OA
HETATM   33  H46 UNL     1       4.683  15.437  22.589  1.00  0.00     0.209 HD
ENDBRANCH  31  32
ENDBRANCH  27  31
BRANCH  28  34
HETATM   34  O6  UNL     1       8.144  12.658  22.906  1.00  0.00    -0.390 OA
HETATM   35  H48 UNL     1       8.125  11.768  23.304  1.00  0.00     0.210 HD
ENDBRANCH  28  34
BRANCH  29  36
HETATM   36  O7  UNL     1       7.973  12.666  19.977  1.00  0.00    -0.390 OA
HETATM   37  H50 UNL     1       8.771  12.865  20.503  1.00  0.00     0.210 HD
ENDBRANCH  29  36
BRANCH  30  38
HETATM   38  O8  UNL     1       5.925  11.063  18.989  1.00  0.00    -0.388 OA
HETATM   39  H52 UNL     1       6.633  11.546  18.513  1.00  0.00     0.210 HD
ENDBRANCH  30  38
ENDBRANCH  24  25
ENDBRANCH  20  24
BRANCH   1  40
HETATM   40  C2  UNL     1      -3.404   8.344  13.775  1.00  0.00    -0.010 C 
HETATM   41  C1  UNL     1      -2.371   8.629  12.662  1.00  0.00     0.010 C 
BRANCH  40  42
HETATM   42  C3  UNL     1      -4.750   7.932  13.127  1.00  0.00     0.031 C 
BRANCH  42  43
HETATM   43  C4  UNL     1      -5.726   7.237  14.049  1.00  0.00    -0.027 C 
HETATM   44  C5  UNL     1      -6.815   6.564  13.637  1.00  0.00     0.006 C 
BRANCH  44  45
HETATM   45  C6  UNL     1      -7.839   5.862  14.491  1.00  0.00     0.068 C 
HETATM   46  C7  UNL     1      -7.349   5.464  15.887  1.00  0.00     0.050 C 
HETATM   47  C8  UNL     1      -9.093   6.735  14.593  1.00  0.00     0.050 C 
BRANCH  45  48
HETATM   48  O1  UNL     1      -8.186   4.668  13.787  1.00  0.00    -0.387 OA
HETATM   49  H15 UNL     1      -8.813   4.171  14.341  1.00  0.00     0.211 HD
ENDBRANCH  45  48
ENDBRANCH  44  45
ENDBRANCH  42  43
ENDBRANCH  40  42
ENDBRANCH   1  40
TORSDOF 12
ENDMDL
MODEL 9
REMARK minimizedAffinity -8.46652126
REMARK CNNscore 0.224713638
REMARK CNNaffinity 6.6758709
REMARK  12 active torsions:
REMARK  status: ('A' for Active; 'I' for Inactive)
REMARK    1  A    between atoms: C2_2  and  C3_3 
REMARK    2  A    between atoms: C2_2  and  C9_10 
REMARK    3  A    between atoms: C3_3  and  C4_4 
REMARK    4  A    between atoms: C5_5  and  C6_6 
REMARK    5  A    between atoms: C6_6  and  O1_9 
REMARK    6  A    between atoms: C27_29  and  O3_30 
REMARK    7  A    between atoms: O3_30  and  C28_31 
REMARK    8  A    between atoms: C29_33  and  C30_34 
REMARK    9  A    between atoms: C30_34  and  O5_35 
REMARK   10  A    between atoms: C31_36  and  O6_37 
REMARK   11  A    between atoms: C32_38  and  O7_39 
REMARK   12  A    between atoms: C33_40  and  O8_41 
ROOT
HETATM    1  C9  UNL     1      -1.489   6.934  12.661  1.00  0.00    -0.002 C 
HETATM    2  C10 UNL     1      -1.854   8.351  13.185  1.00  0.00     0.006 C 
HETATM    3  C11 UNL     1      -0.628   9.262  12.891  1.00  0.00     0.011 C 
HETATM    4  C12 UNL     1       0.260   8.439  11.938  1.00  0.00    -0.029 C 
HETATM    5  C13 UNL     1      -0.377   8.632  10.506  1.00  0.00     0.016 C 
HETATM    6  C14 UNL     1       1.771   8.827  11.767  1.00  0.00     0.028 C 
HETATM    7  C15 UNL     1       2.425   9.880  12.627  1.00  0.00    -0.021 C 
HETATM    8  C16 UNL     1       3.758  10.059  12.523  1.00  0.00     0.008 C 
HETATM    9  C17 UNL     1       4.633   9.078  11.733  1.00  0.00     0.092 C 
HETATM   10  O2  UNL     1       4.265   9.190  10.330  1.00  0.00    -0.374 OA
HETATM   11  C18 UNL     1       3.380   8.076  10.017  1.00  0.00     0.179 C 
HETATM   12  C19 UNL     1       2.772   7.641  11.384  1.00  0.00    -0.004 C 
HETATM   13  C20 UNL     1       2.196   6.202  11.357  1.00  0.00     0.014 C 
HETATM   14  C21 UNL     1       0.686   5.997  11.556  1.00  0.00     0.011 C 
HETATM   15  C22 UNL     1       0.061   7.003  12.525  1.00  0.00    -0.032 C 
HETATM   16  C23 UNL     1       0.702   6.844  13.915  1.00  0.00     0.016 C 
HETATM   17  C24 UNL     1       4.156   7.680  12.119  1.00  0.00     0.036 C 
HETATM   18  C25 UNL     1       4.337   7.388  13.608  1.00  0.00     0.011 C 
HETATM   19  C26 UNL     1       5.508   8.152  14.235  1.00  0.00     0.033 C 
HETATM   20  C27 UNL     1       6.648   8.532  13.280  1.00  0.00     0.136 C 
HETATM   21  C34 UNL     1       6.179   9.213  11.933  1.00  0.00     0.014 C 
HETATM   22  C35 UNL     1       6.614  10.700  11.827  1.00  0.00     0.021 C 
HETATM   23  C36 UNL     1       6.942   8.495  10.778  1.00  0.00     0.021 C 
ENDROOT
BRANCH  20  24
HETATM   24  O3  UNL     1       7.581   9.407  13.933  1.00  0.00    -0.352 OA
BRANCH  24  25
HETATM   25  C28 UNL     1       7.270   9.754  15.283  1.00  0.00     0.292 C 
HETATM   26  O4  UNL     1       7.201  11.172  15.462  1.00  0.00    -0.348 OA
HETATM   27  C29 UNL     1       8.442  11.868  15.651  1.00  0.00     0.179 C 
HETATM   28  C31 UNL     1       9.186  11.328  16.890  1.00  0.00     0.180 C 
HETATM   29  C32 UNL     1       8.616   9.996  17.377  1.00  0.00     0.183 C 
HETATM   30  C33 UNL     1       8.314   9.085  16.204  1.00  0.00     0.204 C 
BRANCH  27  31
HETATM   31  C30 UNL     1       9.340  11.873  14.394  1.00  0.00     0.198 C 
BRANCH  31  32
HETATM   32  O5  UNL     1       9.766  10.544  14.096  1.00  0.00    -0.398 OA
HETATM   33  H46 UNL     1      10.655  10.606  13.703  1.00  0.00     0.209 HD
ENDBRANCH  31  32
ENDBRANCH  27  31
BRANCH  28  34
HETATM   34  O6  UNL     1       9.097  12.248  17.997  1.00  0.00    -0.390 OA
HETATM   35  H48 UNL     1       8.162  12.509  18.092  1.00  0.00     0.210 HD
ENDBRANCH  28  34
BRANCH  29  36
HETATM   36  O7  UNL     1       9.570   9.363  18.246  1.00  0.00    -0.390 OA
HETATM   37  H50 UNL     1       9.808  10.041  18.908  1.00  0.00     0.210 HD
ENDBRANCH  29  36
BRANCH  30  38
HETATM   38  O8  UNL     1       7.838   7.825  16.706  1.00  0.00    -0.388 OA
HETATM   39  H52 UNL     1       8.505   7.549  17.369  1.00  0.00     0.210 HD
ENDBRANCH  30  38
ENDBRANCH  24  25
ENDBRANCH  20  24
BRANCH   1  40
HETATM   40  C2  UNL     1      -2.188   5.729  13.363  1.00  0.00    -0.010 C 
HETATM   41  C1  UNL     1      -2.157   4.527  12.392  1.00  0.00     0.010 C 
BRANCH  40  42
HETATM   42  C3  UNL     1      -3.635   5.936  13.872  1.00  0.00     0.031 C 
BRANCH  42  43
HETATM   43  C4  UNL     1      -4.668   4.999  13.289  1.00  0.00    -0.027 C 
HETATM   44  C5  UNL     1      -5.976   5.020  13.597  1.00  0.00     0.006 C 
BRANCH  44  45
HETATM   45  C6  UNL     1      -7.060   4.112  13.072  1.00  0.00     0.068 C 
HETATM   46  C7  UNL     1      -8.209   4.830  12.357  1.00  0.00     0.050 C 
HETATM   47  C8  UNL     1      -6.432   3.060  12.153  1.00  0.00     0.050 C 
BRANCH  45  48
HETATM   48  O1  UNL     1      -7.598   3.442  14.213  1.00  0.00    -0.387 OA
HETATM   49  H15 UNL     1      -8.333   2.883  13.906  1.00  0.00     0.211 HD
ENDBRANCH  45  48
ENDBRANCH  44  45
ENDBRANCH  42  43
ENDBRANCH  40  42
ENDBRANCH   1  40
TORSDOF 12
ENDMDL
