MODEL 1
REMARK minimizedAffinity -6.69950533
REMARK CNNscore 0.531984091
REMARK CNNaffinity 6.68008757
REMARK  6 active torsions:
REMARK  status: ('A' for Active; 'I' for Inactive)
REMARK    1  A    between atoms: N1_2  and  C2_3 
REMARK    2  A    between atoms: C2_3  and  C3_4 
REMARK    3  A    between atoms: C5_6  and  O1_7 
REMARK    4  A    between atoms: C25_28  and  N2_29 
REMARK    5  A    between atoms: C26_30  and  C27_31 
REMARK    6  A    between atoms: C27_31  and  O3_32 
ROOT
HETATM    1  C3  UNL     1     -15.838   1.392  28.792  1.00  0.00    -0.021 A 
HETATM    2  C4  UNL     1     -16.886   1.901  29.585  1.00  0.00     0.045 A 
HETATM    3  C5  UNL     1     -16.825   3.174  30.121  1.00  0.00     0.066 A 
HETATM    4  C6  UNL     1     -15.731   3.985  29.873  1.00  0.00     0.045 A 
HETATM    5  C7  UNL     1     -14.650   3.515  29.095  1.00  0.00    -0.037 A 
HETATM    6  C8  UNL     1     -14.679   2.188  28.565  1.00  0.00    -0.042 A 
HETATM    7  C9  UNL     1     -13.483   1.605  27.823  1.00  0.00     0.044 C 
HETATM    8  C10 UNL     1     -13.102   2.214  26.464  1.00  0.00    -0.010 C 
HETATM    9  C11 UNL     1     -11.930   1.450  25.830  1.00  0.00     0.005 C 
HETATM   10  C12 UNL     1     -11.563   1.998  24.452  1.00  0.00     0.001 C 
HETATM   11  C13 UNL     1     -12.261   3.321  24.126  1.00  0.00     0.007 C 
HETATM   12  C14 UNL     1     -13.803   3.180  24.191  1.00  0.00     0.022 C 
HETATM   13  C15 UNL     1     -14.245   2.351  25.436  1.00  0.00     0.012 C 
HETATM   14  C16 UNL     1     -14.606   4.523  23.921  1.00  0.00     0.083 C 
HETATM   15  C17 UNL     1     -13.827   5.467  22.944  1.00  0.00     0.050 C 
HETATM   16  C18 UNL     1     -14.728   6.594  22.344  1.00  0.00    -0.029 C 
HETATM   17  C19 UNL     1     -14.950   6.365  20.824  1.00  0.00     0.010 C 
HETATM   18  C20 UNL     1     -15.691   5.084  20.488  1.00  0.00     0.004 C 
HETATM   19  C21 UNL     1     -16.964   4.972  21.309  1.00  0.00     0.038 C 
HETATM   20  C22 UNL     1     -16.707   5.133  22.824  1.00  0.00     0.065 C 
HETATM   21  C23 UNL     1     -18.057   4.883  23.515  1.00  0.00     0.046 C 
HETATM   22  O2  UNL     1     -15.799   4.072  23.197  1.00  0.00    -0.367 OA
HETATM   23  C24 UNL     1     -16.060   6.525  23.133  1.00  0.00     0.069 C 
HETATM   24  C25 UNL     1     -15.716   6.712  24.668  1.00  0.00     0.184 C 
HETATM   25  C26 UNL     1     -14.643   7.861  24.907  1.00  0.00     0.049 C 
HETATM   26  C28 UNL     1     -14.540   8.780  23.693  1.00  0.00     0.010 C 
HETATM   27  C29 UNL     1     -14.068   7.993  22.476  1.00  0.00     0.011 C 
HETATM   28  C30 UNL     1     -15.173   5.316  25.151  1.00  0.00     0.139 C 
HETATM   29  C31 UNL     1     -14.344   5.367  26.369  1.00  0.00    -0.096 C 
HETATM   30  C32 UNL     1     -13.892   5.157  27.463  1.00  0.00    -0.101 C 
HETATM   31  C33 UNL     1     -13.569   4.539  28.763  1.00  0.00     0.133 C 
ENDROOT
BRANCH   1  32
HETATM   32  C2  UNL     1     -16.055   0.003  28.217  1.00  0.00     0.308 C 
BRANCH  32  33
HETATM   33  N1  UNL     1     -16.432   0.004  26.801  1.00  0.00     0.083 N 
HETATM   34  C1  UNL     1     -17.566   0.874  26.523  1.00  0.00     0.307 C 
HETATM   35  H4  UNL     1     -16.673  -0.948  26.530  1.00  0.00     0.315 HD
ENDBRANCH  32  33
ENDBRANCH   1  32
BRANCH   3  36
HETATM   36  O1  UNL     1     -17.877   3.607  30.871  1.00  0.00    -0.361 OA
HETATM   37  H8  UNL     1     -17.661   4.480  31.232  1.00  0.00     0.217 HD
ENDBRANCH   3  36
BRANCH  24  38
HETATM   38  N2  UNL     1     -16.986   7.047  25.346  1.00  0.00     0.090 N 
HETATM   39  H34 UNL     1     -16.912   6.821  26.340  1.00  0.00     0.313 HD
HETATM   40  H35 UNL     1     -17.114   8.065  25.342  1.00  0.00     0.313 HD
ENDBRANCH  24  38
BRANCH  25  41
HETATM   41  C27 UNL     1     -14.823   8.687  26.197  1.00  0.00     0.171 C 
BRANCH  41  42
HETATM   42  O3  UNL     1     -14.441  10.049  26.014  1.00  0.00    -0.400 OA
HETATM   43  H39 UNL     1     -13.470  10.088  26.055  1.00  0.00     0.209 HD
ENDBRANCH  41  42
ENDBRANCH  25  41
TORSDOF 6
ENDMDL
MODEL 2
REMARK minimizedAffinity -5.61998224
REMARK CNNscore 0.493739218
REMARK CNNaffinity 6.33669806
REMARK  6 active torsions:
REMARK  status: ('A' for Active; 'I' for Inactive)
REMARK    1  A    between atoms: N1_2  and  C2_3 
REMARK    2  A    between atoms: C2_3  and  C3_4 
REMARK    3  A    between atoms: C5_6  and  O1_7 
REMARK    4  A    between atoms: C25_28  and  N2_29 
REMARK    5  A    between atoms: C26_30  and  C27_31 
REMARK    6  A    between atoms: C27_31  and  O3_32 
ROOT
HETATM    1  C3  UNL     1       5.746  18.687  -1.527  1.00  0.00    -0.021 A 
HETATM    2  C4  UNL     1       4.987  19.610  -2.275  1.00  0.00     0.045 A 
HETATM    3  C5  UNL     1       3.943  19.192  -3.079  1.00  0.00     0.066 A 
HETATM    4  C6  UNL     1       3.609  17.850  -3.152  1.00  0.00     0.045 A 
HETATM    5  C7  UNL     1       4.347  16.887  -2.430  1.00  0.00    -0.037 A 
HETATM    6  C8  UNL     1       5.455  17.297  -1.624  1.00  0.00    -0.042 A 
HETATM    7  C9  UNL     1       6.347  16.277  -0.926  1.00  0.00     0.044 C 
HETATM    8  C10 UNL     1       5.742  15.436   0.209  1.00  0.00    -0.010 C 
HETATM    9  C11 UNL     1       6.804  14.527   0.844  1.00  0.00     0.005 C 
HETATM   10  C12 UNL     1       6.246  13.717   2.013  1.00  0.00     0.001 C 
HETATM   11  C13 UNL     1       4.721  13.800   2.127  1.00  0.00     0.007 C 
HETATM   12  C14 UNL     1       4.242  15.264   2.285  1.00  0.00     0.022 C 
HETATM   13  C15 UNL     1       5.005  16.219   1.315  1.00  0.00     0.012 C 
HETATM   14  C16 UNL     1       2.666  15.446   2.354  1.00  0.00     0.083 C 
HETATM   15  C17 UNL     1       1.976  14.196   2.997  1.00  0.00     0.050 C 
HETATM   16  C18 UNL     1       0.505  14.480   3.444  1.00  0.00    -0.029 C 
HETATM   17  C19 UNL     1       0.392  14.464   4.993  1.00  0.00     0.010 C 
HETATM   18  C20 UNL     1       1.202  15.541   5.689  1.00  0.00     0.004 C 
HETATM   19  C21 UNL     1       0.920  16.902   5.077  1.00  0.00     0.038 C 
HETATM   20  C22 UNL     1       1.108  16.911   3.543  1.00  0.00     0.065 C 
HETATM   21  C23 UNL     1       0.899  18.367   3.096  1.00  0.00     0.046 C 
HETATM   22  O2  UNL     1       2.487  16.552   3.301  1.00  0.00    -0.367 OA
HETATM   23  C24 UNL     1       0.155  15.873   2.861  1.00  0.00     0.069 C 
HETATM   24  C25 UNL     1       0.358  15.797   1.291  1.00  0.00     0.184 C 
HETATM   25  C26 UNL     1      -0.216  14.447   0.676  1.00  0.00     0.049 C 
HETATM   26  C28 UNL     1      -1.190  13.773   1.638  1.00  0.00     0.010 C 
HETATM   27  C29 UNL     1      -0.476  13.392   2.930  1.00  0.00     0.011 C 
HETATM   28  C30 UNL     1       1.910  15.913   1.061  1.00  0.00     0.139 C 
HETATM   29  C31 UNL     1       2.381  15.385  -0.232  1.00  0.00    -0.096 C 
HETATM   30  C32 UNL     1       2.918  15.269  -1.302  1.00  0.00    -0.101 C 
HETATM   31  C33 UNL     1       3.804  15.462  -2.466  1.00  0.00     0.133 C 
ENDROOT
BRANCH   1  32
HETATM   32  C2  UNL     1       6.827  19.281  -0.640  1.00  0.00     0.308 C 
BRANCH  32  33
HETATM   33  N1  UNL     1       6.388  19.535   0.734  1.00  0.00     0.083 N 
HETATM   34  C1  UNL     1       7.367  19.108   1.724  1.00  0.00     0.307 C 
HETATM   35  H4  UNL     1       5.517  19.032   0.894  1.00  0.00     0.315 HD
ENDBRANCH  32  33
ENDBRANCH   1  32
BRANCH   3  36
HETATM   36  O1  UNL     1       3.245  20.138  -3.769  1.00  0.00    -0.361 OA
HETATM   37  H8  UNL     1       2.597  19.691  -4.336  1.00  0.00     0.217 HD
ENDBRANCH   3  36
BRANCH  24  38
HETATM   38  N2  UNL     1      -0.350  16.962   0.719  1.00  0.00     0.090 N 
HETATM   39  H34 UNL     1       0.035  17.176  -0.204  1.00  0.00     0.313 HD
HETATM   40  H35 UNL     1      -1.322  16.703   0.517  1.00  0.00     0.313 HD
ENDBRANCH  24  38
BRANCH  25  41
HETATM   41  C27 UNL     1      -0.838  14.563  -0.731  1.00  0.00     0.171 C 
BRANCH  41  42
HETATM   42  O3  UNL     1      -0.312  13.588  -1.627  1.00  0.00    -0.400 OA
HETATM   43  H39 UNL     1       0.560  13.904  -1.923  1.00  0.00     0.209 HD
ENDBRANCH  41  42
ENDBRANCH  25  41
TORSDOF 6
ENDMDL
MODEL 3
REMARK minimizedAffinity -9.06131458
REMARK CNNscore 0.492399007
REMARK CNNaffinity 7.20737696
REMARK  6 active torsions:
REMARK  status: ('A' for Active; 'I' for Inactive)
REMARK    1  A    between atoms: N1_2  and  C2_3 
REMARK    2  A    between atoms: C2_3  and  C3_4 
REMARK    3  A    between atoms: C5_6  and  O1_7 
REMARK    4  A    between atoms: C25_28  and  N2_29 
REMARK    5  A    between atoms: C26_30  and  C27_31 
REMARK    6  A    between atoms: C27_31  and  O3_32 
ROOT
HETATM    1  C3  UNL     1       5.582   6.461  11.271  1.00  0.00    -0.021 A 
HETATM    2  C4  UNL     1       6.319   6.301  12.463  1.00  0.00     0.045 A 
HETATM    3  C5  UNL     1       6.357   7.299  13.419  1.00  0.00     0.066 A 
HETATM    4  C6  UNL     1       5.655   8.477  13.230  1.00  0.00     0.045 A 
HETATM    5  C7  UNL     1       4.913   8.689  12.047  1.00  0.00    -0.037 A 
HETATM    6  C8  UNL     1       4.893   7.683  11.031  1.00  0.00    -0.042 A 
HETATM    7  C9  UNL     1       4.204   7.923   9.693  1.00  0.00     0.044 C 
HETATM    8  C10 UNL     1       2.673   8.068   9.679  1.00  0.00    -0.010 C 
HETATM    9  C11 UNL     1       2.151   8.221   8.243  1.00  0.00     0.005 C 
HETATM   10  C12 UNL     1       0.627   8.312   8.190  1.00  0.00     0.001 C 
HETATM   11  C13 UNL     1      -0.012   8.483   9.571  1.00  0.00     0.007 C 
HETATM   12  C14 UNL     1       0.366   7.319  10.521  1.00  0.00     0.022 C 
HETATM   13  C15 UNL     1       1.880   6.958  10.400  1.00  0.00     0.012 C 
HETATM   14  C16 UNL     1      -0.210   7.447  11.994  1.00  0.00     0.083 C 
HETATM   15  C17 UNL     1      -1.575   8.215  12.008  1.00  0.00     0.050 C 
HETATM   16  C18 UNL     1      -2.362   8.025  13.344  1.00  0.00    -0.029 C 
HETATM   17  C19 UNL     1      -3.644   7.179  13.108  1.00  0.00     0.010 C 
HETATM   18  C20 UNL     1      -3.377   5.762  12.634  1.00  0.00     0.004 C 
HETATM   19  C21 UNL     1      -2.359   5.081  13.533  1.00  0.00     0.038 C 
HETATM   20  C22 UNL     1      -1.065   5.910  13.695  1.00  0.00     0.065 C 
HETATM   21  C23 UNL     1      -0.105   5.043  14.527  1.00  0.00     0.046 C 
HETATM   22  O2  UNL     1      -0.510   6.061  12.369  1.00  0.00    -0.367 OA
HETATM   23  C24 UNL     1      -1.379   7.315  14.309  1.00  0.00     0.069 C 
HETATM   24  C25 UNL     1      -0.091   8.230  14.434  1.00  0.00     0.184 C 
HETATM   25  C26 UNL     1      -0.460   9.770  14.575  1.00  0.00     0.049 C 
HETATM   26  C28 UNL     1      -1.916   9.953  14.993  1.00  0.00     0.010 C 
HETATM   27  C29 UNL     1      -2.845   9.380  13.929  1.00  0.00     0.011 C 
HETATM   28  C30 UNL     1       0.745   7.960  13.129  1.00  0.00     0.139 C 
HETATM   29  C31 UNL     1       1.704   9.025  12.782  1.00  0.00    -0.096 C 
HETATM   30  C32 UNL     1       2.705   9.620  12.484  1.00  0.00    -0.101 C 
HETATM   31  C33 UNL     1       4.061   9.954  12.008  1.00  0.00     0.133 C 
ENDROOT
BRANCH   1  32
HETATM   32  C2  UNL     1       5.575   5.269  10.330  1.00  0.00     0.308 C 
BRANCH  32  33
HETATM   33  N1  UNL     1       4.233   4.768  10.024  1.00  0.00     0.083 N 
HETATM   34  C1  UNL     1       4.252   3.620   9.129  1.00  0.00     0.307 C 
HETATM   35  H4  UNL     1       3.700   5.518   9.587  1.00  0.00     0.315 HD
ENDBRANCH  32  33
ENDBRANCH   1  32
BRANCH   3  36
HETATM   36  O1  UNL     1       7.081   7.075  14.552  1.00  0.00    -0.361 OA
HETATM   37  H8  UNL     1       7.071   7.882  15.090  1.00  0.00     0.217 HD
ENDBRANCH   3  36
BRANCH  24  38
HETATM   38  N2  UNL     1       0.639   7.766  15.633  1.00  0.00     0.090 N 
HETATM   39  H34 UNL     1       1.620   8.044  15.565  1.00  0.00     0.313 HD
HETATM   40  H35 UNL     1       0.302   8.280  16.455  1.00  0.00     0.313 HD
ENDBRANCH  24  38
BRANCH  25  41
HETATM   41  C27 UNL     1       0.471  10.601  15.481  1.00  0.00     0.171 C 
BRANCH  41  42
HETATM   42  O3  UNL     1       0.935  11.781  14.828  1.00  0.00    -0.400 OA
HETATM   43  H39 UNL     1       1.656  11.519  14.229  1.00  0.00     0.209 HD
ENDBRANCH  41  42
ENDBRANCH  25  41
TORSDOF 6
ENDMDL
MODEL 4
REMARK minimizedAffinity -7.80853415
REMARK CNNscore 0.363289595
REMARK CNNaffinity 7.11328554
REMARK  6 active torsions:
REMARK  status: ('A' for Active; 'I' for Inactive)
REMARK    1  A    between atoms: N1_2  and  C2_3 
REMARK    2  A    between atoms: C2_3  and  C3_4 
REMARK    3  A    between atoms: C5_6  and  O1_7 
REMARK    4  A    between atoms: C25_28  and  N2_29 
REMARK    5  A    between atoms: C26_30  and  C27_31 
REMARK    6  A    between atoms: C27_31  and  O3_32 
ROOT
HETATM    1  C3  UNL     1       4.099   5.290   9.437  1.00  0.00    -0.021 A 
HETATM    2  C4  UNL     1       5.150   4.720  10.184  1.00  0.00     0.045 A 
HETATM    3  C5  UNL     1       5.867   5.471  11.098  1.00  0.00     0.066 A 
HETATM    4  C6  UNL     1       5.552   6.802  11.310  1.00  0.00     0.045 A 
HETATM    5  C7  UNL     1       4.515   7.420  10.578  1.00  0.00    -0.037 A 
HETATM    6  C8  UNL     1       3.789   6.670   9.601  1.00  0.00    -0.042 A 
HETATM    7  C9  UNL     1       2.746   7.332   8.708  1.00  0.00     0.044 C 
HETATM    8  C10 UNL     1       1.459   7.860   9.362  1.00  0.00    -0.010 C 
HETATM    9  C11 UNL     1       0.495   8.416   8.303  1.00  0.00     0.005 C 
HETATM   10  C12 UNL     1      -0.818   8.900   8.915  1.00  0.00     0.001 C 
HETATM   11  C13 UNL     1      -0.782   8.957  10.445  1.00  0.00     0.007 C 
HETATM   12  C14 UNL     1      -0.447   7.574  11.057  1.00  0.00     0.022 C 
HETATM   13  C15 UNL     1       0.705   6.871  10.275  1.00  0.00     0.012 C 
HETATM   14  C16 UNL     1      -0.334   7.556  12.641  1.00  0.00     0.083 C 
HETATM   15  C17 UNL     1      -1.273   8.627  13.292  1.00  0.00     0.050 C 
HETATM   16  C18 UNL     1      -1.495   8.388  14.820  1.00  0.00    -0.029 C 
HETATM   17  C19 UNL     1      -2.962   7.957  15.098  1.00  0.00     0.010 C 
HETATM   18  C20 UNL     1      -3.357   6.639  14.458  1.00  0.00     0.004 C 
HETATM   19  C21 UNL     1      -2.337   5.561  14.784  1.00  0.00     0.038 C 
HETATM   20  C22 UNL     1      -0.894   5.986  14.433  1.00  0.00     0.065 C 
HETATM   21  C23 UNL     1      -0.009   4.760  14.711  1.00  0.00     0.046 C 
HETATM   22  O2  UNL     1      -0.881   6.246  13.011  1.00  0.00    -0.367 OA
HETATM   23  C24 UNL     1      -0.489   7.279  15.218  1.00  0.00     0.069 C 
HETATM   24  C25 UNL     1       0.961   7.794  14.842  1.00  0.00     0.184 C 
HETATM   25  C26 UNL     1       1.177   9.320  15.233  1.00  0.00     0.049 C 
HETATM   26  C28 UNL     1       0.134   9.782  16.247  1.00  0.00     0.010 C 
HETATM   27  C29 UNL     1      -1.264   9.682  15.647  1.00  0.00     0.011 C 
HETATM   28  C30 UNL     1       1.094   7.580  13.289  1.00  0.00     0.139 C 
HETATM   29  C31 UNL     1       2.123   8.412  12.639  1.00  0.00    -0.096 C 
HETATM   30  C32 UNL     1       3.061   8.779  11.982  1.00  0.00    -0.101 C 
HETATM   31  C33 UNL     1       4.155   8.843  10.996  1.00  0.00     0.133 C 
ENDROOT
BRANCH   1  32
HETATM   32  C2  UNL     1       3.355   4.344   8.510  1.00  0.00     0.308 C 
BRANCH  32  33
HETATM   33  N1  UNL     1       4.229   3.617   7.586  1.00  0.00     0.083 N 
HETATM   34  C1  UNL     1       3.729   3.623   6.218  1.00  0.00     0.307 C 
HETATM   35  H4  UNL     1       4.305   2.653   7.904  1.00  0.00     0.315 HD
ENDBRANCH  32  33
ENDBRANCH   1  32
BRANCH   3  36
HETATM   36  O1  UNL     1       6.865   4.856  11.792  1.00  0.00    -0.361 OA
HETATM   37  H8  UNL     1       7.317   5.519  12.337  1.00  0.00     0.217 HD
ENDBRANCH   3  36
BRANCH  24  38
HETATM   38  N2  UNL     1       1.915   6.936  15.577  1.00  0.00     0.090 N 
HETATM   39  H34 UNL     1       2.826   6.964  15.114  1.00  0.00     0.313 HD
HETATM   40  H35 UNL     1       2.104   7.350  16.497  1.00  0.00     0.313 HD
ENDBRANCH  24  38
BRANCH  25  41
HETATM   41  C27 UNL     1       2.596   9.696  15.708  1.00  0.00     0.171 C 
BRANCH  41  42
HETATM   42  O3  UNL     1       3.391   8.542  15.969  1.00  0.00    -0.400 OA
HETATM   43  H39 UNL     1       3.128   8.196  16.840  1.00  0.00     0.209 HD
ENDBRANCH  41  42
ENDBRANCH  25  41
TORSDOF 6
ENDMDL
MODEL 5
REMARK minimizedAffinity -6.25687742
REMARK CNNscore 0.359450936
REMARK CNNaffinity 6.40730143
REMARK  6 active torsions:
REMARK  status: ('A' for Active; 'I' for Inactive)
REMARK    1  A    between atoms: N1_2  and  C2_3 
REMARK    2  A    between atoms: C2_3  and  C3_4 
REMARK    3  A    between atoms: C5_6  and  O1_7 
REMARK    4  A    between atoms: C25_28  and  N2_29 
REMARK    5  A    between atoms: C26_30  and  C27_31 
REMARK    6  A    between atoms: C27_31  and  O3_32 
ROOT
HETATM    1  C3  UNL     1       1.193  14.329   3.115  1.00  0.00    -0.021 A 
HETATM    2  C4  UNL     1       0.644  13.031   3.146  1.00  0.00     0.045 A 
HETATM    3  C5  UNL     1      -0.547  12.743   2.504  1.00  0.00     0.066 A 
HETATM    4  C6  UNL     1      -1.218  13.728   1.799  1.00  0.00     0.045 A 
HETATM    5  C7  UNL     1      -0.713  15.046   1.749  1.00  0.00    -0.037 A 
HETATM    6  C8  UNL     1       0.496  15.371   2.440  1.00  0.00    -0.042 A 
HETATM    7  C9  UNL     1       1.007  16.805   2.509  1.00  0.00     0.044 C 
HETATM    8  C10 UNL     1       1.487  17.469   1.209  1.00  0.00    -0.010 C 
HETATM    9  C11 UNL     1       2.040  18.875   1.484  1.00  0.00     0.005 C 
HETATM   10  C12 UNL     1       2.577  19.542   0.219  1.00  0.00     0.001 C 
HETATM   11  C13 UNL     1       2.219  18.780  -1.059  1.00  0.00     0.007 C 
HETATM   12  C14 UNL     1       2.752  17.325  -1.021  1.00  0.00     0.022 C 
HETATM   13  C15 UNL     1       2.508  16.669   0.374  1.00  0.00     0.012 C 
HETATM   14  C16 UNL     1       2.376  16.444  -2.286  1.00  0.00     0.083 C 
HETATM   15  C17 UNL     1       2.248  17.323  -3.576  1.00  0.00     0.050 C 
HETATM   16  C18 UNL     1       2.273  16.478  -4.890  1.00  0.00    -0.029 C 
HETATM   17  C19 UNL     1       3.579  16.745  -5.687  1.00  0.00     0.010 C 
HETATM   18  C20 UNL     1       4.847  16.335  -4.962  1.00  0.00     0.004 C 
HETATM   19  C21 UNL     1       4.732  14.910  -4.449  1.00  0.00     0.038 C 
HETATM   20  C22 UNL     1       3.461  14.687  -3.601  1.00  0.00     0.065 C 
HETATM   21  C23 UNL     1       3.549  13.247  -3.069  1.00  0.00     0.046 C 
HETATM   22  O2  UNL     1       3.556  15.595  -2.480  1.00  0.00    -0.367 OA
HETATM   23  C24 UNL     1       2.174  15.000  -4.436  1.00  0.00     0.069 C 
HETATM   24  C25 UNL     1       0.843  14.850  -3.588  1.00  0.00     0.184 C 
HETATM   25  C26 UNL     1      -0.380  15.622  -4.249  1.00  0.00     0.049 C 
HETATM   26  C28 UNL     1      -0.106  15.935  -5.717  1.00  0.00     0.010 C 
HETATM   27  C29 UNL     1       1.105  16.854  -5.842  1.00  0.00     0.011 C 
HETATM   28  C30 UNL     1       1.183  15.432  -2.166  1.00  0.00     0.139 C 
HETATM   29  C31 UNL     1       0.010  15.852  -1.378  1.00  0.00    -0.096 C 
HETATM   30  C32 UNL     1      -0.792  15.992  -0.493  1.00  0.00    -0.101 C 
HETATM   31  C33 UNL     1      -1.451  16.011   0.827  1.00  0.00     0.133 C 
ENDROOT
BRANCH   1  32
HETATM   32  C2  UNL     1       2.532  14.500   3.811  1.00  0.00     0.308 C 
BRANCH  32  33
HETATM   33  N1  UNL     1       2.429  14.603   5.269  1.00  0.00     0.083 N 
HETATM   34  C1  UNL     1       2.638  15.961   5.753  1.00  0.00     0.307 C 
HETATM   35  H4  UNL     1       3.130  13.994   5.686  1.00  0.00     0.315 HD
ENDBRANCH  32  33
ENDBRANCH   1  32
BRANCH   3  36
HETATM   36  O1  UNL     1      -1.016  11.465   2.566  1.00  0.00    -0.361 OA
HETATM   37  H8  UNL     1      -1.884  11.434   2.133  1.00  0.00     0.217 HD
ENDBRANCH   3  36
BRANCH  24  38
HETATM   38  N2  UNL     1       0.555  13.402  -3.511  1.00  0.00     0.090 N 
HETATM   39  H34 UNL     1      -0.046  13.216  -2.705  1.00  0.00     0.313 HD
HETATM   40  H35 UNL     1      -0.029  13.130  -4.310  1.00  0.00     0.313 HD
ENDBRANCH  24  38
BRANCH  25  41
HETATM   41  C27 UNL     1      -1.760  14.952  -4.088  1.00  0.00     0.171 C 
BRANCH  41  42
HETATM   42  O3  UNL     1      -1.680  13.747  -3.331  1.00  0.00    -0.400 OA
HETATM   43  H39 UNL     1      -1.347  13.051  -3.924  1.00  0.00     0.209 HD
ENDBRANCH  41  42
ENDBRANCH  25  41
TORSDOF 6
ENDMDL
MODEL 6
REMARK minimizedAffinity -5.56191206
REMARK CNNscore 0.325699002
REMARK CNNaffinity 6.2485404
REMARK  6 active torsions:
REMARK  status: ('A' for Active; 'I' for Inactive)
REMARK    1  A    between atoms: N1_2  and  C2_3 
REMARK    2  A    between atoms: C2_3  and  C3_4 
REMARK    3  A    between atoms: C5_6  and  O1_7 
REMARK    4  A    between atoms: C25_28  and  N2_29 
REMARK    5  A    between atoms: C26_30  and  C27_31 
REMARK    6  A    between atoms: C27_31  and  O3_32 
ROOT
HETATM    1  C3  UNL     1       2.460  15.412  12.888  1.00  0.00    -0.021 A 
HETATM    2  C4  UNL     1       3.735  14.866  13.141  1.00  0.00     0.045 A 
HETATM    3  C5  UNL     1       4.188  14.671  14.433  1.00  0.00     0.066 A 
HETATM    4  C6  UNL     1       3.383  14.997  15.512  1.00  0.00     0.045 A 
HETATM    5  C7  UNL     1       2.103  15.558  15.310  1.00  0.00    -0.037 A 
HETATM    6  C8  UNL     1       1.635  15.802  13.981  1.00  0.00    -0.042 A 
HETATM    7  C9  UNL     1       0.312  16.514  13.726  1.00  0.00     0.044 C 
HETATM    8  C10 UNL     1      -0.988  15.801  14.128  1.00  0.00    -0.010 C 
HETATM    9  C11 UNL     1      -2.216  16.629  13.723  1.00  0.00     0.005 C 
HETATM   10  C12 UNL     1      -3.527  15.921  14.061  1.00  0.00     0.001 C 
HETATM   11  C13 UNL     1      -3.331  14.684  14.941  1.00  0.00     0.007 C 
HETATM   12  C14 UNL     1      -2.388  13.653  14.271  1.00  0.00     0.022 C 
HETATM   13  C15 UNL     1      -1.153  14.352  13.622  1.00  0.00     0.012 C 
HETATM   14  C16 UNL     1      -2.085  12.362  15.143  1.00  0.00     0.083 C 
HETATM   15  C17 UNL     1      -3.293  12.006  16.074  1.00  0.00     0.050 C 
HETATM   16  C18 UNL     1      -3.210  10.554  16.645  1.00  0.00    -0.029 C 
HETATM   17  C19 UNL     1      -4.326   9.662  16.034  1.00  0.00     0.010 C 
HETATM   18  C20 UNL     1      -4.221   9.473  14.532  1.00  0.00     0.004 C 
HETATM   19  C21 UNL     1      -2.818   9.037  14.145  1.00  0.00     0.038 C 
HETATM   20  C22 UNL     1      -1.730   9.980  14.706  1.00  0.00     0.065 C 
HETATM   21  C23 UNL     1      -0.394   9.474  14.138  1.00  0.00     0.046 C 
HETATM   22  O2  UNL     1      -1.998  11.286  14.149  1.00  0.00    -0.367 OA
HETATM   23  C24 UNL     1      -1.798  10.039  16.269  1.00  0.00     0.069 C 
HETATM   24  C25 UNL     1      -0.743  11.046  16.889  1.00  0.00     0.184 C 
HETATM   25  C26 UNL     1      -1.125  11.479  18.370  1.00  0.00     0.049 C 
HETATM   26  C28 UNL     1      -2.134  10.513  18.985  1.00  0.00     0.010 C 
HETATM   27  C29 UNL     1      -3.430  10.524  18.182  1.00  0.00     0.011 C 
HETATM   28  C30 UNL     1      -0.724  12.285  15.920  1.00  0.00     0.139 C 
HETATM   29  C31 UNL     1      -0.214  13.530  16.523  1.00  0.00    -0.096 C 
HETATM   30  C32 UNL     1       0.404  14.541  16.728  1.00  0.00    -0.101 C 
HETATM   31  C33 UNL     1       1.247  15.740  16.560  1.00  0.00     0.133 C 
ENDROOT
BRANCH   1  32
HETATM   32  C2  UNL     1       2.062  15.520  11.427  1.00  0.00     0.308 C 
BRANCH  32  33
HETATM   33  N1  UNL     1       2.636  16.683  10.745  1.00  0.00     0.083 N 
HETATM   34  C1  UNL     1       3.568  16.312   9.689  1.00  0.00     0.307 C 
HETATM   35  H4  UNL     1       3.127  17.251  11.433  1.00  0.00     0.315 HD
ENDBRANCH  32  33
ENDBRANCH   1  32
BRANCH   3  36
HETATM   36  O1  UNL     1       5.426  14.130  14.605  1.00  0.00    -0.361 OA
HETATM   37  H8  UNL     1       5.630  14.120  15.554  1.00  0.00     0.217 HD
ENDBRANCH   3  36
BRANCH  24  38
HETATM   38  N2  UNL     1       0.560  10.348  16.879  1.00  0.00     0.090 N 
HETATM   39  H34 UNL     1       1.316  11.036  16.912  1.00  0.00     0.313 HD
HETATM   40  H35 UNL     1       0.673   9.828  17.756  1.00  0.00     0.313 HD
ENDBRANCH  24  38
BRANCH  25  41
HETATM   41  C27 UNL     1       0.062  11.704  19.330  1.00  0.00     0.171 C 
BRANCH  41  42
HETATM   42  O3  UNL     1       0.438  10.503  19.999  1.00  0.00    -0.400 OA
HETATM   43  H39 UNL     1      -0.196  10.361  20.723  1.00  0.00     0.209 HD
ENDBRANCH  41  42
ENDBRANCH  25  41
TORSDOF 6
ENDMDL
MODEL 7
REMARK minimizedAffinity -7.13217306
REMARK CNNscore 0.289265215
REMARK CNNaffinity 6.39587069
REMARK  6 active torsions:
REMARK  status: ('A' for Active; 'I' for Inactive)
REMARK    1  A    between atoms: N1_2  and  C2_3 
REMARK    2  A    between atoms: C2_3  and  C3_4 
REMARK    3  A    between atoms: C5_6  and  O1_7 
REMARK    4  A    between atoms: C25_28  and  N2_29 
REMARK    5  A    between atoms: C26_30  and  C27_31 
REMARK    6  A    between atoms: C27_31  and  O3_32 
ROOT
HETATM    1  C3  UNL     1       3.397  13.613  -3.190  1.00  0.00    -0.021 A 
HETATM    2  C4  UNL     1       4.273  12.609  -2.729  1.00  0.00     0.045 A 
HETATM    3  C5  UNL     1       5.198  12.868  -1.734  1.00  0.00     0.066 A 
HETATM    4  C6  UNL     1       5.270  14.124  -1.156  1.00  0.00     0.045 A 
HETATM    5  C7  UNL     1       4.423  15.166  -1.593  1.00  0.00    -0.037 A 
HETATM    6  C8  UNL     1       3.487  14.927  -2.647  1.00  0.00    -0.042 A 
HETATM    7  C9  UNL     1       2.641  16.054  -3.226  1.00  0.00     0.044 C 
HETATM    8  C10 UNL     1       1.571  16.696  -2.328  1.00  0.00    -0.010 C 
HETATM    9  C11 UNL     1       0.767  17.751  -3.102  1.00  0.00     0.005 C 
HETATM   10  C12 UNL     1      -0.341  18.370  -2.252  1.00  0.00     0.001 C 
HETATM   11  C13 UNL     1      -0.243  17.993  -0.771  1.00  0.00     0.007 C 
HETATM   12  C14 UNL     1      -0.285  16.457  -0.571  1.00  0.00     0.022 C 
HETATM   13  C15 UNL     1       0.602  15.723  -1.624  1.00  0.00     0.012 C 
HETATM   14  C16 UNL     1      -0.132  15.976   0.934  1.00  0.00     0.083 C 
HETATM   15  C17 UNL     1      -0.716  17.032   1.932  1.00  0.00     0.050 C 
HETATM   16  C18 UNL     1      -0.948  16.449   3.363  1.00  0.00    -0.029 C 
HETATM   17  C19 UNL     1      -2.467  16.352   3.674  1.00  0.00     0.010 C 
HETATM   18  C20 UNL     1      -3.231  15.409   2.764  1.00  0.00     0.004 C 
HETATM   19  C21 UNL     1      -2.541  14.057   2.694  1.00  0.00     0.038 C 
HETATM   20  C22 UNL     1      -1.048  14.175   2.314  1.00  0.00     0.065 C 
HETATM   21  C23 UNL     1      -0.529  12.735   2.175  1.00  0.00     0.046 C 
HETATM   22  O2  UNL     1      -1.008  14.803   1.013  1.00  0.00    -0.367 OA
HETATM   23  C24 UNL     1      -0.277  15.052   3.357  1.00  0.00     0.069 C 
HETATM   24  C25 UNL     1       1.247  15.258   2.974  1.00  0.00     0.184 C 
HETATM   25  C26 UNL     1       1.889  16.509   3.718  1.00  0.00     0.049 C 
HETATM   26  C28 UNL     1       1.048  16.927   4.920  1.00  0.00     0.010 C 
HETATM   27  C29 UNL     1      -0.341  17.360   4.465  1.00  0.00     0.011 C 
HETATM   28  C30 UNL     1       1.267  15.452   1.413  1.00  0.00     0.139 C 
HETATM   29  C31 UNL     1       2.465  16.135   0.893  1.00  0.00    -0.096 C 
HETATM   30  C32 UNL     1       3.447  16.414   0.257  1.00  0.00    -0.101 C 
HETATM   31  C33 UNL     1       4.485  16.461  -0.790  1.00  0.00     0.133 C 
ENDROOT
BRANCH   1  32
HETATM   32  C2  UNL     1       2.392  13.184  -4.244  1.00  0.00     0.308 C 
BRANCH  32  33
HETATM   33  N1  UNL     1       1.003  13.213  -3.780  1.00  0.00     0.083 N 
HETATM   34  C1  UNL     1       0.078  13.681  -4.803  1.00  0.00     0.307 C 
HETATM   35  H4  UNL     1       0.944  13.834  -2.975  1.00  0.00     0.315 HD
ENDBRANCH  32  33
ENDBRANCH   1  32
BRANCH   3  36
HETATM   36  O1  UNL     1       6.007  11.850  -1.328  1.00  0.00    -0.361 OA
HETATM   37  H8  UNL     1       6.642  12.198  -0.683  1.00  0.00     0.217 HD
ENDBRANCH   3  36
BRANCH  24  38
HETATM   38  N2  UNL     1       1.949  14.016   3.361  1.00  0.00     0.090 N 
HETATM   39  H34 UNL     1       2.817  13.933   2.827  1.00  0.00     0.313 HD
HETATM   40  H35 UNL     1       2.273  14.097   4.331  1.00  0.00     0.313 HD
ENDBRANCH  24  38
BRANCH  25  41
HETATM   41  C27 UNL     1       3.371  16.359   4.121  1.00  0.00     0.171 C 
BRANCH  41  42
HETATM   42  O3  UNL     1       3.514  15.773   5.412  1.00  0.00    -0.400 OA
HETATM   43  H39 UNL     1       3.344  16.470   6.070  1.00  0.00     0.209 HD
ENDBRANCH  41  42
ENDBRANCH  25  41
TORSDOF 6
ENDMDL
MODEL 8
REMARK minimizedAffinity -7.91382933
REMARK CNNscore 0.227555439
REMARK CNNaffinity 6.48843145
REMARK  6 active torsions:
REMARK  status: ('A' for Active; 'I' for Inactive)
REMARK    1  A    between atoms: N1_2  and  C2_3 
REMARK    2  A    between atoms: C2_3  and  C3_4 
REMARK    3  A    between atoms: C5_6  and  O1_7 
REMARK    4  A    between atoms: C25_28  and  N2_29 
REMARK    5  A    between atoms: C26_30  and  C27_31 
REMARK    6  A    between atoms: C27_31  and  O3_32 
ROOT
HETATM    1  C3  UNL     1       4.026  11.053  20.805  1.00  0.00    -0.021 A 
HETATM    2  C4  UNL     1       3.865   9.947  21.664  1.00  0.00     0.045 A 
HETATM    3  C5  UNL     1       2.613   9.423  21.929  1.00  0.00     0.066 A 
HETATM    4  C6  UNL     1       1.487   9.968  21.336  1.00  0.00     0.045 A 
HETATM    5  C7  UNL     1       1.596  11.084  20.478  1.00  0.00    -0.037 A 
HETATM    6  C8  UNL     1       2.879  11.664  20.224  1.00  0.00    -0.042 A 
HETATM    7  C9  UNL     1       3.023  12.938  19.401  1.00  0.00     0.044 C 
HETATM    8  C10 UNL     1       2.675  12.881  17.905  1.00  0.00    -0.010 C 
HETATM    9  C11 UNL     1       2.958  14.228  17.225  1.00  0.00     0.005 C 
HETATM   10  C12 UNL     1       2.673  14.189  15.724  1.00  0.00     0.001 C 
HETATM   11  C13 UNL     1       1.941  12.917  15.286  1.00  0.00     0.007 C 
HETATM   12  C14 UNL     1       2.743  11.644  15.656  1.00  0.00     0.022 C 
HETATM   13  C15 UNL     1       3.337  11.746  17.095  1.00  0.00     0.012 C 
HETATM   14  C16 UNL     1       2.029  10.275  15.287  1.00  0.00     0.083 C 
HETATM   15  C17 UNL     1       1.117  10.431  14.023  1.00  0.00     0.050 C 
HETATM   16  C18 UNL     1       0.715   9.058  13.394  1.00  0.00    -0.029 C 
HETATM   17  C19 UNL     1       1.397   8.870  12.012  1.00  0.00     0.010 C 
HETATM   18  C20 UNL     1       2.912   8.819  12.065  1.00  0.00     0.004 C 
HETATM   19  C21 UNL     1       3.377   7.819  13.111  1.00  0.00     0.038 C 
HETATM   20  C22 UNL     1       2.738   8.071  14.495  1.00  0.00     0.065 C 
HETATM   21  C23 UNL     1       3.388   7.062  15.455  1.00  0.00     0.046 C 
HETATM   22  O2  UNL     1       3.139   9.402  14.892  1.00  0.00    -0.367 OA
HETATM   23  C24 UNL     1       1.177   7.984  14.411  1.00  0.00     0.069 C 
HETATM   24  C25 UNL     1       0.471   8.301  15.794  1.00  0.00     0.184 C 
HETATM   25  C26 UNL     1      -1.058   8.699  15.610  1.00  0.00     0.049 C 
HETATM   26  C28 UNL     1      -1.582   8.259  14.246  1.00  0.00     0.010 C 
HETATM   27  C29 UNL     1      -0.814   8.967  13.135  1.00  0.00     0.011 C 
HETATM   28  C30 UNL     1       1.295   9.483  16.425  1.00  0.00     0.139 C 
HETATM   29  C31 UNL     1       0.568  10.267  17.440  1.00  0.00    -0.096 C 
HETATM   30  C32 UNL     1       0.265  10.839  18.453  1.00  0.00    -0.101 C 
HETATM   31  C33 UNL     1       0.316  11.510  19.766  1.00  0.00     0.133 C 
ENDROOT
BRANCH   1  32
HETATM   32  C2  UNL     1       5.458  11.495  20.554  1.00  0.00     0.308 C 
BRANCH  32  33
HETATM   33  N1  UNL     1       5.889  12.606  21.406  1.00  0.00     0.083 N 
HETATM   34  C1  UNL     1       6.263  12.173  22.746  1.00  0.00     0.307 C 
HETATM   35  H4  UNL     1       5.124  13.274  21.478  1.00  0.00     0.315 HD
ENDBRANCH  32  33
ENDBRANCH   1  32
BRANCH   3  36
HETATM   36  O1  UNL     1       2.530   8.347  22.761  1.00  0.00    -0.361 OA
HETATM   37  H8  UNL     1       1.594   8.139  22.904  1.00  0.00     0.217 HD
ENDBRANCH   3  36
BRANCH  24  38
HETATM   38  N2  UNL     1       0.589   7.078  16.616  1.00  0.00     0.090 N 
HETATM   39  H34 UNL     1       0.495   7.321  17.604  1.00  0.00     0.313 HD
HETATM   40  H35 UNL     1      -0.222   6.473  16.441  1.00  0.00     0.313 HD
ENDBRANCH  24  38
BRANCH  25  41
HETATM   41  C27 UNL     1      -2.009   8.231  16.731  1.00  0.00     0.171 C 
BRANCH  41  42
HETATM   42  O3  UNL     1      -2.603   6.970  16.433  1.00  0.00    -0.400 OA
HETATM   43  H39 UNL     1      -3.327   7.129  15.803  1.00  0.00     0.209 HD
ENDBRANCH  41  42
ENDBRANCH  25  41
TORSDOF 6
ENDMDL
MODEL 9
REMARK minimizedAffinity -6.34721851
REMARK CNNscore 0.199134141
REMARK CNNaffinity 6.36236191
REMARK  6 active torsions:
REMARK  status: ('A' for Active; 'I' for Inactive)
REMARK    1  A    between atoms: N1_2  and  C2_3 
REMARK    2  A    between atoms: C2_3  and  C3_4 
REMARK    3  A    between atoms: C5_6  and  O1_7 
REMARK    4  A    between atoms: C25_28  and  N2_29 
REMARK    5  A    between atoms: C26_30  and  C27_31 
REMARK    6  A    between atoms: C27_31  and  O3_32 
ROOT
HETATM    1  C3  UNL     1     -16.590 -13.172  21.902  1.00  0.00    -0.021 A 
HETATM    2  C4  UNL     1     -16.448 -13.580  20.560  1.00  0.00     0.045 A 
HETATM    3  C5  UNL     1     -15.643 -12.880  19.681  1.00  0.00     0.066 A 
HETATM    4  C6  UNL     1     -14.944 -11.764  20.109  1.00  0.00     0.045 A 
HETATM    5  C7  UNL     1     -15.064 -11.309  21.440  1.00  0.00    -0.037 A 
HETATM    6  C8  UNL     1     -15.922 -11.998  22.353  1.00  0.00    -0.042 A 
HETATM    7  C9  UNL     1     -16.170 -11.469  23.761  1.00  0.00     0.044 C 
HETATM    8  C10 UNL     1     -14.997 -11.467  24.754  1.00  0.00    -0.010 C 
HETATM    9  C11 UNL     1     -15.452 -10.978  26.137  1.00  0.00     0.005 C 
HETATM   10  C12 UNL     1     -14.320 -11.016  27.163  1.00  0.00     0.001 C 
HETATM   11  C13 UNL     1     -12.950 -11.285  26.536  1.00  0.00     0.007 C 
HETATM   12  C14 UNL     1     -12.935 -12.623  25.755  1.00  0.00     0.022 C 
HETATM   13  C15 UNL     1     -14.231 -12.798  24.904  1.00  0.00     0.012 C 
HETATM   14  C16 UNL     1     -11.565 -12.952  25.024  1.00  0.00     0.083 C 
HETATM   15  C17 UNL     1     -10.345 -12.345  25.797  1.00  0.00     0.050 C 
HETATM   16  C18 UNL     1      -8.980 -12.962  25.352  1.00  0.00    -0.029 C 
HETATM   17  C19 UNL     1      -8.374 -13.826  26.492  1.00  0.00     0.010 C 
HETATM   18  C20 UNL     1      -9.213 -15.030  26.876  1.00  0.00     0.004 C 
HETATM   19  C21 UNL     1      -9.590 -15.833  25.642  1.00  0.00     0.038 C 
HETATM   20  C22 UNL     1     -10.255 -14.965  24.551  1.00  0.00     0.065 C 
HETATM   21  C23 UNL     1     -10.674 -15.932  23.433  1.00  0.00     0.046 C 
HETATM   22  O2  UNL     1     -11.449 -14.409  25.146  1.00  0.00    -0.367 OA
HETATM   23  C24 UNL     1      -9.297 -13.813  24.097  1.00  0.00     0.069 C 
HETATM   24  C25 UNL     1      -9.960 -12.853  23.025  1.00  0.00     0.184 C 
HETATM   25  C26 UNL     1      -9.219 -11.448  22.937  1.00  0.00     0.049 C 
HETATM   26  C28 UNL     1      -7.826 -11.520  23.556  1.00  0.00     0.010 C 
HETATM   27  C29 UNL     1      -7.926 -11.865  25.038  1.00  0.00     0.011 C 
HETATM   28  C30 UNL     1     -11.455 -12.681  23.482  1.00  0.00     0.139 C 
HETATM   29  C31 UNL     1     -12.126 -11.479  22.953  1.00  0.00    -0.096 C 
HETATM   30  C32 UNL     1     -12.913 -10.737  22.430  1.00  0.00    -0.101 C 
HETATM   31  C33 UNL     1     -14.139 -10.164  21.843  1.00  0.00     0.133 C 
ENDROOT
BRANCH   1  32
HETATM   32  C2  UNL     1     -17.457 -14.060  22.778  1.00  0.00     0.308 C 
BRANCH  32  33
HETATM   33  N1  UNL     1     -16.708 -15.108  23.477  1.00  0.00     0.083 N 
HETATM   34  C1  UNL     1     -17.302 -15.463  24.758  1.00  0.00     0.307 C 
HETATM   35  H4  UNL     1     -15.759 -14.776  23.634  1.00  0.00     0.315 HD
ENDBRANCH  32  33
ENDBRANCH   1  32
BRANCH   3  36
HETATM   36  O1  UNL     1     -15.542 -13.335  18.400  1.00  0.00    -0.361 OA
HETATM   37  H8  UNL     1     -15.006 -12.708  17.891  1.00  0.00     0.217 HD
ENDBRANCH   3  36
BRANCH  24  38
HETATM   38  N2  UNL     1      -9.883 -13.556  21.727  1.00  0.00     0.090 N 
HETATM   39  H34 UNL     1     -10.591 -13.181  21.093  1.00  0.00     0.313 HD
HETATM   40  H35 UNL     1      -8.998 -13.316  21.264  1.00  0.00     0.313 HD
ENDBRANCH  24  38
BRANCH  25  41
HETATM   41  C27 UNL     1      -9.155 -10.812  21.533  1.00  0.00     0.171 C 
BRANCH  41  42
HETATM   42  O3  UNL     1      -7.819 -10.752  21.038  1.00  0.00    -0.400 OA
HETATM   43  H39 UNL     1      -7.383  -9.994  21.465  1.00  0.00     0.209 HD
ENDBRANCH  41  42
ENDBRANCH  25  41
TORSDOF 6
ENDMDL
