MODEL 1
REMARK minimizedAffinity -9.35352898
REMARK  5 active torsions:
REMARK  status: ('A' for Active; 'I' for Inactive)
REMARK    1  A    between atoms: C2_2  and  C4_4 
REMARK    2  A    between atoms: C7_7  and  C8_8 
REMARK    3  A    between atoms: C8_8  and  O2_10 
REMARK    4  A    between atoms: C11_13  and  C12_14 
REMARK    5  A    between atoms: C12_14  and  O4_16 
ROOT
HETATM    1  C4  UNL     1      -6.084  47.506 -27.126  1.00  0.00     0.019 C 
HETATM    2  C5  UNL     1      -7.475  47.342 -27.803  1.00  0.00     0.011 C 
HETATM    3  C6  UNL     1      -8.532  47.800 -26.776  1.00  0.00     0.021 C 
HETATM    4  C7  UNL     1      -7.811  47.667 -25.426  1.00  0.00     0.050 C 
HETATM    5  C9  UNL     1      -8.421  48.437 -24.236  1.00  0.00     0.022 C 
HETATM    6  C10 UNL     1      -7.569  49.598 -23.691  1.00  0.00     0.023 C 
HETATM    7  C11 UNL     1      -6.003  49.401 -23.587  1.00  0.00     0.057 C 
HETATM    8  C13 UNL     1      -5.528  48.300 -24.601  1.00  0.00     0.011 C 
HETATM    9  C14 UNL     1      -4.018  48.302 -24.808  1.00  0.00     0.007 C 
HETATM   10  C15 UNL     1      -3.264  48.667 -23.518  1.00  0.00     0.006 C 
HETATM   11  C16 UNL     1      -4.008  48.242 -22.219  1.00  0.00     0.003 C 
HETATM   12  C17 UNL     1      -3.095  48.218 -20.883  1.00  0.00    -0.035 C 
HETATM   13  C18 UNL     1      -3.374  46.834 -20.194  1.00  0.00     0.016 C 
HETATM   14  C19 UNL     1      -1.570  48.201 -21.216  1.00  0.00     0.017 C 
HETATM   15  C20 UNL     1      -0.684  48.471 -20.012  1.00  0.00     0.080 C 
HETATM   16  C21 UNL     1      -0.908  49.880 -19.525  1.00  0.00     0.135 C 
HETATM   17  O5  UNL     1       0.028  50.506 -19.020  1.00  0.00    -0.297 OA
HETATM   18  C22 UNL     1      -2.321  50.484 -19.665  1.00  0.00     0.017 C 
HETATM   19  C23 UNL     1      -2.560  51.311 -18.375  1.00  0.00     0.023 C 
HETATM   20  C24 UNL     1      -2.295  51.465 -20.844  1.00  0.00     0.023 C 
HETATM   21  C25 UNL     1      -3.382  49.319 -19.783  1.00  0.00     0.009 C 
HETATM   22  C26 UNL     1      -4.851  49.761 -19.758  1.00  0.00     0.007 C 
HETATM   23  C27 UNL     1      -5.402  50.106 -21.127  1.00  0.00     0.011 C 
HETATM   24  C28 UNL     1      -5.452  48.928 -22.121  1.00  0.00    -0.022 C 
HETATM   25  C29 UNL     1      -6.454  47.879 -21.543  1.00  0.00     0.017 C 
HETATM   26  C30 UNL     1      -6.437  48.264 -25.832  1.00  0.00     0.018 C 
ENDROOT
BRANCH   4  27
HETATM   27  C8  UNL     1      -7.914  46.173 -25.065  1.00  0.00     0.149 C 
HETATM   28  O1  UNL     1      -7.974  45.259 -25.877  1.00  0.00    -0.649 OA
BRANCH  27  29
HETATM   29  O2  UNL     1      -7.948  45.876 -23.759  1.00  0.00    -0.776 OA
HETATM   30  H11 UNL     1      -8.006  44.898 -23.745  1.00  0.00     0.167 HD
ENDBRANCH  27  29
ENDBRANCH   4  27
BRANCH   1  31
HETATM   31  C2  UNL     1      -5.083  48.096 -28.105  1.00  0.00    -0.088 C 
HETATM   32  C1  UNL     1      -3.917  48.670 -27.766  1.00  0.00     0.014 C 
HETATM   33  C3  UNL     1      -5.495  48.024 -29.553  1.00  0.00     0.043 C 
ENDBRANCH   1  31
BRANCH   7  34
HETATM   34  C12 UNL     1      -5.515  50.832 -23.963  1.00  0.00     0.149 C 
HETATM   35  O3  UNL     1      -4.616  51.109 -24.744  1.00  0.00    -0.649 OA
BRANCH  34  36
HETATM   36  O4  UNL     1      -6.069  51.841 -23.277  1.00  0.00    -0.776 OA
HETATM   37  H16 UNL     1      -5.609  52.635 -23.623  1.00  0.00     0.167 HD
ENDBRANCH  34  36
ENDBRANCH   7  34
TORSDOF 5
ENDMDL
MODEL 2
REMARK minimizedAffinity -8.84297466
REMARK  5 active torsions:
REMARK  status: ('A' for Active; 'I' for Inactive)
REMARK    1  A    between atoms: C2_2  and  C4_4 
REMARK    2  A    between atoms: C7_7  and  C8_8 
REMARK    3  A    between atoms: C8_8  and  O2_10 
REMARK    4  A    between atoms: C11_13  and  C12_14 
REMARK    5  A    between atoms: C12_14  and  O4_16 
ROOT
HETATM    1  C4  UNL     1       0.239  52.467 -23.280  1.00  0.00     0.019 C 
HETATM    2  C5  UNL     1       0.417  53.354 -24.547  1.00  0.00     0.011 C 
HETATM    3  C6  UNL     1      -0.876  53.211 -25.379  1.00  0.00     0.021 C 
HETATM    4  C7  UNL     1      -1.477  51.883 -24.897  1.00  0.00     0.050 C 
HETATM    5  C9  UNL     1      -2.969  51.645 -25.205  1.00  0.00     0.022 C 
HETATM    6  C10 UNL     1      -3.903  51.612 -23.982  1.00  0.00     0.023 C 
HETATM    7  C11 UNL     1      -3.400  50.886 -22.669  1.00  0.00     0.057 C 
HETATM    8  C13 UNL     1      -1.831  50.850 -22.638  1.00  0.00     0.011 C 
HETATM    9  C14 UNL     1      -1.278  50.489 -21.265  1.00  0.00     0.007 C 
HETATM   10  C15 UNL     1      -2.177  49.479 -20.532  1.00  0.00     0.006 C 
HETATM   11  C16 UNL     1      -2.946  48.522 -21.487  1.00  0.00     0.003 C 
HETATM   12  C17 UNL     1      -3.561  47.200 -20.784  1.00  0.00    -0.035 C 
HETATM   13  C18 UNL     1      -3.130  45.990 -21.688  1.00  0.00     0.016 C 
HETATM   14  C19 UNL     1      -2.906  46.917 -19.396  1.00  0.00     0.017 C 
HETATM   15  C20 UNL     1      -3.646  45.871 -18.579  1.00  0.00     0.080 C 
HETATM   16  C21 UNL     1      -5.012  46.392 -18.209  1.00  0.00     0.135 C 
HETATM   17  O5  UNL     1      -5.523  46.054 -17.138  1.00  0.00    -0.297 OA
HETATM   18  C22 UNL     1      -5.731  47.325 -19.205  1.00  0.00     0.017 C 
HETATM   19  C23 UNL     1      -7.228  46.919 -19.165  1.00  0.00     0.023 C 
HETATM   20  C24 UNL     1      -5.627  48.756 -18.665  1.00  0.00     0.023 C 
HETATM   21  C25 UNL     1      -5.135  47.108 -20.653  1.00  0.00     0.009 C 
HETATM   22  C26 UNL     1      -5.867  47.844 -21.784  1.00  0.00     0.007 C 
HETATM   23  C27 UNL     1      -5.354  49.251 -22.020  1.00  0.00     0.011 C 
HETATM   24  C28 UNL     1      -3.889  49.335 -22.495  1.00  0.00    -0.022 C 
HETATM   25  C29 UNL     1      -3.818  48.646 -23.895  1.00  0.00     0.017 C 
HETATM   26  C30 UNL     1      -1.243  52.057 -23.372  1.00  0.00     0.018 C 
ENDROOT
BRANCH   4  27
HETATM   27  C8  UNL     1      -0.703  50.794 -25.664  1.00  0.00     0.149 C 
HETATM   28  O1  UNL     1       0.503  50.806 -25.871  1.00  0.00    -0.649 OA
BRANCH  27  29
HETATM   29  O2  UNL     1      -1.427  49.771 -26.139  1.00  0.00    -0.776 OA
HETATM   30  H11 UNL     1      -0.762  49.200 -26.578  1.00  0.00     0.167 HD
ENDBRANCH  27  29
ENDBRANCH   4  27
BRANCH   1  31
HETATM   31  C2  UNL     1       0.753  53.193 -22.047  1.00  0.00    -0.088 C 
HETATM   32  C1  UNL     1       1.418  54.360 -22.060  1.00  0.00     0.014 C 
HETATM   33  C3  UNL     1       0.486  52.489 -20.741  1.00  0.00     0.043 C 
ENDBRANCH   1  31
BRANCH   7  34
HETATM   34  C12 UNL     1      -4.013  51.819 -21.582  1.00  0.00     0.149 C 
HETATM   35  O3  UNL     1      -3.973  51.646 -20.372  1.00  0.00    -0.649 OA
BRANCH  34  36
HETATM   36  O4  UNL     1      -4.744  52.848 -22.033  1.00  0.00    -0.776 OA
HETATM   37  H16 UNL     1      -5.069  53.277 -21.214  1.00  0.00     0.167 HD
ENDBRANCH  34  36
ENDBRANCH   7  34
TORSDOF 5
ENDMDL
MODEL 3
REMARK minimizedAffinity -8.72131348
REMARK  5 active torsions:
REMARK  status: ('A' for Active; 'I' for Inactive)
REMARK    1  A    between atoms: C2_2  and  C4_4 
REMARK    2  A    between atoms: C7_7  and  C8_8 
REMARK    3  A    between atoms: C8_8  and  O2_10 
REMARK    4  A    between atoms: C11_13  and  C12_14 
REMARK    5  A    between atoms: C12_14  and  O4_16 
ROOT
HETATM    1  C4  UNL     1      -5.887  46.878 -20.853  1.00  0.00     0.019 C 
HETATM    2  C5  UNL     1      -7.378  46.641 -20.476  1.00  0.00     0.011 C 
HETATM    3  C6  UNL     1      -8.211  47.668 -21.273  1.00  0.00     0.021 C 
HETATM    4  C7  UNL     1      -7.201  48.774 -21.612  1.00  0.00     0.050 C 
HETATM    5  C9  UNL     1      -7.585  49.739 -22.753  1.00  0.00     0.022 C 
HETATM    6  C10 UNL     1      -6.721  49.641 -24.024  1.00  0.00     0.023 C 
HETATM    7  C11 UNL     1      -5.161  49.437 -23.861  1.00  0.00     0.057 C 
HETATM    8  C13 UNL     1      -4.844  48.777 -22.472  1.00  0.00     0.011 C 
HETATM    9  C14 UNL     1      -3.422  48.235 -22.389  1.00  0.00     0.007 C 
HETATM   10  C15 UNL     1      -2.429  49.110 -23.173  1.00  0.00     0.006 C 
HETATM   11  C16 UNL     1      -2.833  50.611 -23.233  1.00  0.00     0.003 C 
HETATM   12  C17 UNL     1      -1.647  51.623 -23.668  1.00  0.00    -0.035 C 
HETATM   13  C18 UNL     1      -1.663  52.786 -22.612  1.00  0.00     0.016 C 
HETATM   14  C19 UNL     1      -0.237  50.970 -23.522  1.00  0.00     0.017 C 
HETATM   15  C20 UNL     1       0.873  51.767 -24.186  1.00  0.00     0.080 C 
HETATM   16  C21 UNL     1       0.660  51.783 -25.679  1.00  0.00     0.135 C 
HETATM   17  O5  UNL     1       1.636  51.812 -26.433  1.00  0.00    -0.297 OA
HETATM   18  C22 UNL     1      -0.789  51.780 -26.208  1.00  0.00     0.017 C 
HETATM   19  C23 UNL     1      -0.796  52.730 -27.435  1.00  0.00     0.023 C 
HETATM   20  C24 UNL     1      -1.098  50.367 -26.718  1.00  0.00     0.023 C 
HETATM   21  C25 UNL     1      -1.762  52.317 -25.084  1.00  0.00     0.009 C 
HETATM   22  C26 UNL     1      -3.218  52.533 -25.521  1.00  0.00     0.007 C 
HETATM   23  C27 UNL     1      -4.083  51.297 -25.373  1.00  0.00     0.011 C 
HETATM   24  C28 UNL     1      -4.265  50.804 -23.923  1.00  0.00    -0.022 C 
HETATM   25  C29 UNL     1      -5.034  51.922 -23.149  1.00  0.00     0.017 C 
HETATM   26  C30 UNL     1      -5.998  47.881 -22.018  1.00  0.00     0.018 C 
ENDROOT
BRANCH   4  27
HETATM   27  C8  UNL     1      -7.111  49.635 -20.338  1.00  0.00     0.149 C 
HETATM   28  O1  UNL     1      -7.757  49.444 -19.316  1.00  0.00    -0.649 OA
BRANCH  27  29
HETATM   29  O2  UNL     1      -6.262  50.672 -20.378  1.00  0.00    -0.776 OA
HETATM   30  H11 UNL     1      -6.349  51.077 -19.488  1.00  0.00     0.167 HD
ENDBRANCH  27  29
ENDBRANCH   4  27
BRANCH   1  31
HETATM   31  C2  UNL     1      -5.174  45.551 -21.058  1.00  0.00    -0.088 C 
HETATM   32  C1  UNL     1      -5.708  44.471 -21.651  1.00  0.00     0.014 C 
HETATM   33  C3  UNL     1      -3.770  45.496 -20.511  1.00  0.00     0.043 C 
ENDBRANCH   1  31
BRANCH   7  34
HETATM   34  C12 UNL     1      -4.875  48.494 -25.067  1.00  0.00     0.149 C 
HETATM   35  O3  UNL     1      -3.774  48.162 -25.483  1.00  0.00    -0.649 OA
BRANCH  34  36
HETATM   36  O4  UNL     1      -5.944  48.102 -25.775  1.00  0.00    -0.776 OA
HETATM   37  H16 UNL     1      -5.558  47.564 -26.497  1.00  0.00     0.167 HD
ENDBRANCH  34  36
ENDBRANCH   7  34
TORSDOF 5
ENDMDL
MODEL 4
REMARK minimizedAffinity -8.67524624
REMARK  5 active torsions:
REMARK  status: ('A' for Active; 'I' for Inactive)
REMARK    1  A    between atoms: C2_2  and  C4_4 
REMARK    2  A    between atoms: C7_7  and  C8_8 
REMARK    3  A    between atoms: C8_8  and  O2_10 
REMARK    4  A    between atoms: C11_13  and  C12_14 
REMARK    5  A    between atoms: C12_14  and  O4_16 
ROOT
HETATM    1  C4  UNL     1      -7.913  46.289 -26.697  1.00  0.00     0.019 C 
HETATM    2  C5  UNL     1      -9.239  45.492 -26.864  1.00  0.00     0.011 C 
HETATM    3  C6  UNL     1      -9.889  45.405 -25.467  1.00  0.00     0.021 C 
HETATM    4  C7  UNL     1      -8.715  45.626 -24.502  1.00  0.00     0.050 C 
HETATM    5  C9  UNL     1      -9.071  46.023 -23.055  1.00  0.00     0.022 C 
HETATM    6  C10 UNL     1      -8.665  47.448 -22.638  1.00  0.00     0.023 C 
HETATM    7  C11 UNL     1      -7.268  48.006 -23.126  1.00  0.00     0.057 C 
HETATM    8  C13 UNL     1      -6.808  47.255 -24.425  1.00  0.00     0.011 C 
HETATM    9  C14 UNL     1      -5.665  47.963 -25.142  1.00  0.00     0.007 C 
HETATM   10  C15 UNL     1      -4.701  48.640 -24.153  1.00  0.00     0.006 C 
HETATM   11  C16 UNL     1      -4.610  47.918 -22.778  1.00  0.00     0.003 C 
HETATM   12  C17 UNL     1      -3.331  48.326 -21.873  1.00  0.00    -0.035 C 
HETATM   13  C18 UNL     1      -2.690  46.973 -21.397  1.00  0.00     0.016 C 
HETATM   14  C19 UNL     1      -2.217  49.023 -22.714  1.00  0.00     0.017 C 
HETATM   15  C20 UNL     1      -1.139  49.679 -21.867  1.00  0.00     0.080 C 
HETATM   16  C21 UNL     1      -1.735  50.820 -21.083  1.00  0.00     0.135 C 
HETATM   17  O5  UNL     1      -1.046  51.812 -20.831  1.00  0.00    -0.297 OA
HETATM   18  C22 UNL     1      -3.197  50.692 -20.608  1.00  0.00     0.017 C 
HETATM   19  C23 UNL     1      -3.239  51.313 -19.187  1.00  0.00     0.023 C 
HETATM   20  C24 UNL     1      -4.064  51.569 -21.520  1.00  0.00     0.023 C 
HETATM   21  C25 UNL     1      -3.604  49.165 -20.560  1.00  0.00     0.009 C 
HETATM   22  C26 UNL     1      -4.977  48.869 -19.942  1.00  0.00     0.007 C 
HETATM   23  C27 UNL     1      -6.113  48.914 -20.945  1.00  0.00     0.011 C 
HETATM   24  C28 UNL     1      -6.039  47.849 -22.058  1.00  0.00    -0.022 C 
HETATM   25  C29 UNL     1      -6.172  46.453 -21.370  1.00  0.00     0.017 C 
HETATM   26  C30 UNL     1      -8.016  46.796 -25.246  1.00  0.00     0.018 C 
ENDROOT
BRANCH   4  27
HETATM   27  C8  UNL     1      -8.012  44.258 -24.409  1.00  0.00     0.149 C 
HETATM   28  O1  UNL     1      -7.990  43.420 -25.301  1.00  0.00    -0.649 OA
BRANCH  27  29
HETATM   29  O2  UNL     1      -7.395  43.983 -23.252  1.00  0.00    -0.776 OA
HETATM   30  H11 UNL     1      -7.016  43.090 -23.398  1.00  0.00     0.167 HD
ENDBRANCH  27  29
ENDBRANCH   4  27
BRANCH   1  31
HETATM   31  C2  UNL     1      -7.741  47.279 -27.838  1.00  0.00    -0.088 C 
HETATM   32  C1  UNL     1      -8.637  48.215 -28.190  1.00  0.00     0.014 C 
HETATM   33  C3  UNL     1      -6.455  47.134 -28.612  1.00  0.00     0.043 C 
ENDBRANCH   1  31
BRANCH   7  34
HETATM   34  C12 UNL     1      -7.636  49.499 -23.379  1.00  0.00     0.149 C 
HETATM   35  O3  UNL     1      -7.467  50.429 -22.604  1.00  0.00    -0.649 OA
BRANCH  34  36
HETATM   36  O4  UNL     1      -8.299  49.757 -24.515  1.00  0.00    -0.776 OA
HETATM   37  H16 UNL     1      -8.471  50.721 -24.467  1.00  0.00     0.167 HD
ENDBRANCH  34  36
ENDBRANCH   7  34
TORSDOF 5
ENDMDL
MODEL 5
REMARK minimizedAffinity -8.63080692
REMARK  5 active torsions:
REMARK  status: ('A' for Active; 'I' for Inactive)
REMARK    1  A    between atoms: C2_2  and  C4_4 
REMARK    2  A    between atoms: C7_7  and  C8_8 
REMARK    3  A    between atoms: C8_8  and  O2_10 
REMARK    4  A    between atoms: C11_13  and  C12_14 
REMARK    5  A    between atoms: C12_14  and  O4_16 
ROOT
HETATM    1  C4  UNL     1      -0.318  52.122 -18.868  1.00  0.00     0.019 C 
HETATM    2  C5  UNL     1       0.722  51.933 -17.726  1.00  0.00     0.011 C 
HETATM    3  C6  UNL     1       0.509  50.514 -17.156  1.00  0.00     0.021 C 
HETATM    4  C7  UNL     1      -0.932  50.169 -17.561  1.00  0.00     0.050 C 
HETATM    5  C9  UNL     1      -1.324  48.678 -17.526  1.00  0.00     0.022 C 
HETATM    6  C10 UNL     1      -1.615  48.036 -18.895  1.00  0.00     0.023 C 
HETATM    7  C11 UNL     1      -2.413  48.879 -19.969  1.00  0.00     0.057 C 
HETATM    8  C13 UNL     1      -2.251  50.414 -19.681  1.00  0.00     0.011 C 
HETATM    9  C14 UNL     1      -2.690  51.282 -20.854  1.00  0.00     0.007 C 
HETATM   10  C15 UNL     1      -3.884  50.669 -21.605  1.00  0.00     0.006 C 
HETATM   11  C16 UNL     1      -4.818  49.815 -20.700  1.00  0.00     0.003 C 
HETATM   12  C17 UNL     1      -6.279  49.504 -21.323  1.00  0.00    -0.035 C 
HETATM   13  C18 UNL     1      -7.313  49.853 -20.194  1.00  0.00     0.016 C 
HETATM   14  C19 UNL     1      -6.630  50.466 -22.501  1.00  0.00     0.017 C 
HETATM   15  C20 UNL     1      -7.848  50.029 -23.298  1.00  0.00     0.080 C 
HETATM   16  C21 UNL     1      -7.553  48.728 -24.000  1.00  0.00     0.135 C 
HETATM   17  O5  UNL     1      -8.073  48.495 -25.095  1.00  0.00    -0.297 OA
HETATM   18  C22 UNL     1      -6.614  47.721 -23.304  1.00  0.00     0.017 C 
HETATM   19  C23 UNL     1      -7.211  46.317 -23.586  1.00  0.00     0.023 C 
HETATM   20  C24 UNL     1      -5.251  47.790 -24.005  1.00  0.00     0.023 C 
HETATM   21  C25 UNL     1      -6.586  48.012 -21.751  1.00  0.00     0.009 C 
HETATM   22  C26 UNL     1      -5.828  46.984 -20.901  1.00  0.00     0.007 C 
HETATM   23  C27 UNL     1      -4.349  47.288 -20.762  1.00  0.00     0.011 C 
HETATM   24  C28 UNL     1      -4.024  48.600 -20.022  1.00  0.00    -0.022 C 
HETATM   25  C29 UNL     1      -4.536  48.441 -18.555  1.00  0.00     0.017 C 
HETATM   26  C30 UNL     1      -0.902  50.705 -19.018  1.00  0.00     0.018 C 
ENDROOT
BRANCH   4  27
HETATM   27  C8  UNL     1      -1.818  50.869 -16.513  1.00  0.00     0.149 C 
HETATM   28  O1  UNL     1      -1.512  51.045 -15.342  1.00  0.00    -0.649 OA
BRANCH  27  29
HETATM   29  O2  UNL     1      -3.015  51.299 -16.937  1.00  0.00    -0.776 OA
HETATM   30  H11 UNL     1      -3.409  51.710 -16.138  1.00  0.00     0.167 HD
ENDBRANCH  27  29
ENDBRANCH   4  27
BRANCH   1  31
HETATM   31  C2  UNL     1       0.324  52.811 -20.062  1.00  0.00    -0.088 C 
HETATM   32  C1  UNL     1       0.525  54.134 -20.174  1.00  0.00     0.014 C 
HETATM   33  C3  UNL     1       0.725  51.888 -21.185  1.00  0.00     0.043 C 
ENDBRANCH   1  31
BRANCH   7  34
HETATM   34  C12 UNL     1      -1.696  48.421 -21.274  1.00  0.00     0.149 C 
HETATM   35  O3  UNL     1      -1.957  48.786 -22.411  1.00  0.00    -0.649 OA
BRANCH  34  36
HETATM   36  O4  UNL     1      -0.780  47.452 -21.133  1.00  0.00    -0.776 OA
HETATM   37  H16 UNL     1      -0.484  47.280 -22.051  1.00  0.00     0.167 HD
ENDBRANCH  34  36
ENDBRANCH   7  34
TORSDOF 5
ENDMDL
MODEL 6
REMARK minimizedAffinity -8.51485729
REMARK  5 active torsions:
REMARK  status: ('A' for Active; 'I' for Inactive)
REMARK    1  A    between atoms: C2_2  and  C4_4 
REMARK    2  A    between atoms: C7_7  and  C8_8 
REMARK    3  A    between atoms: C8_8  and  O2_10 
REMARK    4  A    between atoms: C11_13  and  C12_14 
REMARK    5  A    between atoms: C12_14  and  O4_16 
ROOT
HETATM    1  C4  UNL     1       0.280  53.356 -25.332  1.00  0.00     0.019 C 
HETATM    2  C5  UNL     1       0.349  53.903 -26.788  1.00  0.00     0.011 C 
HETATM    3  C6  UNL     1      -0.838  53.285 -27.556  1.00  0.00     0.021 C 
HETATM    4  C7  UNL     1      -1.188  52.031 -26.742  1.00  0.00     0.050 C 
HETATM    5  C9  UNL     1      -2.582  51.414 -26.981  1.00  0.00     0.022 C 
HETATM    6  C10 UNL     1      -3.559  51.504 -25.794  1.00  0.00     0.023 C 
HETATM    7  C11 UNL     1      -2.998  51.263 -24.335  1.00  0.00     0.057 C 
HETATM    8  C13 UNL     1      -1.458  51.564 -24.291  1.00  0.00     0.011 C 
HETATM    9  C14 UNL     1      -0.923  51.693 -22.870  1.00  0.00     0.007 C 
HETATM   10  C15 UNL     1      -1.642  50.741 -21.899  1.00  0.00     0.006 C 
HETATM   11  C16 UNL     1      -2.148  49.432 -22.570  1.00  0.00     0.003 C 
HETATM   12  C17 UNL     1      -2.525  48.238 -21.544  1.00  0.00    -0.035 C 
HETATM   13  C18 UNL     1      -1.808  46.953 -22.095  1.00  0.00     0.016 C 
HETATM   14  C19 UNL     1      -1.908  48.465 -20.129  1.00  0.00     0.017 C 
HETATM   15  C20 UNL     1      -2.469  47.535 -19.066  1.00  0.00     0.080 C 
HETATM   16  C21 UNL     1      -3.930  47.836 -18.851  1.00  0.00     0.135 C 
HETATM   17  O5  UNL     1      -4.423  47.687 -17.730  1.00  0.00    -0.297 OA
HETATM   18  C22 UNL     1      -4.763  48.309 -20.060  1.00  0.00     0.017 C 
HETATM   19  C23 UNL     1      -6.147  47.625 -19.918  1.00  0.00     0.023 C 
HETATM   20  C24 UNL     1      -4.979  49.821 -19.916  1.00  0.00     0.023 C 
HETATM   21  C25 UNL     1      -4.053  47.857 -21.398  1.00  0.00     0.009 C 
HETATM   22  C26 UNL     1      -4.851  48.107 -22.685  1.00  0.00     0.007 C 
HETATM   23  C27 UNL     1      -4.617  49.480 -23.283  1.00  0.00     0.011 C 
HETATM   24  C28 UNL     1      -3.175  49.743 -23.759  1.00  0.00    -0.022 C 
HETATM   25  C29 UNL     1      -2.886  48.746 -24.927  1.00  0.00     0.017 C 
HETATM   26  C30 UNL     1      -1.082  52.636 -25.317  1.00  0.00     0.018 C 
ENDROOT
BRANCH   4  27
HETATM   27  C8  UNL     1      -0.169  50.967 -27.192  1.00  0.00     0.149 C 
HETATM   28  O1  UNL     1       0.131  49.968 -26.551  1.00  0.00    -0.649 OA
BRANCH  27  29
HETATM   29  O2  UNL     1       0.430  51.177 -28.372  1.00  0.00    -0.776 OA
HETATM   30  H11 UNL     1       1.022  50.401 -28.473  1.00  0.00     0.167 HD
ENDBRANCH  27  29
ENDBRANCH   4  27
BRANCH   1  31
HETATM   31  C2  UNL     1       0.566  54.466 -24.334  1.00  0.00    -0.088 C 
HETATM   32  C1  UNL     1       0.931  54.279 -23.055  1.00  0.00     0.014 C 
HETATM   33  C3  UNL     1       0.388  55.863 -24.872  1.00  0.00     0.043 C 
ENDBRANCH   1  31
BRANCH   7  34
HETATM   34  C12 UNL     1      -3.847  52.295 -23.535  1.00  0.00     0.149 C 
HETATM   35  O3  UNL     1      -3.527  52.841 -22.488  1.00  0.00    -0.649 OA
BRANCH  34  36
HETATM   36  O4  UNL     1      -5.088  52.516 -23.990  1.00  0.00    -0.776 OA
HETATM   37  H16 UNL     1      -5.463  53.147 -23.341  1.00  0.00     0.167 HD
ENDBRANCH  34  36
ENDBRANCH   7  34
TORSDOF 5
ENDMDL
MODEL 7
REMARK minimizedAffinity -8.38051796
REMARK  5 active torsions:
REMARK  status: ('A' for Active; 'I' for Inactive)
REMARK    1  A    between atoms: C2_2  and  C4_4 
REMARK    2  A    between atoms: C7_7  and  C8_8 
REMARK    3  A    between atoms: C8_8  and  O2_10 
REMARK    4  A    between atoms: C11_13  and  C12_14 
REMARK    5  A    between atoms: C12_14  and  O4_16 
ROOT
HETATM    1  C4  UNL     1      -7.645  46.397 -20.914  1.00  0.00     0.019 C 
HETATM    2  C5  UNL     1      -7.769  45.531 -19.626  1.00  0.00     0.011 C 
HETATM    3  C6  UNL     1      -6.449  45.698 -18.844  1.00  0.00     0.021 C 
HETATM    4  C7  UNL     1      -5.445  46.153 -19.913  1.00  0.00     0.050 C 
HETATM    5  C9  UNL     1      -4.147  46.815 -19.408  1.00  0.00     0.022 C 
HETATM    6  C10 UNL     1      -3.990  48.310 -19.743  1.00  0.00     0.023 C 
HETATM    7  C11 UNL     1      -4.450  48.814 -21.170  1.00  0.00     0.057 C 
HETATM    8  C13 UNL     1      -5.522  47.838 -21.770  1.00  0.00     0.011 C 
HETATM    9  C14 UNL     1      -6.258  48.433 -22.964  1.00  0.00     0.007 C 
HETATM   10  C15 UNL     1      -5.341  49.331 -23.812  1.00  0.00     0.006 C 
HETATM   11  C16 UNL     1      -3.847  48.901 -23.782  1.00  0.00     0.003 C 
HETATM   12  C17 UNL     1      -2.928  49.531 -24.957  1.00  0.00    -0.035 C 
HETATM   13  C18 UNL     1      -2.132  48.326 -25.575  1.00  0.00     0.016 C 
HETATM   14  C19 UNL     1      -3.786  50.090 -26.134  1.00  0.00     0.017 C 
HETATM   15  C20 UNL     1      -2.993  50.942 -27.111  1.00  0.00     0.080 C 
HETATM   16  C21 UNL     1      -2.514  52.193 -26.417  1.00  0.00     0.135 C 
HETATM   17  O5  UNL     1      -2.405  53.241 -27.059  1.00  0.00    -0.297 OA
HETATM   18  C22 UNL     1      -2.160  52.104 -24.918  1.00  0.00     0.017 C 
HETATM   19  C23 UNL     1      -0.904  52.994 -24.724  1.00  0.00     0.023 C 
HETATM   20  C24 UNL     1      -3.307  52.748 -24.128  1.00  0.00     0.023 C 
HETATM   21  C25 UNL     1      -1.843  50.603 -24.539  1.00  0.00     0.009 C 
HETATM   22  C26 UNL     1      -1.308  50.382 -23.118  1.00  0.00     0.007 C 
HETATM   23  C27 UNL     1      -2.400  50.182 -22.086  1.00  0.00     0.011 C 
HETATM   24  C28 UNL     1      -3.263  48.921 -22.290  1.00  0.00    -0.022 C 
HETATM   25  C29 UNL     1      -2.322  47.686 -22.118  1.00  0.00     0.017 C 
HETATM   26  C30 UNL     1      -6.341  47.178 -20.659  1.00  0.00     0.018 C 
ENDROOT
BRANCH   4  27
HETATM   27  C8  UNL     1      -5.014  44.859 -20.630  1.00  0.00     0.149 C 
HETATM   28  O1  UNL     1      -5.763  43.938 -20.924  1.00  0.00    -0.649 OA
BRANCH  27  29
HETATM   29  O2  UNL     1      -3.713  44.753 -20.935  1.00  0.00    -0.776 OA
HETATM   30  H11 UNL     1      -3.650  43.881 -21.380  1.00  0.00     0.167 HD
ENDBRANCH  27  29
ENDBRANCH   4  27
BRANCH   1  31
HETATM   31  C2  UNL     1      -8.941  47.146 -21.178  1.00  0.00    -0.088 C 
HETATM   32  C1  UNL     1      -9.684  47.033 -22.290  1.00  0.00     0.014 C 
HETATM   33  C3  UNL     1      -9.362  48.089 -20.080  1.00  0.00     0.043 C 
ENDBRANCH   1  31
BRANCH   7  34
HETATM   34  C12 UNL     1      -5.031  50.211 -20.799  1.00  0.00     0.149 C 
HETATM   35  O3  UNL     1      -4.396  51.183 -20.418  1.00  0.00    -0.649 OA
BRANCH  34  36
HETATM   36  O4  UNL     1      -6.368  50.310 -20.798  1.00  0.00    -0.776 OA
HETATM   37  H16 UNL     1      -6.531  51.231 -20.504  1.00  0.00     0.167 HD
ENDBRANCH  34  36
ENDBRANCH   7  34
TORSDOF 5
ENDMDL
MODEL 8
REMARK minimizedAffinity -8.34958839
REMARK  5 active torsions:
REMARK  status: ('A' for Active; 'I' for Inactive)
REMARK    1  A    between atoms: C2_2  and  C4_4 
REMARK    2  A    between atoms: C7_7  and  C8_8 
REMARK    3  A    between atoms: C8_8  and  O2_10 
REMARK    4  A    between atoms: C11_13  and  C12_14 
REMARK    5  A    between atoms: C12_14  and  O4_16 
ROOT
HETATM    1  C4  UNL     1      -0.487  51.299 -23.373  1.00  0.00     0.019 C 
HETATM    2  C5  UNL     1       0.012  52.165 -24.566  1.00  0.00     0.011 C 
HETATM    3  C6  UNL     1      -1.223  52.490 -25.433  1.00  0.00     0.021 C 
HETATM    4  C7  UNL     1      -2.229  51.390 -25.063  1.00  0.00     0.050 C 
HETATM    5  C9  UNL     1      -3.707  51.653 -25.420  1.00  0.00     0.022 C 
HETATM    6  C10 UNL     1      -4.656  51.837 -24.221  1.00  0.00     0.023 C 
HETATM    7  C11 UNL     1      -4.461  50.908 -22.956  1.00  0.00     0.057 C 
HETATM    8  C13 UNL     1      -2.985  50.377 -22.896  1.00  0.00     0.011 C 
HETATM    9  C14 UNL     1      -2.631  49.774 -21.542  1.00  0.00     0.007 C 
HETATM   10  C15 UNL     1      -3.831  49.052 -20.906  1.00  0.00     0.006 C 
HETATM   11  C16 UNL     1      -4.819  48.450 -21.945  1.00  0.00     0.003 C 
HETATM   12  C17 UNL     1      -5.846  47.346 -21.355  1.00  0.00    -0.035 C 
HETATM   13  C18 UNL     1      -5.775  46.122 -22.338  1.00  0.00     0.016 C 
HETATM   14  C19 UNL     1      -5.372  46.782 -19.979  1.00  0.00     0.017 C 
HETATM   15  C20 UNL     1      -6.436  45.972 -19.258  1.00  0.00     0.080 C 
HETATM   16  C21 UNL     1      -7.586  46.870 -18.878  1.00  0.00     0.135 C 
HETATM   17  O5  UNL     1      -8.222  46.642 -17.846  1.00  0.00    -0.297 OA
HETATM   18  C22 UNL     1      -7.934  48.044 -19.817  1.00  0.00     0.017 C 
HETATM   19  C23 UNL     1      -9.483  48.128 -19.838  1.00  0.00     0.023 C 
HETATM   20  C24 UNL     1      -7.412  49.332 -19.169  1.00  0.00     0.023 C 
HETATM   21  C25 UNL     1      -7.374  47.745 -21.265  1.00  0.00     0.009 C 
HETATM   22  C26 UNL     1      -7.790  48.745 -22.352  1.00  0.00     0.007 C 
HETATM   23  C27 UNL     1      -6.853  49.931 -22.472  1.00  0.00     0.011 C 
HETATM   24  C28 UNL     1      -5.417  49.581 -22.909  1.00  0.00    -0.022 C 
HETATM   25  C29 UNL     1      -5.504  48.996 -24.354  1.00  0.00     0.017 C 
HETATM   26  C30 UNL     1      -2.018  51.383 -23.526  1.00  0.00     0.018 C 
ENDROOT
BRANCH   4  27
HETATM   27  C8  UNL     1      -1.802  50.165 -25.893  1.00  0.00     0.149 C 
HETATM   28  O1  UNL     1      -2.318  49.058 -25.825  1.00  0.00    -0.649 OA
BRANCH  27  29
HETATM   29  O2  UNL     1      -0.778  50.345 -26.740  1.00  0.00    -0.776 OA
HETATM   30  H11 UNL     1      -0.671  49.468 -27.165  1.00  0.00     0.167 HD
ENDBRANCH  27  29
ENDBRANCH   4  27
BRANCH   1  31
HETATM   31  C2  UNL     1       0.174  51.746 -22.079  1.00  0.00    -0.088 C 
HETATM   32  C1  UNL     1       0.241  51.016 -20.954  1.00  0.00     0.014 C 
HETATM   33  C3  UNL     1       0.763  53.133 -22.116  1.00  0.00     0.043 C 
ENDBRANCH   1  31
BRANCH   7  34
HETATM   34  C12 UNL     1      -4.799  51.914 -21.816  1.00  0.00     0.149 C 
HETATM   35  O3  UNL     1      -4.983  51.640 -20.639  1.00  0.00    -0.649 OA
BRANCH  34  36
HETATM   36  O4  UNL     1      -5.011  53.182 -22.193  1.00  0.00    -0.776 OA
HETATM   37  H16 UNL     1      -5.246  53.636 -21.356  1.00  0.00     0.167 HD
ENDBRANCH  34  36
ENDBRANCH   7  34
TORSDOF 5
ENDMDL
MODEL 9
REMARK minimizedAffinity -8.31042671
REMARK  5 active torsions:
REMARK  status: ('A' for Active; 'I' for Inactive)
REMARK    1  A    between atoms: C2_2  and  C4_4 
REMARK    2  A    between atoms: C7_7  and  C8_8 
REMARK    3  A    between atoms: C8_8  and  O2_10 
REMARK    4  A    between atoms: C11_13  and  C12_14 
REMARK    5  A    between atoms: C12_14  and  O4_16 
ROOT
HETATM    1  C4  UNL     1      -0.830  51.531 -24.353  1.00  0.00     0.019 C 
HETATM    2  C5  UNL     1      -1.050  52.309 -25.683  1.00  0.00     0.011 C 
HETATM    3  C6  UNL     1      -2.559  52.239 -26.000  1.00  0.00     0.021 C 
HETATM    4  C7  UNL     1      -3.041  51.011 -25.212  1.00  0.00     0.050 C 
HETATM    5  C9  UNL     1      -4.559  50.900 -24.962  1.00  0.00     0.022 C 
HETATM    6  C10 UNL     1      -5.002  51.042 -23.494  1.00  0.00     0.023 C 
HETATM    7  C11 UNL     1      -4.119  50.360 -22.372  1.00  0.00     0.057 C 
HETATM    8  C13 UNL     1      -2.646  50.171 -22.881  1.00  0.00     0.011 C 
HETATM    9  C14 UNL     1      -1.670  49.851 -21.756  1.00  0.00     0.007 C 
HETATM   10  C15 UNL     1      -2.320  48.985 -20.663  1.00  0.00     0.006 C 
HETATM   11  C16 UNL     1      -3.441  48.047 -21.196  1.00  0.00     0.003 C 
HETATM   12  C17 UNL     1      -3.857  46.842 -20.199  1.00  0.00    -0.035 C 
HETATM   13  C18 UNL     1      -3.857  45.537 -21.074  1.00  0.00     0.016 C 
HETATM   14  C19 UNL     1      -2.776  46.590 -19.102  1.00  0.00     0.017 C 
HETATM   15  C20 UNL     1      -3.250  45.679 -17.982  1.00  0.00     0.080 C 
HETATM   16  C21 UNL     1      -4.359  46.354 -17.215  1.00  0.00     0.135 C 
HETATM   17  O5  UNL     1      -4.481  46.141 -16.006  1.00  0.00    -0.297 OA
HETATM   18  C22 UNL     1      -5.317  47.284 -17.987  1.00  0.00     0.017 C 
HETATM   19  C23 UNL     1      -6.727  47.031 -17.393  1.00  0.00     0.023 C 
HETATM   20  C24 UNL     1      -4.931  48.732 -17.658  1.00  0.00     0.023 C 
HETATM   21  C25 UNL     1      -5.286  46.914 -19.524  1.00  0.00     0.009 C 
HETATM   22  C26 UNL     1      -6.318  47.641 -20.397  1.00  0.00     0.007 C 
HETATM   23  C27 UNL     1      -5.825  48.972 -20.932  1.00  0.00     0.011 C 
HETATM   24  C28 UNL     1      -4.620  48.880 -21.890  1.00  0.00    -0.022 C 
HETATM   25  C29 UNL     1      -5.095  48.094 -23.154  1.00  0.00     0.017 C 
HETATM   26  C30 UNL     1      -2.274  51.263 -23.887  1.00  0.00     0.018 C 
ENDROOT
BRANCH   4  27
HETATM   27  C8  UNL     1      -2.664  49.803 -26.090  1.00  0.00     0.149 C 
HETATM   28  O1  UNL     1      -2.363  49.864 -27.274  1.00  0.00    -0.649 OA
BRANCH  27  29
HETATM   29  O2  UNL     1      -2.685  48.603 -25.493  1.00  0.00    -0.776 OA
HETATM   30  H11 UNL     1      -2.416  47.985 -26.205  1.00  0.00     0.167 HD
ENDBRANCH  27  29
ENDBRANCH   4  27
BRANCH   1  31
HETATM   31  C2  UNL     1       0.134  52.284 -23.451  1.00  0.00    -0.088 C 
HETATM   32  C1  UNL     1       0.460  51.925 -22.199  1.00  0.00     0.014 C 
HETATM   33  C3  UNL     1       0.721  53.534 -24.055  1.00  0.00     0.043 C 
ENDBRANCH   1  31
BRANCH   7  34
HETATM   34  C12 UNL     1      -4.244  51.419 -21.236  1.00  0.00     0.149 C 
HETATM   35  O3  UNL     1      -3.918  51.270 -20.067  1.00  0.00    -0.649 OA
BRANCH  34  36
HETATM   36  O4  UNL     1      -4.870  52.559 -21.560  1.00  0.00    -0.776 OA
HETATM   37  H16 UNL     1      -4.883  53.062 -20.719  1.00  0.00     0.167 HD
ENDBRANCH  34  36
ENDBRANCH   7  34
TORSDOF 5
ENDMDL
