MODEL 1
REMARK minimizedAffinity -8.92801762
REMARK  7 active torsions:
REMARK  status: ('A' for Active; 'I' for Inactive)
REMARK    1  A    between atoms: C2_2  and  C3_3 
REMARK    2  A    between atoms: C2_2  and  C4_5 
REMARK    3  A    between atoms: C3_3  and  O1_4 
REMARK    4  A    between atoms: C4_5  and  C5_7 
REMARK    5  A    between atoms: C5_7  and  C6_8 
REMARK    6  A    between atoms: C6_8  and  C7_9 
REMARK    7  A    between atoms: C7_9  and  C9_11 
ROOT
HETATM    1  C9  UNL     1       0.736   8.236  13.093  1.00  0.00    -0.002 C 
HETATM    2  C10 UNL     1       0.826   9.363  14.163  1.00  0.00     0.007 C 
HETATM    3  C11 UNL     1      -0.518   9.405  14.911  1.00  0.00     0.015 C 
HETATM    4  C12 UNL     1      -1.240   8.106  14.513  1.00  0.00    -0.005 C 
HETATM    5  C13 UNL     1      -0.700   6.978  15.448  1.00  0.00     0.021 C 
HETATM    6  C14 UNL     1      -2.758   8.008  14.621  1.00  0.00    -0.000 C 
HETATM    7  C15 UNL     1      -3.473   7.197  13.799  1.00  0.00    -0.060 C 
HETATM    8  C16 UNL     1      -2.764   6.396  12.695  1.00  0.00     0.036 C 
HETATM    9  C17 UNL     1      -1.249   6.614  12.500  1.00  0.00     0.015 C 
HETATM   10  C18 UNL     1      -0.801   7.992  12.999  1.00  0.00    -0.028 C 
HETATM   11  C19 UNL     1      -1.441   9.089  12.091  1.00  0.00     0.016 C 
HETATM   12  C20 UNL     1      -5.017   7.036  13.880  1.00  0.00    -0.014 C 
HETATM   13  C21 UNL     1      -5.625   7.853  12.720  1.00  0.00     0.020 C 
HETATM   14  C22 UNL     1      -5.413   5.547  13.747  1.00  0.00     0.021 C 
HETATM   15  C23 UNL     1      -6.873   5.213  14.025  1.00  0.00     0.080 C 
HETATM   16  C24 UNL     1      -7.719   6.339  14.568  1.00  0.00     0.135 C 
HETATM   17  O3  UNL     1      -8.930   6.342  14.330  1.00  0.00    -0.297 OA
HETATM   18  C25 UNL     1      -7.083   7.386  15.490  1.00  0.00     0.018 C 
HETATM   19  C26 UNL     1      -7.815   8.729  15.265  1.00  0.00     0.023 C 
HETATM   20  C27 UNL     1      -7.378   6.930  16.935  1.00  0.00     0.023 C 
HETATM   21  C28 UNL     1      -5.533   7.486  15.283  1.00  0.00     0.020 C 
HETATM   22  C29 UNL     1      -4.956   8.851  15.664  1.00  0.00     0.090 C 
HETATM   23  C30 UNL     1      -3.451   8.796  15.686  1.00  0.00     0.157 C 
HETATM   24  O4  UNL     1      -2.822   9.411  16.545  1.00  0.00    -0.293 OA
ENDROOT
BRANCH   1  25
HETATM   25  C7  UNL     1       1.561   8.585  11.814  1.00  0.00    -0.013 C 
HETATM   26  C8  UNL     1       0.796   8.261  10.527  1.00  0.00     0.010 C 
BRANCH  25  27
HETATM   27  C6  UNL     1       2.923   7.837  11.836  1.00  0.00     0.012 C 
BRANCH  27  28
HETATM   28  C5  UNL     1       2.844   6.375  11.377  1.00  0.00     0.084 C 
BRANCH  28  29
HETATM   29  C4  UNL     1       3.857   6.050  10.287  1.00  0.00     0.157 C 
HETATM   30  O2  UNL     1       5.066   6.236  10.436  1.00  0.00    -0.293 OA
BRANCH  29  31
HETATM   31  C2  UNL     1       3.374   5.468   8.987  1.00  0.00     0.002 C 
HETATM   32  C1  UNL     1       2.654   6.180   8.103  1.00  0.00     0.025 C 
BRANCH  31  33
HETATM   33  C3  UNL     1       3.769   4.039   8.738  1.00  0.00     0.205 C 
BRANCH  33  34
HETATM   34  O1  UNL     1       3.373   3.224   9.832  1.00  0.00    -0.396 OA
HETATM   35  H5  UNL     1       3.906   3.530  10.594  1.00  0.00     0.209 HD
ENDBRANCH  33  34
ENDBRANCH  31  33
ENDBRANCH  29  31
ENDBRANCH  28  29
ENDBRANCH  27  28
ENDBRANCH  25  27
ENDBRANCH   1  25
TORSDOF 7
ENDMDL
MODEL 2
REMARK minimizedAffinity -8.91934776
REMARK  7 active torsions:
REMARK  status: ('A' for Active; 'I' for Inactive)
REMARK    1  A    between atoms: C2_2  and  C3_3 
REMARK    2  A    between atoms: C2_2  and  C4_5 
REMARK    3  A    between atoms: C3_3  and  O1_4 
REMARK    4  A    between atoms: C4_5  and  C5_7 
REMARK    5  A    between atoms: C5_7  and  C6_8 
REMARK    6  A    between atoms: C6_8  and  C7_9 
REMARK    7  A    between atoms: C7_9  and  C9_11 
ROOT
HETATM    1  C9  UNL     1       0.937   6.971  13.320  1.00  0.00    -0.002 C 
HETATM    2  C10 UNL     1       0.095   8.107  13.970  1.00  0.00     0.007 C 
HETATM    3  C11 UNL     1      -1.368   7.632  14.020  1.00  0.00     0.015 C 
HETATM    4  C12 UNL     1      -1.313   6.124  13.721  1.00  0.00    -0.005 C 
HETATM    5  C13 UNL     1      -0.983   5.404  15.066  1.00  0.00     0.021 C 
HETATM    6  C14 UNL     1      -2.543   5.403  13.184  1.00  0.00    -0.000 C 
HETATM    7  C15 UNL     1      -2.429   4.306  12.391  1.00  0.00    -0.060 C 
HETATM    8  C16 UNL     1      -1.041   3.800  11.967  1.00  0.00     0.036 C 
HETATM    9  C17 UNL     1       0.193   4.623  12.396  1.00  0.00     0.015 C 
HETATM   10  C18 UNL     1      -0.159   6.095  12.641  1.00  0.00    -0.028 C 
HETATM   11  C19 UNL     1      -0.572   6.747  11.284  1.00  0.00     0.016 C 
HETATM   12  C20 UNL     1      -3.647   3.515  11.837  1.00  0.00    -0.014 C 
HETATM   13  C21 UNL     1      -3.814   3.909  10.353  1.00  0.00     0.020 C 
HETATM   14  C22 UNL     1      -3.402   1.993  11.958  1.00  0.00     0.021 C 
HETATM   15  C23 UNL     1      -4.596   1.095  11.658  1.00  0.00     0.080 C 
HETATM   16  C24 UNL     1      -5.917   1.795  11.450  1.00  0.00     0.135 C 
HETATM   17  O3  UNL     1      -6.762   1.268  10.721  1.00  0.00    -0.297 OA
HETATM   18  C25 UNL     1      -6.223   3.078  12.231  1.00  0.00     0.018 C 
HETATM   19  C26 UNL     1      -7.137   3.966  11.354  1.00  0.00     0.023 C 
HETATM   20  C27 UNL     1      -7.039   2.650  13.470  1.00  0.00     0.023 C 
HETATM   21  C28 UNL     1      -4.917   3.808  12.696  1.00  0.00     0.020 C 
HETATM   22  C29 UNL     1      -5.101   5.313  12.900  1.00  0.00     0.090 C 
HETATM   23  C30 UNL     1      -3.896   5.901  13.584  1.00  0.00     0.157 C 
HETATM   24  O4  UNL     1      -4.033   6.786  14.426  1.00  0.00    -0.293 OA
ENDROOT
BRANCH   1  25
HETATM   25  C7  UNL     1       2.126   7.539  12.482  1.00  0.00    -0.013 C 
HETATM   26  C8  UNL     1       1.731   8.788  11.689  1.00  0.00     0.010 C 
BRANCH  25  27
HETATM   27  C6  UNL     1       2.676   6.443  11.527  1.00  0.00     0.012 C 
BRANCH  27  28
HETATM   28  C5  UNL     1       1.911   6.323  10.202  1.00  0.00     0.084 C 
BRANCH  28  29
HETATM   29  C4  UNL     1       2.839   6.229   8.998  1.00  0.00     0.157 C 
HETATM   30  O2  UNL     1       3.908   5.616   9.038  1.00  0.00    -0.293 OA
BRANCH  29  31
HETATM   31  C2  UNL     1       2.437   6.890   7.708  1.00  0.00     0.002 C 
HETATM   32  C1  UNL     1       2.365   6.218   6.547  1.00  0.00     0.025 C 
BRANCH  31  33
HETATM   33  C3  UNL     1       2.104   8.352   7.814  1.00  0.00     0.205 C 
BRANCH  33  34
HETATM   34  O1  UNL     1       3.272   9.136   7.616  1.00  0.00    -0.396 OA
HETATM   35  H5  UNL     1       3.858   8.930   8.372  1.00  0.00     0.209 HD
ENDBRANCH  33  34
ENDBRANCH  31  33
ENDBRANCH  29  31
ENDBRANCH  28  29
ENDBRANCH  27  28
ENDBRANCH  25  27
ENDBRANCH   1  25
TORSDOF 7
ENDMDL
MODEL 3
REMARK minimizedAffinity -8.9009428
REMARK  7 active torsions:
REMARK  status: ('A' for Active; 'I' for Inactive)
REMARK    1  A    between atoms: C2_2  and  C3_3 
REMARK    2  A    between atoms: C2_2  and  C4_5 
REMARK    3  A    between atoms: C3_3  and  O1_4 
REMARK    4  A    between atoms: C4_5  and  C5_7 
REMARK    5  A    between atoms: C5_7  and  C6_8 
REMARK    6  A    between atoms: C6_8  and  C7_9 
REMARK    7  A    between atoms: C7_9  and  C9_11 
ROOT
HETATM    1  C9  UNL     1      -2.321   4.747  12.964  1.00  0.00    -0.002 C 
HETATM    2  C10 UNL     1      -1.413   5.316  11.837  1.00  0.00     0.007 C 
HETATM    3  C11 UNL     1      -1.027   6.754  12.230  1.00  0.00     0.015 C 
HETATM    4  C12 UNL     1      -1.424   6.886  13.710  1.00  0.00    -0.005 C 
HETATM    5  C13 UNL     1      -0.251   6.291  14.551  1.00  0.00     0.021 C 
HETATM    6  C14 UNL     1      -1.679   8.261  14.316  1.00  0.00    -0.000 C 
HETATM    7  C15 UNL     1      -2.542   8.428  15.351  1.00  0.00    -0.060 C 
HETATM    8  C16 UNL     1      -3.330   7.228  15.901  1.00  0.00     0.036 C 
HETATM    9  C17 UNL     1      -3.173   5.869  15.186  1.00  0.00     0.015 C 
HETATM   10  C18 UNL     1      -2.757   6.038  13.721  1.00  0.00    -0.028 C 
HETATM   11  C19 UNL     1      -3.925   6.722  12.941  1.00  0.00     0.016 C 
HETATM   12  C20 UNL     1      -2.822   9.800  16.025  1.00  0.00    -0.014 C 
HETATM   13  C21 UNL     1      -4.189  10.297  15.507  1.00  0.00     0.020 C 
HETATM   14  C22 UNL     1      -2.860   9.648  17.564  1.00  0.00     0.021 C 
HETATM   15  C23 UNL     1      -2.907  10.943  18.366  1.00  0.00     0.080 C 
HETATM   16  C24 UNL     1      -2.734  12.218  17.577  1.00  0.00     0.135 C 
HETATM   17  O3  UNL     1      -3.259  13.253  17.997  1.00  0.00    -0.297 OA
HETATM   18  C25 UNL     1      -1.823  12.226  16.344  1.00  0.00     0.018 C 
HETATM   19  C26 UNL     1      -2.387  13.258  15.340  1.00  0.00     0.023 C 
HETATM   20  C27 UNL     1      -0.449  12.742  16.821  1.00  0.00     0.023 C 
HETATM   21  C28 UNL     1      -1.656  10.795  15.729  1.00  0.00     0.020 C 
HETATM   22  C29 UNL     1      -1.319  10.810  14.236  1.00  0.00     0.090 C 
HETATM   23  C30 UNL     1      -0.923   9.433  13.774  1.00  0.00     0.157 C 
HETATM   24  O4  UNL     1      -0.021   9.292  12.951  1.00  0.00    -0.293 OA
ENDROOT
BRANCH   1  25
HETATM   25  C7  UNL     1      -3.394   3.761  12.401  1.00  0.00    -0.013 C 
HETATM   26  C8  UNL     1      -3.373   3.696  10.872  1.00  0.00     0.010 C 
BRANCH  25  27
HETATM   27  C6  UNL     1      -4.807   4.164  12.907  1.00  0.00     0.012 C 
BRANCH  27  28
HETATM   28  C5  UNL     1      -5.953   3.376  12.260  1.00  0.00     0.084 C 
BRANCH  28  29
HETATM   29  C4  UNL     1      -7.260   3.505  13.033  1.00  0.00     0.157 C 
HETATM   30  O2  UNL     1      -7.972   2.531  13.287  1.00  0.00    -0.293 OA
BRANCH  29  31
HETATM   31  C2  UNL     1      -7.694   4.860  13.520  1.00  0.00     0.002 C 
HETATM   32  C1  UNL     1      -8.337   5.736  12.728  1.00  0.00     0.025 C 
BRANCH  31  33
HETATM   33  C3  UNL     1      -7.375   5.158  14.958  1.00  0.00     0.205 C 
BRANCH  33  34
HETATM   34  O1  UNL     1      -7.955   4.174  15.802  1.00  0.00    -0.396 OA
HETATM   35  H5  UNL     1      -8.923   4.282  15.705  1.00  0.00     0.209 HD
ENDBRANCH  33  34
ENDBRANCH  31  33
ENDBRANCH  29  31
ENDBRANCH  28  29
ENDBRANCH  27  28
ENDBRANCH  25  27
ENDBRANCH   1  25
TORSDOF 7
ENDMDL
MODEL 4
REMARK minimizedAffinity -8.66895008
REMARK  7 active torsions:
REMARK  status: ('A' for Active; 'I' for Inactive)
REMARK    1  A    between atoms: C2_2  and  C3_3 
REMARK    2  A    between atoms: C2_2  and  C4_5 
REMARK    3  A    between atoms: C3_3  and  O1_4 
REMARK    4  A    between atoms: C4_5  and  C5_7 
REMARK    5  A    between atoms: C5_7  and  C6_8 
REMARK    6  A    between atoms: C6_8  and  C7_9 
REMARK    7  A    between atoms: C7_9  and  C9_11 
ROOT
HETATM    1  C9  UNL     1      -2.409   6.068  13.769  1.00  0.00    -0.002 C 
HETATM    2  C10 UNL     1      -2.590   5.508  12.329  1.00  0.00     0.007 C 
HETATM    3  C11 UNL     1      -1.234   5.617  11.610  1.00  0.00     0.015 C 
HETATM    4  C12 UNL     1      -0.213   5.916  12.722  1.00  0.00    -0.005 C 
HETATM    5  C13 UNL     1       0.181   4.547  13.360  1.00  0.00     0.021 C 
HETATM    6  C14 UNL     1       1.114   6.585  12.385  1.00  0.00    -0.000 C 
HETATM    7  C15 UNL     1       1.760   7.368  13.288  1.00  0.00    -0.060 C 
HETATM    8  C16 UNL     1       1.130   7.642  14.663  1.00  0.00     0.036 C 
HETATM    9  C17 UNL     1      -0.280   7.079  14.940  1.00  0.00     0.015 C 
HETATM   10  C18 UNL     1      -1.074   6.866  13.646  1.00  0.00    -0.028 C 
HETATM   11  C19 UNL     1      -1.363   8.256  12.997  1.00  0.00     0.016 C 
HETATM   12  C20 UNL     1       3.127   8.053  13.010  1.00  0.00    -0.014 C 
HETATM   13  C21 UNL     1       2.844   9.544  12.725  1.00  0.00     0.020 C 
HETATM   14  C22 UNL     1       4.060   7.914  14.236  1.00  0.00     0.021 C 
HETATM   15  C23 UNL     1       5.507   8.346  14.030  1.00  0.00     0.080 C 
HETATM   16  C24 UNL     1       5.902   8.690  12.615  1.00  0.00     0.135 C 
HETATM   17  O3  UNL     1       6.808   9.508  12.432  1.00  0.00    -0.297 OA
HETATM   18  C25 UNL     1       5.254   7.940  11.445  1.00  0.00     0.018 C 
HETATM   19  C26 UNL     1       5.180   8.906  10.240  1.00  0.00     0.023 C 
HETATM   20  C27 UNL     1       6.222   6.799  11.070  1.00  0.00     0.023 C 
HETATM   21  C28 UNL     1       3.863   7.334  11.836  1.00  0.00     0.020 C 
HETATM   22  C29 UNL     1       2.925   7.144  10.642  1.00  0.00     0.090 C 
HETATM   23  C30 UNL     1       1.723   6.331  11.043  1.00  0.00     0.157 C 
HETATM   24  O4  UNL     1       1.248   5.504  10.267  1.00  0.00    -0.293 OA
ENDROOT
BRANCH   1  25
HETATM   25  C7  UNL     1      -3.704   6.771  14.284  1.00  0.00    -0.013 C 
HETATM   26  C8  UNL     1      -4.128   6.263  15.665  1.00  0.00     0.010 C 
BRANCH  25  27
HETATM   27  C6  UNL     1      -4.858   6.582  13.260  1.00  0.00     0.012 C 
BRANCH  27  28
HETATM   28  C5  UNL     1      -6.198   6.181  13.891  1.00  0.00     0.084 C 
BRANCH  28  29
HETATM   29  C4  UNL     1      -7.038   5.306  12.971  1.00  0.00     0.157 C 
HETATM   30  O2  UNL     1      -8.021   5.740  12.367  1.00  0.00    -0.293 OA
BRANCH  29  31
HETATM   31  C2  UNL     1      -6.654   3.865  12.776  1.00  0.00     0.002 C 
HETATM   32  C1  UNL     1      -5.623   3.494  11.998  1.00  0.00     0.025 C 
BRANCH  31  33
HETATM   33  C3  UNL     1      -7.493   2.870  13.529  1.00  0.00     0.205 C 
BRANCH  33  34
HETATM   34  O1  UNL     1      -8.249   2.081  12.622  1.00  0.00    -0.396 OA
HETATM   35  H5  UNL     1      -8.873   2.701  12.192  1.00  0.00     0.209 HD
ENDBRANCH  33  34
ENDBRANCH  31  33
ENDBRANCH  29  31
ENDBRANCH  28  29
ENDBRANCH  27  28
ENDBRANCH  25  27
ENDBRANCH   1  25
TORSDOF 7
ENDMDL
MODEL 5
REMARK minimizedAffinity -8.5855732
REMARK  7 active torsions:
REMARK  status: ('A' for Active; 'I' for Inactive)
REMARK    1  A    between atoms: C2_2  and  C3_3 
REMARK    2  A    between atoms: C2_2  and  C4_5 
REMARK    3  A    between atoms: C3_3  and  O1_4 
REMARK    4  A    between atoms: C4_5  and  C5_7 
REMARK    5  A    between atoms: C5_7  and  C6_8 
REMARK    6  A    between atoms: C6_8  and  C7_9 
REMARK    7  A    between atoms: C7_9  and  C9_11 
ROOT
HETATM    1  C9  UNL     1      -1.410   5.993  12.031  1.00  0.00    -0.002 C 
HETATM    2  C10 UNL     1      -1.898   6.802  13.267  1.00  0.00     0.007 C 
HETATM    3  C11 UNL     1      -0.822   7.852  13.593  1.00  0.00     0.015 C 
HETATM    4  C12 UNL     1       0.104   7.874  12.364  1.00  0.00    -0.005 C 
HETATM    5  C13 UNL     1      -0.561   8.812  11.309  1.00  0.00     0.021 C 
HETATM    6  C14 UNL     1       1.535   8.382  12.492  1.00  0.00    -0.000 C 
HETATM    7  C15 UNL     1       2.523   7.917  11.684  1.00  0.00    -0.060 C 
HETATM    8  C16 UNL     1       2.226   6.817  10.654  1.00  0.00     0.036 C 
HETATM    9  C17 UNL     1       0.808   6.207  10.633  1.00  0.00     0.015 C 
HETATM   10  C18 UNL     1       0.110   6.338  11.991  1.00  0.00    -0.028 C 
HETATM   11  C19 UNL     1       0.866   5.456  13.034  1.00  0.00     0.016 C 
HETATM   12  C20 UNL     1       3.994   8.418  11.750  1.00  0.00    -0.014 C 
HETATM   13  C21 UNL     1       4.815   7.333  12.480  1.00  0.00     0.020 C 
HETATM   14  C22 UNL     1       4.553   8.639  10.325  1.00  0.00     0.021 C 
HETATM   15  C23 UNL     1       5.906   9.334  10.235  1.00  0.00     0.080 C 
HETATM   16  C24 UNL     1       6.458   9.881  11.529  1.00  0.00     0.135 C 
HETATM   17  O3  UNL     1       7.681   9.965  11.666  1.00  0.00    -0.297 OA
HETATM   18  C25 UNL     1       5.495  10.423  12.592  1.00  0.00     0.018 C 
HETATM   19  C26 UNL     1       6.127  10.174  13.982  1.00  0.00     0.023 C 
HETATM   20  C27 UNL     1       5.424  11.950  12.379  1.00  0.00     0.023 C 
HETATM   21  C28 UNL     1       4.059   9.811  12.450  1.00  0.00     0.020 C 
HETATM   22  C29 UNL     1       3.270   9.800  13.760  1.00  0.00     0.090 C 
HETATM   23  C30 UNL     1       1.830   9.444  13.502  1.00  0.00     0.157 C 
HETATM   24  O4  UNL     1       0.933   9.998  14.134  1.00  0.00    -0.293 OA
ENDROOT
BRANCH   1  25
HETATM   25  C7  UNL     1      -1.881   4.506  12.089  1.00  0.00    -0.013 C 
HETATM   26  C8  UNL     1      -1.949   3.866  10.699  1.00  0.00     0.010 C 
BRANCH  25  27
HETATM   27  C6  UNL     1      -3.261   4.410  12.797  1.00  0.00     0.012 C 
BRANCH  27  28
HETATM   28  C5  UNL     1      -4.015   3.101  12.528  1.00  0.00     0.084 C 
BRANCH  28  29
HETATM   29  C4  UNL     1      -5.405   3.334  11.949  1.00  0.00     0.157 C 
HETATM   30  O2  UNL     1      -5.654   3.175  10.753  1.00  0.00    -0.293 OA
BRANCH  29  31
HETATM   31  C2  UNL     1      -6.519   3.760  12.866  1.00  0.00     0.002 C 
HETATM   32  C1  UNL     1      -6.582   4.993  13.396  1.00  0.00     0.025 C 
BRANCH  31  33
HETATM   33  C3  UNL     1      -7.566   2.714  13.131  1.00  0.00     0.205 C 
BRANCH  33  34
HETATM   34  O1  UNL     1      -8.864   3.274  12.993  1.00  0.00    -0.396 OA
HETATM   35  H5  UNL     1      -8.942   3.934  13.712  1.00  0.00     0.209 HD
ENDBRANCH  33  34
ENDBRANCH  31  33
ENDBRANCH  29  31
ENDBRANCH  28  29
ENDBRANCH  27  28
ENDBRANCH  25  27
ENDBRANCH   1  25
TORSDOF 7
ENDMDL
MODEL 6
REMARK minimizedAffinity -8.55607224
REMARK  7 active torsions:
REMARK  status: ('A' for Active; 'I' for Inactive)
REMARK    1  A    between atoms: C2_2  and  C3_3 
REMARK    2  A    between atoms: C2_2  and  C4_5 
REMARK    3  A    between atoms: C3_3  and  O1_4 
REMARK    4  A    between atoms: C4_5  and  C5_7 
REMARK    5  A    between atoms: C5_7  and  C6_8 
REMARK    6  A    between atoms: C6_8  and  C7_9 
REMARK    7  A    between atoms: C7_9  and  C9_11 
ROOT
HETATM    1  C9  UNL     1       1.211   7.071  12.724  1.00  0.00    -0.002 C 
HETATM    2  C10 UNL     1       1.262   5.689  12.011  1.00  0.00     0.007 C 
HETATM    3  C11 UNL     1      -0.178   5.153  11.927  1.00  0.00     0.015 C 
HETATM    4  C12 UNL     1      -1.075   6.354  12.275  1.00  0.00    -0.005 C 
HETATM    5  C13 UNL     1      -1.255   7.183  10.965  1.00  0.00     0.021 C 
HETATM    6  C14 UNL     1      -2.491   6.130  12.792  1.00  0.00    -0.000 C 
HETATM    7  C15 UNL     1      -3.088   7.023  13.623  1.00  0.00    -0.060 C 
HETATM    8  C16 UNL     1      -2.319   8.262  14.108  1.00  0.00     0.036 C 
HETATM    9  C17 UNL     1      -0.839   8.404  13.695  1.00  0.00     0.015 C 
HETATM   10  C18 UNL     1      -0.197   7.045  13.393  1.00  0.00    -0.028 C 
HETATM   11  C19 UNL     1      -0.124   6.217  14.714  1.00  0.00     0.016 C 
HETATM   12  C20 UNL     1      -4.538   6.860  14.160  1.00  0.00    -0.014 C 
HETATM   13  C21 UNL     1      -4.434   6.381  15.625  1.00  0.00     0.020 C 
HETATM   14  C22 UNL     1      -5.293   8.209  14.095  1.00  0.00     0.021 C 
HETATM   15  C23 UNL     1      -6.788   8.156  14.383  1.00  0.00     0.080 C 
HETATM   16  C24 UNL     1      -7.388   6.778  14.525  1.00  0.00     0.135 C 
HETATM   17  O3  UNL     1      -8.382   6.633  15.241  1.00  0.00    -0.297 OA
HETATM   18  C25 UNL     1      -6.824   5.619  13.694  1.00  0.00     0.018 C 
HETATM   19  C26 UNL     1      -6.994   4.318  14.512  1.00  0.00     0.023 C 
HETATM   20  C27 UNL     1      -7.721   5.504  12.443  1.00  0.00     0.023 C 
HETATM   21  C28 UNL     1      -5.344   5.881  13.251  1.00  0.00     0.020 C 
HETATM   22  C29 UNL     1      -4.550   4.598  12.994  1.00  0.00     0.090 C 
HETATM   23  C30 UNL     1      -3.237   4.918  12.332  1.00  0.00     0.157 C 
HETATM   24  O4  UNL     1      -2.788   4.178  11.459  1.00  0.00    -0.293 OA
ENDROOT
BRANCH   1  25
HETATM   25  C7  UNL     1       2.489   7.328  13.583  1.00  0.00    -0.013 C 
HETATM   26  C8  UNL     1       2.321   8.520  14.529  1.00  0.00     0.010 C 
BRANCH  25  27
HETATM   27  C6  UNL     1       3.720   7.539  12.659  1.00  0.00     0.012 C 
BRANCH  27  28
HETATM   28  C5  UNL     1       3.398   8.251  11.338  1.00  0.00     0.084 C 
BRANCH  28  29
HETATM   29  C4  UNL     1       3.915   7.491  10.123  1.00  0.00     0.157 C 
HETATM   30  O2  UNL     1       4.926   6.789  10.169  1.00  0.00    -0.293 OA
BRANCH  29  31
HETATM   31  C2  UNL     1       3.162   7.585   8.824  1.00  0.00     0.002 C 
HETATM   32  C1  UNL     1       3.170   8.695   8.067  1.00  0.00     0.025 C 
BRANCH  31  33
HETATM   33  C3  UNL     1       2.416   6.343   8.425  1.00  0.00     0.205 C 
BRANCH  33  34
HETATM   34  O1  UNL     1       3.266   5.209   8.520  1.00  0.00    -0.396 OA
HETATM   35  H5  UNL     1       3.961   5.344   7.844  1.00  0.00     0.209 HD
ENDBRANCH  33  34
ENDBRANCH  31  33
ENDBRANCH  29  31
ENDBRANCH  28  29
ENDBRANCH  27  28
ENDBRANCH  25  27
ENDBRANCH   1  25
TORSDOF 7
ENDMDL
MODEL 7
REMARK minimizedAffinity -8.46097374
REMARK  7 active torsions:
REMARK  status: ('A' for Active; 'I' for Inactive)
REMARK    1  A    between atoms: C2_2  and  C3_3 
REMARK    2  A    between atoms: C2_2  and  C4_5 
REMARK    3  A    between atoms: C3_3  and  O1_4 
REMARK    4  A    between atoms: C4_5  and  C5_7 
REMARK    5  A    between atoms: C5_7  and  C6_8 
REMARK    6  A    between atoms: C6_8  and  C7_9 
REMARK    7  A    between atoms: C7_9  and  C9_11 
ROOT
HETATM    1  C9  UNL     1      -2.870   6.118  12.634  1.00  0.00    -0.002 C 
HETATM    2  C10 UNL     1      -3.783   7.299  13.075  1.00  0.00     0.007 C 
HETATM    3  C11 UNL     1      -2.873   8.418  13.612  1.00  0.00     0.015 C 
HETATM    4  C12 UNL     1      -1.452   8.026  13.171  1.00  0.00    -0.005 C 
HETATM    5  C13 UNL     1      -1.277   8.523  11.702  1.00  0.00     0.021 C 
HETATM    6  C14 UNL     1      -0.240   8.575  13.915  1.00  0.00    -0.000 C 
HETATM    7  C15 UNL     1       0.923   7.877  13.982  1.00  0.00    -0.060 C 
HETATM    8  C16 UNL     1       1.023   6.480  13.350  1.00  0.00     0.036 C 
HETATM    9  C17 UNL     1      -0.252   5.873  12.726  1.00  0.00     0.015 C 
HETATM   10  C18 UNL     1      -1.526   6.458  13.347  1.00  0.00    -0.028 C 
HETATM   11  C19 UNL     1      -1.608   6.011  14.841  1.00  0.00     0.016 C 
HETATM   12  C20 UNL     1       2.199   8.398  14.703  1.00  0.00    -0.014 C 
HETATM   13  C21 UNL     1       2.299   7.654  16.052  1.00  0.00     0.020 C 
HETATM   14  C22 UNL     1       3.455   8.117  13.845  1.00  0.00     0.021 C 
HETATM   15  C23 UNL     1       4.750   8.764  14.322  1.00  0.00     0.080 C 
HETATM   16  C24 UNL     1       4.623   9.740  15.466  1.00  0.00     0.135 C 
HETATM   17  O3  UNL     1       5.580   9.890  16.229  1.00  0.00    -0.297 OA
HETATM   18  C25 UNL     1       3.359  10.600  15.588  1.00  0.00     0.018 C 
HETATM   19  C26 UNL     1       3.105  10.866  17.090  1.00  0.00     0.023 C 
HETATM   20  C27 UNL     1       3.688  11.954  14.924  1.00  0.00     0.023 C 
HETATM   21  C28 UNL     1       2.134   9.949  14.861  1.00  0.00     0.020 C 
HETATM   22  C29 UNL     1       0.784  10.381  15.438  1.00  0.00     0.090 C 
HETATM   23  C30 UNL     1      -0.338   9.929  14.542  1.00  0.00     0.157 C 
HETATM   24  O4  UNL     1      -1.317  10.652  14.364  1.00  0.00    -0.293 OA
ENDROOT
BRANCH   1  25
HETATM   25  C7  UNL     1      -3.559   4.736  12.864  1.00  0.00    -0.013 C 
HETATM   26  C8  UNL     1      -3.279   3.754  11.723  1.00  0.00     0.010 C 
BRANCH  25  27
HETATM   27  C6  UNL     1      -5.090   4.927  13.051  1.00  0.00     0.012 C 
BRANCH  27  28
HETATM   28  C5  UNL     1      -5.929   3.710  12.641  1.00  0.00     0.084 C 
BRANCH  28  29
HETATM   29  C4  UNL     1      -7.349   3.767  13.190  1.00  0.00     0.157 C 
HETATM   30  O2  UNL     1      -8.049   2.760  13.307  1.00  0.00    -0.293 OA
BRANCH  29  31
HETATM   31  C2  UNL     1      -7.916   5.092  13.621  1.00  0.00     0.002 C 
HETATM   32  C1  UNL     1      -8.550   5.914  12.768  1.00  0.00     0.025 C 
BRANCH  31  33
HETATM   33  C3  UNL     1      -7.740   5.421  15.077  1.00  0.00     0.205 C 
BRANCH  33  34
HETATM   34  O1  UNL     1      -7.919   4.255  15.869  1.00  0.00    -0.396 OA
HETATM   35  H5  UNL     1      -8.857   4.001  15.753  1.00  0.00     0.209 HD
ENDBRANCH  33  34
ENDBRANCH  31  33
ENDBRANCH  29  31
ENDBRANCH  28  29
ENDBRANCH  27  28
ENDBRANCH  25  27
ENDBRANCH   1  25
TORSDOF 7
ENDMDL
MODEL 8
REMARK minimizedAffinity -8.38991642
REMARK  7 active torsions:
REMARK  status: ('A' for Active; 'I' for Inactive)
REMARK    1  A    between atoms: C2_2  and  C3_3 
REMARK    2  A    between atoms: C2_2  and  C4_5 
REMARK    3  A    between atoms: C3_3  and  O1_4 
REMARK    4  A    between atoms: C4_5  and  C5_7 
REMARK    5  A    between atoms: C5_7  and  C6_8 
REMARK    6  A    between atoms: C6_8  and  C7_9 
REMARK    7  A    between atoms: C7_9  and  C9_11 
ROOT
HETATM    1  C9  UNL     1       2.343   8.909  13.257  1.00  0.00    -0.002 C 
HETATM    2  C10 UNL     1       3.170   7.934  12.370  1.00  0.00     0.007 C 
HETATM    3  C11 UNL     1       2.207   6.857  11.838  1.00  0.00     0.015 C 
HETATM    4  C12 UNL     1       0.797   7.397  12.133  1.00  0.00    -0.005 C 
HETATM    5  C13 UNL     1       0.428   8.370  10.970  1.00  0.00     0.021 C 
HETATM    6  C14 UNL     1      -0.385   6.439  12.231  1.00  0.00    -0.000 C 
HETATM    7  C15 UNL     1      -1.458   6.721  13.014  1.00  0.00    -0.060 C 
HETATM    8  C16 UNL     1      -1.477   7.997  13.870  1.00  0.00     0.036 C 
HETATM    9  C17 UNL     1      -0.214   8.885  13.876  1.00  0.00     0.015 C 
HETATM   10  C18 UNL     1       1.048   8.086  13.533  1.00  0.00    -0.028 C 
HETATM   11  C19 UNL     1       1.323   7.062  14.680  1.00  0.00     0.016 C 
HETATM   12  C20 UNL     1      -2.703   5.797  13.132  1.00  0.00    -0.014 C 
HETATM   13  C21 UNL     1      -2.593   5.049  14.478  1.00  0.00     0.020 C 
HETATM   14  C22 UNL     1      -4.003   6.634  13.093  1.00  0.00     0.021 C 
HETATM   15  C23 UNL     1      -5.304   5.849  12.979  1.00  0.00     0.080 C 
HETATM   16  C24 UNL     1      -5.164   4.365  12.741  1.00  0.00     0.135 C 
HETATM   17  O3  UNL     1      -6.052   3.611  13.148  1.00  0.00    -0.297 OA
HETATM   18  C25 UNL     1      -3.990   3.840  11.907  1.00  0.00     0.018 C 
HETATM   19  C26 UNL     1      -3.617   2.436  12.437  1.00  0.00     0.023 C 
HETATM   20  C27 UNL     1      -4.519   3.671  10.468  1.00  0.00     0.023 C 
HETATM   21  C28 UNL     1      -2.781   4.838  11.903  1.00  0.00     0.020 C 
HETATM   22  C29 UNL     1      -1.433   4.159  11.655  1.00  0.00     0.090 C 
HETATM   23  C30 UNL     1      -0.364   5.191  11.409  1.00  0.00     0.157 C 
HETATM   24  O4  UNL     1       0.513   4.985  10.572  1.00  0.00    -0.293 OA
ENDROOT
BRANCH   1  25
HETATM   25  C7  UNL     1       3.189   9.471  14.443  1.00  0.00    -0.013 C 
HETATM   26  C8  UNL     1       3.872  10.796  14.090  1.00  0.00     0.010 C 
BRANCH  25  27
HETATM   27  C6  UNL     1       4.243   8.422  14.892  1.00  0.00     0.012 C 
BRANCH  27  28
HETATM   28  C5  UNL     1       5.669   8.975  15.010  1.00  0.00     0.084 C 
BRANCH  28  29
HETATM   29  C4  UNL     1       6.708   8.050  14.388  1.00  0.00     0.157 C 
HETATM   30  O2  UNL     1       6.432   7.272  13.473  1.00  0.00    -0.293 OA
BRANCH  29  31
HETATM   31  C2  UNL     1       8.125   8.094  14.892  1.00  0.00     0.002 C 
HETATM   32  C1  UNL     1       9.180   7.880  14.089  1.00  0.00     0.025 C 
BRANCH  31  33
HETATM   33  C3  UNL     1       8.275   8.411  16.354  1.00  0.00     0.205 C 
BRANCH  33  34
HETATM   34  O1  UNL     1       9.060   7.415  16.993  1.00  0.00    -0.396 OA
HETATM   35  H5  UNL     1       8.533   6.592  16.941  1.00  0.00     0.209 HD
ENDBRANCH  33  34
ENDBRANCH  31  33
ENDBRANCH  29  31
ENDBRANCH  28  29
ENDBRANCH  27  28
ENDBRANCH  25  27
ENDBRANCH   1  25
TORSDOF 7
ENDMDL
MODEL 9
REMARK minimizedAffinity -8.32511711
REMARK  7 active torsions:
REMARK  status: ('A' for Active; 'I' for Inactive)
REMARK    1  A    between atoms: C2_2  and  C3_3 
REMARK    2  A    between atoms: C2_2  and  C4_5 
REMARK    3  A    between atoms: C3_3  and  O1_4 
REMARK    4  A    between atoms: C4_5  and  C5_7 
REMARK    5  A    between atoms: C5_7  and  C6_8 
REMARK    6  A    between atoms: C6_8  and  C7_9 
REMARK    7  A    between atoms: C7_9  and  C9_11 
ROOT
HETATM    1  C9  UNL     1      -8.669   6.054  14.164  1.00  0.00    -0.002 C 
HETATM    2  C10 UNL     1      -9.023   5.310  12.844  1.00  0.00     0.007 C 
HETATM    3  C11 UNL     1      -7.710   4.785  12.237  1.00  0.00     0.015 C 
HETATM    4  C12 UNL     1      -6.664   4.927  13.357  1.00  0.00    -0.005 C 
HETATM    5  C13 UNL     1      -6.801   3.669  14.271  1.00  0.00     0.021 C 
HETATM    6  C14 UNL     1      -5.181   5.002  13.016  1.00  0.00    -0.000 C 
HETATM    7  C15 UNL     1      -4.307   5.674  13.809  1.00  0.00    -0.060 C 
HETATM    8  C16 UNL     1      -4.812   6.429  15.048  1.00  0.00     0.036 C 
HETATM    9  C17 UNL     1      -6.334   6.469  15.303  1.00  0.00     0.015 C 
HETATM   10  C18 UNL     1      -7.135   6.287  14.009  1.00  0.00    -0.028 C 
HETATM   11  C19 UNL     1      -6.892   7.525  13.089  1.00  0.00     0.016 C 
HETATM   12  C20 UNL     1      -2.781   5.762  13.525  1.00  0.00    -0.014 C 
HETATM   13  C21 UNL     1      -2.501   7.164  12.944  1.00  0.00     0.020 C 
HETATM   14  C22 UNL     1      -1.977   5.558  14.832  1.00  0.00     0.021 C 
HETATM   15  C23 UNL     1      -0.470   5.401  14.674  1.00  0.00     0.080 C 
HETATM   16  C24 UNL     1       0.041   5.285  13.259  1.00  0.00     0.135 C 
HETATM   17  O3  UNL     1       1.184   5.676  13.005  1.00  0.00    -0.297 OA
HETATM   18  C25 UNL     1      -0.820   4.588  12.199  1.00  0.00     0.018 C 
HETATM   19  C26 UNL     1      -0.524   5.248  10.832  1.00  0.00     0.023 C 
HETATM   20  C27 UNL     1      -0.326   3.128  12.128  1.00  0.00     0.023 C 
HETATM   21  C28 UNL     1      -2.341   4.605  12.575  1.00  0.00     0.020 C 
HETATM   22  C29 UNL     1      -3.269   4.515  11.361  1.00  0.00     0.090 C 
HETATM   23  C30 UNL     1      -4.688   4.279  11.803  1.00  0.00     0.157 C 
HETATM   24  O4  UNL     1      -5.420   3.531  11.157  1.00  0.00    -0.293 OA
ENDROOT
BRANCH   1  25
HETATM   25  C7  UNL     1      -9.628   7.258  14.425  1.00  0.00    -0.013 C 
HETATM   26  C8  UNL     1      -9.614   7.702  15.891  1.00  0.00     0.010 C 
BRANCH  25  27
HETATM   27  C6  UNL     1     -11.073   6.895  13.983  1.00  0.00     0.012 C 
BRANCH  27  28
HETATM   28  C5  UNL     1     -12.113   7.983  14.283  1.00  0.00     0.084 C 
BRANCH  28  29
HETATM   29  C4  UNL     1     -12.920   8.375  13.052  1.00  0.00     0.157 C 
HETATM   30  O2  UNL     1     -12.464   9.109  12.174  1.00  0.00    -0.293 OA
BRANCH  29  31
HETATM   31  C2  UNL     1     -14.316   7.839  12.889  1.00  0.00     0.002 C 
HETATM   32  C1  UNL     1     -14.684   6.635  13.359  1.00  0.00     0.025 C 
BRANCH  31  33
HETATM   33  C3  UNL     1     -15.274   8.754  12.179  1.00  0.00     0.205 C 
BRANCH  33  34
HETATM   34  O1  UNL     1     -15.848   8.091  11.061  1.00  0.00    -0.396 OA
HETATM   35  H5  UNL     1     -15.106   7.931  10.442  1.00  0.00     0.209 HD
ENDBRANCH  33  34
ENDBRANCH  31  33
ENDBRANCH  29  31
ENDBRANCH  28  29
ENDBRANCH  27  28
ENDBRANCH  25  27
ENDBRANCH   1  25
TORSDOF 7
ENDMDL
