MODEL 1
REMARK minimizedAffinity -8.30644131
REMARK CNNscore 0.537202001
REMARK CNNaffinity 6.54096031
REMARK  7 active torsions:
REMARK  status: ('A' for Active; 'I' for Inactive)
REMARK    1  A    between atoms: C6_7  and  O2_8 
REMARK    2  A    between atoms: C11_15  and  C13_17 
REMARK    3  A    between atoms: C26_34  and  C27_35 
REMARK    4  A    between atoms: C27_35  and  C28_36 
REMARK    5  A    between atoms: C32_40  and  C33_41 
REMARK    6  A    between atoms: C33_41  and  N2_42 
REMARK    7  A    between atoms: C33_41  and  N3_43 
ROOT
HETATM    1  C1  UNL     1      10.152  19.323  23.970  1.00  0.00     0.077 C 
HETATM    2  C2  UNL     1       9.467  18.071  23.516  1.00  0.00     0.053 A 
HETATM    3  C3  UNL     1      10.130  17.089  22.881  1.00  0.00     0.088 A 
HETATM    4  C4  UNL     1       9.406  15.878  22.475  1.00  0.00     0.190 A 
HETATM    5  O1  UNL     1       9.966  14.967  21.874  1.00  0.00    -0.287 OA
HETATM    6  C5  UNL     1       7.982  15.800  22.834  1.00  0.00     0.082 A 
HETATM    7  C6  UNL     1       7.206  14.664  22.536  1.00  0.00     0.092 A 
HETATM    8  C7  UNL     1       5.873  14.580  22.962  1.00  0.00     0.016 A 
HETATM    9  C8  UNL     1       5.299  15.724  23.556  1.00  0.00     0.082 A 
HETATM   10  C9  UNL     1       6.067  16.855  23.847  1.00  0.00     0.075 A 
HETATM   11  C10 UNL     1       7.412  16.886  23.497  1.00  0.00     0.095 A 
HETATM   12  O3  UNL     1       8.118  18.017  23.828  1.00  0.00    -0.314 OA
HETATM   13  O4  UNL     1       3.971  15.833  23.879  1.00  0.00    -0.337 OA
HETATM   14  C11 UNL     1       3.018  14.953  23.231  1.00  0.00     0.095 C 
HETATM   15  C12 UNL     1       2.315  14.177  24.374  1.00  0.00     0.050 C 
HETATM   16  C18 UNL     1       3.676  13.944  22.227  1.00  0.00     0.175 C 
HETATM   17  O5  UNL     1       2.748  12.919  21.863  1.00  0.00    -0.310 OA
HETATM   18  C19 UNL     1       2.875  12.432  20.598  1.00  0.00     0.297 C 
HETATM   19  O6  UNL     1       3.379  13.014  19.654  1.00  0.00    -0.262 OA
HETATM   20  C20 UNL     1       2.415  11.021  20.544  1.00  0.00     0.175 A 
HETATM   21  C21 UNL     1       3.217   9.963  21.277  1.00  0.00     0.051 C 
HETATM   22  C22 UNL     1       3.506  10.290  22.747  1.00  0.00     0.004 C 
HETATM   23  C23 UNL     1       4.940  10.754  23.012  1.00  0.00     0.001 C 
HETATM   24  C24 UNL     1       5.488  12.024  22.326  1.00  0.00     0.012 C 
HETATM   25  C25 UNL     1       4.954  13.366  22.884  1.00  0.00     0.057 C 
HETATM   26  O7  UNL     1       2.086  10.548  19.220  1.00  0.00    -0.358 OA
HETATM   27  C26 UNL     1       0.983  10.714  20.116  1.00  0.00     0.172 A 
ENDROOT
BRANCH  27  28
HETATM   28  C27 UNL     1      -0.000  11.747  19.639  1.00  0.00     0.074 C 
BRANCH  28  29
HETATM   29  C28 UNL     1      -1.049  11.107  18.750  1.00  0.00    -0.055 A 
HETATM   30  C29 UNL     1      -2.400  11.446  18.888  1.00  0.00     0.007 A 
HETATM   31  C30 UNL     1      -3.357  10.832  18.077  1.00  0.00     0.001 A 
HETATM   32  C31 UNL     1      -2.983   9.874  17.128  1.00  0.00     0.011 A 
HETATM   33  C32 UNL     1      -1.636   9.525  16.948  1.00  0.00     0.004 A 
HETATM   34  C34 UNL     1      -0.680  10.173  17.760  1.00  0.00     0.018 A 
BRANCH  33  35
HETATM   35  C33 UNL     1      -1.155   8.489  15.947  1.00  0.00     0.479 C 
BRANCH  35  36
HETATM   36  N2  UNL     1       0.173   8.036  16.262  1.00  0.00     0.116 N 
HETATM   37  H37 UNL     1       0.829   8.774  16.003  1.00  0.00     0.316 HD
HETATM   38  H38 UNL     1       0.361   7.255  15.635  1.00  0.00     0.316 HD
ENDBRANCH  35  36
BRANCH  35  39
HETATM   39  N3  UNL     1      -1.858   7.235  15.922  1.00  0.00     0.116 N 
HETATM   40  H39 UNL     1      -1.714   6.801  16.832  1.00  0.00     0.316 HD
HETATM   41  H40 UNL     1      -2.855   7.408  15.826  1.00  0.00     0.316 HD
ENDBRANCH  35  39
ENDBRANCH  33  35
ENDBRANCH  28  29
ENDBRANCH  27  28
BRANCH  14  42
HETATM   42  C13 UNL     1       1.946  15.865  22.523  1.00  0.00     0.026 C 
HETATM   43  C14 UNL     1       1.475  17.063  23.393  1.00  0.00     0.037 C 
HETATM   44  C15 UNL     1       2.060  18.396  22.941  1.00  0.00     0.270 C 
HETATM   45  N1  UNL     1       1.664  18.727  21.576  1.00  0.00     0.083 N 
HETATM   46  C16 UNL     1       1.558  17.572  20.692  1.00  0.00     0.270 C 
HETATM   47  H15 UNL     1       2.327  19.405  21.199  1.00  0.00     0.315 HD
HETATM   48  C17 UNL     1       2.399  16.383  21.141  1.00  0.00     0.037 C 
ENDBRANCH  14  42
BRANCH   7  49
HETATM   49  O2  UNL     1       7.725  13.662  21.774  1.00  0.00    -0.359 OA
HETATM   50  H5  UNL     1       8.666  13.853  21.558  1.00  0.00     0.217 HD
ENDBRANCH   7  49
TORSDOF 7
ENDMDL
MODEL 2
REMARK minimizedAffinity -7.57351065
REMARK CNNscore 0.206075743
REMARK CNNaffinity 5.46118879
REMARK  7 active torsions:
REMARK  status: ('A' for Active; 'I' for Inactive)
REMARK    1  A    between atoms: C6_7  and  O2_8 
REMARK    2  A    between atoms: C11_15  and  C13_17 
REMARK    3  A    between atoms: C26_34  and  C27_35 
REMARK    4  A    between atoms: C27_35  and  C28_36 
REMARK    5  A    between atoms: C32_40  and  C33_41 
REMARK    6  A    between atoms: C33_41  and  N2_42 
REMARK    7  A    between atoms: C33_41  and  N3_43 
ROOT
HETATM    1  C1  UNL     1     -19.007  10.716   7.968  1.00  0.00     0.077 C 
HETATM    2  C2  UNL     1     -19.018  10.139   9.349  1.00  0.00     0.053 A 
HETATM    3  C3  UNL     1     -20.143  10.074  10.083  1.00  0.00     0.088 A 
HETATM    4  C4  UNL     1     -20.092   9.481  11.425  1.00  0.00     0.190 A 
HETATM    5  O1  UNL     1     -21.089   9.421  12.137  1.00  0.00    -0.287 OA
HETATM    6  C5  UNL     1     -18.797   8.949  11.871  1.00  0.00     0.082 A 
HETATM    7  C6  UNL     1     -18.648   8.317  13.120  1.00  0.00     0.092 A 
HETATM    8  C7  UNL     1     -17.422   7.744  13.488  1.00  0.00     0.016 A 
HETATM    9  C8  UNL     1     -16.316   7.958  12.639  1.00  0.00     0.082 A 
HETATM   10  C9  UNL     1     -16.460   8.592  11.401  1.00  0.00     0.075 A 
HETATM   11  C10 UNL     1     -17.705   9.074  11.013  1.00  0.00     0.095 A 
HETATM   12  O3  UNL     1     -17.787   9.668   9.777  1.00  0.00    -0.314 OA
HETATM   13  O4  UNL     1     -15.031   7.588  12.948  1.00  0.00    -0.337 OA
HETATM   14  C11 UNL     1     -14.684   7.357  14.337  1.00  0.00     0.095 C 
HETATM   15  C12 UNL     1     -14.172   5.896  14.405  1.00  0.00     0.050 C 
HETATM   16  C18 UNL     1     -15.887   7.549  15.325  1.00  0.00     0.175 C 
HETATM   17  O5  UNL     1     -15.570   7.015  16.613  1.00  0.00    -0.310 OA
HETATM   18  C19 UNL     1     -16.130   7.660  17.672  1.00  0.00     0.297 C 
HETATM   19  O6  UNL     1     -16.510   8.817  17.686  1.00  0.00    -0.262 OA
HETATM   20  C20 UNL     1     -16.330   6.715  18.800  1.00  0.00     0.175 A 
HETATM   21  C21 UNL     1     -17.349   5.602  18.646  1.00  0.00     0.051 C 
HETATM   22  C22 UNL     1     -17.186   4.762  17.374  1.00  0.00     0.004 C 
HETATM   23  C23 UNL     1     -18.208   5.081  16.281  1.00  0.00     0.001 C 
HETATM   24  C24 UNL     1     -18.286   6.500  15.676  1.00  0.00     0.012 C 
HETATM   25  C25 UNL     1     -17.137   6.875  14.708  1.00  0.00     0.057 C 
HETATM   26  O7  UNL     1     -16.493   7.345  20.089  1.00  0.00    -0.358 OA
HETATM   27  C26 UNL     1     -15.275   6.619  19.898  1.00  0.00     0.172 A 
ENDROOT
BRANCH  27  28
HETATM   28  C27 UNL     1     -14.058   7.498  19.983  1.00  0.00     0.074 C 
BRANCH  28  29
HETATM   29  C28 UNL     1     -13.457   7.434  21.374  1.00  0.00    -0.055 A 
HETATM   30  C29 UNL     1     -13.715   6.341  22.209  1.00  0.00     0.007 A 
HETATM   31  C30 UNL     1     -13.173   6.306  23.495  1.00  0.00     0.001 A 
HETATM   32  C31 UNL     1     -12.374   7.355  23.964  1.00  0.00     0.011 A 
HETATM   33  C32 UNL     1     -12.077   8.457  23.146  1.00  0.00     0.004 A 
HETATM   34  C34 UNL     1     -12.615   8.463  21.841  1.00  0.00     0.018 A 
BRANCH  33  35
HETATM   35  C33 UNL     1     -11.228   9.636  23.589  1.00  0.00     0.479 C 
BRANCH  35  36
HETATM   36  N2  UNL     1     -11.971  10.866  23.524  1.00  0.00     0.116 N 
HETATM   37  H37 UNL     1     -12.056  11.134  22.543  1.00  0.00     0.316 HD
HETATM   38  H38 UNL     1     -11.383  11.574  23.963  1.00  0.00     0.316 HD
ENDBRANCH  35  36
BRANCH  35  39
HETATM   39  N3  UNL     1     -10.811   9.656  24.964  1.00  0.00     0.116 N 
HETATM   40  H39 UNL     1     -11.658   9.722  25.526  1.00  0.00     0.316 HD
HETATM   41  H40 UNL     1     -10.366   8.773  25.195  1.00  0.00     0.316 HD
ENDBRANCH  35  39
ENDBRANCH  33  35
ENDBRANCH  28  29
ENDBRANCH  27  28
BRANCH  14  42
HETATM   42  C13 UNL     1     -13.484   8.316  14.685  1.00  0.00     0.026 C 
HETATM   43  C14 UNL     1     -12.146   7.910  14.008  1.00  0.00     0.037 C 
HETATM   44  C15 UNL     1     -11.770   8.812  12.838  1.00  0.00     0.270 C 
HETATM   45  N1  UNL     1     -11.589  10.198  13.258  1.00  0.00     0.083 N 
HETATM   46  C16 UNL     1     -12.496  10.619  14.320  1.00  0.00     0.270 C 
HETATM   47  H15 UNL     1     -11.690  10.802  12.442  1.00  0.00     0.315 HD
HETATM   48  C17 UNL     1     -13.779   9.801  14.384  1.00  0.00     0.037 C 
ENDBRANCH  14  42
BRANCH   7  49
HETATM   49  O2  UNL     1     -19.677   8.311  14.011  1.00  0.00    -0.359 OA
HETATM   50  H5  UNL     1     -20.471   8.737  13.614  1.00  0.00     0.217 HD
ENDBRANCH   7  49
TORSDOF 7
ENDMDL
MODEL 3
REMARK minimizedAffinity -7.19216633
REMARK CNNscore 0.15314275
REMARK CNNaffinity 5.15137815
REMARK  7 active torsions:
REMARK  status: ('A' for Active; 'I' for Inactive)
REMARK    1  A    between atoms: C6_7  and  O2_8 
REMARK    2  A    between atoms: C11_15  and  C13_17 
REMARK    3  A    between atoms: C26_34  and  C27_35 
REMARK    4  A    between atoms: C27_35  and  C28_36 
REMARK    5  A    between atoms: C32_40  and  C33_41 
REMARK    6  A    between atoms: C33_41  and  N2_42 
REMARK    7  A    between atoms: C33_41  and  N3_43 
ROOT
HETATM    1  C1  UNL     1      14.708  -7.416  -5.098  1.00  0.00     0.077 C 
HETATM    2  C2  UNL     1      15.090  -6.457  -4.014  1.00  0.00     0.053 A 
HETATM    3  C3  UNL     1      15.956  -5.451  -4.228  1.00  0.00     0.088 A 
HETATM    4  C4  UNL     1      16.278  -4.533  -3.129  1.00  0.00     0.190 A 
HETATM    5  O1  UNL     1      17.079  -3.615  -3.275  1.00  0.00    -0.287 OA
HETATM    6  C5  UNL     1      15.587  -4.753  -1.851  1.00  0.00     0.082 A 
HETATM    7  C6  UNL     1      15.786  -3.903  -0.747  1.00  0.00     0.092 A 
HETATM    8  C7  UNL     1      15.053  -4.086   0.434  1.00  0.00     0.016 A 
HETATM    9  C8  UNL     1      14.234  -5.231   0.530  1.00  0.00     0.082 A 
HETATM   10  C9  UNL     1      14.041  -6.081  -0.563  1.00  0.00     0.075 A 
HETATM   11  C10 UNL     1      14.708  -5.831  -1.758  1.00  0.00     0.095 A 
HETATM   12  O3  UNL     1      14.461  -6.690  -2.802  1.00  0.00    -0.314 OA
HETATM   13  O4  UNL     1      13.583  -5.613   1.675  1.00  0.00    -0.337 OA
HETATM   14  C11 UNL     1      14.053  -5.105   2.950  1.00  0.00     0.095 C 
HETATM   15  C12 UNL     1      12.847  -4.361   3.577  1.00  0.00     0.050 C 
HETATM   16  C18 UNL     1      15.276  -4.131   2.826  1.00  0.00     0.175 C 
HETATM   17  O5  UNL     1      15.491  -3.434   4.056  1.00  0.00    -0.310 OA
HETATM   18  C19 UNL     1      16.786  -3.130   4.342  1.00  0.00     0.297 C 
HETATM   19  O6  UNL     1      17.769  -3.708   3.912  1.00  0.00    -0.262 OA
HETATM   20  C20 UNL     1      16.853  -1.902   5.174  1.00  0.00     0.175 A 
HETATM   21  C21 UNL     1      16.439  -0.580   4.556  1.00  0.00     0.051 C 
HETATM   22  C22 UNL     1      15.063  -0.596   3.881  1.00  0.00     0.004 C 
HETATM   23  C23 UNL     1      15.120  -0.646   2.352  1.00  0.00     0.001 C 
HETATM   24  C24 UNL     1      15.802  -1.832   1.636  1.00  0.00     0.012 C 
HETATM   25  C25 UNL     1      15.010  -3.162   1.647  1.00  0.00     0.057 C 
HETATM   26  O7  UNL     1      18.092  -1.733   5.896  1.00  0.00    -0.358 OA
HETATM   27  C26 UNL     1      16.940  -2.026   6.692  1.00  0.00     0.172 A 
ENDROOT
BRANCH  27  28
HETATM   28  C27 UNL     1      17.063  -3.330   7.431  1.00  0.00     0.074 C 
BRANCH  28  29
HETATM   29  C28 UNL     1      17.798  -3.126   8.742  1.00  0.00    -0.055 A 
HETATM   30  C29 UNL     1      18.291  -1.863   9.091  1.00  0.00     0.007 A 
HETATM   31  C30 UNL     1      18.986  -1.696  10.291  1.00  0.00     0.001 A 
HETATM   32  C31 UNL     1      19.199  -2.778  11.151  1.00  0.00     0.011 A 
HETATM   33  C32 UNL     1      18.700  -4.054  10.844  1.00  0.00     0.004 A 
HETATM   34  C34 UNL     1      17.981  -4.199   9.638  1.00  0.00     0.018 A 
BRANCH  33  35
HETATM   35  C33 UNL     1      18.901  -5.276  11.722  1.00  0.00     0.479 C 
BRANCH  35  36
HETATM   36  N2  UNL     1      18.437  -5.037  13.062  1.00  0.00     0.116 N 
HETATM   37  H37 UNL     1      19.115  -4.435  13.530  1.00  0.00     0.316 HD
HETATM   38  H38 UNL     1      18.479  -5.937  13.540  1.00  0.00     0.316 HD
ENDBRANCH  35  36
BRANCH  35  39
HETATM   39  N3  UNL     1      18.138  -6.448  11.388  1.00  0.00     0.116 N 
HETATM   40  H39 UNL     1      17.157  -6.203  11.508  1.00  0.00     0.316 HD
HETATM   41  H40 UNL     1      18.274  -6.671  10.406  1.00  0.00     0.316 HD
ENDBRANCH  35  39
ENDBRANCH  33  35
ENDBRANCH  28  29
ENDBRANCH  27  28
BRANCH  14  42
HETATM   42  C13 UNL     1      14.388  -6.350   3.855  1.00  0.00     0.026 C 
HETATM   43  C14 UNL     1      14.590  -5.995   5.354  1.00  0.00     0.037 C 
HETATM   44  C15 UNL     1      13.411  -6.406   6.229  1.00  0.00     0.270 C 
HETATM   45  N1  UNL     1      13.189  -7.848   6.197  1.00  0.00     0.083 N 
HETATM   46  C16 UNL     1      13.464  -8.462   4.903  1.00  0.00     0.270 C 
HETATM   47  H15 UNL     1      12.229  -8.037   6.486  1.00  0.00     0.315 HD
HETATM   48  C17 UNL     1      13.356  -7.491   3.734  1.00  0.00     0.037 C 
ENDBRANCH  14  42
BRANCH   7  49
HETATM   49  O2  UNL     1      16.739  -2.933  -0.793  1.00  0.00    -0.359 OA
HETATM   50  H5  UNL     1      17.164  -2.917  -1.682  1.00  0.00     0.217 HD
ENDBRANCH   7  49
TORSDOF 7
ENDMDL
MODEL 4
REMARK minimizedAffinity -7.52710342
REMARK CNNscore 0.145641595
REMARK CNNaffinity 5.43471861
REMARK  7 active torsions:
REMARK  status: ('A' for Active; 'I' for Inactive)
REMARK    1  A    between atoms: C6_7  and  O2_8 
REMARK    2  A    between atoms: C11_15  and  C13_17 
REMARK    3  A    between atoms: C26_34  and  C27_35 
REMARK    4  A    between atoms: C27_35  and  C28_36 
REMARK    5  A    between atoms: C32_40  and  C33_41 
REMARK    6  A    between atoms: C33_41  and  N2_42 
REMARK    7  A    between atoms: C33_41  and  N3_43 
ROOT
HETATM    1  C1  UNL     1      -5.937 -13.776  13.222  1.00  0.00     0.077 C 
HETATM    2  C2  UNL     1      -6.827 -12.627  12.863  1.00  0.00     0.053 A 
HETATM    3  C3  UNL     1      -6.540 -11.798  11.845  1.00  0.00     0.088 A 
HETATM    4  C4  UNL     1      -7.461 -10.698  11.530  1.00  0.00     0.190 A 
HETATM    5  O1  UNL     1      -7.228  -9.906  10.624  1.00  0.00    -0.287 OA
HETATM    6  C5  UNL     1      -8.684 -10.600  12.341  1.00  0.00     0.082 A 
HETATM    7  C6  UNL     1      -9.657  -9.614  12.094  1.00  0.00     0.092 A 
HETATM    8  C7  UNL     1     -10.852  -9.592  12.827  1.00  0.00     0.016 A 
HETATM    9  C8  UNL     1     -10.974 -10.486  13.912  1.00  0.00     0.082 A 
HETATM   10  C9  UNL     1     -10.005 -11.462  14.164  1.00  0.00     0.075 A 
HETATM   11  C10 UNL     1      -8.867 -11.526  13.367  1.00  0.00     0.095 A 
HETATM   12  O3  UNL     1      -7.961 -12.520  13.652  1.00  0.00    -0.314 OA
HETATM   13  O4  UNL     1     -12.017 -10.471  14.803  1.00  0.00    -0.337 OA
HETATM   14  C11 UNL     1     -12.812  -9.264  14.928  1.00  0.00     0.095 C 
HETATM   15  C12 UNL     1     -14.268  -9.683  14.600  1.00  0.00     0.050 C 
HETATM   16  C18 UNL     1     -12.358  -8.110  13.969  1.00  0.00     0.175 C 
HETATM   17  O5  UNL     1     -13.350  -7.081  13.915  1.00  0.00    -0.310 OA
HETATM   18  C19 UNL     1     -12.879  -5.817  13.736  1.00  0.00     0.297 C 
HETATM   19  O6  UNL     1     -11.760  -5.424  14.016  1.00  0.00    -0.262 OA
HETATM   20  C20 UNL     1     -13.890  -4.988  13.033  1.00  0.00     0.175 A 
HETATM   21  C21 UNL     1     -14.222  -5.313  11.589  1.00  0.00     0.051 C 
HETATM   22  C22 UNL     1     -14.584  -6.781  11.335  1.00  0.00     0.004 C 
HETATM   23  C23 UNL     1     -13.469  -7.591  10.669  1.00  0.00     0.001 C 
HETATM   24  C24 UNL     1     -12.100  -7.752  11.364  1.00  0.00     0.012 C 
HETATM   25  C25 UNL     1     -12.076  -8.719  12.573  1.00  0.00     0.057 C 
HETATM   26  O7  UNL     1     -13.703  -3.563  13.177  1.00  0.00    -0.358 OA
HETATM   27  C26 UNL     1     -14.843  -4.115  13.843  1.00  0.00     0.172 A 
ENDROOT
BRANCH  27  28
HETATM   28  C27 UNL     1     -14.777  -3.948  15.337  1.00  0.00     0.074 C 
BRANCH  28  29
HETATM   29  C28 UNL     1     -15.368  -2.612  15.745  1.00  0.00    -0.055 A 
HETATM   30  C29 UNL     1     -16.061  -2.481  16.954  1.00  0.00     0.007 A 
HETATM   31  C30 UNL     1     -16.618  -1.250  17.306  1.00  0.00     0.001 A 
HETATM   32  C31 UNL     1     -16.497  -0.142  16.461  1.00  0.00     0.011 A 
HETATM   33  C32 UNL     1     -15.791  -0.231  15.251  1.00  0.00     0.004 A 
HETATM   34  C34 UNL     1     -15.215  -1.477  14.923  1.00  0.00     0.018 A 
BRANCH  33  35
HETATM   35  C33 UNL     1     -15.627   0.924  14.278  1.00  0.00     0.479 C 
BRANCH  35  36
HETATM   36  N2  UNL     1     -16.899   1.502  13.937  1.00  0.00     0.116 N 
HETATM   37  H37 UNL     1     -17.375   0.866  13.295  1.00  0.00     0.316 HD
HETATM   38  H38 UNL     1     -16.691   2.344  13.400  1.00  0.00     0.316 HD
ENDBRANCH  35  36
BRANCH  35  39
HETATM   39  N3  UNL     1     -14.935   2.087  14.763  1.00  0.00     0.116 N 
HETATM   40  H39 UNL     1     -15.497   2.467  15.523  1.00  0.00     0.316 HD
HETATM   41  H40 UNL     1     -14.043   1.808  15.160  1.00  0.00     0.316 HD
ENDBRANCH  35  39
ENDBRANCH  33  35
ENDBRANCH  28  29
ENDBRANCH  27  28
BRANCH  14  42
HETATM   42  C13 UNL     1     -12.756  -8.823  16.439  1.00  0.00     0.026 C 
HETATM   43  C14 UNL     1     -13.775  -7.706  16.800  1.00  0.00     0.037 C 
HETATM   44  C15 UNL     1     -14.968  -8.221  17.597  1.00  0.00     0.270 C 
HETATM   45  N1  UNL     1     -14.560  -8.802  18.872  1.00  0.00     0.083 N 
HETATM   46  C16 UNL     1     -13.283  -9.504  18.821  1.00  0.00     0.270 C 
HETATM   47  H15 UNL     1     -15.298  -9.426  19.197  1.00  0.00     0.315 HD
HETATM   48  C17 UNL     1     -12.914  -9.998  17.428  1.00  0.00     0.037 C 
ENDBRANCH  14  42
BRANCH   7  49
HETATM   49  O2  UNL     1      -9.419  -8.631  11.182  1.00  0.00    -0.359 OA
HETATM   50  H5  UNL     1      -8.551  -8.780  10.742  1.00  0.00     0.217 HD
ENDBRANCH   7  49
TORSDOF 7
ENDMDL
MODEL 5
REMARK minimizedAffinity -8.19245911
REMARK CNNscore 0.143581405
REMARK CNNaffinity 5.11410522
REMARK  7 active torsions:
REMARK  status: ('A' for Active; 'I' for Inactive)
REMARK    1  A    between atoms: C6_7  and  O2_8 
REMARK    2  A    between atoms: C11_15  and  C13_17 
REMARK    3  A    between atoms: C26_34  and  C27_35 
REMARK    4  A    between atoms: C27_35  and  C28_36 
REMARK    5  A    between atoms: C32_40  and  C33_41 
REMARK    6  A    between atoms: C33_41  and  N2_42 
REMARK    7  A    between atoms: C33_41  and  N3_43 
ROOT
HETATM    1  C1  UNL     1      14.269  13.506  16.750  1.00  0.00     0.077 C 
HETATM    2  C2  UNL     1      13.146  13.165  17.678  1.00  0.00     0.053 A 
HETATM    3  C3  UNL     1      13.353  12.506  18.832  1.00  0.00     0.088 A 
HETATM    4  C4  UNL     1      12.212  12.215  19.709  1.00  0.00     0.190 A 
HETATM    5  O1  UNL     1      12.353  11.597  20.760  1.00  0.00    -0.287 OA
HETATM    6  C5  UNL     1      10.896  12.710  19.279  1.00  0.00     0.082 A 
HETATM    7  C6  UNL     1       9.745  12.528  20.068  1.00  0.00     0.092 A 
HETATM    8  C7  UNL     1       8.518  13.081  19.675  1.00  0.00     0.016 A 
HETATM    9  C8  UNL     1       8.446  13.685  18.402  1.00  0.00     0.082 A 
HETATM   10  C9  UNL     1       9.587  13.860  17.614  1.00  0.00     0.075 A 
HETATM   11  C10 UNL     1      10.815  13.384  18.062  1.00  0.00     0.095 A 
HETATM   12  O3  UNL     1      11.903  13.605  17.252  1.00  0.00    -0.314 OA
HETATM   13  O4  UNL     1       7.281  14.128  17.830  1.00  0.00    -0.337 OA
HETATM   14  C11 UNL     1       6.018  13.606  18.318  1.00  0.00     0.095 C 
HETATM   15  C12 UNL     1       5.207  14.837  18.794  1.00  0.00     0.050 C 
HETATM   16  C18 UNL     1       6.175  12.581  19.494  1.00  0.00     0.175 C 
HETATM   17  O5  UNL     1       4.914  12.344  20.126  1.00  0.00    -0.310 OA
HETATM   18  C19 UNL     1       4.733  11.092  20.627  1.00  0.00     0.297 C 
HETATM   19  O6  UNL     1       5.310  10.084  20.261  1.00  0.00    -0.262 OA
HETATM   20  C20 UNL     1       3.803  11.132  21.784  1.00  0.00     0.175 A 
HETATM   21  C21 UNL     1       4.252  11.825  23.057  1.00  0.00     0.051 C 
HETATM   22  C22 UNL     1       4.785  13.248  22.853  1.00  0.00     0.004 C 
HETATM   23  C23 UNL     1       6.310  13.359  22.925  1.00  0.00     0.001 C 
HETATM   24  C24 UNL     1       7.196  12.578  21.931  1.00  0.00     0.012 C 
HETATM   25  C25 UNL     1       7.227  13.135  20.487  1.00  0.00     0.057 C 
HETATM   26  O7  UNL     1       3.196   9.864  22.112  1.00  0.00    -0.358 OA
HETATM   27  C26 UNL     1       2.319  10.853  21.567  1.00  0.00     0.172 A 
ENDROOT
BRANCH  27  28
HETATM   28  C27 UNL     1       1.719  10.434  20.253  1.00  0.00     0.074 C 
BRANCH  28  29
HETATM   29  C28 UNL     1       0.635  11.409  19.833  1.00  0.00    -0.055 A 
HETATM   30  C29 UNL     1       0.813  12.787  20.005  1.00  0.00     0.007 A 
HETATM   31  C30 UNL     1      -0.202  13.671  19.635  1.00  0.00     0.001 A 
HETATM   32  C31 UNL     1      -1.403  13.196  19.095  1.00  0.00     0.011 A 
HETATM   33  C32 UNL     1      -1.607  11.823  18.888  1.00  0.00     0.004 A 
HETATM   34  C34 UNL     1      -0.561  10.946  19.247  1.00  0.00     0.018 A 
BRANCH  33  35
HETATM   35  C33 UNL     1      -2.885  11.233  18.317  1.00  0.00     0.479 C 
BRANCH  35  36
HETATM   36  N2  UNL     1      -2.728  10.897  16.927  1.00  0.00     0.116 N 
HETATM   37  H37 UNL     1      -2.739  11.763  16.388  1.00  0.00     0.316 HD
HETATM   38  H38 UNL     1      -3.572  10.387  16.664  1.00  0.00     0.316 HD
ENDBRANCH  35  36
BRANCH  35  39
HETATM   39  N3  UNL     1      -3.308   9.965  18.846  1.00  0.00     0.116 N 
HETATM   40  H39 UNL     1      -2.583   9.291  18.605  1.00  0.00     0.316 HD
HETATM   41  H40 UNL     1      -3.345  10.017  19.859  1.00  0.00     0.316 HD
ENDBRANCH  35  39
ENDBRANCH  33  35
ENDBRANCH  28  29
ENDBRANCH  27  28
BRANCH  14  42
HETATM   42  C13 UNL     1       5.270  12.970  17.086  1.00  0.00     0.026 C 
HETATM   43  C14 UNL     1       6.212  12.224  16.101  1.00  0.00     0.037 C 
HETATM   44  C15 UNL     1       6.110  10.707  16.209  1.00  0.00     0.270 C 
HETATM   45  N1  UNL     1       4.766  10.231  15.897  1.00  0.00     0.083 N 
HETATM   46  C16 UNL     1       3.702  11.126  16.337  1.00  0.00     0.270 C 
HETATM   47  H15 UNL     1       4.645   9.304  16.308  1.00  0.00     0.315 HD
HETATM   48  C17 UNL     1       4.109  12.035  17.490  1.00  0.00     0.037 C 
ENDBRANCH  14  42
BRANCH   7  49
HETATM   49  O2  UNL     1       9.798  11.758  21.189  1.00  0.00    -0.359 OA
HETATM   50  H5  UNL     1      10.719  11.446  21.343  1.00  0.00     0.217 HD
ENDBRANCH   7  49
TORSDOF 7
ENDMDL
MODEL 6
REMARK minimizedAffinity -7.44452477
REMARK CNNscore 0.124410562
REMARK CNNaffinity 5.57111979
REMARK  7 active torsions:
REMARK  status: ('A' for Active; 'I' for Inactive)
REMARK    1  A    between atoms: C6_7  and  O2_8 
REMARK    2  A    between atoms: C11_15  and  C13_17 
REMARK    3  A    between atoms: C26_34  and  C27_35 
REMARK    4  A    between atoms: C27_35  and  C28_36 
REMARK    5  A    between atoms: C32_40  and  C33_41 
REMARK    6  A    between atoms: C33_41  and  N2_42 
REMARK    7  A    between atoms: C33_41  and  N3_43 
ROOT
HETATM    1  C1  UNL     1     -11.398   8.644  23.766  1.00  0.00     0.077 C 
HETATM    2  C2  UNL     1     -11.175   9.667  22.696  1.00  0.00     0.053 A 
HETATM    3  C3  UNL     1     -10.782  10.921  22.982  1.00  0.00     0.088 A 
HETATM    4  C4  UNL     1     -10.564  11.874  21.886  1.00  0.00     0.190 A 
HETATM    5  O1  UNL     1     -10.226  13.033  22.103  1.00  0.00    -0.287 OA
HETATM    6  C5  UNL     1     -10.754  11.372  20.517  1.00  0.00     0.082 A 
HETATM    7  C6  UNL     1     -10.526  12.187  19.393  1.00  0.00     0.092 A 
HETATM    8  C7  UNL     1     -10.634  11.662  18.098  1.00  0.00     0.016 A 
HETATM    9  C8  UNL     1     -11.126  10.346  17.961  1.00  0.00     0.082 A 
HETATM   10  C9  UNL     1     -11.360   9.537  19.076  1.00  0.00     0.075 A 
HETATM   11  C10 UNL     1     -11.160  10.048  20.354  1.00  0.00     0.095 A 
HETATM   12  O3  UNL     1     -11.388   9.198  21.409  1.00  0.00    -0.314 OA
HETATM   13  O4  UNL     1     -11.425   9.763  16.756  1.00  0.00    -0.337 OA
HETATM   14  C11 UNL     1     -11.662  10.614  15.606  1.00  0.00     0.095 C 
HETATM   15  C12 UNL     1     -10.619  10.186  14.542  1.00  0.00     0.050 C 
HETATM   16  C18 UNL     1     -11.514  12.144  15.915  1.00  0.00     0.175 C 
HETATM   17  O5  UNL     1     -11.452  12.899  14.702  1.00  0.00    -0.310 OA
HETATM   18  C19 UNL     1     -11.994  14.146  14.756  1.00  0.00     0.297 C 
HETATM   19  O6  UNL     1     -12.846  14.523  15.541  1.00  0.00    -0.262 OA
HETATM   20  C20 UNL     1     -11.314  15.043  13.787  1.00  0.00     0.175 A 
HETATM   21  C21 UNL     1      -9.863  15.413  14.031  1.00  0.00     0.051 C 
HETATM   22  C22 UNL     1      -8.934  14.219  14.273  1.00  0.00     0.004 C 
HETATM   23  C23 UNL     1      -8.541  14.021  15.739  1.00  0.00     0.001 C 
HETATM   24  C24 UNL     1      -9.624  13.760  16.808  1.00  0.00     0.012 C 
HETATM   25  C25 UNL     1     -10.250  12.344  16.789  1.00  0.00     0.057 C 
HETATM   26  O7  UNL     1     -12.063  16.226  13.436  1.00  0.00    -0.358 OA
HETATM   27  C26 UNL     1     -11.917  15.249  12.402  1.00  0.00     0.172 A 
ENDROOT
BRANCH  27  28
HETATM   28  C27 UNL     1     -13.235  14.676  11.957  1.00  0.00     0.074 C 
BRANCH  28  29
HETATM   29  C28 UNL     1     -13.564  15.139  10.550  1.00  0.00    -0.055 A 
HETATM   30  C29 UNL     1     -12.639  15.890   9.815  1.00  0.00     0.007 A 
HETATM   31  C30 UNL     1     -12.964  16.329   8.530  1.00  0.00     0.001 A 
HETATM   32  C31 UNL     1     -14.209  16.030   7.966  1.00  0.00     0.011 A 
HETATM   33  C32 UNL     1     -15.153  15.261   8.666  1.00  0.00     0.004 A 
HETATM   34  C34 UNL     1     -14.797  14.807   9.954  1.00  0.00     0.018 A 
BRANCH  33  35
HETATM   35  C33 UNL     1     -16.526  14.906   8.123  1.00  0.00     0.479 C 
BRANCH  35  36
HETATM   36  N2  UNL     1     -16.425  14.086   6.946  1.00  0.00     0.116 N 
HETATM   37  H37 UNL     1     -16.134  14.681   6.169  1.00  0.00     0.316 HD
HETATM   38  H38 UNL     1     -17.375  13.783   6.732  1.00  0.00     0.316 HD
ENDBRANCH  35  36
BRANCH  35  39
HETATM   39  N3  UNL     1     -17.355  14.073   8.951  1.00  0.00     0.116 N 
HETATM   40  H39 UNL     1     -16.875  13.180   9.041  1.00  0.00     0.316 HD
HETATM   41  H40 UNL     1     -17.418  14.475   9.881  1.00  0.00     0.316 HD
ENDBRANCH  35  39
ENDBRANCH  33  35
ENDBRANCH  28  29
ENDBRANCH  27  28
BRANCH  14  42
HETATM   42  C13 UNL     1     -13.097  10.267  15.056  1.00  0.00     0.026 C 
HETATM   43  C14 UNL     1     -13.128   9.990  13.527  1.00  0.00     0.037 C 
HETATM   44  C15 UNL     1     -13.275   8.510  13.191  1.00  0.00     0.270 C 
HETATM   45  N1  UNL     1     -14.520   7.956  13.712  1.00  0.00     0.083 N 
HETATM   46  C16 UNL     1     -14.929   8.518  14.994  1.00  0.00     0.270 C 
HETATM   47  H15 UNL     1     -14.423   6.943  13.781  1.00  0.00     0.315 HD
HETATM   48  C17 UNL     1     -13.773   9.096  15.801  1.00  0.00     0.037 C 
ENDBRANCH  14  42
BRANCH   7  49
HETATM   49  O2  UNL     1     -10.258  13.513  19.552  1.00  0.00    -0.359 OA
HETATM   50  H5  UNL     1     -10.204  13.735  20.510  1.00  0.00     0.217 HD
ENDBRANCH   7  49
TORSDOF 7
ENDMDL
MODEL 7
REMARK minimizedAffinity -7.58973837
REMARK CNNscore 0.115090862
REMARK CNNaffinity 4.99669218
REMARK  7 active torsions:
REMARK  status: ('A' for Active; 'I' for Inactive)
REMARK    1  A    between atoms: C6_7  and  O2_8 
REMARK    2  A    between atoms: C11_15  and  C13_17 
REMARK    3  A    between atoms: C26_34  and  C27_35 
REMARK    4  A    between atoms: C27_35  and  C28_36 
REMARK    5  A    between atoms: C32_40  and  C33_41 
REMARK    6  A    between atoms: C33_41  and  N2_42 
REMARK    7  A    between atoms: C33_41  and  N3_43 
ROOT
HETATM    1  C1  UNL     1      13.408  -7.611  -3.243  1.00  0.00     0.077 C 
HETATM    2  C2  UNL     1      14.162  -6.852  -2.196  1.00  0.00     0.053 A 
HETATM    3  C3  UNL     1      15.452  -6.510  -2.357  1.00  0.00     0.088 A 
HETATM    4  C4  UNL     1      16.133  -5.750  -1.301  1.00  0.00     0.190 A 
HETATM    5  O1  UNL     1      17.314  -5.436  -1.397  1.00  0.00    -0.287 OA
HETATM    6  C5  UNL     1      15.329  -5.370  -0.129  1.00  0.00     0.082 A 
HETATM    7  C6  UNL     1      15.869  -4.601   0.918  1.00  0.00     0.092 A 
HETATM    8  C7  UNL     1      15.061  -4.181   1.984  1.00  0.00     0.016 A 
HETATM    9  C8  UNL     1      13.743  -4.682   2.047  1.00  0.00     0.082 A 
HETATM   10  C9  UNL     1      13.207  -5.452   1.010  1.00  0.00     0.075 A 
HETATM   11  C10 UNL     1      13.999  -5.783  -0.084  1.00  0.00     0.095 A 
HETATM   12  O3  UNL     1      13.409  -6.525  -1.080  1.00  0.00    -0.314 OA
HETATM   13  O4  UNL     1      12.896  -4.478   3.106  1.00  0.00    -0.337 OA
HETATM   14  C11 UNL     1      13.459  -4.111   4.392  1.00  0.00     0.095 C 
HETATM   15  C12 UNL     1      12.812  -2.753   4.764  1.00  0.00     0.050 C 
HETATM   16  C18 UNL     1      15.021  -3.973   4.377  1.00  0.00     0.175 C 
HETATM   17  O5  UNL     1      15.480  -3.320   5.564  1.00  0.00    -0.310 OA
HETATM   18  C19 UNL     1      16.700  -3.715   6.019  1.00  0.00     0.297 C 
HETATM   19  O6  UNL     1      17.236  -4.785   5.794  1.00  0.00    -0.262 OA
HETATM   20  C20 UNL     1      17.360  -2.602   6.748  1.00  0.00     0.175 A 
HETATM   21  C21 UNL     1      17.793  -1.376   5.967  1.00  0.00     0.051 C 
HETATM   22  C22 UNL     1      16.696  -0.758   5.093  1.00  0.00     0.004 C 
HETATM   23  C23 UNL     1      16.844  -1.063   3.600  1.00  0.00     0.001 C 
HETATM   24  C24 UNL     1      16.820  -2.523   3.097  1.00  0.00     0.012 C 
HETATM   25  C25 UNL     1      15.430  -3.205   3.096  1.00  0.00     0.057 C 
HETATM   26  O7  UNL     1      18.422  -3.012   7.635  1.00  0.00    -0.358 OA
HETATM   27  C26 UNL     1      17.237  -2.520   8.266  1.00  0.00     0.172 A 
ENDROOT
BRANCH  27  28
HETATM   28  C27 UNL     1      16.562  -3.558   9.120  1.00  0.00     0.074 C 
BRANCH  28  29
HETATM   29  C28 UNL     1      17.566  -4.211  10.050  1.00  0.00    -0.055 A 
HETATM   30  C29 UNL     1      18.286  -3.441  10.971  1.00  0.00     0.007 A 
HETATM   31  C30 UNL     1      19.224  -4.053  11.806  1.00  0.00     0.001 A 
HETATM   32  C31 UNL     1      19.457  -5.430  11.731  1.00  0.00     0.011 A 
HETATM   33  C32 UNL     1      18.738  -6.236  10.835  1.00  0.00     0.004 A 
HETATM   34  C34 UNL     1      17.778  -5.604  10.015  1.00  0.00     0.018 A 
BRANCH  33  35
HETATM   35  C33 UNL     1      18.944  -7.734  10.689  1.00  0.00     0.479 C 
BRANCH  35  36
HETATM   36  N2  UNL     1      20.343  -8.066  10.647  1.00  0.00     0.116 N 
HETATM   37  H37 UNL     1      20.704  -7.801   9.730  1.00  0.00     0.316 HD
HETATM   38  H38 UNL     1      20.392  -9.084  10.689  1.00  0.00     0.316 HD
ENDBRANCH  35  36
BRANCH  35  39
HETATM   39  N3  UNL     1      18.514  -8.558  11.787  1.00  0.00     0.116 N 
HETATM   40  H39 UNL     1      19.083  -8.295  12.590  1.00  0.00     0.316 HD
HETATM   41  H40 UNL     1      17.550  -8.337  12.017  1.00  0.00     0.316 HD
ENDBRANCH  35  39
ENDBRANCH  33  35
ENDBRANCH  28  29
ENDBRANCH  27  28
BRANCH  14  42
HETATM   42  C13 UNL     1      12.979  -5.188   5.436  1.00  0.00     0.026 C 
HETATM   43  C14 UNL     1      12.576  -6.544   4.793  1.00  0.00     0.037 C 
HETATM   44  C15 UNL     1      13.612  -7.640   5.011  1.00  0.00     0.270 C 
HETATM   45  N1  UNL     1      13.811  -7.925   6.428  1.00  0.00     0.083 N 
HETATM   46  C16 UNL     1      13.710  -6.753   7.289  1.00  0.00     0.270 C 
HETATM   47  H15 UNL     1      14.718  -8.378   6.545  1.00  0.00     0.315 HD
HETATM   48  C17 UNL     1      13.998  -5.442   6.568  1.00  0.00     0.037 C 
ENDBRANCH  14  42
BRANCH   7  49
HETATM   49  O2  UNL     1      17.199  -4.309   0.939  1.00  0.00    -0.359 OA
HETATM   50  H5  UNL     1      17.635  -4.658   0.128  1.00  0.00     0.217 HD
ENDBRANCH   7  49
TORSDOF 7
ENDMDL
MODEL 8
REMARK minimizedAffinity -7.44836998
REMARK CNNscore 0.10993208
REMARK CNNaffinity 5.64103317
REMARK  7 active torsions:
REMARK  status: ('A' for Active; 'I' for Inactive)
REMARK    1  A    between atoms: C6_7  and  O2_8 
REMARK    2  A    between atoms: C11_15  and  C13_17 
REMARK    3  A    between atoms: C26_34  and  C27_35 
REMARK    4  A    between atoms: C27_35  and  C28_36 
REMARK    5  A    between atoms: C32_40  and  C33_41 
REMARK    6  A    between atoms: C33_41  and  N2_42 
REMARK    7  A    between atoms: C33_41  and  N3_43 
ROOT
HETATM    1  C1  UNL     1     -19.064  10.335   8.095  1.00  0.00     0.077 C 
HETATM    2  C2  UNL     1     -18.783  10.180   9.557  1.00  0.00     0.053 A 
HETATM    3  C3  UNL     1     -19.667  10.564  10.495  1.00  0.00     0.088 A 
HETATM    4  C4  UNL     1     -19.341  10.370  11.913  1.00  0.00     0.190 A 
HETATM    5  O1  UNL     1     -20.108  10.725  12.802  1.00  0.00    -0.287 OA
HETATM    6  C5  UNL     1     -18.059   9.717  12.220  1.00  0.00     0.082 A 
HETATM    7  C6  UNL     1     -17.670   9.440  13.543  1.00  0.00     0.092 A 
HETATM    8  C7  UNL     1     -16.482   8.743  13.805  1.00  0.00     0.016 A 
HETATM    9  C8  UNL     1     -15.626   8.471  12.717  1.00  0.00     0.082 A 
HETATM   10  C9  UNL     1     -16.008   8.752  11.403  1.00  0.00     0.075 A 
HETATM   11  C10 UNL     1     -17.232   9.363  11.155  1.00  0.00     0.095 A 
HETATM   12  O3  UNL     1     -17.560   9.594   9.841  1.00  0.00    -0.314 OA
HETATM   13  O4  UNL     1     -14.370   7.935  12.847  1.00  0.00    -0.337 OA
HETATM   14  C11 UNL     1     -13.698   8.029  14.129  1.00  0.00     0.095 C 
HETATM   15  C12 UNL     1     -13.394   6.570  14.554  1.00  0.00     0.050 C 
HETATM   16  C18 UNL     1     -14.552   8.741  15.235  1.00  0.00     0.175 C 
HETATM   17  O5  UNL     1     -13.977   8.530  16.528  1.00  0.00    -0.310 OA
HETATM   18  C19 UNL     1     -14.137   9.548  17.417  1.00  0.00     0.297 C 
HETATM   19  O6  UNL     1     -14.335  10.717  17.138  1.00  0.00    -0.262 OA
HETATM   20  C20 UNL     1     -14.156   9.019  18.804  1.00  0.00     0.175 A 
HETATM   21  C21 UNL     1     -15.323   8.151  19.238  1.00  0.00     0.051 C 
HETATM   22  C22 UNL     1     -15.625   6.977  18.300  1.00  0.00     0.004 C 
HETATM   23  C23 UNL     1     -16.849   7.192  17.407  1.00  0.00     0.001 C 
HETATM   24  C24 UNL     1     -16.889   8.370  16.409  1.00  0.00     0.012 C 
HETATM   25  C25 UNL     1     -16.003   8.206  15.150  1.00  0.00     0.057 C 
HETATM   26  O7  UNL     1     -13.877  10.001  19.825  1.00  0.00    -0.358 OA
HETATM   27  C26 UNL     1     -12.869   9.007  19.622  1.00  0.00     0.172 A 
ENDROOT
BRANCH  27  28
HETATM   28  C27 UNL     1     -11.563   9.593  19.158  1.00  0.00     0.074 C 
BRANCH  28  29
HETATM   29  C28 UNL     1     -11.068  10.629  20.149  1.00  0.00    -0.055 A 
HETATM   30  C29 UNL     1     -10.412  11.782  19.702  1.00  0.00     0.007 A 
HETATM   31  C30 UNL     1      -9.942  12.716  20.628  1.00  0.00     0.001 A 
HETATM   32  C31 UNL     1     -10.115  12.513  22.001  1.00  0.00     0.011 A 
HETATM   33  C32 UNL     1     -10.788  11.379  22.483  1.00  0.00     0.004 A 
HETATM   34  C34 UNL     1     -11.276  10.457  21.532  1.00  0.00     0.018 A 
BRANCH  33  35
HETATM   35  C33 UNL     1     -11.004  11.086  23.958  1.00  0.00     0.479 C 
BRANCH  35  36
HETATM   36  N2  UNL     1     -10.808   9.690  24.245  1.00  0.00     0.116 N 
HETATM   37  H37 UNL     1     -11.619   9.178  23.896  1.00  0.00     0.316 HD
HETATM   38  H38 UNL     1     -10.835   9.606  25.261  1.00  0.00     0.316 HD
ENDBRANCH  35  36
BRANCH  35  39
HETATM   39  N3  UNL     1     -10.073  11.675  24.881  1.00  0.00     0.116 N 
HETATM   40  H39 UNL     1      -9.160  11.276  24.670  1.00  0.00     0.316 HD
HETATM   41  H40 UNL     1     -10.011  12.674  24.708  1.00  0.00     0.316 HD
ENDBRANCH  35  39
ENDBRANCH  33  35
ENDBRANCH  28  29
ENDBRANCH  27  28
BRANCH  14  42
HETATM   42  C13 UNL     1     -12.327   8.766  13.886  1.00  0.00     0.026 C 
HETATM   43  C14 UNL     1     -12.419  10.312  14.018  1.00  0.00     0.037 C 
HETATM   44  C15 UNL     1     -11.809  10.838  15.312  1.00  0.00     0.270 C 
HETATM   45  N1  UNL     1     -10.388  10.524  15.409  1.00  0.00     0.083 N 
HETATM   46  C16 UNL     1     -10.025   9.234  14.833  1.00  0.00     0.270 C 
HETATM   47  H15 UNL     1     -10.110  10.568  16.390  1.00  0.00     0.315 HD
HETATM   48  C17 UNL     1     -11.182   8.244  14.780  1.00  0.00     0.037 C 
ENDBRANCH  14  42
BRANCH   7  49
HETATM   49  O2  UNL     1     -18.412   9.902  14.587  1.00  0.00    -0.359 OA
HETATM   50  H5  UNL     1     -19.216  10.362  14.253  1.00  0.00     0.217 HD
ENDBRANCH   7  49
TORSDOF 7
ENDMDL
MODEL 9
REMARK minimizedAffinity -7.55881596
REMARK CNNscore 0.108300246
REMARK CNNaffinity 5.77186441
REMARK  7 active torsions:
REMARK  status: ('A' for Active; 'I' for Inactive)
REMARK    1  A    between atoms: C6_7  and  O2_8 
REMARK    2  A    between atoms: C11_15  and  C13_17 
REMARK    3  A    between atoms: C26_34  and  C27_35 
REMARK    4  A    between atoms: C27_35  and  C28_36 
REMARK    5  A    between atoms: C32_40  and  C33_41 
REMARK    6  A    between atoms: C33_41  and  N2_42 
REMARK    7  A    between atoms: C33_41  and  N3_43 
ROOT
HETATM    1  C1  UNL     1      -9.671  18.234   8.876  1.00  0.00     0.077 C 
HETATM    2  C2  UNL     1      -8.892  17.842   7.659  1.00  0.00     0.053 A 
HETATM    3  C3  UNL     1      -9.482  17.287   6.586  1.00  0.00     0.088 A 
HETATM    4  C4  UNL     1      -8.666  16.940   5.415  1.00  0.00     0.190 A 
HETATM    5  O1  UNL     1      -9.160  16.413   4.424  1.00  0.00    -0.287 OA
HETATM    6  C5  UNL     1      -7.235  17.267   5.479  1.00  0.00     0.082 A 
HETATM    7  C6  UNL     1      -6.372  17.022   4.395  1.00  0.00     0.092 A 
HETATM    8  C7  UNL     1      -5.028  17.418   4.450  1.00  0.00     0.016 A 
HETATM    9  C8  UNL     1      -4.541  17.925   5.674  1.00  0.00     0.082 A 
HETATM   10  C9  UNL     1      -5.395  18.162   6.754  1.00  0.00     0.075 A 
HETATM   11  C10 UNL     1      -6.745  17.846   6.649  1.00  0.00     0.095 A 
HETATM   12  O3  UNL     1      -7.537  18.123   7.738  1.00  0.00    -0.314 OA
HETATM   13  O4  UNL     1      -3.220  18.207   5.914  1.00  0.00    -0.337 OA
HETATM   14  C11 UNL     1      -2.209  17.591   5.075  1.00  0.00     0.095 C 
HETATM   15  C12 UNL     1      -1.420  18.762   4.437  1.00  0.00     0.050 C 
HETATM   16  C18 UNL     1      -2.800  16.669   3.953  1.00  0.00     0.175 C 
HETATM   17  O5  UNL     1      -1.796  16.347   2.986  1.00  0.00    -0.310 OA
HETATM   18  C19 UNL     1      -1.907  15.120   2.409  1.00  0.00     0.297 C 
HETATM   19  O6  UNL     1      -2.477  14.154   2.885  1.00  0.00    -0.262 OA
HETATM   20  C20 UNL     1      -1.330  15.143   1.041  1.00  0.00     0.175 A 
HETATM   21  C21 UNL     1      -2.025  15.962  -0.030  1.00  0.00     0.051 C 
HETATM   22  C22 UNL     1      -2.311  17.415   0.366  1.00  0.00     0.004 C 
HETATM   23  C23 UNL     1      -3.774  17.687   0.726  1.00  0.00     0.001 C 
HETATM   24  C24 UNL     1      -4.440  16.936   1.899  1.00  0.00     0.012 C 
HETATM   25  C25 UNL     1      -4.010  17.395   3.314  1.00  0.00     0.057 C 
HETATM   26  O7  UNL     1      -0.988  13.843   0.512  1.00  0.00    -0.358 OA
HETATM   27  C26 UNL     1       0.114  14.699   0.826  1.00  0.00     0.172 A 
ENDROOT
BRANCH  27  28
HETATM   28  C27 UNL     1       0.997  14.133   1.905  1.00  0.00     0.074 C 
BRANCH  28  29
HETATM   29  C28 UNL     1       2.369  14.778   1.856  1.00  0.00    -0.055 A 
HETATM   30  C29 UNL     1       2.633  15.942   2.587  1.00  0.00     0.007 A 
HETATM   31  C30 UNL     1       3.894  16.536   2.514  1.00  0.00     0.001 A 
HETATM   32  C31 UNL     1       4.901  15.984   1.715  1.00  0.00     0.011 A 
HETATM   33  C32 UNL     1       4.678  14.806   0.985  1.00  0.00     0.004 A 
HETATM   34  C34 UNL     1       3.404  14.206   1.089  1.00  0.00     0.018 A 
BRANCH  33  35
HETATM   35  C33 UNL     1       5.717  14.154   0.089  1.00  0.00     0.479 C 
BRANCH  35  36
HETATM   36  N2  UNL     1       6.497  13.187   0.814  1.00  0.00     0.116 N 
HETATM   37  H37 UNL     1       7.150  13.692   1.415  1.00  0.00     0.316 HD
HETATM   38  H38 UNL     1       7.066  12.706   0.118  1.00  0.00     0.316 HD
ENDBRANCH  35  36
BRANCH  35  39
HETATM   39  N3  UNL     1       5.226  13.338  -0.987  1.00  0.00     0.116 N 
HETATM   40  H39 UNL     1       4.728  12.559  -0.560  1.00  0.00     0.316 HD
HETATM   41  H40 UNL     1       4.549  13.866  -1.530  1.00  0.00     0.316 HD
ENDBRANCH  35  39
ENDBRANCH  33  35
ENDBRANCH  28  29
ENDBRANCH  27  28
BRANCH  14  42
HETATM   42  C13 UNL     1      -1.233  16.800   6.025  1.00  0.00     0.026 C 
HETATM   43  C14 UNL     1      -1.540  15.279   6.107  1.00  0.00     0.037 C 
HETATM   44  C15 UNL     1      -0.544  14.426   5.331  1.00  0.00     0.270 C 
HETATM   45  N1  UNL     1       0.814  14.576   5.841  1.00  0.00     0.083 N 
HETATM   46  C16 UNL     1       1.126  15.922   6.311  1.00  0.00     0.270 C 
HETATM   47  H15 UNL     1       1.470  14.291   5.113  1.00  0.00     0.315 HD
HETATM   48  C17 UNL     1       0.258  17.003   5.679  1.00  0.00     0.037 C 
ENDBRANCH  14  42
BRANCH   7  49
HETATM   49  O2  UNL     1      -6.818  16.339   3.306  1.00  0.00    -0.359 OA
HETATM   50  H5  UNL     1      -7.777  16.134   3.403  1.00  0.00     0.217 HD
ENDBRANCH   7  49
TORSDOF 7
ENDMDL
