MODEL 1
REMARK minimizedAffinity -9.61230183
REMARK  6 active torsions:
REMARK  status: ('A' for Active; 'I' for Inactive)
REMARK    1  A    between atoms: C2_2  and  C30_32 
REMARK    2  A    between atoms: C3_3  and  C4_4 
REMARK    3  A    between atoms: C4_4  and  C5_6 
REMARK    4  A    between atoms: C5_6  and  C6_7 
REMARK    5  A    between atoms: C6_7  and  C8_9 
REMARK    6  A    between atoms: C30_32  and  O4_34 
ROOT
HETATM    1  C8  UNL     1      -0.272  51.405 -21.135  1.00  0.00    -0.001 C 
HETATM    2  C9  UNL     1      -0.690  52.134 -19.823  1.00  0.00     0.007 C 
HETATM    3  C10 UNL     1      -2.089  51.626 -19.434  1.00  0.00     0.015 C 
HETATM    4  C11 UNL     1      -2.310  50.379 -20.313  1.00  0.00    -0.013 C 
HETATM    5  C12 UNL     1      -1.602  49.200 -19.577  1.00  0.00     0.021 C 
HETATM    6  C13 UNL     1      -3.739  49.919 -20.565  1.00  0.00    -0.070 C 
HETATM    7  C14 UNL     1      -4.773  50.225 -19.761  1.00  0.00    -0.022 C 
HETATM    8  C15 UNL     1      -6.142  49.664 -19.997  1.00  0.00     0.034 C 
HETATM    9  C16 UNL     1      -5.999  48.203 -20.452  1.00  0.00     0.013 C 
HETATM   10  C17 UNL     1      -7.315  47.366 -20.400  1.00  0.00     0.018 C 
HETATM   11  C18 UNL     1      -7.584  46.900 -18.953  1.00  0.00     0.023 C 
HETATM   12  C19 UNL     1      -8.558  48.143 -20.874  1.00  0.00     0.023 C 
HETATM   13  C20 UNL     1      -7.147  46.093 -21.240  1.00  0.00     0.135 C 
HETATM   14  O2  UNL     1      -8.116  45.463 -21.669  1.00  0.00    -0.297 OA
HETATM   15  C21 UNL     1      -5.745  45.557 -21.439  1.00  0.00     0.080 C 
HETATM   16  C22 UNL     1      -4.705  46.606 -21.847  1.00  0.00     0.017 C 
HETATM   17  C23 UNL     1      -5.189  48.079 -21.794  1.00  0.00    -0.031 C 
HETATM   18  C24 UNL     1      -6.049  48.347 -23.058  1.00  0.00     0.016 C 
HETATM   19  C25 UNL     1      -3.995  49.140 -21.858  1.00  0.00     0.024 C 
HETATM   20  C26 UNL     1      -2.707  48.631 -22.548  1.00  0.00     0.010 C 
HETATM   21  C27 UNL     1      -1.531  49.632 -22.619  1.00  0.00     0.011 C 
HETATM   22  C28 UNL     1      -1.635  50.835 -21.656  1.00  0.00    -0.029 C 
HETATM   23  C29 UNL     1      -2.410  51.985 -22.375  1.00  0.00     0.016 C 
ENDROOT
BRANCH   1  24
HETATM   24  C6  UNL     1       0.588  52.312 -22.061  1.00  0.00    -0.007 C 
HETATM   25  C7  UNL     1       1.079  53.575 -21.345  1.00  0.00     0.011 C 
BRANCH  24  26
HETATM   26  C5  UNL     1      -0.212  52.738 -23.316  1.00  0.00     0.087 C 
BRANCH  26  27
HETATM   27  C4  UNL     1       0.699  53.271 -24.407  1.00  0.00     0.150 C 
HETATM   28  O1  UNL     1       1.234  54.374 -24.328  1.00  0.00    -0.293 OA
BRANCH  27  29
HETATM   29  C3  UNL     1       0.969  52.367 -25.562  1.00  0.00     0.063 C 
HETATM   30  C2  UNL     1       0.560  52.613 -26.819  1.00  0.00     0.015 C 
HETATM   31  C1  UNL     1       0.934  51.746 -27.980  1.00  0.00     0.055 C 
BRANCH  30  32
HETATM   32  C30 UNL     1      -0.285  53.770 -27.168  1.00  0.00     0.171 C 
HETATM   33  O3  UNL     1       0.093  54.923 -27.254  1.00  0.00    -0.646 OA
BRANCH  32  34
HETATM   34  O4  UNL     1      -1.527  53.396 -27.520  1.00  0.00    -0.773 OA
HETATM   35  H44 UNL     1      -1.988  54.246 -27.670  1.00  0.00     0.167 HD
ENDBRANCH  32  34
ENDBRANCH  30  32
ENDBRANCH  27  29
ENDBRANCH  26  27
ENDBRANCH  24  26
ENDBRANCH   1  24
TORSDOF 6
ENDMDL
MODEL 2
REMARK minimizedAffinity -9.29635334
REMARK  6 active torsions:
REMARK  status: ('A' for Active; 'I' for Inactive)
REMARK    1  A    between atoms: C2_2  and  C30_32 
REMARK    2  A    between atoms: C3_3  and  C4_4 
REMARK    3  A    between atoms: C4_4  and  C5_6 
REMARK    4  A    between atoms: C5_6  and  C6_7 
REMARK    5  A    between atoms: C6_7  and  C8_9 
REMARK    6  A    between atoms: C30_32  and  O4_34 
ROOT
HETATM    1  C8  UNL     1      -0.701  50.787 -22.696  1.00  0.00    -0.001 C 
HETATM    2  C9  UNL     1      -0.138  51.199 -21.302  1.00  0.00     0.007 C 
HETATM    3  C10 UNL     1      -1.051  50.579 -20.230  1.00  0.00     0.015 C 
HETATM    4  C11 UNL     1      -1.907  49.549 -20.994  1.00  0.00    -0.013 C 
HETATM    5  C12 UNL     1      -1.039  48.258 -21.100  1.00  0.00     0.021 C 
HETATM    6  C13 UNL     1      -3.231  49.116 -20.382  1.00  0.00    -0.070 C 
HETATM    7  C14 UNL     1      -3.511  49.209 -19.069  1.00  0.00    -0.022 C 
HETATM    8  C15 UNL     1      -4.790  48.675 -18.500  1.00  0.00     0.034 C 
HETATM    9  C16 UNL     1      -5.126  47.354 -19.210  1.00  0.00     0.013 C 
HETATM   10  C17 UNL     1      -6.219  46.490 -18.508  1.00  0.00     0.018 C 
HETATM   11  C18 UNL     1      -5.596  45.710 -17.330  1.00  0.00     0.023 C 
HETATM   12  C19 UNL     1      -7.391  47.317 -17.946  1.00  0.00     0.023 C 
HETATM   13  C20 UNL     1      -6.749  45.436 -19.490  1.00  0.00     0.135 C 
HETATM   14  O2  UNL     1      -7.843  44.889 -19.330  1.00  0.00    -0.297 OA
HETATM   15  C21 UNL     1      -5.838  44.997 -20.616  1.00  0.00     0.080 C 
HETATM   16  C22 UNL     1      -5.155  46.138 -21.376  1.00  0.00     0.017 C 
HETATM   17  C23 UNL     1      -5.330  47.550 -20.757  1.00  0.00    -0.031 C 
HETATM   18  C24 UNL     1      -6.747  48.065 -21.130  1.00  0.00     0.016 C 
HETATM   19  C25 UNL     1      -4.315  48.632 -21.350  1.00  0.00     0.024 C 
HETATM   20  C26 UNL     1      -3.790  48.323 -22.773  1.00  0.00     0.010 C 
HETATM   21  C27 UNL     1      -2.799  49.348 -23.371  1.00  0.00     0.011 C 
HETATM   22  C28 UNL     1      -2.150  50.307 -22.349  1.00  0.00    -0.029 C 
HETATM   23  C29 UNL     1      -3.064  51.565 -22.194  1.00  0.00     0.016 C 
ENDROOT
BRANCH   1  24
HETATM   24  C6  UNL     1      -0.492  51.899 -23.764  1.00  0.00    -0.007 C 
HETATM   25  C7  UNL     1       0.501  52.971 -23.301  1.00  0.00     0.011 C 
BRANCH  24  26
HETATM   26  C5  UNL     1      -1.833  52.589 -24.113  1.00  0.00     0.087 C 
BRANCH  26  27
HETATM   27  C4  UNL     1      -2.223  52.354 -25.562  1.00  0.00     0.150 C 
HETATM   28  O1  UNL     1      -3.323  52.678 -26.000  1.00  0.00    -0.293 OA
BRANCH  27  29
HETATM   29  C3  UNL     1      -1.184  51.764 -26.453  1.00  0.00     0.063 C 
HETATM   30  C2  UNL     1      -0.508  52.461 -27.382  1.00  0.00     0.015 C 
HETATM   31  C1  UNL     1       0.605  51.872 -28.191  1.00  0.00     0.055 C 
BRANCH  30  32
HETATM   32  C30 UNL     1      -0.794  53.876 -27.679  1.00  0.00     0.171 C 
HETATM   33  O3  UNL     1      -0.094  54.822 -27.368  1.00  0.00    -0.646 OA
BRANCH  32  34
HETATM   34  O4  UNL     1      -1.876  54.015 -28.465  1.00  0.00    -0.773 OA
HETATM   35  H44 UNL     1      -1.984  54.985 -28.537  1.00  0.00     0.167 HD
ENDBRANCH  32  34
ENDBRANCH  30  32
ENDBRANCH  27  29
ENDBRANCH  26  27
ENDBRANCH  24  26
ENDBRANCH   1  24
TORSDOF 6
ENDMDL
MODEL 3
REMARK minimizedAffinity -9.2693119
REMARK  6 active torsions:
REMARK  status: ('A' for Active; 'I' for Inactive)
REMARK    1  A    between atoms: C2_2  and  C30_32 
REMARK    2  A    between atoms: C3_3  and  C4_4 
REMARK    3  A    between atoms: C4_4  and  C5_6 
REMARK    4  A    between atoms: C5_6  and  C6_7 
REMARK    5  A    between atoms: C6_7  and  C8_9 
REMARK    6  A    between atoms: C30_32  and  O4_34 
ROOT
HETATM    1  C8  UNL     1       5.926  66.013 -35.049  1.00  0.00    -0.001 C 
HETATM    2  C9  UNL     1       7.045  66.770 -35.826  1.00  0.00     0.007 C 
HETATM    3  C10 UNL     1       6.398  67.408 -37.068  1.00  0.00     0.015 C 
HETATM    4  C11 UNL     1       4.881  67.309 -36.812  1.00  0.00    -0.013 C 
HETATM    5  C12 UNL     1       4.514  68.528 -35.909  1.00  0.00     0.021 C 
HETATM    6  C13 UNL     1       3.942  67.375 -38.008  1.00  0.00    -0.070 C 
HETATM    7  C14 UNL     1       4.274  67.935 -39.185  1.00  0.00    -0.022 C 
HETATM    8  C15 UNL     1       3.280  68.066 -40.299  1.00  0.00     0.034 C 
HETATM    9  C16 UNL     1       1.915  68.429 -39.695  1.00  0.00     0.013 C 
HETATM   10  C17 UNL     1       0.859  68.947 -40.720  1.00  0.00     0.018 C 
HETATM   11  C18 UNL     1       1.123  70.434 -41.041  1.00  0.00     0.023 C 
HETATM   12  C19 UNL     1       0.867  68.178 -42.054  1.00  0.00     0.023 C 
HETATM   13  C20 UNL     1      -0.540  68.884 -40.092  1.00  0.00     0.135 C 
HETATM   14  O2  UNL     1      -1.563  68.873 -40.780  1.00  0.00    -0.297 OA
HETATM   15  C21 UNL     1      -0.641  68.949 -38.583  1.00  0.00     0.080 C 
HETATM   16  C22 UNL     1       0.323  68.025 -37.831  1.00  0.00     0.017 C 
HETATM   17  C23 UNL     1       1.392  67.322 -38.709  1.00  0.00    -0.031 C 
HETATM   18  C24 UNL     1       0.710  66.128 -39.430  1.00  0.00     0.016 C 
HETATM   19  C25 UNL     1       2.585  66.682 -37.860  1.00  0.00     0.024 C 
HETATM   20  C26 UNL     1       2.224  66.316 -36.400  1.00  0.00     0.010 C 
HETATM   21  C27 UNL     1       3.361  65.701 -35.552  1.00  0.00     0.011 C 
HETATM   22  C28 UNL     1       4.785  65.905 -36.115  1.00  0.00    -0.029 C 
HETATM   23  C29 UNL     1       5.116  64.717 -37.075  1.00  0.00     0.016 C 
ENDROOT
BRANCH   1  24
HETATM   24  C6  UNL     1       6.461  64.726 -34.358  1.00  0.00    -0.007 C 
HETATM   25  C7  UNL     1       7.976  64.775 -34.128  1.00  0.00     0.011 C 
BRANCH  24  26
HETATM   26  C5  UNL     1       6.132  63.469 -35.201  1.00  0.00     0.087 C 
BRANCH  26  27
HETATM   27  C4  UNL     1       5.543  62.361 -34.347  1.00  0.00     0.150 C 
HETATM   28  O1  UNL     1       4.863  62.596 -33.351  1.00  0.00    -0.293 OA
BRANCH  27  29
HETATM   29  C3  UNL     1       5.776  60.961 -34.804  1.00  0.00     0.063 C 
HETATM   30  C2  UNL     1       6.987  60.378 -34.850  1.00  0.00     0.015 C 
HETATM   31  C1  UNL     1       7.183  58.939 -35.210  1.00  0.00     0.055 C 
BRANCH  30  32
HETATM   32  C30 UNL     1       8.231  61.104 -34.536  1.00  0.00     0.171 C 
HETATM   33  O3  UNL     1       8.669  61.310 -33.419  1.00  0.00    -0.646 OA
BRANCH  32  34
HETATM   34  O4  UNL     1       8.924  61.414 -35.645  1.00  0.00    -0.773 OA
HETATM   35  H44 UNL     1       9.683  61.931 -35.303  1.00  0.00     0.167 HD
ENDBRANCH  32  34
ENDBRANCH  30  32
ENDBRANCH  27  29
ENDBRANCH  26  27
ENDBRANCH  24  26
ENDBRANCH   1  24
TORSDOF 6
ENDMDL
MODEL 4
REMARK minimizedAffinity -9.15469456
REMARK  6 active torsions:
REMARK  status: ('A' for Active; 'I' for Inactive)
REMARK    1  A    between atoms: C2_2  and  C30_32 
REMARK    2  A    between atoms: C3_3  and  C4_4 
REMARK    3  A    between atoms: C4_4  and  C5_6 
REMARK    4  A    between atoms: C5_6  and  C6_7 
REMARK    5  A    between atoms: C6_7  and  C8_9 
REMARK    6  A    between atoms: C30_32  and  O4_34 
ROOT
HETATM    1  C8  UNL     1      -1.291  50.598 -22.705  1.00  0.00    -0.001 C 
HETATM    2  C9  UNL     1      -0.527  50.297 -21.381  1.00  0.00     0.007 C 
HETATM    3  C10 UNL     1      -1.457  49.455 -20.490  1.00  0.00     0.015 C 
HETATM    4  C11 UNL     1      -2.588  48.993 -21.430  1.00  0.00    -0.013 C 
HETATM    5  C12 UNL     1      -2.045  47.734 -22.173  1.00  0.00     0.021 C 
HETATM    6  C13 UNL     1      -3.915  48.577 -20.813  1.00  0.00    -0.070 C 
HETATM    7  C14 UNL     1      -4.047  48.167 -19.538  1.00  0.00    -0.022 C 
HETATM    8  C15 UNL     1      -5.358  47.672 -19.007  1.00  0.00     0.034 C 
HETATM    9  C16 UNL     1      -6.045  46.839 -20.100  1.00  0.00     0.013 C 
HETATM   10  C17 UNL     1      -7.237  45.961 -19.607  1.00  0.00     0.018 C 
HETATM   11  C18 UNL     1      -6.702  44.672 -18.948  1.00  0.00     0.023 C 
HETATM   12  C19 UNL     1      -8.137  46.669 -18.577  1.00  0.00     0.023 C 
HETATM   13  C20 UNL     1      -8.077  45.514 -20.811  1.00  0.00     0.135 C 
HETATM   14  O2  UNL     1      -9.246  45.143 -20.688  1.00  0.00    -0.297 OA
HETATM   15  C21 UNL     1      -7.392  45.430 -22.159  1.00  0.00     0.080 C 
HETATM   16  C22 UNL     1      -6.541  46.649 -22.527  1.00  0.00     0.017 C 
HETATM   17  C23 UNL     1      -6.338  47.687 -21.391  1.00  0.00    -0.031 C 
HETATM   18  C24 UNL     1      -7.629  48.542 -21.286  1.00  0.00     0.016 C 
HETATM   19  C25 UNL     1      -5.162  48.727 -21.689  1.00  0.00     0.024 C 
HETATM   20  C26 UNL     1      -4.850  48.949 -23.189  1.00  0.00     0.010 C 
HETATM   21  C27 UNL     1      -3.712  49.945 -23.508  1.00  0.00     0.011 C 
HETATM   22  C28 UNL     1      -2.774  50.272 -22.324  1.00  0.00    -0.029 C 
HETATM   23  C29 UNL     1      -3.364  51.489 -21.542  1.00  0.00     0.016 C 
ENDROOT
BRANCH   1  24
HETATM   24  C6  UNL     1      -0.934  51.998 -23.282  1.00  0.00    -0.007 C 
HETATM   25  C7  UNL     1      -1.872  52.416 -24.420  1.00  0.00     0.011 C 
BRANCH  24  26
HETATM   26  C5  UNL     1       0.521  52.023 -23.811  1.00  0.00     0.087 C 
BRANCH  26  27
HETATM   27  C4  UNL     1       0.718  53.106 -24.856  1.00  0.00     0.150 C 
HETATM   28  O1  UNL     1       1.192  54.204 -24.575  1.00  0.00    -0.293 OA
BRANCH  27  29
HETATM   29  C3  UNL     1       0.367  52.758 -26.262  1.00  0.00     0.063 C 
HETATM   30  C2  UNL     1       1.167  52.058 -27.085  1.00  0.00     0.015 C 
HETATM   31  C1  UNL     1       0.748  51.629 -28.456  1.00  0.00     0.055 C 
BRANCH  30  32
HETATM   32  C30 UNL     1       2.527  51.636 -26.703  1.00  0.00     0.171 C 
HETATM   33  O3  UNL     1       2.801  50.702 -25.973  1.00  0.00    -0.646 OA
BRANCH  32  34
HETATM   34  O4  UNL     1       3.470  52.329 -27.363  1.00  0.00    -0.773 OA
HETATM   35  H44 UNL     1       4.308  51.995 -26.982  1.00  0.00     0.167 HD
ENDBRANCH  32  34
ENDBRANCH  30  32
ENDBRANCH  27  29
ENDBRANCH  26  27
ENDBRANCH  24  26
ENDBRANCH   1  24
TORSDOF 6
ENDMDL
MODEL 5
REMARK minimizedAffinity -9.01916504
REMARK  6 active torsions:
REMARK  status: ('A' for Active; 'I' for Inactive)
REMARK    1  A    between atoms: C2_2  and  C30_32 
REMARK    2  A    between atoms: C3_3  and  C4_4 
REMARK    3  A    between atoms: C4_4  and  C5_6 
REMARK    4  A    between atoms: C5_6  and  C6_7 
REMARK    5  A    between atoms: C6_7  and  C8_9 
REMARK    6  A    between atoms: C30_32  and  O4_34 
ROOT
HETATM    1  C8  UNL     1      -2.361  50.981 -23.550  1.00  0.00    -0.001 C 
HETATM    2  C9  UNL     1      -2.395  49.901 -24.673  1.00  0.00     0.007 C 
HETATM    3  C10 UNL     1      -3.347  48.783 -24.213  1.00  0.00     0.015 C 
HETATM    4  C11 UNL     1      -4.106  49.385 -23.014  1.00  0.00    -0.013 C 
HETATM    5  C12 UNL     1      -5.273  50.226 -23.618  1.00  0.00     0.021 C 
HETATM    6  C13 UNL     1      -4.748  48.432 -22.016  1.00  0.00    -0.070 C 
HETATM    7  C14 UNL     1      -5.082  47.162 -22.307  1.00  0.00    -0.022 C 
HETATM    8  C15 UNL     1      -5.804  46.296 -21.320  1.00  0.00     0.034 C 
HETATM    9  C16 UNL     1      -6.841  47.156 -20.582  1.00  0.00     0.013 C 
HETATM   10  C17 UNL     1      -7.914  46.352 -19.783  1.00  0.00     0.018 C 
HETATM   11  C18 UNL     1      -9.008  45.838 -20.743  1.00  0.00     0.023 C 
HETATM   12  C19 UNL     1      -7.340  45.131 -19.040  1.00  0.00     0.023 C 
HETATM   13  C20 UNL     1      -8.617  47.285 -18.787  1.00  0.00     0.135 C 
HETATM   14  O2  UNL     1      -9.217  46.851 -17.801  1.00  0.00    -0.297 OA
HETATM   15  C21 UNL     1      -8.652  48.764 -19.107  1.00  0.00     0.080 C 
HETATM   16  C22 UNL     1      -7.310  49.362 -19.541  1.00  0.00     0.017 C 
HETATM   17  C23 UNL     1      -6.172  48.337 -19.789  1.00  0.00    -0.031 C 
HETATM   18  C24 UNL     1      -5.606  47.907 -18.409  1.00  0.00     0.016 C 
HETATM   19  C25 UNL     1      -4.931  48.950 -20.586  1.00  0.00     0.024 C 
HETATM   20  C26 UNL     1      -4.759  50.482 -20.449  1.00  0.00     0.010 C 
HETATM   21  C27 UNL     1      -3.570  51.106 -21.215  1.00  0.00     0.011 C 
HETATM   22  C28 UNL     1      -2.966  50.217 -22.325  1.00  0.00    -0.029 C 
HETATM   23  C29 UNL     1      -1.847  49.325 -21.696  1.00  0.00     0.016 C 
ENDROOT
BRANCH   1  24
HETATM   24  C6  UNL     1      -0.963  51.653 -23.426  1.00  0.00    -0.007 C 
HETATM   25  C7  UNL     1      -0.549  51.870 -21.965  1.00  0.00     0.011 C 
BRANCH  24  26
HETATM   26  C5  UNL     1      -0.941  53.020 -24.151  1.00  0.00     0.087 C 
BRANCH  26  27
HETATM   27  C4  UNL     1       0.399  53.280 -24.816  1.00  0.00     0.150 C 
HETATM   28  O1  UNL     1       1.182  54.128 -24.395  1.00  0.00    -0.293 OA
BRANCH  27  29
HETATM   29  C3  UNL     1       0.756  52.414 -25.976  1.00  0.00     0.063 C 
HETATM   30  C2  UNL     1       0.258  52.574 -27.214  1.00  0.00     0.015 C 
HETATM   31  C1  UNL     1       0.712  51.761 -28.385  1.00  0.00     0.055 C 
BRANCH  30  32
HETATM   32  C30 UNL     1      -0.772  53.580 -27.532  1.00  0.00     0.171 C 
HETATM   33  O3  UNL     1      -1.969  53.371 -27.603  1.00  0.00    -0.646 OA
BRANCH  32  34
HETATM   34  O4  UNL     1      -0.256  54.818 -27.615  1.00  0.00    -0.773 OA
HETATM   35  H44 UNL     1      -1.021  55.368 -27.881  1.00  0.00     0.167 HD
ENDBRANCH  32  34
ENDBRANCH  30  32
ENDBRANCH  27  29
ENDBRANCH  26  27
ENDBRANCH  24  26
ENDBRANCH   1  24
TORSDOF 6
ENDMDL
MODEL 6
REMARK minimizedAffinity -8.95201206
REMARK  6 active torsions:
REMARK  status: ('A' for Active; 'I' for Inactive)
REMARK    1  A    between atoms: C2_2  and  C30_32 
REMARK    2  A    between atoms: C3_3  and  C4_4 
REMARK    3  A    between atoms: C4_4  and  C5_6 
REMARK    4  A    between atoms: C5_6  and  C6_7 
REMARK    5  A    between atoms: C6_7  and  C8_9 
REMARK    6  A    between atoms: C30_32  and  O4_34 
ROOT
HETATM    1  C8  UNL     1      -1.758  50.990 -21.757  1.00  0.00    -0.001 C 
HETATM    2  C9  UNL     1      -3.107  50.224 -21.898  1.00  0.00     0.007 C 
HETATM    3  C10 UNL     1      -3.388  49.528 -20.554  1.00  0.00     0.015 C 
HETATM    4  C11 UNL     1      -2.397  50.173 -19.565  1.00  0.00    -0.013 C 
HETATM    5  C12 UNL     1      -3.061  51.503 -19.093  1.00  0.00     0.021 C 
HETATM    6  C13 UNL     1      -2.043  49.408 -18.298  1.00  0.00    -0.070 C 
HETATM    7  C14 UNL     1      -2.823  48.452 -17.763  1.00  0.00    -0.022 C 
HETATM    8  C15 UNL     1      -2.479  47.799 -16.458  1.00  0.00     0.034 C 
HETATM    9  C16 UNL     1      -1.907  48.867 -15.513  1.00  0.00     0.013 C 
HETATM   10  C17 UNL     1      -1.829  48.445 -14.013  1.00  0.00     0.018 C 
HETATM   11  C18 UNL     1      -3.217  48.589 -13.353  1.00  0.00     0.023 C 
HETATM   12  C19 UNL     1      -1.368  46.990 -13.807  1.00  0.00     0.023 C 
HETATM   13  C20 UNL     1      -0.892  49.399 -13.260  1.00  0.00     0.135 C 
HETATM   14  O2  UNL     1      -0.368  49.085 -12.189  1.00  0.00    -0.297 OA
HETATM   15  C21 UNL     1      -0.711  50.797 -13.813  1.00  0.00     0.080 C 
HETATM   16  C22 UNL     1      -0.441  50.864 -15.320  1.00  0.00     0.017 C 
HETATM   17  C23 UNL     1      -0.598  49.523 -16.085  1.00  0.00    -0.031 C 
HETATM   18  C24 UNL     1       0.676  48.674 -15.831  1.00  0.00     0.016 C 
HETATM   19  C25 UNL     1      -0.678  49.705 -17.671  1.00  0.00     0.024 C 
HETATM   20  C26 UNL     1      -0.005  50.989 -18.215  1.00  0.00     0.010 C 
HETATM   21  C27 UNL     1      -0.073  51.197 -19.745  1.00  0.00     0.011 C 
HETATM   22  C28 UNL     1      -1.130  50.341 -20.478  1.00  0.00    -0.029 C 
HETATM   23  C29 UNL     1      -0.477  48.981 -20.882  1.00  0.00     0.016 C 
ENDROOT
BRANCH   1  24
HETATM   24  C6  UNL     1      -0.952  51.006 -23.088  1.00  0.00    -0.007 C 
HETATM   25  C7  UNL     1      -0.207  52.329 -23.301  1.00  0.00     0.011 C 
BRANCH  24  26
HETATM   26  C5  UNL     1      -1.883  50.766 -24.300  1.00  0.00     0.087 C 
BRANCH  26  27
HETATM   27  C4  UNL     1      -1.609  51.752 -25.421  1.00  0.00     0.150 C 
HETATM   28  O1  UNL     1      -2.144  52.858 -25.461  1.00  0.00    -0.293 OA
BRANCH  27  29
HETATM   29  C3  UNL     1      -0.610  51.345 -26.450  1.00  0.00     0.063 C 
HETATM   30  C2  UNL     1       0.100  52.212 -27.192  1.00  0.00     0.015 C 
HETATM   31  C1  UNL     1       1.173  51.782 -28.141  1.00  0.00     0.055 C 
BRANCH  30  32
HETATM   32  C30 UNL     1      -0.108  53.670 -27.127  1.00  0.00     0.171 C 
HETATM   33  O3  UNL     1      -0.847  54.314 -27.849  1.00  0.00    -0.646 OA
BRANCH  32  34
HETATM   34  O4  UNL     1       0.521  54.220 -26.075  1.00  0.00    -0.773 OA
HETATM   35  H44 UNL     1       0.351  55.179 -26.181  1.00  0.00     0.167 HD
ENDBRANCH  32  34
ENDBRANCH  30  32
ENDBRANCH  27  29
ENDBRANCH  26  27
ENDBRANCH  24  26
ENDBRANCH   1  24
TORSDOF 6
ENDMDL
MODEL 7
REMARK minimizedAffinity -8.95066738
REMARK  6 active torsions:
REMARK  status: ('A' for Active; 'I' for Inactive)
REMARK    1  A    between atoms: C2_2  and  C30_32 
REMARK    2  A    between atoms: C3_3  and  C4_4 
REMARK    3  A    between atoms: C4_4  and  C5_6 
REMARK    4  A    between atoms: C5_6  and  C6_7 
REMARK    5  A    between atoms: C6_7  and  C8_9 
REMARK    6  A    between atoms: C30_32  and  O4_34 
ROOT
HETATM    1  C8  UNL     1      -0.520  50.152 -18.037  1.00  0.00    -0.001 C 
HETATM    2  C9  UNL     1      -1.593  49.023 -17.964  1.00  0.00     0.007 C 
HETATM    3  C10 UNL     1      -2.209  48.877 -19.366  1.00  0.00     0.015 C 
HETATM    4  C11 UNL     1      -1.261  49.663 -20.293  1.00  0.00    -0.013 C 
HETATM    5  C12 UNL     1      -0.087  48.694 -20.633  1.00  0.00     0.021 C 
HETATM    6  C13 UNL     1      -1.801  50.153 -21.629  1.00  0.00    -0.070 C 
HETATM    7  C14 UNL     1      -2.862  49.604 -22.250  1.00  0.00    -0.022 C 
HETATM    8  C15 UNL     1      -3.293  50.057 -23.612  1.00  0.00     0.034 C 
HETATM    9  C16 UNL     1      -2.038  50.337 -24.453  1.00  0.00     0.013 C 
HETATM   10  C17 UNL     1      -2.291  50.472 -25.987  1.00  0.00     0.018 C 
HETATM   11  C18 UNL     1      -2.418  49.071 -26.624  1.00  0.00     0.023 C 
HETATM   12  C19 UNL     1      -3.571  51.255 -26.333  1.00  0.00     0.023 C 
HETATM   13  C20 UNL     1      -1.078  51.139 -26.650  1.00  0.00     0.135 C 
HETATM   14  O2  UNL     1      -1.160  51.693 -27.748  1.00  0.00    -0.297 OA
HETATM   15  C21 UNL     1       0.266  51.002 -25.967  1.00  0.00     0.080 C 
HETATM   16  C22 UNL     1       0.257  51.289 -24.462  1.00  0.00     0.017 C 
HETATM   17  C23 UNL     1      -1.147  51.471 -23.827  1.00  0.00    -0.031 C 
HETATM   18  C24 UNL     1      -1.645  52.902 -24.167  1.00  0.00     0.016 C 
HETATM   19  C25 UNL     1      -1.135  51.393 -22.231  1.00  0.00     0.024 C 
HETATM   20  C26 UNL     1       0.216  51.760 -21.570  1.00  0.00     0.010 C 
HETATM   21  C27 UNL     1       0.261  51.687 -20.027  1.00  0.00     0.011 C 
HETATM   22  C28 UNL     1      -0.883  50.879 -19.374  1.00  0.00    -0.029 C 
HETATM   23  C29 UNL     1      -2.083  51.843 -19.104  1.00  0.00     0.016 C 
ENDROOT
BRANCH   1  24
HETATM   24  C6  UNL     1      -0.437  50.966 -16.713  1.00  0.00    -0.007 C 
HETATM   25  C7  UNL     1       1.010  51.265 -16.304  1.00  0.00     0.011 C 
BRANCH  24  26
HETATM   26  C5  UNL     1      -1.129  50.210 -15.554  1.00  0.00     0.087 C 
BRANCH  26  27
HETATM   27  C4  UNL     1      -1.949  51.147 -14.685  1.00  0.00     0.150 C 
HETATM   28  O1  UNL     1      -3.155  51.307 -14.856  1.00  0.00    -0.293 OA
BRANCH  27  29
HETATM   29  C3  UNL     1      -1.236  51.827 -13.566  1.00  0.00     0.063 C 
HETATM   30  C2  UNL     1      -1.847  52.316 -12.473  1.00  0.00     0.015 C 
HETATM   31  C1  UNL     1      -1.099  52.897 -11.315  1.00  0.00     0.055 C 
BRANCH  30  32
HETATM   32  C30 UNL     1      -3.312  52.309 -12.312  1.00  0.00     0.171 C 
HETATM   33  O3  UNL     1      -3.947  51.532 -11.624  1.00  0.00    -0.646 OA
BRANCH  32  34
HETATM   34  O4  UNL     1      -3.888  53.362 -12.918  1.00  0.00    -0.773 OA
HETATM   35  H44 UNL     1      -4.845  53.208 -12.784  1.00  0.00     0.167 HD
ENDBRANCH  32  34
ENDBRANCH  30  32
ENDBRANCH  27  29
ENDBRANCH  26  27
ENDBRANCH  24  26
ENDBRANCH   1  24
TORSDOF 6
ENDMDL
MODEL 8
REMARK minimizedAffinity -8.89834404
REMARK  6 active torsions:
REMARK  status: ('A' for Active; 'I' for Inactive)
REMARK    1  A    between atoms: C2_2  and  C30_32 
REMARK    2  A    between atoms: C3_3  and  C4_4 
REMARK    3  A    between atoms: C4_4  and  C5_6 
REMARK    4  A    between atoms: C5_6  and  C6_7 
REMARK    5  A    between atoms: C6_7  and  C8_9 
REMARK    6  A    between atoms: C30_32  and  O4_34 
ROOT
HETATM    1  C8  UNL     1      -0.537  51.579 -16.761  1.00  0.00    -0.001 C 
HETATM    2  C9  UNL     1       0.929  52.093 -16.879  1.00  0.00     0.007 C 
HETATM    3  C10 UNL     1       1.248  52.245 -18.377  1.00  0.00     0.015 C 
HETATM    4  C11 UNL     1      -0.121  52.156 -19.079  1.00  0.00    -0.013 C 
HETATM    5  C12 UNL     1      -0.743  53.584 -18.996  1.00  0.00     0.021 C 
HETATM    6  C13 UNL     1      -0.153  51.770 -20.551  1.00  0.00    -0.070 C 
HETATM    7  C14 UNL     1       0.893  51.923 -21.384  1.00  0.00    -0.022 C 
HETATM    8  C15 UNL     1       0.779  51.622 -22.847  1.00  0.00     0.034 C 
HETATM    9  C16 UNL     1      -0.599  52.092 -23.337  1.00  0.00     0.013 C 
HETATM   10  C17 UNL     1      -0.751  52.182 -24.888  1.00  0.00     0.018 C 
HETATM   11  C18 UNL     1      -0.111  53.488 -25.403  1.00  0.00     0.023 C 
HETATM   12  C19 UNL     1      -0.086  51.013 -25.640  1.00  0.00     0.023 C 
HETATM   13  C20 UNL     1      -2.239  52.257 -25.254  1.00  0.00     0.135 C 
HETATM   14  O2  UNL     1      -2.649  51.962 -26.379  1.00  0.00    -0.297 OA
HETATM   15  C21 UNL     1      -3.195  52.815 -24.221  1.00  0.00     0.080 C 
HETATM   16  C22 UNL     1      -3.021  52.247 -22.808  1.00  0.00     0.017 C 
HETATM   17  C23 UNL     1      -1.773  51.350 -22.600  1.00  0.00    -0.031 C 
HETATM   18  C24 UNL     1      -2.084  49.950 -23.193  1.00  0.00     0.016 C 
HETATM   19  C25 UNL     1      -1.428  51.094 -21.060  1.00  0.00     0.024 C 
HETATM   20  C26 UNL     1      -2.631  51.217 -20.093  1.00  0.00     0.010 C 
HETATM   21  C27 UNL     1      -2.327  50.981 -18.596  1.00  0.00     0.011 C 
HETATM   22  C28 UNL     1      -0.834  51.061 -18.208  1.00  0.00    -0.029 C 
HETATM   23  C29 UNL     1      -0.201  49.641 -18.365  1.00  0.00     0.016 C 
ENDROOT
BRANCH   1  24
HETATM   24  C6  UNL     1      -0.728  50.626 -15.546  1.00  0.00    -0.007 C 
HETATM   25  C7  UNL     1      -0.630  49.149 -15.945  1.00  0.00     0.011 C 
BRANCH  24  26
HETATM   26  C5  UNL     1      -2.099  50.862 -14.868  1.00  0.00     0.087 C 
BRANCH  26  27
HETATM   27  C4  UNL     1      -1.943  51.480 -13.490  1.00  0.00     0.150 C 
HETATM   28  O1  UNL     1      -1.157  52.399 -13.273  1.00  0.00    -0.293 OA
BRANCH  27  29
HETATM   29  C3  UNL     1      -2.835  50.962 -12.414  1.00  0.00     0.063 C 
HETATM   30  C2  UNL     1      -3.704  51.724 -11.727  1.00  0.00     0.015 C 
HETATM   31  C1  UNL     1      -4.664  51.162 -10.726  1.00  0.00     0.055 C 
BRANCH  30  32
HETATM   32  C30 UNL     1      -3.798  53.184 -11.910  1.00  0.00     0.171 C 
HETATM   33  O3  UNL     1      -3.442  54.024 -11.105  1.00  0.00    -0.646 OA
BRANCH  32  34
HETATM   34  O4  UNL     1      -4.213  53.508 -13.146  1.00  0.00    -0.773 OA
HETATM   35  H44 UNL     1      -4.284  54.484 -13.115  1.00  0.00     0.167 HD
ENDBRANCH  32  34
ENDBRANCH  30  32
ENDBRANCH  27  29
ENDBRANCH  26  27
ENDBRANCH  24  26
ENDBRANCH   1  24
TORSDOF 6
ENDMDL
MODEL 9
REMARK minimizedAffinity -8.85560894
REMARK  6 active torsions:
REMARK  status: ('A' for Active; 'I' for Inactive)
REMARK    1  A    between atoms: C2_2  and  C30_32 
REMARK    2  A    between atoms: C3_3  and  C4_4 
REMARK    3  A    between atoms: C4_4  and  C5_6 
REMARK    4  A    between atoms: C5_6  and  C6_7 
REMARK    5  A    between atoms: C6_7  and  C8_9 
REMARK    6  A    between atoms: C30_32  and  O4_34 
ROOT
HETATM    1  C8  UNL     1      -2.638  51.125 -22.973  1.00  0.00    -0.001 C 
HETATM    2  C9  UNL     1      -3.671  52.192 -23.444  1.00  0.00     0.007 C 
HETATM    3  C10 UNL     1      -5.077  51.630 -23.173  1.00  0.00     0.015 C 
HETATM    4  C11 UNL     1      -4.841  50.420 -22.246  1.00  0.00    -0.013 C 
HETATM    5  C12 UNL     1      -4.718  50.998 -20.803  1.00  0.00     0.021 C 
HETATM    6  C13 UNL     1      -5.916  49.345 -22.178  1.00  0.00    -0.070 C 
HETATM    7  C14 UNL     1      -7.204  49.557 -22.501  1.00  0.00    -0.022 C 
HETATM    8  C15 UNL     1      -8.244  48.493 -22.320  1.00  0.00     0.034 C 
HETATM    9  C16 UNL     1      -7.950  47.741 -21.013  1.00  0.00     0.013 C 
HETATM   10  C17 UNL     1      -9.118  46.847 -20.491  1.00  0.00     0.018 C 
HETATM   11  C18 UNL     1     -10.163  47.721 -19.765  1.00  0.00     0.023 C 
HETATM   12  C19 UNL     1      -9.851  46.079 -21.607  1.00  0.00     0.023 C 
HETATM   13  C20 UNL     1      -8.581  45.859 -19.446  1.00  0.00     0.135 C 
HETATM   14  O2  UNL     1      -9.184  44.823 -19.160  1.00  0.00    -0.297 OA
HETATM   15  C21 UNL     1      -7.331  46.246 -18.683  1.00  0.00     0.080 C 
HETATM   16  C22 UNL     1      -6.186  46.781 -19.550  1.00  0.00     0.017 C 
HETATM   17  C23 UNL     1      -6.542  47.041 -21.037  1.00  0.00    -0.031 C 
HETATM   18  C24 UNL     1      -6.547  45.675 -21.775  1.00  0.00     0.016 C 
HETATM   19  C25 UNL     1      -5.457  47.933 -21.800  1.00  0.00     0.024 C 
HETATM   20  C26 UNL     1      -4.030  47.877 -21.203  1.00  0.00     0.010 C 
HETATM   21  C27 UNL     1      -2.960  48.736 -21.915  1.00  0.00     0.011 C 
HETATM   22  C28 UNL     1      -3.515  49.834 -22.850  1.00  0.00    -0.029 C 
HETATM   23  C29 UNL     1      -3.704  49.226 -24.277  1.00  0.00     0.016 C 
ENDROOT
BRANCH   1  24
HETATM   24  C6  UNL     1      -1.363  51.109 -23.866  1.00  0.00    -0.007 C 
HETATM   25  C7  UNL     1      -0.178  51.817 -23.201  1.00  0.00     0.011 C 
BRANCH  24  26
HETATM   26  C5  UNL     1      -1.637  51.785 -25.231  1.00  0.00     0.087 C 
BRANCH  26  27
HETATM   27  C4  UNL     1      -1.192  50.910 -26.389  1.00  0.00     0.150 C 
HETATM   28  O1  UNL     1      -1.996  50.345 -27.125  1.00  0.00    -0.293 OA
BRANCH  27  29
HETATM   29  C3  UNL     1       0.275  50.812 -26.636  1.00  0.00     0.063 C 
HETATM   30  C2  UNL     1       1.027  51.823 -27.106  1.00  0.00     0.015 C 
HETATM   31  C1  UNL     1       2.514  51.734 -27.243  1.00  0.00     0.055 C 
BRANCH  30  32
HETATM   32  C30 UNL     1       0.452  53.117 -27.515  1.00  0.00     0.171 C 
HETATM   33  O3  UNL     1       0.432  54.129 -26.840  1.00  0.00    -0.646 OA
BRANCH  32  34
HETATM   34  O4  UNL     1       0.053  53.105 -28.798  1.00  0.00    -0.773 OA
HETATM   35  H44 UNL     1      -0.351  53.989 -28.921  1.00  0.00     0.167 HD
ENDBRANCH  32  34
ENDBRANCH  30  32
ENDBRANCH  27  29
ENDBRANCH  26  27
ENDBRANCH  24  26
ENDBRANCH   1  24
TORSDOF 6
ENDMDL
