MODEL 1
REMARK minimizedAffinity -6.98662615
REMARK CNNscore 0.31256339
REMARK CNNaffinity 6.64408493
REMARK  9 active torsions:
REMARK  status: ('A' for Active; 'I' for Inactive)
REMARK    1  A    between atoms: O1_2  and  C2_3 
REMARK    2  A    between atoms: C2_3  and  C3_4 
REMARK    3  A    between atoms: C3_4  and  C4_5 
REMARK    4  A    between atoms: C4_5  and  O2_6 
REMARK    5  A    between atoms: O2_6  and  C5_7 
REMARK    6  A    between atoms: C23_29  and  O5_30 
REMARK    7  A    between atoms: C34_42  and  O7_43 
REMARK    8  A    between atoms: C35_44  and  O8_46 
REMARK    9  A    between atoms: C42_52  and  O9_53 
ROOT
HETATM    1  C5  UNL     1      -4.916 -11.787  -3.454  1.00  0.00     0.122 C 
HETATM    2  C6  UNL     1      -6.015 -12.875  -3.381  1.00  0.00     0.033 C 
HETATM    3  C7  UNL     1      -7.102 -12.571  -2.343  1.00  0.00     0.014 C 
HETATM    4  C8  UNL     1      -6.538 -12.406  -0.885  1.00  0.00    -0.010 C 
HETATM    5  C9  UNL     1      -6.607 -13.824  -0.223  1.00  0.00     0.018 C 
HETATM    6  C10 UNL     1      -5.018 -12.087  -0.964  1.00  0.00     0.073 C 
HETATM    7  C11 UNL     1      -4.677 -11.116  -2.088  1.00  0.00     0.045 C 
HETATM    8  C12 UNL     1      -4.389 -11.685   0.352  1.00  0.00     0.161 C 
HETATM    9  O3  UNL     1      -3.182 -11.852   0.543  1.00  0.00    -0.292 OA
HETATM   10  C13 UNL     1      -5.223 -11.055   1.412  1.00  0.00    -0.005 C 
HETATM   11  C14 UNL     1      -6.519 -10.767   1.187  1.00  0.00    -0.014 C 
HETATM   12  C15 UNL     1      -7.341 -11.287  -0.021  1.00  0.00     0.058 C 
HETATM   13  C16 UNL     1      -7.677 -10.117  -0.905  1.00  0.00    -0.091 C 
HETATM   14  C17 UNL     1      -7.974  -9.197  -1.626  1.00  0.00    -0.104 C 
HETATM   15  C18 UNL     1      -8.231  -8.046  -2.500  1.00  0.00     0.115 C 
HETATM   16  C19 UNL     1      -9.690  -7.956  -2.847  1.00  0.00     0.090 A 
HETATM   17  C20 UNL     1     -10.418  -9.041  -3.589  1.00  0.00     0.120 A 
HETATM   18  N1  UNL     1     -10.695  -8.750  -2.220  1.00  0.00    -0.243 NA
HETATM   19  C21 UNL     1     -11.891  -8.164  -1.780  1.00  0.00     0.234 C 
HETATM   20  O4  UNL     1     -12.741  -7.662  -2.505  1.00  0.00    -0.277 OA
HETATM   21  C22 UNL     1     -11.920  -8.173  -0.238  1.00  0.00     0.318 C 
HETATM   22  N2  UNL     1     -11.832  -6.786   0.285  1.00  0.00     0.128 N 
HETATM   23  C23 UNL     1     -11.803  -6.734   1.738  1.00  0.00     0.384 C 
HETATM   24  C24 UNL     1     -11.511  -8.112   2.379  1.00  0.00     0.186 C 
HETATM   25  O6  UNL     1     -11.480  -8.099   3.815  1.00  0.00    -0.373 OA
HETATM   26  C25 UNL     1     -12.296  -9.186   4.289  1.00  0.00     0.158 C 
HETATM   27  C26 UNL     1     -13.367  -9.335   3.180  1.00  0.00     0.021 C 
HETATM   28  C27 UNL     1     -14.259 -10.560   3.274  1.00  0.00     0.013 C 
HETATM   29  C28 UNL     1     -12.502  -9.201   1.927  1.00  0.00     0.036 C 
HETATM   30  C29 UNL     1     -13.060  -8.966   0.482  1.00  0.00     0.005 C 
HETATM   31  C30 UNL     1     -14.420  -8.217   0.399  1.00  0.00     0.012 C 
HETATM   32  C31 UNL     1     -15.429  -9.197  -0.195  1.00  0.00     0.001 C 
HETATM   33  C32 UNL     1     -14.589 -10.133  -1.039  1.00  0.00     0.001 C 
HETATM   34  C33 UNL     1     -13.343 -10.332  -0.194  1.00  0.00     0.012 C 
HETATM   35  C34 UNL     1     -11.447 -10.440   4.714  1.00  0.00     0.181 C 
HETATM   36  C35 UNL     1      -9.947 -10.252   5.150  1.00  0.00     0.087 C 
HETATM   37  C36 UNL     1      -9.904  -9.241   6.313  1.00  0.00     0.049 C 
HETATM   38  C37 UNL     1      -8.903  -9.881   4.027  1.00  0.00     0.034 C 
HETATM   39  C38 UNL     1      -7.505  -9.479   4.612  1.00  0.00     0.016 C 
HETATM   40  C39 UNL     1      -6.546  -9.337   3.408  1.00  0.00     0.026 C 
HETATM   41  C40 UNL     1      -5.105  -9.759   3.656  1.00  0.00     0.013 C 
HETATM   42  C41 UNL     1      -4.544 -10.846   2.738  1.00  0.00     0.043 C 
HETATM   43  C42 UNL     1      -7.288  -9.987   2.230  1.00  0.00     0.095 C 
HETATM   44  C43 UNL     1      -8.433 -10.852   2.860  1.00  0.00    -0.002 C 
HETATM   45  C44 UNL     1      -7.918 -12.203   3.432  1.00  0.00     0.019 C 
HETATM   46  C45 UNL     1      -9.393 -11.152   1.682  1.00  0.00     0.015 C 
HETATM   47  C46 UNL     1      -8.708 -11.878   0.498  1.00  0.00     0.029 C 
HETATM   48  H27 UNL     1     -11.026  -6.305  -0.102  1.00  0.00     0.320 HD
ENDROOT
BRANCH   1  49
HETATM   49  O2  UNL     1      -3.762 -12.457  -3.977  1.00  0.00    -0.386 OA
BRANCH  49  50
HETATM   50  C4  UNL     1      -3.802 -12.921  -5.329  1.00  0.00     0.170 C 
BRANCH  50  51
HETATM   51  C3  UNL     1      -2.876 -12.161  -6.277  1.00  0.00     0.052 C 
BRANCH  51  52
HETATM   52  C2  UNL     1      -3.651 -11.429  -7.363  1.00  0.00     0.169 C 
BRANCH  52  53
HETATM   53  O1  UNL     1      -2.806 -11.276  -8.502  1.00  0.00    -0.396 OA
HETATM   54  C1  UNL     1      -2.561  -9.911  -8.802  1.00  0.00     0.201 C 
ENDBRANCH  52  53
ENDBRANCH  51  52
ENDBRANCH  50  51
ENDBRANCH  49  50
ENDBRANCH   1  49
BRANCH  43  55
HETATM   55  O9  UNL     1      -7.868  -8.864   1.519  1.00  0.00    -0.384 OA
HETATM   56  H59 UNL     1      -8.118  -8.173   2.146  1.00  0.00     0.211 HD
ENDBRANCH  43  55
BRANCH  36  57
HETATM   57  O8  UNL     1      -9.541 -11.527   5.695  1.00  0.00    -0.387 OA
HETATM   58  H50 UNL     1      -9.914 -11.611   6.593  1.00  0.00     0.210 HD
ENDBRANCH  36  57
BRANCH  35  59
HETATM   59  O7  UNL     1     -11.518 -11.522   3.789  1.00  0.00    -0.390 OA
HETATM   60  H46 UNL     1     -10.904 -12.202   4.137  1.00  0.00     0.210 HD
ENDBRANCH  35  59
BRANCH  23  61
HETATM   61  O5  UNL     1     -10.810  -5.790   2.109  1.00  0.00    -0.366 OA
HETATM   62  H29 UNL     1      -9.960  -6.140   1.800  1.00  0.00     0.212 HD
ENDBRANCH  23  61
TORSDOF 9
ENDMDL
MODEL 2
REMARK minimizedAffinity -7.09892416
REMARK CNNscore 0.252765179
REMARK CNNaffinity 6.52088928
REMARK  9 active torsions:
REMARK  status: ('A' for Active; 'I' for Inactive)
REMARK    1  A    between atoms: O1_2  and  C2_3 
REMARK    2  A    between atoms: C2_3  and  C3_4 
REMARK    3  A    between atoms: C3_4  and  C4_5 
REMARK    4  A    between atoms: C4_5  and  O2_6 
REMARK    5  A    between atoms: O2_6  and  C5_7 
REMARK    6  A    between atoms: C23_29  and  O5_30 
REMARK    7  A    between atoms: C34_42  and  O7_43 
REMARK    8  A    between atoms: C35_44  and  O8_46 
REMARK    9  A    between atoms: C42_52  and  O9_53 
ROOT
HETATM    1  C5  UNL     1     -13.563   3.087  25.840  1.00  0.00     0.122 C 
HETATM    2  C6  UNL     1     -12.569   3.057  24.654  1.00  0.00     0.033 C 
HETATM    3  C7  UNL     1     -12.821   4.164  23.623  1.00  0.00     0.014 C 
HETATM    4  C8  UNL     1     -14.264   4.113  23.000  1.00  0.00    -0.010 C 
HETATM    5  C9  UNL     1     -14.156   3.235  21.708  1.00  0.00     0.018 C 
HETATM    6  C10 UNL     1     -15.195   3.303  23.945  1.00  0.00     0.073 C 
HETATM    7  C11 UNL     1     -14.950   3.609  25.418  1.00  0.00     0.045 C 
HETATM    8  C12 UNL     1     -16.663   3.359  23.585  1.00  0.00     0.161 C 
HETATM    9  O3  UNL     1     -17.424   2.450  23.924  1.00  0.00    -0.292 OA
HETATM   10  C13 UNL     1     -17.202   4.533  22.844  1.00  0.00    -0.005 C 
HETATM   11  C14 UNL     1     -16.413   5.585  22.556  1.00  0.00    -0.014 C 
HETATM   12  C15 UNL     1     -14.867   5.590  22.686  1.00  0.00     0.058 C 
HETATM   13  C16 UNL     1     -14.489   6.533  23.796  1.00  0.00    -0.091 C 
HETATM   14  C17 UNL     1     -14.153   7.292  24.671  1.00  0.00    -0.104 C 
HETATM   15  C18 UNL     1     -13.818   8.169  25.800  1.00  0.00     0.115 C 
HETATM   16  C19 UNL     1     -12.771   9.171  25.404  1.00  0.00     0.090 A 
HETATM   17  C20 UNL     1     -11.398   8.774  24.940  1.00  0.00     0.120 A 
HETATM   18  N1  UNL     1     -12.347   9.370  24.057  1.00  0.00    -0.243 NA
HETATM   19  C21 UNL     1     -12.212  10.668  23.540  1.00  0.00     0.234 C 
HETATM   20  O4  UNL     1     -11.398  11.500  23.919  1.00  0.00    -0.277 OA
HETATM   21  C22 UNL     1     -13.311  10.905  22.484  1.00  0.00     0.318 C 
HETATM   22  N2  UNL     1     -14.278  11.923  22.970  1.00  0.00     0.128 N 
HETATM   23  C23 UNL     1     -15.369  12.153  22.035  1.00  0.00     0.384 C 
HETATM   24  C24 UNL     1     -15.467  11.054  20.949  1.00  0.00     0.186 C 
HETATM   25  O6  UNL     1     -16.530  11.253  20.005  1.00  0.00    -0.373 OA
HETATM   26  C25 UNL     1     -15.989  11.089  18.682  1.00  0.00     0.158 C 
HETATM   27  C26 UNL     1     -14.518  11.545  18.842  1.00  0.00     0.021 C 
HETATM   28  C27 UNL     1     -13.604  11.280  17.659  1.00  0.00     0.013 C 
HETATM   29  C28 UNL     1     -14.153  10.874  20.165  1.00  0.00     0.036 C 
HETATM   30  C29 UNL     1     -12.878  11.211  21.012  1.00  0.00     0.005 C 
HETATM   31  C30 UNL     1     -12.335  12.660  20.863  1.00  0.00     0.012 C 
HETATM   32  C31 UNL     1     -10.950  12.549  20.229  1.00  0.00     0.001 C 
HETATM   33  C32 UNL     1     -10.453  11.182  20.651  1.00  0.00     0.001 C 
HETATM   34  C33 UNL     1     -11.697  10.318  20.550  1.00  0.00     0.012 C 
HETATM   35  C34 UNL     1     -16.294   9.673  18.072  1.00  0.00     0.181 C 
HETATM   36  C35 UNL     1     -17.537   8.856  18.587  1.00  0.00     0.087 C 
HETATM   37  C36 UNL     1     -18.797   9.725  18.405  1.00  0.00     0.049 C 
HETATM   38  C37 UNL     1     -17.460   8.253  20.042  1.00  0.00     0.034 C 
HETATM   39  C38 UNL     1     -18.836   7.681  20.532  1.00  0.00     0.016 C 
HETATM   40  C39 UNL     1     -18.562   6.959  21.871  1.00  0.00     0.026 C 
HETATM   41  C40 UNL     1     -19.399   5.715  22.134  1.00  0.00     0.013 C 
HETATM   42  C41 UNL     1     -18.632   4.417  22.389  1.00  0.00     0.043 C 
HETATM   43  C42 UNL     1     -17.034   6.821  21.943  1.00  0.00     0.095 C 
HETATM   44  C43 UNL     1     -16.505   7.065  20.489  1.00  0.00    -0.002 C 
HETATM   45  C44 UNL     1     -16.689   5.824  19.569  1.00  0.00     0.019 C 
HETATM   46  C45 UNL     1     -14.988   7.325  20.661  1.00  0.00     0.015 C 
HETATM   47  C46 UNL     1     -14.238   6.165  21.360  1.00  0.00     0.029 C 
HETATM   48  H27 UNL     1     -14.643  11.667  23.882  1.00  0.00     0.320 HD
ENDROOT
BRANCH   1  49
HETATM   49  O2  UNL     1     -13.581   1.746  26.346  1.00  0.00    -0.386 OA
BRANCH  49  50
HETATM   50  C4  UNL     1     -13.531   1.555  27.762  1.00  0.00     0.170 C 
BRANCH  50  51
HETATM   51  C3  UNL     1     -12.179   1.889  28.390  1.00  0.00     0.052 C 
BRANCH  51  52
HETATM   52  C2  UNL     1     -12.307   2.918  29.504  1.00  0.00     0.169 C 
BRANCH  52  53
HETATM   53  O1  UNL     1     -12.315   2.236  30.756  1.00  0.00    -0.396 OA
HETATM   54  C1  UNL     1     -13.188   2.849  31.690  1.00  0.00     0.201 C 
ENDBRANCH  52  53
ENDBRANCH  51  52
ENDBRANCH  50  51
ENDBRANCH  49  50
ENDBRANCH   1  49
BRANCH  43  55
HETATM   55  O9  UNL     1     -16.623   7.920  22.796  1.00  0.00    -0.384 OA
HETATM   56  H59 UNL     1     -17.204   8.679  22.655  1.00  0.00     0.211 HD
ENDBRANCH  43  55
BRANCH  36  57
HETATM   57  O8  UNL     1     -17.669   7.741  17.678  1.00  0.00    -0.387 OA
HETATM   58  H50 UNL     1     -18.076   8.064  16.851  1.00  0.00     0.210 HD
ENDBRANCH  36  57
BRANCH  35  59
HETATM   59  O7  UNL     1     -15.165   8.805  18.040  1.00  0.00    -0.390 OA
HETATM   60  H46 UNL     1     -15.503   7.949  17.701  1.00  0.00     0.210 HD
ENDBRANCH  35  59
BRANCH  23  61
HETATM   61  O5  UNL     1     -16.568  12.215  22.792  1.00  0.00    -0.366 OA
HETATM   62  H29 UNL     1     -16.692  11.342  23.195  1.00  0.00     0.212 HD
ENDBRANCH  23  61
TORSDOF 9
ENDMDL
MODEL 3
REMARK minimizedAffinity -7.65070486
REMARK CNNscore 0.22483179
REMARK CNNaffinity 6.83889008
REMARK  9 active torsions:
REMARK  status: ('A' for Active; 'I' for Inactive)
REMARK    1  A    between atoms: O1_2  and  C2_3 
REMARK    2  A    between atoms: C2_3  and  C3_4 
REMARK    3  A    between atoms: C3_4  and  C4_5 
REMARK    4  A    between atoms: C4_5  and  O2_6 
REMARK    5  A    between atoms: O2_6  and  C5_7 
REMARK    6  A    between atoms: C23_29  and  O5_30 
REMARK    7  A    between atoms: C34_42  and  O7_43 
REMARK    8  A    between atoms: C35_44  and  O8_46 
REMARK    9  A    between atoms: C42_52  and  O9_53 
ROOT
HETATM    1  C5  UNL     1     -13.531  -9.982   1.654  1.00  0.00     0.122 C 
HETATM    2  C6  UNL     1     -12.653  -8.733   1.395  1.00  0.00     0.033 C 
HETATM    3  C7  UNL     1     -11.323  -8.757   2.158  1.00  0.00     0.014 C 
HETATM    4  C8  UNL     1     -11.505  -8.861   3.716  1.00  0.00    -0.010 C 
HETATM    5  C9  UNL     1     -11.537  -7.391   4.255  1.00  0.00     0.018 C 
HETATM    6  C10 UNL     1     -12.922  -9.421   4.024  1.00  0.00     0.073 C 
HETATM    7  C11 UNL     1     -13.332 -10.541   3.076  1.00  0.00     0.045 C 
HETATM    8  C12 UNL     1     -13.156  -9.782   5.474  1.00  0.00     0.161 C 
HETATM    9  O3  UNL     1     -14.298  -9.789   5.939  1.00  0.00    -0.292 OA
HETATM   10  C13 UNL     1     -12.006 -10.164   6.339  1.00  0.00    -0.005 C 
HETATM   11  C14 UNL     1     -10.765 -10.266   5.828  1.00  0.00    -0.014 C 
HETATM   12  C15 UNL     1     -10.343  -9.748   4.428  1.00  0.00     0.058 C 
HETATM   13  C16 UNL     1     -10.015 -10.934   3.562  1.00  0.00    -0.091 C 
HETATM   14  C17 UNL     1      -9.732 -11.864   2.848  1.00  0.00    -0.104 C 
HETATM   15  C18 UNL     1      -9.481 -13.042   2.009  1.00  0.00     0.115 C 
HETATM   16  C19 UNL     1      -8.146 -12.936   1.328  1.00  0.00     0.090 A 
HETATM   17  C20 UNL     1      -7.807 -11.831   0.368  1.00  0.00     0.120 A 
HETATM   18  N1  UNL     1      -7.181 -11.935   1.646  1.00  0.00    -0.243 NA
HETATM   19  C21 UNL     1      -5.832 -12.280   1.821  1.00  0.00     0.234 C 
HETATM   20  O4  UNL     1      -5.093 -12.713   0.945  1.00  0.00    -0.277 OA
HETATM   21  C22 UNL     1      -5.457 -12.111   3.307  1.00  0.00     0.318 C 
HETATM   22  N2  UNL     1      -5.178 -13.435   3.919  1.00  0.00     0.128 N 
HETATM   23  C23 UNL     1      -4.868 -13.345   5.338  1.00  0.00     0.384 C 
HETATM   24  C24 UNL     1      -5.246 -11.973   5.945  1.00  0.00     0.186 C 
HETATM   25  O6  UNL     1      -4.947 -11.847   7.344  1.00  0.00    -0.373 OA
HETATM   26  C25 UNL     1      -4.250 -10.603   7.541  1.00  0.00     0.158 C 
HETATM   27  C26 UNL     1      -3.502 -10.400   6.201  1.00  0.00     0.021 C 
HETATM   28  C27 UNL     1      -2.841  -9.047   6.004  1.00  0.00     0.013 C 
HETATM   29  C28 UNL     1      -4.590 -10.793   5.203  1.00  0.00     0.036 C 
HETATM   30  C29 UNL     1      -4.341 -11.081   3.684  1.00  0.00     0.005 C 
HETATM   31  C30 UNL     1      -2.925 -11.613   3.322  1.00  0.00     0.012 C 
HETATM   32  C31 UNL     1      -2.266 -10.550   2.445  1.00  0.00     0.001 C 
HETATM   33  C32 UNL     1      -3.427  -9.847   1.772  1.00  0.00     0.001 C 
HETATM   34  C33 UNL     1      -4.463  -9.762   2.877  1.00  0.00     0.012 C 
HETATM   35  C34 UNL     1      -5.187  -9.461   8.081  1.00  0.00     0.181 C 
HETATM   36  C35 UNL     1      -6.493  -9.837   8.875  1.00  0.00     0.087 C 
HETATM   37  C36 UNL     1      -6.093 -10.720  10.073  1.00  0.00     0.049 C 
HETATM   38  C37 UNL     1      -7.682 -10.478   8.061  1.00  0.00     0.034 C 
HETATM   39  C38 UNL     1      -8.818 -11.034   8.988  1.00  0.00     0.016 C 
HETATM   40  C39 UNL     1      -9.984 -11.444   8.059  1.00  0.00     0.026 C 
HETATM   41  C40 UNL     1     -11.383 -11.231   8.620  1.00  0.00     0.013 C 
HETATM   42  C41 UNL     1     -12.320 -10.343   7.800  1.00  0.00     0.043 C 
HETATM   43  C42 UNL     1      -9.655 -10.807   6.701  1.00  0.00     0.095 C 
HETATM   44  C43 UNL     1      -8.567  -9.715   6.984  1.00  0.00    -0.002 C 
HETATM   45  C44 UNL     1      -9.169  -8.411   7.579  1.00  0.00     0.019 C 
HETATM   46  C45 UNL     1      -7.968  -9.388   5.594  1.00  0.00     0.015 C 
HETATM   47  C46 UNL     1      -9.020  -8.901   4.567  1.00  0.00     0.029 C 
HETATM   48  H27 UNL     1      -5.954 -14.073   3.768  1.00  0.00     0.320 HD
ENDROOT
BRANCH   1  49
HETATM   49  O2  UNL     1     -14.872  -9.557   1.384  1.00  0.00    -0.386 OA
BRANCH  49  50
HETATM   50  C4  UNL     1     -15.169  -9.030   0.088  1.00  0.00     0.170 C 
BRANCH  50  51
HETATM   51  C3  UNL     1     -16.525  -9.463  -0.466  1.00  0.00     0.052 C 
BRANCH  51  52
HETATM   52  C2  UNL     1     -17.304 -10.307   0.533  1.00  0.00     0.169 C 
BRANCH  52  53
HETATM   53  O1  UNL     1     -18.546  -9.662   0.806  1.00  0.00    -0.396 OA
HETATM   54  C1  UNL     1     -19.014  -8.917  -0.307  1.00  0.00     0.201 C 
ENDBRANCH  52  53
ENDBRANCH  51  52
ENDBRANCH  50  51
ENDBRANCH  49  50
ENDBRANCH   1  49
BRANCH  43  55
HETATM   55  O9  UNL     1      -9.062 -11.892   5.940  1.00  0.00    -0.384 OA
HETATM   56  H59 UNL     1      -8.560 -12.469   6.530  1.00  0.00     0.211 HD
ENDBRANCH  43  55
BRANCH  36  57
HETATM   57  O8  UNL     1      -6.983  -8.594   9.423  1.00  0.00    -0.387 OA
HETATM   58  H50 UNL     1      -6.437  -8.363  10.199  1.00  0.00     0.210 HD
ENDBRANCH  36  57
BRANCH  35  59
HETATM   59  O7  UNL     1      -5.520  -8.480   7.103  1.00  0.00    -0.390 OA
HETATM   60  H46 UNL     1      -6.149  -7.873   7.546  1.00  0.00     0.210 HD
ENDBRANCH  35  59
BRANCH  23  61
HETATM   61  O5  UNL     1      -5.569 -14.391   5.992  1.00  0.00    -0.366 OA
HETATM   62  H29 UNL     1      -6.515 -14.211   5.876  1.00  0.00     0.212 HD
ENDBRANCH  23  61
TORSDOF 9
ENDMDL
MODEL 4
REMARK minimizedAffinity -6.72955656
REMARK CNNscore 0.216555759
REMARK CNNaffinity 6.50379372
REMARK  9 active torsions:
REMARK  status: ('A' for Active; 'I' for Inactive)
REMARK    1  A    between atoms: O1_2  and  C2_3 
REMARK    2  A    between atoms: C2_3  and  C3_4 
REMARK    3  A    between atoms: C3_4  and  C4_5 
REMARK    4  A    between atoms: C4_5  and  O2_6 
REMARK    5  A    between atoms: O2_6  and  C5_7 
REMARK    6  A    between atoms: C23_29  and  O5_30 
REMARK    7  A    between atoms: C34_42  and  O7_43 
REMARK    8  A    between atoms: C35_44  and  O8_46 
REMARK    9  A    between atoms: C42_52  and  O9_53 
ROOT
HETATM    1  C5  UNL     1     -17.469   4.779  13.571  1.00  0.00     0.122 C 
HETATM    2  C6  UNL     1     -16.161   4.190  14.153  1.00  0.00     0.033 C 
HETATM    3  C7  UNL     1     -15.370   5.191  15.004  1.00  0.00     0.014 C 
HETATM    4  C8  UNL     1     -14.964   6.489  14.215  1.00  0.00    -0.010 C 
HETATM    5  C9  UNL     1     -13.546   6.213  13.612  1.00  0.00     0.018 C 
HETATM    6  C10 UNL     1     -15.892   6.639  12.977  1.00  0.00     0.073 C 
HETATM    7  C11 UNL     1     -17.343   6.287  13.281  1.00  0.00     0.045 C 
HETATM    8  C12 UNL     1     -15.764   7.959  12.249  1.00  0.00     0.161 C 
HETATM    9  O3  UNL     1     -16.059   8.045  11.055  1.00  0.00    -0.292 OA
HETATM   10  C13 UNL     1     -15.309   9.171  12.984  1.00  0.00    -0.005 C 
HETATM   11  C14 UNL     1     -15.082   9.127  14.310  1.00  0.00    -0.014 C 
HETATM   12  C15 UNL     1     -14.985   7.823  15.145  1.00  0.00     0.058 C 
HETATM   13  C16 UNL     1     -16.165   7.767  16.077  1.00  0.00    -0.091 C 
HETATM   14  C17 UNL     1     -17.093   7.701  16.845  1.00  0.00    -0.104 C 
HETATM   15  C18 UNL     1     -18.287   7.643  17.696  1.00  0.00     0.115 C 
HETATM   16  C19 UNL     1     -17.910   7.381  19.127  1.00  0.00     0.090 A 
HETATM   17  C20 UNL     1     -17.192   6.136  19.564  1.00  0.00     0.120 A 
HETATM   18  N1  UNL     1     -16.565   7.417  19.601  1.00  0.00    -0.243 NA
HETATM   19  C21 UNL     1     -16.250   8.089  20.792  1.00  0.00     0.234 C 
HETATM   20  O4  UNL     1     -16.635   7.768  21.909  1.00  0.00    -0.277 OA
HETATM   21  C22 UNL     1     -15.418   9.344  20.456  1.00  0.00     0.318 C 
HETATM   22  N2  UNL     1     -16.197  10.571  20.758  1.00  0.00     0.128 N 
HETATM   23  C23 UNL     1     -15.482  11.790  20.413  1.00  0.00     0.384 C 
HETATM   24  C24 UNL     1     -14.259  11.527  19.502  1.00  0.00     0.186 C 
HETATM   25  O6  UNL     1     -13.525  12.709  19.146  1.00  0.00    -0.373 OA
HETATM   26  C25 UNL     1     -12.128  12.454  19.379  1.00  0.00     0.158 C 
HETATM   27  C26 UNL     1     -12.143  11.440  20.549  1.00  0.00     0.021 C 
HETATM   28  C27 UNL     1     -10.812  10.794  20.890  1.00  0.00     0.013 C 
HETATM   29  C28 UNL     1     -13.273  10.511  20.108  1.00  0.00     0.036 C 
HETATM   30  C29 UNL     1     -13.967   9.453  21.032  1.00  0.00     0.005 C 
HETATM   31  C30 UNL     1     -13.977   9.789  22.550  1.00  0.00     0.012 C 
HETATM   32  C31 UNL     1     -13.137   8.718  23.244  1.00  0.00     0.001 C 
HETATM   33  C32 UNL     1     -13.257   7.506  22.343  1.00  0.00     0.001 C 
HETATM   34  C33 UNL     1     -13.200   8.108  20.950  1.00  0.00     0.012 C 
HETATM   35  C34 UNL     1     -11.348  12.097  18.061  1.00  0.00     0.181 C 
HETATM   36  C35 UNL     1     -11.900  12.592  16.673  1.00  0.00     0.087 C 
HETATM   37  C36 UNL     1     -12.047  14.126  16.730  1.00  0.00     0.049 C 
HETATM   38  C37 UNL     1     -13.212  11.910  16.125  1.00  0.00     0.034 C 
HETATM   39  C38 UNL     1     -13.799  12.648  14.872  1.00  0.00     0.016 C 
HETATM   40  C39 UNL     1     -14.949  11.765  14.337  1.00  0.00     0.026 C 
HETATM   41  C40 UNL     1     -15.127  11.754  12.825  1.00  0.00     0.013 C 
HETATM   42  C41 UNL     1     -15.055  10.390  12.138  1.00  0.00     0.043 C 
HETATM   43  C42 UNL     1     -14.774  10.413  15.045  1.00  0.00     0.095 C 
HETATM   44  C43 UNL     1     -13.317  10.407  15.621  1.00  0.00    -0.002 C 
HETATM   45  C44 UNL     1     -12.246  10.107  14.533  1.00  0.00     0.019 C 
HETATM   46  C45 UNL     1     -13.306   9.251  16.651  1.00  0.00     0.015 C 
HETATM   47  C46 UNL     1     -13.691   7.879  16.045  1.00  0.00     0.029 C 
HETATM   48  H27 UNL     1     -17.100  10.549  20.293  1.00  0.00     0.320 HD
ENDROOT
BRANCH   1  49
HETATM   49  O2  UNL     1     -17.749   3.989  12.408  1.00  0.00    -0.386 OA
BRANCH  49  50
HETATM   50  C4  UNL     1     -17.579   2.572  12.494  1.00  0.00     0.170 C 
BRANCH  50  51
HETATM   51  C3  UNL     1     -18.887   1.793  12.616  1.00  0.00     0.052 C 
BRANCH  51  52
HETATM   52  C2  UNL     1     -19.150   0.929  11.391  1.00  0.00     0.169 C 
BRANCH  52  53
HETATM   53  O1  UNL     1     -17.937   0.276  11.023  1.00  0.00    -0.396 OA
HETATM   54  C1  UNL     1     -17.992  -1.121  11.259  1.00  0.00     0.201 C 
ENDBRANCH  52  53
ENDBRANCH  51  52
ENDBRANCH  50  51
ENDBRANCH  49  50
ENDBRANCH   1  49
BRANCH  43  55
HETATM   55  O9  UNL     1     -15.724  10.466  16.141  1.00  0.00    -0.384 OA
HETATM   56  H59 UNL     1     -15.794  11.371  16.470  1.00  0.00     0.211 HD
ENDBRANCH  43  55
BRANCH  36  57
HETATM   57  O8  UNL     1     -10.852  12.313  15.719  1.00  0.00    -0.387 OA
HETATM   58  H50 UNL     1     -10.157  12.991  15.816  1.00  0.00     0.210 HD
ENDBRANCH  36  57
BRANCH  35  59
HETATM   59  O7  UNL     1     -11.012  10.717  17.947  1.00  0.00    -0.390 OA
HETATM   60  H46 UNL     1     -10.593  10.623  17.066  1.00  0.00     0.210 HD
ENDBRANCH  35  59
BRANCH  23  61
HETATM   61  O5  UNL     1     -16.405  12.657  19.772  1.00  0.00    -0.366 OA
HETATM   62  H29 UNL     1     -16.676  12.220  18.950  1.00  0.00     0.212 HD
ENDBRANCH  23  61
TORSDOF 9
ENDMDL
MODEL 5
REMARK minimizedAffinity -6.77871084
REMARK CNNscore 0.201014444
REMARK CNNaffinity 6.36216211
REMARK  9 active torsions:
REMARK  status: ('A' for Active; 'I' for Inactive)
REMARK    1  A    between atoms: O1_2  and  C2_3 
REMARK    2  A    between atoms: C2_3  and  C3_4 
REMARK    3  A    between atoms: C3_4  and  C4_5 
REMARK    4  A    between atoms: C4_5  and  O2_6 
REMARK    5  A    between atoms: O2_6  and  C5_7 
REMARK    6  A    between atoms: C23_29  and  O5_30 
REMARK    7  A    between atoms: C34_42  and  O7_43 
REMARK    8  A    between atoms: C35_44  and  O8_46 
REMARK    9  A    between atoms: C42_52  and  O9_53 
ROOT
HETATM    1  C5  UNL     1      -2.970  16.731   5.683  1.00  0.00     0.122 C 
HETATM    2  C6  UNL     1      -2.779  17.973   4.779  1.00  0.00     0.033 C 
HETATM    3  C7  UNL     1      -1.341  18.141   4.275  1.00  0.00     0.014 C 
HETATM    4  C8  UNL     1      -0.288  18.267   5.437  1.00  0.00    -0.010 C 
HETATM    5  C9  UNL     1      -0.135  19.799   5.728  1.00  0.00     0.018 C 
HETATM    6  C10 UNL     1      -0.902  17.682   6.740  1.00  0.00     0.073 C 
HETATM    7  C11 UNL     1      -1.702  16.408   6.495  1.00  0.00     0.045 C 
HETATM    8  C12 UNL     1       0.075  17.535   7.886  1.00  0.00     0.161 C 
HETATM    9  O3  UNL     1      -0.326  17.535   9.052  1.00  0.00    -0.292 OA
HETATM   10  C13 UNL     1       1.526  17.355   7.606  1.00  0.00    -0.005 C 
HETATM   11  C14 UNL     1       1.974  17.247   6.342  1.00  0.00    -0.014 C 
HETATM   12  C15 UNL     1       1.134  17.567   5.078  1.00  0.00     0.058 C 
HETATM   13  C16 UNL     1       0.888  16.283   4.334  1.00  0.00    -0.091 C 
HETATM   14  C17 UNL     1       0.686  15.272   3.707  1.00  0.00    -0.104 C 
HETATM   15  C18 UNL     1       0.408  13.995   3.038  1.00  0.00     0.115 C 
HETATM   16  C19 UNL     1       0.760  14.071   1.580  1.00  0.00     0.090 A 
HETATM   17  C20 UNL     1       0.102  15.033   0.632  1.00  0.00     0.120 A 
HETATM   18  N1  UNL     1       1.474  15.162   1.001  1.00  0.00    -0.243 NA
HETATM   19  C21 UNL     1       2.538  14.925   0.117  1.00  0.00     0.234 C 
HETATM   20  O4  UNL     1       2.438  14.405  -0.987  1.00  0.00    -0.277 OA
HETATM   21  C22 UNL     1       3.859  15.340   0.797  1.00  0.00     0.318 C 
HETATM   22  N2  UNL     1       4.697  14.143   1.064  1.00  0.00     0.128 N 
HETATM   23  C23 UNL     1       5.937  14.467   1.752  1.00  0.00     0.384 C 
HETATM   24  C24 UNL     1       5.931  15.893   2.354  1.00  0.00     0.186 C 
HETATM   25  O6  UNL     1       7.143  16.249   3.036  1.00  0.00    -0.373 OA
HETATM   26  C25 UNL     1       7.555  17.546   2.566  1.00  0.00     0.158 C 
HETATM   27  C26 UNL     1       7.021  17.583   1.113  1.00  0.00     0.021 C 
HETATM   28  C27 UNL     1       7.100  18.925   0.407  1.00  0.00     0.013 C 
HETATM   29  C28 UNL     1       5.630  16.981   1.305  1.00  0.00     0.036 C 
HETATM   30  C29 UNL     1       4.711  16.477   0.140  1.00  0.00     0.005 C 
HETATM   31  C30 UNL     1       5.449  15.978  -1.133  1.00  0.00     0.012 C 
HETATM   32  C31 UNL     1       5.068  16.928  -2.266  1.00  0.00     0.001 C 
HETATM   33  C32 UNL     1       3.703  17.453  -1.871  1.00  0.00     0.001 C 
HETATM   34  C33 UNL     1       3.832  17.648  -0.371  1.00  0.00     0.012 C 
HETATM   35  C34 UNL     1       7.168  18.702   3.559  1.00  0.00     0.181 C 
HETATM   36  C35 UNL     1       6.960  18.379   5.086  1.00  0.00     0.087 C 
HETATM   37  C36 UNL     1       8.244  17.714   5.619  1.00  0.00     0.049 C 
HETATM   38  C37 UNL     1       5.677  17.554   5.488  1.00  0.00     0.034 C 
HETATM   39  C38 UNL     1       5.706  17.084   6.983  1.00  0.00     0.016 C 
HETATM   40  C39 UNL     1       4.318  16.471   7.280  1.00  0.00     0.026 C 
HETATM   41  C40 UNL     1       3.787  16.689   8.690  1.00  0.00     0.013 C 
HETATM   42  C41 UNL     1       2.431  17.386   8.809  1.00  0.00     0.043 C 
HETATM   43  C42 UNL     1       3.430  16.910   6.106  1.00  0.00     0.095 C 
HETATM   44  C43 UNL     1       4.184  18.092   5.407  1.00  0.00    -0.002 C 
HETATM   45  C44 UNL     1       4.032  19.436   6.175  1.00  0.00     0.019 C 
HETATM   46  C45 UNL     1       3.496  18.236   4.027  1.00  0.00     0.015 C 
HETATM   47  C46 UNL     1       1.973  18.499   4.121  1.00  0.00     0.029 C 
HETATM   48  H27 UNL     1       4.175  13.447   1.587  1.00  0.00     0.320 HD
ENDROOT
BRANCH   1  49
HETATM   49  O2  UNL     1      -4.113  17.032   6.494  1.00  0.00    -0.386 OA
BRANCH  49  50
HETATM   50  C4  UNL     1      -5.308  17.473   5.845  1.00  0.00     0.170 C 
BRANCH  50  51
HETATM   51  C3  UNL     1      -6.440  17.838   6.803  1.00  0.00     0.052 C 
BRANCH  51  52
HETATM   52  C2  UNL     1      -5.982  18.808   7.882  1.00  0.00     0.169 C 
BRANCH  52  53
HETATM   53  O1  UNL     1      -6.201  18.208   9.158  1.00  0.00    -0.396 OA
HETATM   54  C1  UNL     1      -5.326  18.728  10.146  1.00  0.00     0.201 C 
ENDBRANCH  52  53
ENDBRANCH  51  52
ENDBRANCH  50  51
ENDBRANCH  49  50
ENDBRANCH   1  49
BRANCH  43  55
HETATM   55  O9  UNL     1       3.419  15.757   5.225  1.00  0.00    -0.384 OA
HETATM   56  H59 UNL     1       4.273  15.306   5.265  1.00  0.00     0.211 HD
ENDBRANCH  43  55
BRANCH  36  57
HETATM   57  O8  UNL     1       6.856  19.662   5.741  1.00  0.00    -0.387 OA
HETATM   58  H50 UNL     1       7.752  20.040   5.823  1.00  0.00     0.210 HD
ENDBRANCH  36  57
BRANCH  35  59
HETATM   59  O7  UNL     1       6.076  19.501   3.114  1.00  0.00    -0.390 OA
HETATM   60  H46 UNL     1       5.900  20.133   3.843  1.00  0.00     0.210 HD
ENDBRANCH  35  59
BRANCH  23  61
HETATM   61  O5  UNL     1       6.123  13.496   2.769  1.00  0.00    -0.366 OA
HETATM   62  H29 UNL     1       5.391  13.602   3.396  1.00  0.00     0.212 HD
ENDBRANCH  23  61
TORSDOF 9
ENDMDL
MODEL 6
REMARK minimizedAffinity -6.66566849
REMARK CNNscore 0.186594158
REMARK CNNaffinity 6.09476042
REMARK  9 active torsions:
REMARK  status: ('A' for Active; 'I' for Inactive)
REMARK    1  A    between atoms: O1_2  and  C2_3 
REMARK    2  A    between atoms: C2_3  and  C3_4 
REMARK    3  A    between atoms: C3_4  and  C4_5 
REMARK    4  A    between atoms: C4_5  and  O2_6 
REMARK    5  A    between atoms: O2_6  and  C5_7 
REMARK    6  A    between atoms: C23_29  and  O5_30 
REMARK    7  A    between atoms: C34_42  and  O7_43 
REMARK    8  A    between atoms: C35_44  and  O8_46 
REMARK    9  A    between atoms: C42_52  and  O9_53 
ROOT
HETATM    1  C5  UNL     1       3.433  15.629  -1.885  1.00  0.00     0.122 C 
HETATM    2  C6  UNL     1       3.070  17.134  -1.923  1.00  0.00     0.033 C 
HETATM    3  C7  UNL     1       2.565  17.671  -0.578  1.00  0.00     0.014 C 
HETATM    4  C8  UNL     1       1.291  16.916  -0.050  1.00  0.00    -0.010 C 
HETATM    5  C9  UNL     1       0.053  17.712  -0.586  1.00  0.00     0.018 C 
HETATM    6  C10 UNL     1       1.197  15.531  -0.751  1.00  0.00     0.073 C 
HETATM    7  C11 UNL     1       2.552  14.849  -0.892  1.00  0.00     0.045 C 
HETATM    8  C12 UNL     1       0.146  14.606  -0.178  1.00  0.00     0.161 C 
HETATM    9  O3  UNL     1      -0.349  13.717  -0.875  1.00  0.00    -0.292 OA
HETATM   10  C13 UNL     1      -0.272  14.745   1.244  1.00  0.00    -0.005 C 
HETATM   11  C14 UNL     1       0.328  15.638   2.053  1.00  0.00    -0.014 C 
HETATM   12  C15 UNL     1       1.271  16.771   1.569  1.00  0.00     0.058 C 
HETATM   13  C16 UNL     1       2.661  16.475   2.064  1.00  0.00    -0.091 C 
HETATM   14  C17 UNL     1       3.782  16.272   2.458  1.00  0.00    -0.104 C 
HETATM   15  C18 UNL     1       5.138  15.923   2.900  1.00  0.00     0.115 C 
HETATM   16  C19 UNL     1       5.780  17.080   3.612  1.00  0.00     0.090 A 
HETATM   17  C20 UNL     1       6.033  18.404   2.949  1.00  0.00     0.120 A 
HETATM   18  N1  UNL     1       5.071  18.257   3.993  1.00  0.00    -0.243 NA
HETATM   19  C21 UNL     1       5.233  18.799   5.277  1.00  0.00     0.234 C 
HETATM   20  O4  UNL     1       6.269  19.283   5.715  1.00  0.00    -0.277 OA
HETATM   21  C22 UNL     1       3.927  18.607   6.074  1.00  0.00     0.318 C 
HETATM   22  N2  UNL     1       4.141  17.644   7.184  1.00  0.00     0.128 N 
HETATM   23  C23 UNL     1       2.928  17.382   7.943  1.00  0.00     0.384 C 
HETATM   24  C24 UNL     1       1.652  17.870   7.216  1.00  0.00     0.186 C 
HETATM   25  O6  UNL     1       0.434  17.633   7.939  1.00  0.00    -0.373 OA
HETATM   26  C25 UNL     1      -0.327  18.854   7.945  1.00  0.00     0.158 C 
HETATM   27  C26 UNL     1       0.764  19.952   7.893  1.00  0.00     0.021 C 
HETATM   28  C27 UNL     1       0.273  21.370   7.661  1.00  0.00     0.013 C 
HETATM   29  C28 UNL     1       1.711  19.365   6.848  1.00  0.00     0.036 C 
HETATM   30  C29 UNL     1       3.167  19.877   6.581  1.00  0.00     0.005 C 
HETATM   31  C30 UNL     1       3.886  20.528   7.795  1.00  0.00     0.012 C 
HETATM   32  C31 UNL     1       4.122  21.994   7.435  1.00  0.00     0.001 C 
HETATM   33  C32 UNL     1       4.207  21.998   5.923  1.00  0.00     0.001 C 
HETATM   34  C33 UNL     1       3.134  21.005   5.516  1.00  0.00     0.012 C 
HETATM   35  C34 UNL     1      -1.475  18.858   6.871  1.00  0.00     0.181 C 
HETATM   36  C35 UNL     1      -2.066  17.491   6.359  1.00  0.00     0.087 C 
HETATM   37  C36 UNL     1      -2.569  16.695   7.579  1.00  0.00     0.049 C 
HETATM   38  C37 UNL     1      -1.151  16.604   5.431  1.00  0.00     0.034 C 
HETATM   39  C38 UNL     1      -1.743  15.171   5.192  1.00  0.00     0.016 C 
HETATM   40  C39 UNL     1      -0.852  14.499   4.123  1.00  0.00     0.026 C 
HETATM   41  C40 UNL     1      -1.569  13.566   3.156  1.00  0.00     0.013 C 
HETATM   42  C41 UNL     1      -1.437  13.892   1.668  1.00  0.00     0.043 C 
HETATM   43  C42 UNL     1      -0.016  15.640   3.526  1.00  0.00     0.095 C 
HETATM   44  C43 UNL     1      -0.732  16.970   3.943  1.00  0.00    -0.002 C 
HETATM   45  C44 UNL     1      -1.983  17.274   3.070  1.00  0.00     0.019 C 
HETATM   46  C45 UNL     1       0.320  18.078   3.694  1.00  0.00     0.015 C 
HETATM   47  C46 UNL     1       0.828  18.131   2.232  1.00  0.00     0.029 C 
HETATM   48  H27 UNL     1       4.535  16.775   6.838  1.00  0.00     0.320 HD
ENDROOT
BRANCH   1  49
HETATM   49  O2  UNL     1       3.310  15.182  -3.241  1.00  0.00    -0.386 OA
BRANCH  49  50
HETATM   50  C4  UNL     1       2.728  13.898  -3.481  1.00  0.00     0.170 C 
BRANCH  50  51
HETATM   51  C3  UNL     1       3.712  12.856  -4.011  1.00  0.00     0.052 C 
BRANCH  51  52
HETATM   52  C2  UNL     1       4.345  12.049  -2.887  1.00  0.00     0.169 C 
BRANCH  52  53
HETATM   53  O1  UNL     1       5.699  11.767  -3.234  1.00  0.00    -0.396 OA
HETATM   54  C1  UNL     1       5.842  11.462  -4.612  1.00  0.00     0.201 C 
ENDBRANCH  52  53
ENDBRANCH  51  52
ENDBRANCH  50  51
ENDBRANCH  49  50
ENDBRANCH   1  49
BRANCH  43  55
HETATM   55  O9  UNL     1       1.256  15.541   4.217  1.00  0.00    -0.384 OA
HETATM   56  H59 UNL     1       1.113  15.242   5.124  1.00  0.00     0.211 HD
ENDBRANCH  43  55
BRANCH  36  57
HETATM   57  O8  UNL     1      -3.234  17.842   5.585  1.00  0.00    -0.387 OA
HETATM   58  H50 UNL     1      -3.959  18.059   6.201  1.00  0.00     0.210 HD
ENDBRANCH  36  57
BRANCH  35  59
HETATM   59  O7  UNL     1      -1.204  19.684   5.742  1.00  0.00    -0.390 OA
HETATM   60  H46 UNL     1      -1.959  19.547   5.131  1.00  0.00     0.210 HD
ENDBRANCH  35  59
BRANCH  23  61
HETATM   61  O5  UNL     1       2.867  15.983   8.175  1.00  0.00    -0.366 OA
HETATM   62  H29 UNL     1       2.781  15.558   7.307  1.00  0.00     0.212 HD
ENDBRANCH  23  61
TORSDOF 9
ENDMDL
MODEL 7
REMARK minimizedAffinity -7.66773653
REMARK CNNscore 0.179601729
REMARK CNNaffinity 6.38925934
REMARK  9 active torsions:
REMARK  status: ('A' for Active; 'I' for Inactive)
REMARK    1  A    between atoms: O1_2  and  C2_3 
REMARK    2  A    between atoms: C2_3  and  C3_4 
REMARK    3  A    between atoms: C3_4  and  C4_5 
REMARK    4  A    between atoms: C4_5  and  O2_6 
REMARK    5  A    between atoms: O2_6  and  C5_7 
REMARK    6  A    between atoms: C23_29  and  O5_30 
REMARK    7  A    between atoms: C34_42  and  O7_43 
REMARK    8  A    between atoms: C35_44  and  O8_46 
REMARK    9  A    between atoms: C42_52  and  O9_53 
ROOT
HETATM    1  C5  UNL     1       7.879  14.096  23.388  1.00  0.00     0.122 C 
HETATM    2  C6  UNL     1       7.505  15.352  22.562  1.00  0.00     0.033 C 
HETATM    3  C7  UNL     1       7.041  15.025  21.137  1.00  0.00     0.014 C 
HETATM    4  C8  UNL     1       8.119  14.243  20.300  1.00  0.00    -0.010 C 
HETATM    5  C9  UNL     1       8.962  15.326  19.545  1.00  0.00     0.018 C 
HETATM    6  C10 UNL     1       9.129  13.574  21.275  1.00  0.00     0.073 C 
HETATM    7  C11 UNL     1       8.453  12.974  22.502  1.00  0.00     0.045 C 
HETATM    8  C12 UNL     1      10.090  12.606  20.620  1.00  0.00     0.161 C 
HETATM    9  O3  UNL     1      11.185  12.371  21.135  1.00  0.00    -0.292 OA
HETATM   10  C13 UNL     1       9.702  11.909  19.363  1.00  0.00    -0.005 C 
HETATM   11  C14 UNL     1       8.472  12.070  18.839  1.00  0.00    -0.014 C 
HETATM   12  C15 UNL     1       7.461  13.160  19.281  1.00  0.00     0.058 C 
HETATM   13  C16 UNL     1       6.297  12.483  19.952  1.00  0.00    -0.091 C 
HETATM   14  C17 UNL     1       5.344  11.967  20.482  1.00  0.00    -0.104 C 
HETATM   15  C18 UNL     1       4.254  11.284  21.188  1.00  0.00     0.115 C 
HETATM   16  C19 UNL     1       2.919  11.708  20.645  1.00  0.00     0.090 A 
HETATM   17  C20 UNL     1       2.435  13.130  20.692  1.00  0.00     0.120 A 
HETATM   18  N1  UNL     1       2.767  12.488  19.461  1.00  0.00    -0.243 NA
HETATM   19  C21 UNL     1       1.815  12.133  18.494  1.00  0.00     0.234 C 
HETATM   20  O4  UNL     1       0.601  12.145  18.657  1.00  0.00    -0.277 OA
HETATM   21  C22 UNL     1       2.544  11.640  17.227  1.00  0.00     0.318 C 
HETATM   22  N2  UNL     1       2.302  10.188  17.029  1.00  0.00     0.128 N 
HETATM   23  C23 UNL     1       3.008   9.653  15.875  1.00  0.00     0.384 C 
HETATM   24  C24 UNL     1       4.104  10.610  15.349  1.00  0.00     0.186 C 
HETATM   25  O6  UNL     1       4.818  10.115  14.205  1.00  0.00    -0.373 OA
HETATM   26  C25 UNL     1       4.858  11.161  13.218  1.00  0.00     0.158 C 
HETATM   27  C26 UNL     1       3.552  11.949  13.484  1.00  0.00     0.021 C 
HETATM   28  C27 UNL     1       3.403  13.266  12.741  1.00  0.00     0.013 C 
HETATM   29  C28 UNL     1       3.559  12.010  15.010  1.00  0.00     0.036 C 
HETATM   30  C29 UNL     1       2.331  12.424  15.890  1.00  0.00     0.005 C 
HETATM   31  C30 UNL     1       0.934  12.138  15.273  1.00  0.00     0.012 C 
HETATM   32  C31 UNL     1       0.262  13.492  15.053  1.00  0.00     0.001 C 
HETATM   33  C32 UNL     1       0.884  14.393  16.100  1.00  0.00     0.001 C 
HETATM   34  C33 UNL     1       2.339  13.960  16.103  1.00  0.00     0.012 C 
HETATM   35  C34 UNL     1       6.230  11.928  13.201  1.00  0.00     0.181 C 
HETATM   36  C35 UNL     1       7.528  11.213  13.731  1.00  0.00     0.087 C 
HETATM   37  C36 UNL     1       7.714   9.902  12.941  1.00  0.00     0.049 C 
HETATM   38  C37 UNL     1       7.642  10.968  15.285  1.00  0.00     0.034 C 
HETATM   39  C38 UNL     1       8.846  10.037  15.663  1.00  0.00     0.016 C 
HETATM   40  C39 UNL     1       8.947  10.050  17.205  1.00  0.00     0.026 C 
HETATM   41  C40 UNL     1      10.355   9.963  17.777  1.00  0.00     0.013 C 
HETATM   42  C41 UNL     1      10.786  11.100  18.704  1.00  0.00     0.043 C 
HETATM   43  C42 UNL     1       8.065  11.226  17.652  1.00  0.00     0.095 C 
HETATM   44  C43 UNL     1       7.834  12.106  16.377  1.00  0.00    -0.002 C 
HETATM   45  C44 UNL     1       9.060  13.002  16.039  1.00  0.00     0.019 C 
HETATM   46  C45 UNL     1       6.642  13.025  16.744  1.00  0.00     0.015 C 
HETATM   47  C46 UNL     1       6.894  13.889  18.003  1.00  0.00     0.029 C 
HETATM   48  H27 UNL     1       2.544   9.664  17.864  1.00  0.00     0.320 HD
ENDROOT
BRANCH   1  49
HETATM   49  O2  UNL     1       8.791  14.567  24.388  1.00  0.00    -0.386 OA
BRANCH  49  50
HETATM   50  C4  UNL     1       8.860  15.973  24.635  1.00  0.00     0.170 C 
BRANCH  50  51
HETATM   51  C3  UNL     1       9.064  16.338  26.105  1.00  0.00     0.052 C 
BRANCH  51  52
HETATM   52  C2  UNL     1       7.869  17.090  26.675  1.00  0.00     0.169 C 
BRANCH  52  53
HETATM   53  O1  UNL     1       7.939  17.046  28.098  1.00  0.00    -0.396 OA
HETATM   54  C1  UNL     1       6.652  17.078  28.695  1.00  0.00     0.201 C 
ENDBRANCH  52  53
ENDBRANCH  51  52
ENDBRANCH  50  51
ENDBRANCH  49  50
ENDBRANCH   1  49
BRANCH  43  55
HETATM   55  O9  UNL     1       6.815  10.599  18.038  1.00  0.00    -0.384 OA
HETATM   56  H59 UNL     1       6.645   9.833  17.474  1.00  0.00     0.211 HD
ENDBRANCH  43  55
BRANCH  36  57
HETATM   57  O8  UNL     1       8.624  12.078  13.362  1.00  0.00    -0.387 OA
HETATM   58  H50 UNL     1       8.805  11.957  12.410  1.00  0.00     0.210 HD
ENDBRANCH  36  57
BRANCH  35  59
HETATM   59  O7  UNL     1       6.167  13.232  13.773  1.00  0.00    -0.390 OA
HETATM   60  H46 UNL     1       7.088  13.569  13.757  1.00  0.00     0.210 HD
ENDBRANCH  35  59
BRANCH  23  61
HETATM   61  O5  UNL     1       3.573   8.410  16.262  1.00  0.00    -0.366 OA
HETATM   62  H29 UNL     1       4.224   8.601  16.955  1.00  0.00     0.212 HD
ENDBRANCH  23  61
TORSDOF 9
ENDMDL
MODEL 8
REMARK minimizedAffinity -6.61562538
REMARK CNNscore 0.160151005
REMARK CNNaffinity 5.66633654
REMARK  9 active torsions:
REMARK  status: ('A' for Active; 'I' for Inactive)
REMARK    1  A    between atoms: O1_2  and  C2_3 
REMARK    2  A    between atoms: C2_3  and  C3_4 
REMARK    3  A    between atoms: C3_4  and  C4_5 
REMARK    4  A    between atoms: C4_5  and  O2_6 
REMARK    5  A    between atoms: O2_6  and  C5_7 
REMARK    6  A    between atoms: C23_29  and  O5_30 
REMARK    7  A    between atoms: C34_42  and  O7_43 
REMARK    8  A    between atoms: C35_44  and  O8_46 
REMARK    9  A    between atoms: C42_52  and  O9_53 
ROOT
HETATM    1  C5  UNL     1      -3.695   9.419  14.429  1.00  0.00     0.122 C 
HETATM    2  C6  UNL     1      -4.581   9.725  15.660  1.00  0.00     0.033 C 
HETATM    3  C7  UNL     1      -4.050  10.880  16.519  1.00  0.00     0.014 C 
HETATM    4  C8  UNL     1      -2.597  10.626  17.066  1.00  0.00    -0.010 C 
HETATM    5  C9  UNL     1      -2.766   9.948  18.467  1.00  0.00     0.018 C 
HETATM    6  C10 UNL     1      -1.909   9.543  16.189  1.00  0.00     0.073 C 
HETATM    7  C11 UNL     1      -2.207   9.710  14.703  1.00  0.00     0.045 C 
HETATM    8  C12 UNL     1      -0.432   9.358  16.460  1.00  0.00     0.161 C 
HETATM    9  O3  UNL     1       0.119   8.284  16.205  1.00  0.00    -0.292 OA
HETATM   10  C13 UNL     1       0.370  10.486  17.007  1.00  0.00    -0.005 C 
HETATM   11  C14 UNL     1      -0.186  11.697  17.194  1.00  0.00    -0.014 C 
HETATM   12  C15 UNL     1      -1.709  11.986  17.146  1.00  0.00     0.058 C 
HETATM   13  C16 UNL     1      -1.992  12.843  15.942  1.00  0.00    -0.091 C 
HETATM   14  C17 UNL     1      -2.248  13.541  14.993  1.00  0.00    -0.104 C 
HETATM   15  C18 UNL     1      -2.502  14.322  13.776  1.00  0.00     0.115 C 
HETATM   16  C19 UNL     1      -3.312  15.548  14.090  1.00  0.00     0.090 A 
HETATM   17  C20 UNL     1      -4.694  15.483  14.675  1.00  0.00     0.120 A 
HETATM   18  N1  UNL     1      -3.586  15.987  15.419  1.00  0.00    -0.243 NA
HETATM   19  C21 UNL     1      -3.438  17.339  15.765  1.00  0.00     0.234 C 
HETATM   20  O4  UNL     1      -4.111  18.261  15.322  1.00  0.00    -0.277 OA
HETATM   21  C22 UNL     1      -2.235  17.486  16.719  1.00  0.00     0.318 C 
HETATM   22  N2  UNL     1      -1.138  18.231  16.051  1.00  0.00     0.128 N 
HETATM   23  C23 UNL     1       0.046  18.357  16.887  1.00  0.00     0.384 C 
HETATM   24  C24 UNL     1       0.023  17.400  18.103  1.00  0.00     0.186 C 
HETATM   25  O6  UNL     1       1.175  17.502  18.954  1.00  0.00    -0.373 OA
HETATM   26  C25 UNL     1       0.717  17.608  20.314  1.00  0.00     0.158 C 
HETATM   27  C26 UNL     1      -0.652  18.317  20.173  1.00  0.00     0.021 C 
HETATM   28  C27 UNL     1      -1.505  18.379  21.428  1.00  0.00     0.013 C 
HETATM   29  C28 UNL     1      -1.237  17.574  18.973  1.00  0.00     0.036 C 
HETATM   30  C29 UNL     1      -2.489  18.046  18.158  1.00  0.00     0.005 C 
HETATM   31  C30 UNL     1      -2.742  19.579  18.140  1.00  0.00     0.012 C 
HETATM   32  C31 UNL     1      -4.070  19.816  18.857  1.00  0.00     0.001 C 
HETATM   33  C32 UNL     1      -4.842  18.530  18.648  1.00  0.00     0.001 C 
HETATM   34  C33 UNL     1      -3.775  17.461  18.798  1.00  0.00     0.012 C 
HETATM   35  C34 UNL     1       0.802  16.244  21.091  1.00  0.00     0.181 C 
HETATM   36  C35 UNL     1       1.828  15.145  20.625  1.00  0.00     0.087 C 
HETATM   37  C36 UNL     1       3.237  15.771  20.621  1.00  0.00     0.049 C 
HETATM   38  C37 UNL     1       1.529  14.397  19.269  1.00  0.00     0.034 C 
HETATM   39  C38 UNL     1       2.733  13.515  18.788  1.00  0.00     0.016 C 
HETATM   40  C39 UNL     1       2.227  12.703  17.574  1.00  0.00     0.026 C 
HETATM   41  C40 UNL     1       2.796  11.298  17.435  1.00  0.00     0.013 C 
HETATM   42  C41 UNL     1       1.785  10.152  17.397  1.00  0.00     0.043 C 
HETATM   43  C42 UNL     1       0.699  12.855  17.602  1.00  0.00     0.095 C 
HETATM   44  C43 UNL     1       0.338  13.371  19.037  1.00  0.00    -0.002 C 
HETATM   45  C44 UNL     1       0.361  12.239  20.103  1.00  0.00     0.019 C 
HETATM   46  C45 UNL     1      -1.113  13.897  18.912  1.00  0.00     0.015 C 
HETATM   47  C46 UNL     1      -2.117  12.828  18.415  1.00  0.00     0.029 C 
HETATM   48  H27 UNL     1      -0.899  17.801  15.163  1.00  0.00     0.320 HD
ENDROOT
BRANCH   1  49
HETATM   49  O2  UNL     1      -3.965   8.049  14.107  1.00  0.00    -0.386 OA
BRANCH  49  50
HETATM   50  C4  UNL     1      -4.489   7.202  15.132  1.00  0.00     0.170 C 
BRANCH  50  51
HETATM   51  C3  UNL     1      -5.414   6.100  14.619  1.00  0.00     0.052 C 
BRANCH  51  52
HETATM   52  C2  UNL     1      -6.655   6.668  13.945  1.00  0.00     0.169 C 
BRANCH  52  53
HETATM   53  O1  UNL     1      -7.247   5.648  13.144  1.00  0.00    -0.396 OA
HETATM   54  C1  UNL     1      -6.396   4.522  13.003  1.00  0.00     0.201 C 
ENDBRANCH  52  53
ENDBRANCH  51  52
ENDBRANCH  50  51
ENDBRANCH  49  50
ENDBRANCH   1  49
BRANCH  43  55
HETATM   55  O9  UNL     1       0.433  13.901  16.633  1.00  0.00    -0.384 OA
HETATM   56  H59 UNL     1       1.153  14.545  16.640  1.00  0.00     0.211 HD
ENDBRANCH  43  55
BRANCH  36  57
HETATM   57  O8  UNL     1       1.823  14.145  21.666  1.00  0.00    -0.387 OA
HETATM   58  H50 UNL     1       2.345  14.480  22.419  1.00  0.00     0.210 HD
ENDBRANCH  36  57
BRANCH  35  59
HETATM   59  O7  UNL     1      -0.463  15.621  21.299  1.00  0.00    -0.390 OA
HETATM   60  H46 UNL     1      -0.263  14.763  21.731  1.00  0.00     0.210 HD
ENDBRANCH  35  59
BRANCH  23  61
HETATM   61  O5  UNL     1       1.174  18.095  16.066  1.00  0.00    -0.366 OA
HETATM   62  H29 UNL     1       1.102  17.172  15.777  1.00  0.00     0.212 HD
ENDBRANCH  23  61
TORSDOF 9
ENDMDL
MODEL 9
REMARK minimizedAffinity -7.8583703
REMARK CNNscore 0.147270501
REMARK CNNaffinity 5.59479666
REMARK  9 active torsions:
REMARK  status: ('A' for Active; 'I' for Inactive)
REMARK    1  A    between atoms: O1_2  and  C2_3 
REMARK    2  A    between atoms: C2_3  and  C3_4 
REMARK    3  A    between atoms: C3_4  and  C4_5 
REMARK    4  A    between atoms: C4_5  and  O2_6 
REMARK    5  A    between atoms: O2_6  and  C5_7 
REMARK    6  A    between atoms: C23_29  and  O5_30 
REMARK    7  A    between atoms: C34_42  and  O7_43 
REMARK    8  A    between atoms: C35_44  and  O8_46 
REMARK    9  A    between atoms: C42_52  and  O9_53 
ROOT
HETATM    1  C5  UNL     1       0.340  11.113  15.716  1.00  0.00     0.122 C 
HETATM    2  C6  UNL     1       0.617  12.626  15.544  1.00  0.00     0.033 C 
HETATM    3  C7  UNL     1       1.930  13.080  16.193  1.00  0.00     0.014 C 
HETATM    4  C8  UNL     1       1.991  12.787  17.737  1.00  0.00    -0.010 C 
HETATM    5  C9  UNL     1       1.446  14.069  18.452  1.00  0.00     0.018 C 
HETATM    6  C10 UNL     1       0.956  11.679  18.082  1.00  0.00     0.073 C 
HETATM    7  C11 UNL     1       0.911  10.569  17.039  1.00  0.00     0.045 C 
HETATM    8  C12 UNL     1       1.058  11.138  19.491  1.00  0.00     0.161 C 
HETATM    9  O3  UNL     1       0.074  10.633  20.038  1.00  0.00    -0.292 OA
HETATM   10  C13 UNL     1       2.359  11.185  20.213  1.00  0.00    -0.005 C 
HETATM   11  C14 UNL     1       3.469  11.635  19.599  1.00  0.00    -0.014 C 
HETATM   12  C15 UNL     1       3.484  12.391  18.245  1.00  0.00     0.058 C 
HETATM   13  C16 UNL     1       4.147  11.513  17.219  1.00  0.00    -0.091 C 
HETATM   14  C17 UNL     1       4.686  10.837  16.377  1.00  0.00    -0.104 C 
HETATM   15  C18 UNL     1       5.279   9.933  15.384  1.00  0.00     0.115 C 
HETATM   16  C19 UNL     1       6.373  10.624  14.621  1.00  0.00     0.090 A 
HETATM   17  C20 UNL     1       6.132  11.846  13.780  1.00  0.00     0.120 A 
HETATM   18  N1  UNL     1       6.896  11.900  14.984  1.00  0.00    -0.243 NA
HETATM   19  C21 UNL     1       8.282  12.118  15.011  1.00  0.00     0.234 C 
HETATM   20  O4  UNL     1       9.022  12.092  14.035  1.00  0.00    -0.277 OA
HETATM   21  C22 UNL     1       8.734  12.303  16.474  1.00  0.00     0.318 C 
HETATM   22  N2  UNL     1       9.583  11.159  16.897  1.00  0.00     0.128 N 
HETATM   23  C23 UNL     1       9.999  11.253  18.288  1.00  0.00     0.384 C 
HETATM   24  C24 UNL     1       9.186  12.301  19.085  1.00  0.00     0.186 C 
HETATM   25  O6  UNL     1       9.575  12.424  20.462  1.00  0.00    -0.373 OA
HETATM   26  C25 UNL     1       9.744  13.823  20.755  1.00  0.00     0.158 C 
HETATM   27  C26 UNL     1      10.187  14.419  19.396  1.00  0.00     0.021 C 
HETATM   28  C27 UNL     1      10.233  15.934  19.315  1.00  0.00     0.013 C 
HETATM   29  C28 UNL     1       9.231  13.702  18.444  1.00  0.00     0.036 C 
HETATM   30  C29 UNL     1       9.391  13.662  16.886  1.00  0.00     0.005 C 
HETATM   31  C30 UNL     1      10.847  13.779  16.355  1.00  0.00     0.012 C 
HETATM   32  C31 UNL     1      10.926  15.084  15.566  1.00  0.00     0.001 C 
HETATM   33  C32 UNL     1       9.511  15.310  15.074  1.00  0.00     0.001 C 
HETATM   34  C33 UNL     1       8.664  14.879  16.258  1.00  0.00     0.012 C 
HETATM   35  C34 UNL     1       8.504  14.441  21.500  1.00  0.00     0.181 C 
HETATM   36  C35 UNL     1       7.556  13.507  22.340  1.00  0.00     0.087 C 
HETATM   37  C36 UNL     1       8.411  12.767  23.388  1.00  0.00     0.049 C 
HETATM   38  C37 UNL     1       6.628  12.508  21.547  1.00  0.00     0.034 C 
HETATM   39  C38 UNL     1       5.922  11.468  22.484  1.00  0.00     0.016 C 
HETATM   40  C39 UNL     1       4.910  10.697  21.605  1.00  0.00     0.026 C 
HETATM   41  C40 UNL     1       3.618  10.281  22.293  1.00  0.00     0.013 C 
HETATM   42  C41 UNL     1       2.317  10.778  21.661  1.00  0.00     0.043 C 
HETATM   43  C42 UNL     1       4.798  11.520  20.312  1.00  0.00     0.095 C 
HETATM   44  C43 UNL     1       5.393  12.932  20.642  1.00  0.00    -0.002 C 
HETATM   45  C44 UNL     1       4.402  13.829  21.436  1.00  0.00     0.019 C 
HETATM   46  C45 UNL     1       5.645  13.585  19.260  1.00  0.00     0.015 C 
HETATM   47  C46 UNL     1       4.373  13.686  18.384  1.00  0.00     0.029 C 
HETATM   48  H27 UNL     1       9.109  10.277  16.729  1.00  0.00     0.320 HD
ENDROOT
BRANCH   1  49
HETATM   49  O2  UNL     1      -1.082  10.979  15.602  1.00  0.00    -0.386 OA
BRANCH  49  50
HETATM   50  C4  UNL     1      -1.604   9.832  14.927  1.00  0.00     0.170 C 
BRANCH  50  51
HETATM   51  C3  UNL     1      -0.883   9.494  13.624  1.00  0.00     0.052 C 
BRANCH  51  52
HETATM   52  C2  UNL     1      -1.850   9.034  12.542  1.00  0.00     0.169 C 
BRANCH  52  53
HETATM   53  O1  UNL     1      -1.227   9.206  11.270  1.00  0.00    -0.396 OA
HETATM   54  C1  UNL     1      -0.023   8.464  11.164  1.00  0.00     0.201 C 
ENDBRANCH  52  53
ENDBRANCH  51  52
ENDBRANCH  50  51
ENDBRANCH  49  50
ENDBRANCH   1  49
BRANCH  43  55
HETATM   55  O9  UNL     1       5.675  10.833  19.383  1.00  0.00    -0.384 OA
HETATM   56  H59 UNL     1       6.430  10.463  19.857  1.00  0.00     0.211 HD
ENDBRANCH  43  55
BRANCH  36  57
HETATM   57  O8  UNL     1       6.686  14.397  23.071  1.00  0.00    -0.387 OA
HETATM   58  H50 UNL     1       7.184  14.766  23.825  1.00  0.00     0.210 HD
ENDBRANCH  36  57
BRANCH  35  59
HETATM   59  O7  UNL     1       7.698  15.280  20.676  1.00  0.00    -0.390 OA
HETATM   60  H46 UNL     1       6.938  15.543  21.237  1.00  0.00     0.210 HD
ENDBRANCH  35  59
BRANCH  23  61
HETATM   61  O5  UNL     1       9.849   9.963  18.862  1.00  0.00    -0.366 OA
HETATM   62  H29 UNL     1       8.903   9.754  18.841  1.00  0.00     0.212 HD
ENDBRANCH  23  61
TORSDOF 9
ENDMDL
