MODEL 1
REMARK minimizedAffinity -7.3210516
REMARK CNNscore 0.853025734
REMARK CNNaffinity 7.09244776
REMARK  12 active torsions:
REMARK  status: ('A' for Active; 'I' for Inactive)
REMARK    1  A    between atoms: C2_2  and  C3_3 
REMARK    2  A    between atoms: C2_2  and  C5_6 
REMARK    3  A    between atoms: C3_3  and  C4_4 
REMARK    4  A    between atoms: C4_4  and  O1_5 
REMARK    5  A    between atoms: C5_6  and  C6_7 
REMARK    6  A    between atoms: C6_7  and  C7_8 
REMARK    7  A    between atoms: C7_8  and  C9_10 
REMARK    8  A    between atoms: C10_11  and  O2_12 
REMARK    9  A    between atoms: C11_13  and  O3_14 
REMARK   10  A    between atoms: C22_25  and  O4_26 
REMARK   11  A    between atoms: C25_29  and  O5_30 
REMARK   12  A    between atoms: C27_32  and  O6_33 
ROOT
HETATM    1  C9  UNL     1      -9.689   8.306  14.765  1.00  0.00     0.029 C 
HETATM    2  C10 UNL     1      -9.752   9.544  15.708  1.00  0.00     0.152 C 
HETATM    3  C11 UNL     1     -11.241   9.944  15.841  1.00  0.00     0.155 C 
HETATM    4  C12 UNL     1     -11.962   8.627  15.573  1.00  0.00     0.060 C 
HETATM    5  C13 UNL     1     -11.185   8.074  14.345  1.00  0.00    -0.029 C 
HETATM    6  C14 UNL     1     -11.380   8.888  13.025  1.00  0.00     0.016 C 
HETATM    7  C15 UNL     1     -11.647   6.635  14.062  1.00  0.00     0.011 C 
HETATM    8  C16 UNL     1     -13.176   6.541  13.912  1.00  0.00     0.009 C 
HETATM    9  C17 UNL     1     -13.931   7.133  15.132  1.00  0.00     0.029 C 
HETATM   10  C18 UNL     1     -15.486   6.865  15.097  1.00  0.00    -0.031 C 
HETATM   11  C19 UNL     1     -16.135   7.347  13.777  1.00  0.00     0.016 C 
HETATM   12  C20 UNL     1     -15.712   5.310  15.169  1.00  0.00     0.012 C 
HETATM   13  C21 UNL     1     -16.981   4.928  15.920  1.00  0.00     0.032 C 
HETATM   14  C22 UNL     1     -16.898   5.363  17.383  1.00  0.00     0.118 C 
HETATM   15  C23 UNL     1     -16.128   6.675  17.576  1.00  0.00     0.039 C 
HETATM   16  C24 UNL     1     -16.210   7.558  16.314  1.00  0.00     0.025 C 
HETATM   17  C25 UNL     1     -15.720   8.985  16.619  1.00  0.00     0.126 C 
HETATM   18  C26 UNL     1     -14.200   9.104  16.706  1.00  0.00     0.071 C 
HETATM   19  C27 UNL     1     -13.502   8.611  15.423  1.00  0.00     0.071 C 
ENDROOT
BRANCH   1  20
HETATM   20  C7  UNL     1      -8.896   7.103  15.364  1.00  0.00    -0.011 C 
HETATM   21  C8  UNL     1      -8.260   7.347  16.743  1.00  0.00     0.010 C 
BRANCH  20  22
HETATM   22  C6  UNL     1      -7.770   6.608  14.412  1.00  0.00     0.005 C 
BRANCH  22  23
HETATM   23  C5  UNL     1      -7.503   5.099  14.487  1.00  0.00     0.005 C 
BRANCH  23  24
HETATM   24  C2  UNL     1      -7.827   4.345  13.175  1.00  0.00    -0.017 C 
HETATM   25  C1  UNL     1      -8.467   5.324  12.187  1.00  0.00     0.010 C 
BRANCH  24  26
HETATM   26  C3  UNL     1      -6.572   3.648  12.599  1.00  0.00     0.030 C 
BRANCH  26  27
HETATM   27  C4  UNL     1      -6.801   2.220  12.107  1.00  0.00     0.164 C 
BRANCH  27  28
HETATM   28  O1  UNL     1      -8.030   1.715  12.609  1.00  0.00    -0.401 OA
HETATM   29  H9  UNL     1      -8.134   0.814  12.258  1.00  0.00     0.209 HD
ENDBRANCH  27  28
ENDBRANCH  26  27
ENDBRANCH  24  26
ENDBRANCH  23  24
ENDBRANCH  22  23
ENDBRANCH  20  22
ENDBRANCH   1  20
BRANCH   2  30
HETATM   30  O2  UNL     1      -8.997  10.626  15.163  1.00  0.00    -0.393 OA
HETATM   31  H20 UNL     1      -9.066  11.357  15.802  1.00  0.00     0.210 HD
ENDBRANCH   2  30
BRANCH   3  32
HETATM   32  O3  UNL     1     -11.475  10.428  17.161  1.00  0.00    -0.392 OA
HETATM   33  H22 UNL     1     -11.933  11.285  17.065  1.00  0.00     0.210 HD
ENDBRANCH   3  32
BRANCH  19  34
HETATM   34  O6  UNL     1     -13.860   9.479  14.352  1.00  0.00    -0.389 OA
HETATM   35  H48 UNL     1     -14.760   9.822  14.534  1.00  0.00     0.210 HD
ENDBRANCH  19  34
BRANCH  17  36
HETATM   36  O5  UNL     1     -16.178   9.885  15.603  1.00  0.00    -0.395 OA
HETATM   37  H45 UNL     1     -17.153   9.861  15.615  1.00  0.00     0.210 HD
ENDBRANCH  17  36
BRANCH  14  38
HETATM   38  O4  UNL     1     -18.230   5.513  17.869  1.00  0.00    -0.396 OA
HETATM   39  H40 UNL     1     -18.178   5.652  18.831  1.00  0.00     0.210 HD
ENDBRANCH  14  38
TORSDOF 12
ENDMDL
MODEL 2
REMARK minimizedAffinity -7.9404397
REMARK CNNscore 0.781225443
REMARK CNNaffinity 6.73540306
REMARK  12 active torsions:
REMARK  status: ('A' for Active; 'I' for Inactive)
REMARK    1  A    between atoms: C2_2  and  C3_3 
REMARK    2  A    between atoms: C2_2  and  C5_6 
REMARK    3  A    between atoms: C3_3  and  C4_4 
REMARK    4  A    between atoms: C4_4  and  O1_5 
REMARK    5  A    between atoms: C5_6  and  C6_7 
REMARK    6  A    between atoms: C6_7  and  C7_8 
REMARK    7  A    between atoms: C7_8  and  C9_10 
REMARK    8  A    between atoms: C10_11  and  O2_12 
REMARK    9  A    between atoms: C11_13  and  O3_14 
REMARK   10  A    between atoms: C22_25  and  O4_26 
REMARK   11  A    between atoms: C25_29  and  O5_30 
REMARK   12  A    between atoms: C27_32  and  O6_33 
ROOT
HETATM    1  C9  UNL     1       0.899   7.980  11.706  1.00  0.00     0.029 C 
HETATM    2  C10 UNL     1       1.454   6.665  12.331  1.00  0.00     0.152 C 
HETATM    3  C11 UNL     1       0.599   6.357  13.584  1.00  0.00     0.155 C 
HETATM    4  C12 UNL     1      -0.723   7.043  13.259  1.00  0.00     0.060 C 
HETATM    5  C13 UNL     1      -0.250   8.410  12.687  1.00  0.00    -0.029 C 
HETATM    6  C14 UNL     1       0.423   9.359  13.730  1.00  0.00     0.016 C 
HETATM    7  C15 UNL     1      -1.460   9.159  12.106  1.00  0.00     0.011 C 
HETATM    8  C16 UNL     1      -2.604   9.286  13.129  1.00  0.00     0.009 C 
HETATM    9  C17 UNL     1      -3.033   7.914  13.714  1.00  0.00     0.029 C 
HETATM   10  C18 UNL     1      -4.333   7.994  14.607  1.00  0.00    -0.031 C 
HETATM   11  C19 UNL     1      -4.207   9.045  15.736  1.00  0.00     0.016 C 
HETATM   12  C20 UNL     1      -5.524   8.458  13.690  1.00  0.00     0.012 C 
HETATM   13  C21 UNL     1      -6.859   7.848  14.094  1.00  0.00     0.032 C 
HETATM   14  C22 UNL     1      -6.833   6.327  13.935  1.00  0.00     0.118 C 
HETATM   15  C23 UNL     1      -5.461   5.716  14.243  1.00  0.00     0.039 C 
HETATM   16  C24 UNL     1      -4.673   6.591  15.240  1.00  0.00     0.025 C 
HETATM   17  C25 UNL     1      -3.456   5.825  15.787  1.00  0.00     0.126 C 
HETATM   18  C26 UNL     1      -2.290   5.748  14.804  1.00  0.00     0.071 C 
HETATM   19  C27 UNL     1      -1.823   7.143  14.342  1.00  0.00     0.071 C 
ENDROOT
BRANCH   1  20
HETATM   20  C7  UNL     1       0.566   7.859  10.186  1.00  0.00    -0.011 C 
HETATM   21  C8  UNL     1       0.266   6.437   9.684  1.00  0.00     0.010 C 
BRANCH  20  22
HETATM   22  C6  UNL     1       1.694   8.443   9.289  1.00  0.00     0.005 C 
BRANCH  22  23
HETATM   23  C5  UNL     1       3.009   7.653   9.340  1.00  0.00     0.005 C 
BRANCH  23  24
HETATM   24  C2  UNL     1       2.848   6.156   8.979  1.00  0.00    -0.017 C 
HETATM   25  C1  UNL     1       2.769   6.021   7.455  1.00  0.00     0.010 C 
BRANCH  24  26
HETATM   26  C3  UNL     1       3.978   5.301   9.598  1.00  0.00     0.030 C 
BRANCH  26  27
HETATM   27  C4  UNL     1       3.948   3.824   9.210  1.00  0.00     0.164 C 
BRANCH  27  28
HETATM   28  O1  UNL     1       3.059   3.107  10.054  1.00  0.00    -0.401 OA
HETATM   29  H9  UNL     1       3.068   2.180   9.759  1.00  0.00     0.209 HD
ENDBRANCH  27  28
ENDBRANCH  26  27
ENDBRANCH  24  26
ENDBRANCH  23  24
ENDBRANCH  22  23
ENDBRANCH  20  22
ENDBRANCH   1  20
BRANCH   2  30
HETATM   30  O2  UNL     1       2.825   6.824  12.694  1.00  0.00    -0.393 OA
HETATM   31  H20 UNL     1       3.111   5.969  13.062  1.00  0.00     0.210 HD
ENDBRANCH   2  30
BRANCH   3  32
HETATM   32  O3  UNL     1       0.458   4.944  13.713  1.00  0.00    -0.392 OA
HETATM   33  H22 UNL     1       0.701   4.724  14.631  1.00  0.00     0.210 HD
ENDBRANCH   3  32
BRANCH  19  34
HETATM   34  O6  UNL     1      -1.288   7.835  15.465  1.00  0.00    -0.389 OA
HETATM   35  H48 UNL     1      -1.760   7.519  16.264  1.00  0.00     0.210 HD
ENDBRANCH  19  34
BRANCH  17  36
HETATM   36  O5  UNL     1      -2.984   6.452  16.986  1.00  0.00    -0.395 OA
HETATM   37  H45 UNL     1      -3.713   6.420  17.634  1.00  0.00     0.210 HD
ENDBRANCH  17  36
BRANCH  14  38
HETATM   38  O4  UNL     1      -7.811   5.780  14.815  1.00  0.00    -0.396 OA
HETATM   39  H40 UNL     1      -7.891   4.831  14.612  1.00  0.00     0.210 HD
ENDBRANCH  14  38
TORSDOF 12
ENDMDL
MODEL 3
REMARK minimizedAffinity -7.07808542
REMARK CNNscore 0.745879948
REMARK CNNaffinity 6.18953753
REMARK  12 active torsions:
REMARK  status: ('A' for Active; 'I' for Inactive)
REMARK    1  A    between atoms: C2_2  and  C3_3 
REMARK    2  A    between atoms: C2_2  and  C5_6 
REMARK    3  A    between atoms: C3_3  and  C4_4 
REMARK    4  A    between atoms: C4_4  and  O1_5 
REMARK    5  A    between atoms: C5_6  and  C6_7 
REMARK    6  A    between atoms: C6_7  and  C7_8 
REMARK    7  A    between atoms: C7_8  and  C9_10 
REMARK    8  A    between atoms: C10_11  and  O2_12 
REMARK    9  A    between atoms: C11_13  and  O3_14 
REMARK   10  A    between atoms: C22_25  and  O4_26 
REMARK   11  A    between atoms: C25_29  and  O5_30 
REMARK   12  A    between atoms: C27_32  and  O6_33 
ROOT
HETATM    1  C9  UNL     1       0.851  10.008  16.089  1.00  0.00     0.029 C 
HETATM    2  C10 UNL     1       2.326   9.631  16.416  1.00  0.00     0.152 C 
HETATM    3  C11 UNL     1       2.744   8.514  15.430  1.00  0.00     0.155 C 
HETATM    4  C12 UNL     1       1.826   8.766  14.238  1.00  0.00     0.060 C 
HETATM    5  C13 UNL     1       0.457   9.025  14.929  1.00  0.00    -0.029 C 
HETATM    6  C14 UNL     1      -0.169   7.777  15.631  1.00  0.00     0.016 C 
HETATM    7  C15 UNL     1      -0.555   9.508  13.877  1.00  0.00     0.011 C 
HETATM    8  C16 UNL     1      -0.645   8.543  12.680  1.00  0.00     0.009 C 
HETATM    9  C17 UNL     1       0.738   8.271  12.031  1.00  0.00     0.029 C 
HETATM   10  C18 UNL     1       0.646   7.453  10.684  1.00  0.00    -0.031 C 
HETATM   11  C19 UNL     1      -0.140   6.130  10.852  1.00  0.00     0.016 C 
HETATM   12  C20 UNL     1      -0.151   8.321   9.642  1.00  0.00     0.012 C 
HETATM   13  C21 UNL     1       0.329   8.121   8.210  1.00  0.00     0.032 C 
HETATM   14  C22 UNL     1       1.778   8.581   8.053  1.00  0.00     0.118 C 
HETATM   15  C23 UNL     1       2.627   8.328   9.304  1.00  0.00     0.039 C 
HETATM   16  C24 UNL     1       2.081   7.134  10.114  1.00  0.00     0.025 C 
HETATM   17  C25 UNL     1       3.104   6.686  11.174  1.00  0.00     0.126 C 
HETATM   18  C26 UNL     1       3.156   7.600  12.396  1.00  0.00     0.071 C 
HETATM   19  C27 UNL     1       1.780   7.746  13.075  1.00  0.00     0.071 C 
ENDROOT
BRANCH   1  20
HETATM   20  C7  UNL     1       0.629  11.537  15.868  1.00  0.00    -0.011 C 
HETATM   21  C8  UNL     1       1.900  12.359  15.597  1.00  0.00     0.010 C 
BRANCH  20  22
HETATM   22  C6  UNL     1      -0.112  12.202  17.062  1.00  0.00     0.005 C 
BRANCH  22  23
HETATM   23  C5  UNL     1      -0.683  11.205  18.080  1.00  0.00     0.005 C 
BRANCH  23  24
HETATM   24  C2  UNL     1      -2.057  11.624  18.656  1.00  0.00    -0.017 C 
HETATM   25  C1  UNL     1      -2.427  13.003  18.099  1.00  0.00     0.010 C 
BRANCH  24  26
HETATM   26  C3  UNL     1      -3.138  10.555  18.376  1.00  0.00     0.030 C 
BRANCH  26  27
HETATM   27  C4  UNL     1      -3.274  10.152  16.909  1.00  0.00     0.164 C 
BRANCH  27  28
HETATM   28  O1  UNL     1      -3.395   8.741  16.792  1.00  0.00    -0.401 OA
HETATM   29  H9  UNL     1      -3.491   8.539  15.846  1.00  0.00     0.209 HD
ENDBRANCH  27  28
ENDBRANCH  26  27
ENDBRANCH  24  26
ENDBRANCH  23  24
ENDBRANCH  22  23
ENDBRANCH  20  22
ENDBRANCH   1  20
BRANCH   2  30
HETATM   30  O2  UNL     1       2.437   9.169  17.762  1.00  0.00    -0.393 OA
HETATM   31  H20 UNL     1       3.379   8.965  17.904  1.00  0.00     0.210 HD
ENDBRANCH   2  30
BRANCH   3  32
HETATM   32  O3  UNL     1       4.120   8.680  15.097  1.00  0.00    -0.392 OA
HETATM   33  H22 UNL     1       4.544   7.812  15.234  1.00  0.00     0.210 HD
ENDBRANCH   3  32
BRANCH  19  34
HETATM   34  O6  UNL     1       1.399   6.479  13.602  1.00  0.00    -0.389 OA
HETATM   35  H48 UNL     1       1.792   5.787  13.029  1.00  0.00     0.210 HD
ENDBRANCH  19  34
BRANCH  17  36
HETATM   36  O5  UNL     1       2.791   5.363  11.623  1.00  0.00    -0.395 OA
HETATM   37  H45 UNL     1       2.843   4.775  10.845  1.00  0.00     0.210 HD
ENDBRANCH  17  36
BRANCH  14  38
HETATM   38  O4  UNL     1       2.339   7.883   6.943  1.00  0.00    -0.396 OA
HETATM   39  H40 UNL     1       3.210   8.277   6.758  1.00  0.00     0.210 HD
ENDBRANCH  14  38
TORSDOF 12
ENDMDL
MODEL 4
REMARK minimizedAffinity -8.02061176
REMARK CNNscore 0.729324818
REMARK CNNaffinity 6.70433998
REMARK  12 active torsions:
REMARK  status: ('A' for Active; 'I' for Inactive)
REMARK    1  A    between atoms: C2_2  and  C3_3 
REMARK    2  A    between atoms: C2_2  and  C5_6 
REMARK    3  A    between atoms: C3_3  and  C4_4 
REMARK    4  A    between atoms: C4_4  and  O1_5 
REMARK    5  A    between atoms: C5_6  and  C6_7 
REMARK    6  A    between atoms: C6_7  and  C7_8 
REMARK    7  A    between atoms: C7_8  and  C9_10 
REMARK    8  A    between atoms: C10_11  and  O2_12 
REMARK    9  A    between atoms: C11_13  and  O3_14 
REMARK   10  A    between atoms: C22_25  and  O4_26 
REMARK   11  A    between atoms: C25_29  and  O5_30 
REMARK   12  A    between atoms: C27_32  and  O6_33 
ROOT
HETATM    1  C9  UNL     1      -2.931   6.621  14.323  1.00  0.00     0.029 C 
HETATM    2  C10 UNL     1      -2.315   7.663  15.302  1.00  0.00     0.152 C 
HETATM    3  C11 UNL     1      -0.801   7.744  14.991  1.00  0.00     0.155 C 
HETATM    4  C12 UNL     1      -0.740   7.319  13.528  1.00  0.00     0.060 C 
HETATM    5  C13 UNL     1      -1.699   6.095  13.504  1.00  0.00    -0.029 C 
HETATM    6  C14 UNL     1      -1.182   4.843  14.283  1.00  0.00     0.016 C 
HETATM    7  C15 UNL     1      -1.924   5.660  12.047  1.00  0.00     0.011 C 
HETATM    8  C16 UNL     1      -0.596   5.414  11.307  1.00  0.00     0.009 C 
HETATM    9  C17 UNL     1       0.358   6.635  11.377  1.00  0.00     0.029 C 
HETATM   10  C18 UNL     1       1.634   6.485  10.460  1.00  0.00    -0.031 C 
HETATM   11  C19 UNL     1       2.412   5.177  10.743  1.00  0.00     0.016 C 
HETATM   12  C20 UNL     1       1.151   6.407   8.965  1.00  0.00     0.012 C 
HETATM   13  C21 UNL     1       2.129   7.047   7.989  1.00  0.00     0.032 C 
HETATM   14  C22 UNL     1       2.268   8.545   8.261  1.00  0.00     0.118 C 
HETATM   15  C23 UNL     1       2.160   8.896   9.749  1.00  0.00     0.039 C 
HETATM   16  C24 UNL     1       2.607   7.714  10.634  1.00  0.00     0.025 C 
HETATM   17  C25 UNL     1       2.802   8.172  12.090  1.00  0.00     0.126 C 
HETATM   18  C26 UNL     1       1.493   8.358  12.854  1.00  0.00     0.071 C 
HETATM   19  C27 UNL     1       0.632   7.079  12.854  1.00  0.00     0.071 C 
ENDROOT
BRANCH   1  20
HETATM   20  C7  UNL     1      -4.167   7.157  13.534  1.00  0.00    -0.011 C 
HETATM   21  C8  UNL     1      -4.607   8.588  13.884  1.00  0.00     0.010 C 
BRANCH  20  22
HETATM   22  C6  UNL     1      -5.409   6.235  13.690  1.00  0.00     0.005 C 
BRANCH  22  23
HETATM   23  C5  UNL     1      -5.154   4.769  13.311  1.00  0.00     0.005 C 
BRANCH  23  24
HETATM   24  C2  UNL     1      -6.362   4.086  12.627  1.00  0.00    -0.017 C 
HETATM   25  C1  UNL     1      -5.847   2.957  11.727  1.00  0.00     0.010 C 
BRANCH  24  26
HETATM   26  C3  UNL     1      -7.399   3.598  13.665  1.00  0.00     0.030 C 
BRANCH  26  27
HETATM   27  C4  UNL     1      -7.885   4.671  14.637  1.00  0.00     0.164 C 
BRANCH  27  28
HETATM   28  O1  UNL     1      -7.912   4.164  15.963  1.00  0.00    -0.401 OA
HETATM   29  H9  UNL     1      -8.215   4.885  16.540  1.00  0.00     0.209 HD
ENDBRANCH  27  28
ENDBRANCH  26  27
ENDBRANCH  24  26
ENDBRANCH  23  24
ENDBRANCH  22  23
ENDBRANCH  20  22
ENDBRANCH   1  20
BRANCH   2  30
HETATM   30  O2  UNL     1      -2.521   7.261  16.655  1.00  0.00    -0.393 OA
HETATM   31  H20 UNL     1      -2.127   7.957  17.211  1.00  0.00     0.210 HD
ENDBRANCH   2  30
BRANCH   3  32
HETATM   32  O3  UNL     1      -0.359   9.086  15.183  1.00  0.00    -0.392 OA
HETATM   33  H22 UNL     1       0.429   9.038  15.757  1.00  0.00     0.210 HD
ENDBRANCH   3  32
BRANCH  19  34
HETATM   34  O6  UNL     1       1.322   6.070  13.584  1.00  0.00    -0.389 OA
HETATM   35  H48 UNL     1       2.283   6.228  13.477  1.00  0.00     0.210 HD
ENDBRANCH  19  34
BRANCH  17  36
HETATM   36  O5  UNL     1       3.597   7.214  12.799  1.00  0.00    -0.395 OA
HETATM   37  H45 UNL     1       4.461   7.166  12.348  1.00  0.00     0.210 HD
ENDBRANCH  17  36
BRANCH  14  38
HETATM   38  O4  UNL     1       3.535   8.964   7.759  1.00  0.00    -0.396 OA
HETATM   39  H40 UNL     1       3.563   9.935   7.806  1.00  0.00     0.210 HD
ENDBRANCH  14  38
TORSDOF 12
ENDMDL
MODEL 5
REMARK minimizedAffinity -7.01116467
REMARK CNNscore 0.687256813
REMARK CNNaffinity 6.84541702
REMARK  12 active torsions:
REMARK  status: ('A' for Active; 'I' for Inactive)
REMARK    1  A    between atoms: C2_2  and  C3_3 
REMARK    2  A    between atoms: C2_2  and  C5_6 
REMARK    3  A    between atoms: C3_3  and  C4_4 
REMARK    4  A    between atoms: C4_4  and  O1_5 
REMARK    5  A    between atoms: C5_6  and  C6_7 
REMARK    6  A    between atoms: C6_7  and  C7_8 
REMARK    7  A    between atoms: C7_8  and  C9_10 
REMARK    8  A    between atoms: C10_11  and  O2_12 
REMARK    9  A    between atoms: C11_13  and  O3_14 
REMARK   10  A    between atoms: C22_25  and  O4_26 
REMARK   11  A    between atoms: C25_29  and  O5_30 
REMARK   12  A    between atoms: C27_32  and  O6_33 
ROOT
HETATM    1  C9  UNL     1      -0.765   8.646  13.485  1.00  0.00     0.029 C 
HETATM    2  C10 UNL     1      -0.195   7.697  14.581  1.00  0.00     0.152 C 
HETATM    3  C11 UNL     1      -1.400   7.150  15.384  1.00  0.00     0.155 C 
HETATM    4  C12 UNL     1      -2.538   7.237  14.374  1.00  0.00     0.060 C 
HETATM    5  C13 UNL     1      -2.313   8.643  13.748  1.00  0.00    -0.029 C 
HETATM    6  C14 UNL     1      -2.575   9.840  14.718  1.00  0.00     0.016 C 
HETATM    7  C15 UNL     1      -3.256   8.817  12.547  1.00  0.00     0.011 C 
HETATM    8  C16 UNL     1      -4.724   8.542  12.922  1.00  0.00     0.009 C 
HETATM    9  C17 UNL     1      -4.918   7.149  13.578  1.00  0.00     0.029 C 
HETATM   10  C18 UNL     1      -6.434   6.760  13.785  1.00  0.00    -0.031 C 
HETATM   11  C19 UNL     1      -7.216   7.839  14.572  1.00  0.00     0.016 C 
HETATM   12  C20 UNL     1      -7.107   6.661  12.366  1.00  0.00     0.012 C 
HETATM   13  C21 UNL     1      -8.195   5.597  12.297  1.00  0.00     0.032 C 
HETATM   14  C22 UNL     1      -7.609   4.205  12.533  1.00  0.00     0.118 C 
HETATM   15  C23 UNL     1      -6.447   4.204  13.533  1.00  0.00     0.039 C 
HETATM   16  C24 UNL     1      -6.569   5.376  14.528  1.00  0.00     0.025 C 
HETATM   17  C25 UNL     1      -5.599   5.188  15.708  1.00  0.00     0.126 C 
HETATM   18  C26 UNL     1      -4.148   5.521  15.365  1.00  0.00     0.071 C 
HETATM   19  C27 UNL     1      -3.991   6.957  14.826  1.00  0.00     0.071 C 
ENDROOT
BRANCH   1  20
HETATM   20  C7  UNL     1      -0.260   8.314  12.046  1.00  0.00    -0.011 C 
HETATM   21  C8  UNL     1      -1.127   8.856  10.898  1.00  0.00     0.010 C 
BRANCH  20  22
HETATM   22  C6  UNL     1      -0.090   6.784  11.821  1.00  0.00     0.005 C 
BRANCH  22  23
HETATM   23  C5  UNL     1       0.142   6.388  10.356  1.00  0.00     0.005 C 
BRANCH  23  24
HETATM   24  C2  UNL     1       1.632   6.397   9.940  1.00  0.00    -0.017 C 
HETATM   25  C1  UNL     1       1.884   7.603   9.028  1.00  0.00     0.010 C 
BRANCH  24  26
HETATM   26  C3  UNL     1       2.565   6.375  11.173  1.00  0.00     0.030 C 
BRANCH  26  27
HETATM   27  C4  UNL     1       4.056   6.307  10.848  1.00  0.00     0.164 C 
BRANCH  27  28
HETATM   28  O1  UNL     1       4.325   5.213   9.984  1.00  0.00    -0.401 OA
HETATM   29  H9  UNL     1       5.279   5.221   9.798  1.00  0.00     0.209 HD
ENDBRANCH  27  28
ENDBRANCH  26  27
ENDBRANCH  24  26
ENDBRANCH  23  24
ENDBRANCH  22  23
ENDBRANCH  20  22
ENDBRANCH   1  20
BRANCH   2  30
HETATM   30  O2  UNL     1       0.693   8.406  15.444  1.00  0.00    -0.393 OA
HETATM   31  H20 UNL     1       1.021   7.757  16.092  1.00  0.00     0.210 HD
ENDBRANCH   2  30
BRANCH   3  32
HETATM   32  O3  UNL     1      -1.126   5.806  15.775  1.00  0.00    -0.392 OA
HETATM   33  H22 UNL     1      -1.303   5.755  16.733  1.00  0.00     0.210 HD
ENDBRANCH   3  32
BRANCH  19  34
HETATM   34  O6  UNL     1      -4.322   7.869  15.868  1.00  0.00    -0.389 OA
HETATM   35  H48 UNL     1      -4.993   7.439  16.440  1.00  0.00     0.210 HD
ENDBRANCH  19  34
BRANCH  17  36
HETATM   36  O5  UNL     1      -5.998   6.020  16.804  1.00  0.00    -0.395 OA
HETATM   37  H45 UNL     1      -6.895   5.740  17.067  1.00  0.00     0.210 HD
ENDBRANCH  17  36
BRANCH  14  38
HETATM   38  O4  UNL     1      -8.658   3.367  13.015  1.00  0.00    -0.396 OA
HETATM   39  H40 UNL     1      -8.321   2.454  13.031  1.00  0.00     0.210 HD
ENDBRANCH  14  38
TORSDOF 12
ENDMDL
MODEL 6
REMARK minimizedAffinity -7.45288563
REMARK CNNscore 0.672699928
REMARK CNNaffinity 6.82835007
REMARK  12 active torsions:
REMARK  status: ('A' for Active; 'I' for Inactive)
REMARK    1  A    between atoms: C2_2  and  C3_3 
REMARK    2  A    between atoms: C2_2  and  C5_6 
REMARK    3  A    between atoms: C3_3  and  C4_4 
REMARK    4  A    between atoms: C4_4  and  O1_5 
REMARK    5  A    between atoms: C5_6  and  C6_7 
REMARK    6  A    between atoms: C6_7  and  C7_8 
REMARK    7  A    between atoms: C7_8  and  C9_10 
REMARK    8  A    between atoms: C10_11  and  O2_12 
REMARK    9  A    between atoms: C11_13  and  O3_14 
REMARK   10  A    between atoms: C22_25  and  O4_26 
REMARK   11  A    between atoms: C25_29  and  O5_30 
REMARK   12  A    between atoms: C27_32  and  O6_33 
ROOT
HETATM    1  C9  UNL     1      -1.561   9.269  14.303  1.00  0.00     0.029 C 
HETATM    2  C10 UNL     1      -1.206   8.681  15.701  1.00  0.00     0.152 C 
HETATM    3  C11 UNL     1      -2.518   8.135  16.315  1.00  0.00     0.155 C 
HETATM    4  C12 UNL     1      -3.355   7.820  15.081  1.00  0.00     0.060 C 
HETATM    5  C13 UNL     1      -3.117   9.076  14.195  1.00  0.00    -0.029 C 
HETATM    6  C14 UNL     1      -3.742  10.397  14.751  1.00  0.00     0.016 C 
HETATM    7  C15 UNL     1      -3.726   8.836  12.805  1.00  0.00     0.011 C 
HETATM    8  C16 UNL     1      -5.205   8.418  12.888  1.00  0.00     0.009 C 
HETATM    9  C17 UNL     1      -5.423   7.186  13.806  1.00  0.00     0.029 C 
HETATM   10  C18 UNL     1      -6.893   6.614  13.748  1.00  0.00    -0.031 C 
HETATM   11  C19 UNL     1      -7.958   7.699  14.041  1.00  0.00     0.016 C 
HETATM   12  C20 UNL     1      -7.159   6.106  12.283  1.00  0.00     0.012 C 
HETATM   13  C21 UNL     1      -8.078   4.894  12.231  1.00  0.00     0.032 C 
HETATM   14  C22 UNL     1      -7.438   3.696  12.933  1.00  0.00     0.118 C 
HETATM   15  C23 UNL     1      -6.583   4.095  14.141  1.00  0.00     0.039 C 
HETATM   16  C24 UNL     1      -7.079   5.419  14.760  1.00  0.00     0.025 C 
HETATM   17  C25 UNL     1      -6.436   5.645  16.140  1.00  0.00     0.126 C 
HETATM   18  C26 UNL     1      -4.987   6.123  16.068  1.00  0.00     0.071 C 
HETATM   19  C27 UNL     1      -4.840   7.416  15.242  1.00  0.00     0.071 C 
ENDROOT
BRANCH   1  20
HETATM   20  C7  UNL     1      -0.668   8.721  13.148  1.00  0.00    -0.011 C 
HETATM   21  C8  UNL     1      -1.173   9.009  11.724  1.00  0.00     0.010 C 
BRANCH  20  22
HETATM   22  C6  UNL     1      -0.439   7.186  13.259  1.00  0.00     0.005 C 
BRANCH  22  23
HETATM   23  C5  UNL     1      -0.775   6.407  11.980  1.00  0.00     0.005 C 
BRANCH  23  24
HETATM   24  C2  UNL     1      -1.348   4.995  12.247  1.00  0.00    -0.017 C 
HETATM   25  C1  UNL     1      -2.835   5.122  12.597  1.00  0.00     0.010 C 
BRANCH  24  26
HETATM   26  C3  UNL     1      -1.094   4.046  11.052  1.00  0.00     0.030 C 
BRANCH  26  27
HETATM   27  C4  UNL     1      -1.069   2.561  11.408  1.00  0.00     0.164 C 
BRANCH  27  28
HETATM   28  O1  UNL     1       0.116   1.953  10.913  1.00  0.00    -0.401 OA
HETATM   29  H9  UNL     1       0.090   1.018  11.175  1.00  0.00     0.209 HD
ENDBRANCH  27  28
ENDBRANCH  26  27
ENDBRANCH  24  26
ENDBRANCH  23  24
ENDBRANCH  22  23
ENDBRANCH  20  22
ENDBRANCH   1  20
BRANCH   2  30
HETATM   30  O2  UNL     1      -0.649   9.691  16.542  1.00  0.00    -0.393 OA
HETATM   31  H20 UNL     1      -0.439   9.257  17.388  1.00  0.00     0.210 HD
ENDBRANCH   2  30
BRANCH   3  32
HETATM   32  O3  UNL     1      -2.221   6.968  17.079  1.00  0.00    -0.392 OA
HETATM   33  H22 UNL     1      -2.637   7.096  17.953  1.00  0.00     0.210 HD
ENDBRANCH   3  32
BRANCH  19  34
HETATM   34  O6  UNL     1      -5.521   8.466  15.920  1.00  0.00    -0.389 OA
HETATM   35  H48 UNL     1      -6.271   8.068  16.410  1.00  0.00     0.210 HD
ENDBRANCH  19  34
BRANCH  17  36
HETATM   36  O5  UNL     1      -7.189   6.619  16.873  1.00  0.00    -0.395 OA
HETATM   37  H45 UNL     1      -8.091   6.263  16.983  1.00  0.00     0.210 HD
ENDBRANCH  17  36
BRANCH  14  38
HETATM   38  O4  UNL     1      -8.487   2.826  13.354  1.00  0.00    -0.396 OA
HETATM   39  H40 UNL     1      -8.076   2.003  13.672  1.00  0.00     0.210 HD
ENDBRANCH  14  38
TORSDOF 12
ENDMDL
MODEL 7
REMARK minimizedAffinity -7.14650249
REMARK CNNscore 0.653721213
REMARK CNNaffinity 6.10102797
REMARK  12 active torsions:
REMARK  status: ('A' for Active; 'I' for Inactive)
REMARK    1  A    between atoms: C2_2  and  C3_3 
REMARK    2  A    between atoms: C2_2  and  C5_6 
REMARK    3  A    between atoms: C3_3  and  C4_4 
REMARK    4  A    between atoms: C4_4  and  O1_5 
REMARK    5  A    between atoms: C5_6  and  C6_7 
REMARK    6  A    between atoms: C6_7  and  C7_8 
REMARK    7  A    between atoms: C7_8  and  C9_10 
REMARK    8  A    between atoms: C10_11  and  O2_12 
REMARK    9  A    between atoms: C11_13  and  O3_14 
REMARK   10  A    between atoms: C22_25  and  O4_26 
REMARK   11  A    between atoms: C25_29  and  O5_30 
REMARK   12  A    between atoms: C27_32  and  O6_33 
ROOT
HETATM    1  C9  UNL     1      -1.593   7.430  13.893  1.00  0.00     0.029 C 
HETATM    2  C10 UNL     1      -1.813   6.676  15.237  1.00  0.00     0.152 C 
HETATM    3  C11 UNL     1      -1.684   7.718  16.374  1.00  0.00     0.155 C 
HETATM    4  C12 UNL     1      -2.062   9.019  15.675  1.00  0.00     0.060 C 
HETATM    5  C13 UNL     1      -1.284   8.906  14.332  1.00  0.00    -0.029 C 
HETATM    6  C14 UNL     1       0.270   8.987  14.467  1.00  0.00     0.016 C 
HETATM    7  C15 UNL     1      -1.719  10.049  13.400  1.00  0.00     0.011 C 
HETATM    8  C16 UNL     1      -1.579  11.426  14.075  1.00  0.00     0.009 C 
HETATM    9  C17 UNL     1      -2.332  11.503  15.430  1.00  0.00     0.029 C 
HETATM   10  C18 UNL     1      -2.376  12.958  16.039  1.00  0.00    -0.031 C 
HETATM   11  C19 UNL     1      -0.966  13.583  16.170  1.00  0.00     0.016 C 
HETATM   12  C20 UNL     1      -3.185  13.875  15.050  1.00  0.00     0.012 C 
HETATM   13  C21 UNL     1      -3.982  14.960  15.761  1.00  0.00     0.032 C 
HETATM   14  C22 UNL     1      -5.052  14.346  16.663  1.00  0.00     0.118 C 
HETATM   15  C23 UNL     1      -4.612  13.023  17.301  1.00  0.00     0.039 C 
HETATM   16  C24 UNL     1      -3.077  12.962  17.451  1.00  0.00     0.025 C 
HETATM   17  C25 UNL     1      -2.670  11.796  18.370  1.00  0.00     0.126 C 
HETATM   18  C26 UNL     1      -2.742  10.430  17.691  1.00  0.00     0.071 C 
HETATM   19  C27 UNL     1      -1.884  10.368  16.412  1.00  0.00     0.071 C 
ENDROOT
BRANCH   1  20
HETATM   20  C7  UNL     1      -2.727   7.193  12.848  1.00  0.00    -0.011 C 
HETATM   21  C8  UNL     1      -4.121   7.699  13.256  1.00  0.00     0.010 C 
BRANCH  20  22
HETATM   22  C6  UNL     1      -2.869   5.692  12.465  1.00  0.00     0.005 C 
BRANCH  22  23
HETATM   23  C5  UNL     1      -3.967   4.949  13.238  1.00  0.00     0.005 C 
BRANCH  23  24
HETATM   24  C2  UNL     1      -5.005   4.251  12.326  1.00  0.00    -0.017 C 
HETATM   25  C1  UNL     1      -4.313   3.112  11.571  1.00  0.00     0.010 C 
BRANCH  24  26
HETATM   26  C3  UNL     1      -6.236   3.773  13.132  1.00  0.00     0.030 C 
BRANCH  26  27
HETATM   27  C4  UNL     1      -7.583   4.216  12.565  1.00  0.00     0.164 C 
BRANCH  27  28
HETATM   28  O1  UNL     1      -8.632   3.425  13.106  1.00  0.00    -0.401 OA
HETATM   29  H9  UNL     1      -9.464   3.753  12.725  1.00  0.00     0.209 HD
ENDBRANCH  27  28
ENDBRANCH  26  27
ENDBRANCH  24  26
ENDBRANCH  23  24
ENDBRANCH  22  23
ENDBRANCH  20  22
ENDBRANCH   1  20
BRANCH   2  30
HETATM   30  O2  UNL     1      -0.840   5.645  15.398  1.00  0.00    -0.393 OA
HETATM   31  H20 UNL     1      -1.042   5.208  16.245  1.00  0.00     0.210 HD
ENDBRANCH   2  30
BRANCH   3  32
HETATM   32  O3  UNL     1      -2.594   7.382  17.418  1.00  0.00    -0.392 OA
HETATM   33  H22 UNL     1      -2.079   7.384  18.247  1.00  0.00     0.210 HD
ENDBRANCH   3  32
BRANCH  19  34
HETATM   34  O6  UNL     1      -0.515  10.504  16.778  1.00  0.00    -0.389 OA
HETATM   35  H48 UNL     1      -0.476  11.062  17.584  1.00  0.00     0.210 HD
ENDBRANCH  19  34
BRANCH  17  36
HETATM   36  O5  UNL     1      -1.330  11.989  18.836  1.00  0.00    -0.395 OA
HETATM   37  H45 UNL     1      -1.317  12.826  19.339  1.00  0.00     0.210 HD
ENDBRANCH  17  36
BRANCH  14  38
HETATM   38  O4  UNL     1      -5.357  15.293  17.685  1.00  0.00    -0.396 OA
HETATM   39  H40 UNL     1      -6.132  14.961  18.171  1.00  0.00     0.210 HD
ENDBRANCH  14  38
TORSDOF 12
ENDMDL
MODEL 8
REMARK minimizedAffinity -7.82202148
REMARK CNNscore 0.614894092
REMARK CNNaffinity 6.47242975
REMARK  12 active torsions:
REMARK  status: ('A' for Active; 'I' for Inactive)
REMARK    1  A    between atoms: C2_2  and  C3_3 
REMARK    2  A    between atoms: C2_2  and  C5_6 
REMARK    3  A    between atoms: C3_3  and  C4_4 
REMARK    4  A    between atoms: C4_4  and  O1_5 
REMARK    5  A    between atoms: C5_6  and  C6_7 
REMARK    6  A    between atoms: C6_7  and  C7_8 
REMARK    7  A    between atoms: C7_8  and  C9_10 
REMARK    8  A    between atoms: C10_11  and  O2_12 
REMARK    9  A    between atoms: C11_13  and  O3_14 
REMARK   10  A    between atoms: C22_25  and  O4_26 
REMARK   11  A    between atoms: C25_29  and  O5_30 
REMARK   12  A    between atoms: C27_32  and  O6_33 
ROOT
HETATM    1  C9  UNL     1       2.954   8.565  13.534  1.00  0.00     0.029 C 
HETATM    2  C10 UNL     1       3.296   7.916  14.907  1.00  0.00     0.152 C 
HETATM    3  C11 UNL     1       2.043   8.055  15.805  1.00  0.00     0.155 C 
HETATM    4  C12 UNL     1       0.912   8.132  14.785  1.00  0.00     0.060 C 
HETATM    5  C13 UNL     1       1.494   9.113  13.727  1.00  0.00    -0.029 C 
HETATM    6  C14 UNL     1       1.661  10.586  14.220  1.00  0.00     0.016 C 
HETATM    7  C15 UNL     1       0.562   9.146  12.504  1.00  0.00     0.011 C 
HETATM    8  C16 UNL     1      -0.892   9.463  12.898  1.00  0.00     0.009 C 
HETATM    9  C17 UNL     1      -1.438   8.496  13.982  1.00  0.00     0.029 C 
HETATM   10  C18 UNL     1      -2.984   8.669  14.254  1.00  0.00    -0.031 C 
HETATM   11  C19 UNL     1      -3.360  10.131  14.598  1.00  0.00     0.016 C 
HETATM   12  C20 UNL     1      -3.753   8.305  12.931  1.00  0.00     0.012 C 
HETATM   13  C21 UNL     1      -5.106   7.655  13.189  1.00  0.00     0.032 C 
HETATM   14  C22 UNL     1      -4.938   6.316  13.906  1.00  0.00     0.118 C 
HETATM   15  C23 UNL     1      -3.760   6.305  14.887  1.00  0.00     0.039 C 
HETATM   16  C24 UNL     1      -3.465   7.722  15.419  1.00  0.00     0.025 C 
HETATM   17  C25 UNL     1      -2.513   7.660  16.626  1.00  0.00     0.126 C 
HETATM   18  C26 UNL     1      -1.056   7.411  16.243  1.00  0.00     0.071 C 
HETATM   19  C27 UNL     1      -0.524   8.467  15.253  1.00  0.00     0.071 C 
ENDROOT
BRANCH   1  20
HETATM   20  C7  UNL     1       3.239   7.636  12.313  1.00  0.00    -0.011 C 
HETATM   21  C8  UNL     1       4.663   7.063  12.233  1.00  0.00     0.010 C 
BRANCH  20  22
HETATM   22  C6  UNL     1       2.942   8.339  10.958  1.00  0.00     0.005 C 
BRANCH  22  23
HETATM   23  C5  UNL     1       3.600   7.666   9.745  1.00  0.00     0.005 C 
BRANCH  23  24
HETATM   24  C2  UNL     1       2.590   7.006   8.777  1.00  0.00    -0.017 C 
HETATM   25  C1  UNL     1       2.445   7.890   7.534  1.00  0.00     0.010 C 
BRANCH  24  26
HETATM   26  C3  UNL     1       2.999   5.555   8.434  1.00  0.00     0.030 C 
BRANCH  26  27
HETATM   27  C4  UNL     1       3.661   4.789   9.578  1.00  0.00     0.164 C 
BRANCH  27  28
HETATM   28  O1  UNL     1       3.178   3.454   9.626  1.00  0.00    -0.401 OA
HETATM   29  H9  UNL     1       3.637   3.009  10.358  1.00  0.00     0.209 HD
ENDBRANCH  27  28
ENDBRANCH  26  27
ENDBRANCH  24  26
ENDBRANCH  23  24
ENDBRANCH  22  23
ENDBRANCH  20  22
ENDBRANCH   1  20
BRANCH   2  30
HETATM   30  O2  UNL     1       4.410   8.574  15.508  1.00  0.00    -0.393 OA
HETATM   31  H20 UNL     1       4.579   8.114  16.350  1.00  0.00     0.210 HD
ENDBRANCH   2  30
BRANCH   3  32
HETATM   32  O3  UNL     1       1.939   6.903  16.639  1.00  0.00    -0.392 OA
HETATM   33  H22 UNL     1       1.822   7.231  17.551  1.00  0.00     0.210 HD
ENDBRANCH   3  32
BRANCH  19  34
HETATM   34  O6  UNL     1      -0.501   9.730  15.910  1.00  0.00    -0.389 OA
HETATM   35  H48 UNL     1      -1.227   9.737  16.569  1.00  0.00     0.210 HD
ENDBRANCH  19  34
BRANCH  17  36
HETATM   36  O5  UNL     1      -2.574   8.890  17.358  1.00  0.00    -0.395 OA
HETATM   37  H45 UNL     1      -3.494   8.996  17.668  1.00  0.00     0.210 HD
ENDBRANCH  17  36
BRANCH  14  38
HETATM   38  O4  UNL     1      -6.149   6.042  14.607  1.00  0.00    -0.396 OA
HETATM   39  H40 UNL     1      -6.093   5.131  14.945  1.00  0.00     0.210 HD
ENDBRANCH  14  38
TORSDOF 12
ENDMDL
MODEL 9
REMARK minimizedAffinity -7.01170254
REMARK CNNscore 0.583740115
REMARK CNNaffinity 6.14786673
REMARK  12 active torsions:
REMARK  status: ('A' for Active; 'I' for Inactive)
REMARK    1  A    between atoms: C2_2  and  C3_3 
REMARK    2  A    between atoms: C2_2  and  C5_6 
REMARK    3  A    between atoms: C3_3  and  C4_4 
REMARK    4  A    between atoms: C4_4  and  O1_5 
REMARK    5  A    between atoms: C5_6  and  C6_7 
REMARK    6  A    between atoms: C6_7  and  C7_8 
REMARK    7  A    between atoms: C7_8  and  C9_10 
REMARK    8  A    between atoms: C10_11  and  O2_12 
REMARK    9  A    between atoms: C11_13  and  O3_14 
REMARK   10  A    between atoms: C22_25  and  O4_26 
REMARK   11  A    between atoms: C25_29  and  O5_30 
REMARK   12  A    between atoms: C27_32  and  O6_33 
ROOT
HETATM    1  C9  UNL     1     -11.932   7.657  13.009  1.00  0.00     0.029 C 
HETATM    2  C10 UNL     1     -11.818   9.198  12.813  1.00  0.00     0.152 C 
HETATM    3  C11 UNL     1     -13.089   9.833  13.426  1.00  0.00     0.155 C 
HETATM    4  C12 UNL     1     -13.501   8.804  14.473  1.00  0.00     0.060 C 
HETATM    5  C13 UNL     1     -13.330   7.465  13.700  1.00  0.00    -0.029 C 
HETATM    6  C14 UNL     1     -14.347   7.248  12.534  1.00  0.00     0.016 C 
HETATM    7  C15 UNL     1     -13.504   6.293  14.678  1.00  0.00     0.011 C 
HETATM    8  C16 UNL     1     -14.829   6.385  15.458  1.00  0.00     0.009 C 
HETATM    9  C17 UNL     1     -14.994   7.743  16.190  1.00  0.00     0.029 C 
HETATM   10  C18 UNL     1     -16.242   7.785  17.156  1.00  0.00    -0.031 C 
HETATM   11  C19 UNL     1     -17.556   7.397  16.437  1.00  0.00     0.016 C 
HETATM   12  C20 UNL     1     -16.015   6.716  18.288  1.00  0.00     0.012 C 
HETATM   13  C21 UNL     1     -16.604   7.134  19.628  1.00  0.00     0.032 C 
HETATM   14  C22 UNL     1     -15.913   8.392  20.157  1.00  0.00     0.118 C 
HETATM   15  C23 UNL     1     -15.497   9.360  19.043  1.00  0.00     0.039 C 
HETATM   16  C24 UNL     1     -16.408   9.212  17.807  1.00  0.00     0.025 C 
HETATM   17  C25 UNL     1     -16.196  10.386  16.835  1.00  0.00     0.126 C 
HETATM   18  C26 UNL     1     -14.917  10.272  16.009  1.00  0.00     0.071 C 
HETATM   19  C27 UNL     1     -14.854   8.956  15.209  1.00  0.00     0.071 C 
ENDROOT
BRANCH   1  20
HETATM   20  C7  UNL     1     -10.680   7.017  13.687  1.00  0.00    -0.011 C 
HETATM   21  C8  UNL     1      -9.902   7.936  14.643  1.00  0.00     0.010 C 
BRANCH  20  22
HETATM   22  C6  UNL     1      -9.668   6.461  12.646  1.00  0.00     0.005 C 
BRANCH  22  23
HETATM   23  C5  UNL     1      -8.818   5.291  13.161  1.00  0.00     0.005 C 
BRANCH  23  24
HETATM   24  C2  UNL     1      -7.350   5.327  12.671  1.00  0.00    -0.017 C 
HETATM   25  C1  UNL     1      -6.539   6.232  13.604  1.00  0.00     0.010 C 
BRANCH  24  26
HETATM   26  C3  UNL     1      -6.758   3.903  12.555  1.00  0.00     0.030 C 
BRANCH  26  27
HETATM   27  C4  UNL     1      -7.449   2.850  13.419  1.00  0.00     0.164 C 
BRANCH  27  28
HETATM   28  O1  UNL     1      -8.023   1.839  12.603  1.00  0.00    -0.401 OA
HETATM   29  H9  UNL     1      -8.437   1.191  13.197  1.00  0.00     0.209 HD
ENDBRANCH  27  28
ENDBRANCH  26  27
ENDBRANCH  24  26
ENDBRANCH  23  24
ENDBRANCH  22  23
ENDBRANCH  20  22
ENDBRANCH   1  20
BRANCH   2  30
HETATM   30  O2  UNL     1     -11.724   9.519  11.426  1.00  0.00    -0.393 OA
HETATM   31  H20 UNL     1     -11.642  10.488  11.375  1.00  0.00     0.210 HD
ENDBRANCH   2  30
BRANCH   3  32
HETATM   32  O3  UNL     1     -12.745  11.088  14.009  1.00  0.00    -0.392 OA
HETATM   33  H22 UNL     1     -13.383  11.739  13.660  1.00  0.00     0.210 HD
ENDBRANCH   3  32
BRANCH  19  34
HETATM   34  O6  UNL     1     -15.896   8.967  14.239  1.00  0.00    -0.389 OA
HETATM   35  H48 UNL     1     -16.638   9.493  14.604  1.00  0.00     0.210 HD
ENDBRANCH  19  34
BRANCH  17  36
HETATM   36  O5  UNL     1     -17.302  10.472  15.929  1.00  0.00    -0.395 OA
HETATM   37  H45 UNL     1     -18.103  10.628  16.465  1.00  0.00     0.210 HD
ENDBRANCH  17  36
BRANCH  14  38
HETATM   38  O4  UNL     1     -16.817   9.044  21.046  1.00  0.00    -0.396 OA
HETATM   39  H40 UNL     1     -16.329   9.762  21.486  1.00  0.00     0.210 HD
ENDBRANCH  14  38
TORSDOF 12
ENDMDL
