MODEL 1
REMARK minimizedAffinity -10.3064327
REMARK CNNscore 0.634783149
REMARK CNNaffinity 8.39043522
REMARK  8 active torsions:
REMARK  status: ('A' for Active; 'I' for Inactive)
REMARK    1  A    between atoms: C3_4  and  O2_5 
REMARK    2  A    between atoms: O2_5  and  C4_6 
REMARK    3  A    between atoms: C7_10  and  O4_11 
REMARK    4  A    between atoms: O4_11  and  C8_12 
REMARK    5  A    between atoms: C11_16  and  O6_17 
REMARK    6  A    between atoms: O6_17  and  C12_18 
REMARK    7  A    between atoms: C26_33  and  C27_34 
REMARK    8  A    between atoms: C33_42  and  O10_43 
ROOT
HETATM    1  C12 UNL     1      -4.528   7.351  15.216  1.00  0.00     0.125 C 
HETATM    2  C13 UNL     1      -5.105   8.476  14.414  1.00  0.00     0.033 C 
HETATM    3  C14 UNL     1      -4.039   9.189  13.624  1.00  0.00     0.012 C 
HETATM    4  C15 UNL     1      -2.681   9.445  14.397  1.00  0.00    -0.036 C 
HETATM    5  C16 UNL     1      -2.218  10.900  14.146  1.00  0.00     0.016 C 
HETATM    6  C17 UNL     1      -2.893   9.154  15.918  1.00  0.00    -0.004 C 
HETATM    7  C18 UNL     1      -1.550   9.384  16.662  1.00  0.00     0.006 C 
HETATM    8  C19 UNL     1      -0.444   8.445  16.210  1.00  0.00     0.008 C 
HETATM    9  C20 UNL     1      -0.305   8.219  14.652  1.00  0.00     0.026 C 
HETATM   10  C21 UNL     1      -1.622   8.443  13.860  1.00  0.00     0.008 C 
HETATM   11  C22 UNL     1      -1.270   8.611  12.365  1.00  0.00     0.085 C 
HETATM   12  C23 UNL     1      -0.144   7.724  11.878  1.00  0.00     0.139 C 
HETATM   13  O7  UNL     1       0.579   8.036  10.923  1.00  0.00    -0.297 OA
HETATM   14  C24 UNL     1       0.048   6.424  12.650  1.00  0.00     0.055 C 
HETATM   15  C25 UNL     1       1.172   5.546  11.995  1.00  0.00     0.027 C 
HETATM   16  C26 UNL     1      -1.259   5.566  12.730  1.00  0.00     0.035 C 
HETATM   17  C31 UNL     1      -1.016   4.658  13.963  1.00  0.00     0.013 C 
HETATM   18  C32 UNL     1      -0.340   5.569  14.966  1.00  0.00     0.040 C 
HETATM   19  C33 UNL     1       0.303   6.790  14.185  1.00  0.00     0.077 C 
HETATM   20  C34 UNL     1      -3.432   7.746  16.173  1.00  0.00     0.037 C 
ENDROOT
BRANCH   1  21
HETATM   21  O6  UNL     1      -5.003   6.143  15.379  1.00  0.00    -0.355 OA
BRANCH  21  22
HETATM   22  C11 UNL     1      -6.230   5.810  15.146  1.00  0.00     0.274 C 
HETATM   23  C10 UNL     1      -7.328   6.345  16.017  1.00  0.00     0.147 C 
HETATM   24  C9  UNL     1      -8.192   7.184  15.031  1.00  0.00     0.190 C 
HETATM   25  C8  UNL     1      -8.491   6.514  13.902  1.00  0.00     0.150 C 
HETATM   26  O5  UNL     1      -8.486   8.325  15.446  1.00  0.00    -0.290 OA
HETATM   27  C35 UNL     1      -7.814   5.227  13.683  1.00  0.00     0.100 C 
HETATM   28  O11 UNL     1      -6.433   5.222  14.035  1.00  0.00    -0.318 OA
HETATM   29  C36 UNL     1      -8.298   4.245  12.930  1.00  0.00     0.054 C 
BRANCH  25  30
HETATM   30  O4  UNL     1      -9.335   7.019  12.876  1.00  0.00    -0.313 OA
BRANCH  30  31
HETATM   31  C7  UNL     1     -10.613   7.229  13.291  1.00  0.00     0.280 C 
HETATM   32  C6  UNL     1     -11.027   8.694  13.158  1.00  0.00     0.147 C 
HETATM   33  C5  UNL     1     -12.424   9.037  13.690  1.00  0.00     0.190 C 
HETATM   34  C4  UNL     1     -13.185   8.004  14.112  1.00  0.00     0.150 C 
HETATM   35  O3  UNL     1     -12.662  10.284  13.681  1.00  0.00    -0.290 OA
HETATM   36  C37 UNL     1     -12.677   6.632  14.112  1.00  0.00     0.100 C 
HETATM   37  O12 UNL     1     -11.327   6.314  13.877  1.00  0.00    -0.318 OA
HETATM   38  C38 UNL     1     -13.386   5.546  14.462  1.00  0.00     0.054 C 
BRANCH  34  39
HETATM   39  O2  UNL     1     -14.545   8.134  14.552  1.00  0.00    -0.313 OA
BRANCH  39  40
HETATM   40  C3  UNL     1     -15.439   7.855  13.570  1.00  0.00     0.280 C 
HETATM   41  O1  UNL     1     -16.200   6.796  13.614  1.00  0.00    -0.316 OA
HETATM   42  C2  UNL     1     -17.336   6.807  12.796  1.00  0.00     0.116 C 
HETATM   43  C1  UNL     1     -18.126   5.749  13.025  1.00  0.00     0.055 C 
HETATM   44  C41 UNL     1     -17.702   7.858  11.827  1.00  0.00     0.249 C 
HETATM   45  C40 UNL     1     -16.531   8.736  11.493  1.00  0.00     0.206 C 
HETATM   46  O14 UNL     1     -18.773   8.015  11.270  1.00  0.00    -0.281 OA
HETATM   47  C39 UNL     1     -15.359   8.735  12.396  1.00  0.00     0.149 C 
HETATM   48  O13 UNL     1     -16.498   9.333  10.433  1.00  0.00    -0.289 OA
ENDBRANCH  39  40
ENDBRANCH  34  39
ENDBRANCH  30  31
ENDBRANCH  25  30
ENDBRANCH  21  22
ENDBRANCH   1  21
BRANCH  19  49
HETATM   49  O10 UNL     1       1.576   6.798  14.501  1.00  0.00    -0.388 OA
ATOM     50  H10 UNL     1       1.931   5.961  14.228  1.00  0.00     0.210 HD
ENDBRANCH  19  49
BRANCH  16  51
HETATM   51  C27 UNL     1      -1.891   4.797  11.592  1.00  0.00    -0.045 C 
HETATM   52  C28 UNL     1      -1.287   3.833  11.005  1.00  0.00     0.087 C 
HETATM   53  C29 UNL     1      -1.916   2.714  10.732  1.00  0.00     0.283 C 
HETATM   54  O8  UNL     1      -1.240   1.771  10.255  1.00  0.00    -0.260 OA
HETATM   55  O9  UNL     1      -3.281   2.982  10.908  1.00  0.00    -0.314 OA
HETATM   56  C30 UNL     1      -3.330   4.339  11.584  1.00  0.00     0.213 C 
ENDBRANCH  16  51
TORSDOF 8
ENDMDL
MODEL 2
REMARK minimizedAffinity -9.75675201
REMARK CNNscore 0.563625336
REMARK CNNaffinity 8.48788071
REMARK  8 active torsions:
REMARK  status: ('A' for Active; 'I' for Inactive)
REMARK    1  A    between atoms: C3_4  and  O2_5 
REMARK    2  A    between atoms: O2_5  and  C4_6 
REMARK    3  A    between atoms: C7_10  and  O4_11 
REMARK    4  A    between atoms: O4_11  and  C8_12 
REMARK    5  A    between atoms: C11_16  and  O6_17 
REMARK    6  A    between atoms: O6_17  and  C12_18 
REMARK    7  A    between atoms: C26_33  and  C27_34 
REMARK    8  A    between atoms: C33_42  and  O10_43 
ROOT
HETATM    1  C12 UNL     1     -10.315   8.678  16.431  1.00  0.00     0.125 C 
HETATM    2  C13 UNL     1     -10.669   9.022  17.843  1.00  0.00     0.033 C 
HETATM    3  C14 UNL     1     -11.737  10.084  17.899  1.00  0.00     0.012 C 
HETATM    4  C15 UNL     1     -11.566  11.269  16.863  1.00  0.00    -0.036 C 
HETATM    5  C16 UNL     1     -11.810  12.616  17.585  1.00  0.00     0.016 C 
HETATM    6  C17 UNL     1     -10.139  11.196  16.230  1.00  0.00    -0.004 C 
HETATM    7  C18 UNL     1      -9.991  12.348  15.199  1.00  0.00     0.006 C 
HETATM    8  C19 UNL     1     -10.966  12.244  14.038  1.00  0.00     0.008 C 
HETATM    9  C20 UNL     1     -12.458  11.872  14.402  1.00  0.00     0.026 C 
HETATM   10  C21 UNL     1     -12.605  11.072  15.726  1.00  0.00     0.008 C 
HETATM   11  C22 UNL     1     -14.082  11.144  16.177  1.00  0.00     0.085 C 
HETATM   12  C23 UNL     1     -15.090  11.085  15.049  1.00  0.00     0.139 C 
HETATM   13  O7  UNL     1     -16.214  11.597  15.139  1.00  0.00    -0.297 OA
HETATM   14  C24 UNL     1     -14.626  10.362  13.791  1.00  0.00     0.055 C 
HETATM   15  C25 UNL     1     -15.784  10.277  12.735  1.00  0.00     0.027 C 
HETATM   16  C26 UNL     1     -14.118   8.908  14.077  1.00  0.00     0.035 C 
HETATM   17  C31 UNL     1     -13.212   8.599  12.858  1.00  0.00     0.013 C 
HETATM   18  C32 UNL     1     -12.475   9.898  12.606  1.00  0.00     0.040 C 
HETATM   19  C33 UNL     1     -13.300  11.081  13.264  1.00  0.00     0.077 C 
HETATM   20  C34 UNL     1      -9.854   9.838  15.587  1.00  0.00     0.037 C 
ENDROOT
BRANCH   1  21
HETATM   21  O6  UNL     1     -10.116   7.494  15.909  1.00  0.00    -0.355 OA
BRANCH  21  22
HETATM   22  C11 UNL     1      -9.188   7.229  15.049  1.00  0.00     0.274 C 
HETATM   23  C10 UNL     1      -7.750   7.465  15.406  1.00  0.00     0.147 C 
HETATM   24  C9  UNL     1      -7.127   6.040  15.343  1.00  0.00     0.190 C 
HETATM   25  C8  UNL     1      -7.444   5.384  14.210  1.00  0.00     0.150 C 
HETATM   26  O5  UNL     1      -6.422   5.741  16.330  1.00  0.00    -0.290 OA
HETATM   27  C35 UNL     1      -8.455   5.996  13.337  1.00  0.00     0.100 C 
HETATM   28  O11 UNL     1      -9.563   6.565  14.030  1.00  0.00    -0.318 OA
HETATM   29  C36 UNL     1      -8.547   5.779  12.030  1.00  0.00     0.054 C 
BRANCH  25  30
HETATM   30  O4  UNL     1      -6.937   4.101  13.865  1.00  0.00    -0.313 OA
BRANCH  30  31
HETATM   31  C7  UNL     1      -5.700   4.149  13.303  1.00  0.00     0.280 C 
HETATM   32  C6  UNL     1      -5.101   5.555  13.351  1.00  0.00     0.147 C 
HETATM   33  C5  UNL     1      -3.743   5.720  12.657  1.00  0.00     0.190 C 
HETATM   34  C4  UNL     1      -3.165   4.597  12.178  1.00  0.00     0.150 C 
HETATM   35  O3  UNL     1      -3.359   6.928  12.608  1.00  0.00    -0.290 OA
HETATM   36  C37 UNL     1      -3.830   3.297  12.269  1.00  0.00     0.100 C 
HETATM   37  O12 UNL     1      -5.172   3.148  12.663  1.00  0.00    -0.318 OA
HETATM   38  C38 UNL     1      -3.301   2.129  11.868  1.00  0.00     0.054 C 
BRANCH  34  39
HETATM   39  O2  UNL     1      -1.859   4.555  11.584  1.00  0.00    -0.313 OA
BRANCH  39  40
HETATM   40  C3  UNL     1      -1.042   5.531  12.053  1.00  0.00     0.280 C 
HETATM   41  O1  UNL     1      -0.482   6.400  11.258  1.00  0.00    -0.316 OA
HETATM   42  C2  UNL     1      -0.003   7.575  11.850  1.00  0.00     0.116 C 
HETATM   43  C1  UNL     1       0.414   8.461  10.936  1.00  0.00     0.055 C 
HETATM   44  C41 UNL     1       0.009   7.879  13.295  1.00  0.00     0.249 C 
HETATM   45  C40 UNL     1      -0.168   6.641  14.124  1.00  0.00     0.206 C 
HETATM   46  O14 UNL     1       0.203   8.958  13.825  1.00  0.00    -0.281 OA
HETATM   47  C39 UNL     1      -0.713   5.425  13.482  1.00  0.00     0.149 C 
HETATM   48  O13 UNL     1       0.253   6.605  15.266  1.00  0.00    -0.289 OA
ENDBRANCH  39  40
ENDBRANCH  34  39
ENDBRANCH  30  31
ENDBRANCH  25  30
ENDBRANCH  21  22
ENDBRANCH   1  21
BRANCH  19  49
HETATM   49  O10 UNL     1     -13.537  11.942  12.302  1.00  0.00    -0.388 OA
ATOM     50  H10 UNL     1     -14.029  11.479  11.635  1.00  0.00     0.210 HD
ENDBRANCH  19  49
BRANCH  16  51
HETATM   51  C27 UNL     1     -14.979   7.721  14.443  1.00  0.00    -0.045 C 
HETATM   52  C28 UNL     1     -15.968   7.349  13.721  1.00  0.00     0.087 C 
HETATM   53  C29 UNL     1     -16.157   6.080  13.443  1.00  0.00     0.283 C 
HETATM   54  O8  UNL     1     -17.079   5.794  12.642  1.00  0.00    -0.260 OA
HETATM   55  O9  UNL     1     -15.326   5.363  14.314  1.00  0.00    -0.314 OA
HETATM   56  C30 UNL     1     -14.428   6.408  14.949  1.00  0.00     0.213 C 
ENDBRANCH  16  51
TORSDOF 8
ENDMDL
MODEL 3
REMARK minimizedAffinity -9.83820248
REMARK CNNscore 0.416994303
REMARK CNNaffinity 6.63015938
REMARK  8 active torsions:
REMARK  status: ('A' for Active; 'I' for Inactive)
REMARK    1  A    between atoms: C3_4  and  O2_5 
REMARK    2  A    between atoms: O2_5  and  C4_6 
REMARK    3  A    between atoms: C7_10  and  O4_11 
REMARK    4  A    between atoms: O4_11  and  C8_12 
REMARK    5  A    between atoms: C11_16  and  O6_17 
REMARK    6  A    between atoms: O6_17  and  C12_18 
REMARK    7  A    between atoms: C26_33  and  C27_34 
REMARK    8  A    between atoms: C33_42  and  O10_43 
ROOT
HETATM    1  C12 UNL     1       1.535  13.589  18.300  1.00  0.00     0.125 C 
HETATM    2  C13 UNL     1       2.154  13.098  17.028  1.00  0.00     0.033 C 
HETATM    3  C14 UNL     1       3.658  13.088  17.118  1.00  0.00     0.012 C 
HETATM    4  C15 UNL     1       4.301  14.353  17.820  1.00  0.00    -0.036 C 
HETATM    5  C16 UNL     1       5.505  14.844  16.981  1.00  0.00     0.016 C 
HETATM    6  C17 UNL     1       3.211  15.461  17.982  1.00  0.00    -0.004 C 
HETATM    7  C18 UNL     1       3.847  16.686  18.693  1.00  0.00     0.006 C 
HETATM    8  C19 UNL     1       4.338  16.378  20.098  1.00  0.00     0.008 C 
HETATM    9  C20 UNL     1       5.128  15.022  20.287  1.00  0.00     0.026 C 
HETATM   10  C21 UNL     1       4.772  13.932  19.239  1.00  0.00     0.008 C 
HETATM   11  C22 UNL     1       5.878  12.853  19.263  1.00  0.00     0.085 C 
HETATM   12  C23 UNL     1       6.427  12.542  20.639  1.00  0.00     0.139 C 
HETATM   13  O7  UNL     1       7.576  12.115  20.812  1.00  0.00    -0.297 OA
HETATM   14  C24 UNL     1       5.474  12.798  21.800  1.00  0.00     0.055 C 
HETATM   15  C25 UNL     1       6.113  12.346  23.159  1.00  0.00     0.027 C 
HETATM   16  C26 UNL     1       4.102  12.060  21.634  1.00  0.00     0.035 C 
HETATM   17  C31 UNL     1       3.148  12.870  22.547  1.00  0.00     0.013 C 
HETATM   18  C32 UNL     1       3.554  14.311  22.322  1.00  0.00     0.040 C 
HETATM   19  C33 UNL     1       5.034  14.334  21.752  1.00  0.00     0.077 C 
HETATM   20  C34 UNL     1       1.979  14.962  18.737  1.00  0.00     0.037 C 
ENDROOT
BRANCH   1  21
HETATM   21  O6  UNL     1       0.498  13.108  18.937  1.00  0.00    -0.355 OA
BRANCH  21  22
HETATM   22  C11 UNL     1      -0.445  12.428  18.374  1.00  0.00     0.274 C 
HETATM   23  C10 UNL     1      -0.564  12.410  16.879  1.00  0.00     0.147 C 
HETATM   24  C9  UNL     1      -0.340  10.912  16.519  1.00  0.00     0.190 C 
HETATM   25  C8  UNL     1      -1.091  10.080  17.267  1.00  0.00     0.150 C 
HETATM   26  O5  UNL     1       0.474  10.719  15.592  1.00  0.00    -0.290 OA
HETATM   27  C35 UNL     1      -1.819  10.666  18.402  1.00  0.00     0.100 C 
HETATM   28  O11 UNL     1      -1.075  11.631  19.142  1.00  0.00    -0.318 OA
HETATM   29  C36 UNL     1      -2.923  10.151  18.930  1.00  0.00     0.054 C 
BRANCH  25  30
HETATM   30  O4  UNL     1      -1.140   8.671  17.085  1.00  0.00    -0.313 OA
BRANCH  30  31
HETATM   31  C7  UNL     1      -2.003   8.288  16.107  1.00  0.00     0.280 C 
HETATM   32  C6  UNL     1      -1.492   7.074  15.332  1.00  0.00     0.147 C 
HETATM   33  C5  UNL     1      -2.361   6.630  14.149  1.00  0.00     0.190 C 
HETATM   34  C4  UNL     1      -3.536   7.276  13.981  1.00  0.00     0.150 C 
HETATM   35  O3  UNL     1      -1.825   5.708  13.462  1.00  0.00    -0.290 OA
HETATM   36  C37 UNL     1      -3.930   8.382  14.854  1.00  0.00     0.100 C 
HETATM   37  O12 UNL     1      -3.054   8.980  15.778  1.00  0.00    -0.318 OA
HETATM   38  C38 UNL     1      -5.100   9.039  14.789  1.00  0.00     0.054 C 
BRANCH  34  39
HETATM   39  O2  UNL     1      -4.510   6.930  12.986  1.00  0.00    -0.313 OA
BRANCH  39  40
HETATM   40  C3  UNL     1      -5.215   5.819  13.312  1.00  0.00     0.280 C 
HETATM   41  O1  UNL     1      -5.945   5.760  14.392  1.00  0.00    -0.316 OA
HETATM   42  C2  UNL     1      -6.925   4.762  14.433  1.00  0.00     0.116 C 
HETATM   43  C1  UNL     1      -7.714   4.882  15.510  1.00  0.00     0.055 C 
HETATM   44  C41 UNL     1      -7.148   3.717  13.415  1.00  0.00     0.249 C 
HETATM   45  C40 UNL     1      -5.961   3.564  12.509  1.00  0.00     0.206 C 
HETATM   46  O14 UNL     1      -8.113   2.983  13.302  1.00  0.00    -0.281 OA
HETATM   47  C39 UNL     1      -4.960   4.653  12.455  1.00  0.00     0.149 C 
HETATM   48  O13 UNL     1      -5.763   2.509  11.934  1.00  0.00    -0.289 OA
ENDBRANCH  39  40
ENDBRANCH  34  39
ENDBRANCH  30  31
ENDBRANCH  25  30
ENDBRANCH  21  22
ENDBRANCH   1  21
BRANCH  19  49
HETATM   49  O10 UNL     1       5.730  15.087  22.569  1.00  0.00    -0.388 OA
ATOM     50  H10 UNL     1       5.675  14.684  23.428  1.00  0.00     0.210 HD
ENDBRANCH  19  49
BRANCH  16  51
HETATM   51  C27 UNL     1       3.871  10.572  21.772  1.00  0.00    -0.045 C 
HETATM   52  C28 UNL     1       3.631  10.023  22.903  1.00  0.00     0.087 C 
HETATM   53  C29 UNL     1       2.678   9.128  23.025  1.00  0.00     0.283 C 
HETATM   54  O8  UNL     1       2.422   8.710  24.180  1.00  0.00    -0.260 OA
HETATM   55  O9  UNL     1       2.321   8.757  21.722  1.00  0.00    -0.314 OA
HETATM   56  C30 UNL     1       3.016   9.764  20.824  1.00  0.00     0.213 C 
ENDBRANCH  16  51
TORSDOF 8
ENDMDL
MODEL 4
REMARK minimizedAffinity -9.50384426
REMARK CNNscore 0.351949483
REMARK CNNaffinity 8.18069839
REMARK  8 active torsions:
REMARK  status: ('A' for Active; 'I' for Inactive)
REMARK    1  A    between atoms: C3_4  and  O2_5 
REMARK    2  A    between atoms: O2_5  and  C4_6 
REMARK    3  A    between atoms: C7_10  and  O4_11 
REMARK    4  A    between atoms: O4_11  and  C8_12 
REMARK    5  A    between atoms: C11_16  and  O6_17 
REMARK    6  A    between atoms: O6_17  and  C12_18 
REMARK    7  A    between atoms: C26_33  and  C27_34 
REMARK    8  A    between atoms: C33_42  and  O10_43 
ROOT
HETATM    1  C12 UNL     1     -11.279   8.544  15.341  1.00  0.00     0.125 C 
HETATM    2  C13 UNL     1     -11.268   9.199  16.687  1.00  0.00     0.033 C 
HETATM    3  C14 UNL     1     -12.574   9.896  16.968  1.00  0.00     0.012 C 
HETATM    4  C15 UNL     1     -13.185  10.703  15.751  1.00  0.00    -0.036 C 
HETATM    5  C16 UNL     1     -13.664  12.088  16.247  1.00  0.00     0.016 C 
HETATM    6  C17 UNL     1     -12.110  10.827  14.624  1.00  0.00    -0.004 C 
HETATM    7  C18 UNL     1     -12.728  11.598  13.426  1.00  0.00     0.006 C 
HETATM    8  C19 UNL     1     -13.910  10.882  12.796  1.00  0.00     0.008 C 
HETATM    9  C20 UNL     1     -14.965  10.252  13.790  1.00  0.00     0.026 C 
HETATM   10  C21 UNL     1     -14.383   9.892  15.185  1.00  0.00     0.008 C 
HETATM   11  C22 UNL     1     -15.559   9.698  16.168  1.00  0.00     0.085 C 
HETATM   12  C23 UNL     1     -16.776   9.024  15.572  1.00  0.00     0.139 C 
HETATM   13  O7  UNL     1     -17.918   9.216  16.008  1.00  0.00    -0.297 OA
HETATM   14  C24 UNL     1     -16.503   8.101  14.391  1.00  0.00     0.055 C 
HETATM   15  C25 UNL     1     -17.819   7.385  13.924  1.00  0.00     0.027 C 
HETATM   16  C26 UNL     1     -15.435   7.001  14.713  1.00  0.00     0.035 C 
HETATM   17  C31 UNL     1     -14.914   6.588  13.313  1.00  0.00     0.013 C 
HETATM   18  C32 UNL     1     -14.824   7.893  12.551  1.00  0.00     0.040 C 
HETATM   19  C33 UNL     1     -15.772   8.953  13.253  1.00  0.00     0.077 C 
HETATM   20  C34 UNL     1     -11.566   9.466  14.184  1.00  0.00     0.037 C 
ENDROOT
BRANCH   1  21
HETATM   21  O6  UNL     1     -10.836   7.357  15.012  1.00  0.00    -0.355 OA
BRANCH  21  22
HETATM   22  C11 UNL     1      -9.728   7.147  14.381  1.00  0.00     0.274 C 
HETATM   23  C10 UNL     1      -8.419   7.403  15.066  1.00  0.00     0.147 C 
HETATM   24  C9  UNL     1      -7.752   5.997  15.103  1.00  0.00     0.190 C 
HETATM   25  C8  UNL     1      -7.780   5.377  13.907  1.00  0.00     0.150 C 
HETATM   26  O5  UNL     1      -7.283   5.677  16.215  1.00  0.00    -0.290 OA
HETATM   27  C35 UNL     1      -8.584   5.999  12.844  1.00  0.00     0.100 C 
HETATM   28  O11 UNL     1      -9.839   6.514  13.282  1.00  0.00    -0.318 OA
HETATM   29  C36 UNL     1      -8.367   5.829  11.545  1.00  0.00     0.054 C 
BRANCH  25  30
HETATM   30  O4  UNL     1      -7.167   4.121  13.646  1.00  0.00    -0.313 OA
BRANCH  30  31
HETATM   31  C7  UNL     1      -5.824   4.212  13.455  1.00  0.00     0.280 C 
HETATM   32  C6  UNL     1      -5.162   5.155  14.460  1.00  0.00     0.147 C 
HETATM   33  C5  UNL     1      -3.660   5.388  14.259  1.00  0.00     0.190 C 
HETATM   34  C4  UNL     1      -3.054   4.657  13.298  1.00  0.00     0.150 C 
HETATM   35  O3  UNL     1      -3.192   6.279  15.031  1.00  0.00    -0.290 OA
HETATM   36  C37 UNL     1      -3.810   3.730  12.454  1.00  0.00     0.100 C 
HETATM   37  O12 UNL     1      -5.215   3.681  12.436  1.00  0.00    -0.318 OA
HETATM   38  C38 UNL     1      -3.276   2.930  11.516  1.00  0.00     0.054 C 
BRANCH  34  39
HETATM   39  O2  UNL     1      -1.643   4.680  13.038  1.00  0.00    -0.313 OA
BRANCH  39  40
HETATM   40  C3  UNL     1      -1.267   5.758  12.306  1.00  0.00     0.280 C 
HETATM   41  O1  UNL     1      -1.782   6.940  12.507  1.00  0.00    -0.316 OA
HETATM   42  C2  UNL     1      -1.064   8.031  12.004  1.00  0.00     0.116 C 
HETATM   43  C1  UNL     1      -1.595   9.199  12.392  1.00  0.00     0.055 C 
HETATM   44  C41 UNL     1       0.167   7.964  11.192  1.00  0.00     0.249 C 
HETATM   45  C40 UNL     1       0.368   6.599  10.601  1.00  0.00     0.206 C 
HETATM   46  O14 UNL     1       0.934   8.873  10.930  1.00  0.00    -0.281 OA
HETATM   47  C39 UNL     1      -0.374   5.456  11.178  1.00  0.00     0.149 C 
HETATM   48  O13 UNL     1       1.026   6.464   9.586  1.00  0.00    -0.289 OA
ENDBRANCH  39  40
ENDBRANCH  34  39
ENDBRANCH  30  31
ENDBRANCH  25  30
ENDBRANCH  21  22
ENDBRANCH   1  21
BRANCH  19  49
HETATM   49  O10 UNL     1     -16.598   9.376  12.326  1.00  0.00    -0.388 OA
ATOM     50  H10 UNL     1     -17.070   8.615  12.011  1.00  0.00     0.210 HD
ENDBRANCH  19  49
BRANCH  16  51
HETATM   51  C27 UNL     1     -15.639   5.799  15.606  1.00  0.00    -0.045 C 
HETATM   52  C28 UNL     1     -16.364   5.849  16.660  1.00  0.00     0.087 C 
HETATM   53  C29 UNL     1     -17.219   4.891  16.932  1.00  0.00     0.283 C 
HETATM   54  O8  UNL     1     -17.976   5.054  17.920  1.00  0.00    -0.260 OA
HETATM   55  O9  UNL     1     -16.895   3.826  16.081  1.00  0.00    -0.314 OA
HETATM   56  C30 UNL     1     -15.903   4.404  15.090  1.00  0.00     0.213 C 
ENDBRANCH  16  51
TORSDOF 8
ENDMDL
MODEL 5
REMARK minimizedAffinity -8.67554092
REMARK CNNscore 0.312212259
REMARK CNNaffinity 5.83032751
REMARK  8 active torsions:
REMARK  status: ('A' for Active; 'I' for Inactive)
REMARK    1  A    between atoms: C3_4  and  O2_5 
REMARK    2  A    between atoms: O2_5  and  C4_6 
REMARK    3  A    between atoms: C7_10  and  O4_11 
REMARK    4  A    between atoms: O4_11  and  C8_12 
REMARK    5  A    between atoms: C11_16  and  O6_17 
REMARK    6  A    between atoms: O6_17  and  C12_18 
REMARK    7  A    between atoms: C26_33  and  C27_34 
REMARK    8  A    between atoms: C33_42  and  O10_43 
ROOT
HETATM    1  C12 UNL     1       0.281  10.808  18.254  1.00  0.00     0.125 C 
HETATM    2  C13 UNL     1       0.426   9.783  17.173  1.00  0.00     0.033 C 
HETATM    3  C14 UNL     1      -0.523  10.049  16.033  1.00  0.00     0.012 C 
HETATM    4  C15 UNL     1      -1.985  10.481  16.458  1.00  0.00    -0.036 C 
HETATM    5  C16 UNL     1      -3.015   9.694  15.614  1.00  0.00     0.016 C 
HETATM    6  C17 UNL     1      -2.171  10.230  17.990  1.00  0.00    -0.004 C 
HETATM    7  C18 UNL     1      -3.599  10.680  18.400  1.00  0.00     0.006 C 
HETATM    8  C19 UNL     1      -3.845  12.164  18.190  1.00  0.00     0.008 C 
HETATM    9  C20 UNL     1      -3.324  12.780  16.831  1.00  0.00     0.026 C 
HETATM   10  C21 UNL     1      -2.133  12.006  16.201  1.00  0.00     0.008 C 
HETATM   11  C22 UNL     1      -2.004  12.430  14.721  1.00  0.00     0.085 C 
HETATM   12  C23 UNL     1      -2.281  13.895  14.458  1.00  0.00     0.139 C 
HETATM   13  O7  UNL     1      -2.697  14.304  13.366  1.00  0.00    -0.297 OA
HETATM   14  C24 UNL     1      -2.022  14.834  15.630  1.00  0.00     0.055 C 
HETATM   15  C25 UNL     1      -2.245  16.328  15.210  1.00  0.00     0.027 C 
HETATM   16  C26 UNL     1      -0.572  14.699  16.208  1.00  0.00     0.035 C 
HETATM   17  C31 UNL     1      -0.707  15.259  17.647  1.00  0.00     0.013 C 
HETATM   18  C32 UNL     1      -2.041  14.728  18.127  1.00  0.00     0.040 C 
HETATM   19  C33 UNL     1      -2.918  14.349  16.862  1.00  0.00     0.077 C 
HETATM   20  C34 UNL     1      -1.106  10.935  18.830  1.00  0.00     0.037 C 
ENDROOT
BRANCH   1  21
HETATM   21  O6  UNL     1       1.223  11.419  18.926  1.00  0.00    -0.355 OA
BRANCH  21  22
HETATM   22  C11 UNL     1       2.103  10.813  19.653  1.00  0.00     0.274 C 
HETATM   23  C10 UNL     1       3.561  10.946  19.327  1.00  0.00     0.147 C 
HETATM   24  C9  UNL     1       4.147  11.644  20.589  1.00  0.00     0.190 C 
HETATM   25  C8  UNL     1       3.763  11.052  21.736  1.00  0.00     0.150 C 
HETATM   26  O5  UNL     1       4.891  12.617  20.343  1.00  0.00    -0.290 OA
HETATM   27  C35 UNL     1       2.725  10.015  21.644  1.00  0.00     0.100 C 
HETATM   28  O11 UNL     1       1.665  10.322  20.743  1.00  0.00    -0.318 OA
HETATM   29  C36 UNL     1       2.566   9.034  22.526  1.00  0.00     0.054 C 
BRANCH  25  30
HETATM   30  O4  UNL     1       4.222  11.439  23.025  1.00  0.00    -0.313 OA
BRANCH  30  31
HETATM   31  C7  UNL     1       5.370  12.166  22.986  1.00  0.00     0.280 C 
HETATM   32  C6  UNL     1       5.097  13.667  22.901  1.00  0.00     0.147 C 
HETATM   33  C5  UNL     1       6.337  14.559  22.760  1.00  0.00     0.190 C 
HETATM   34  C4  UNL     1       7.538  13.947  22.841  1.00  0.00     0.150 C 
HETATM   35  O3  UNL     1       6.047  15.777  22.557  1.00  0.00    -0.290 OA
HETATM   36  C37 UNL     1       7.647  12.496  22.999  1.00  0.00     0.100 C 
HETATM   37  O12 UNL     1       6.548  11.626  22.874  1.00  0.00    -0.318 OA
HETATM   38  C38 UNL     1       8.798  11.819  23.142  1.00  0.00     0.054 C 
BRANCH  34  39
HETATM   39  O2  UNL     1       8.797  14.637  22.823  1.00  0.00    -0.313 OA
BRANCH  39  40
HETATM   40  C3  UNL     1       8.800  15.734  23.621  1.00  0.00     0.280 C 
HETATM   41  O1  UNL     1       8.534  15.657  24.896  1.00  0.00    -0.316 OA
HETATM   42  C2  UNL     1       8.948  16.734  25.688  1.00  0.00     0.116 C 
HETATM   43  C1  UNL     1       8.765  16.492  26.994  1.00  0.00     0.055 C 
HETATM   44  C41 UNL     1       9.572  17.982  25.206  1.00  0.00     0.249 C 
HETATM   45  C40 UNL     1       9.357  18.176  23.733  1.00  0.00     0.206 C 
HETATM   46  O14 UNL     1      10.143  18.831  25.866  1.00  0.00    -0.281 OA
HETATM   47  C39 UNL     1       8.958  17.011  22.912  1.00  0.00     0.149 C 
HETATM   48  O13 UNL     1       9.383  19.294  23.254  1.00  0.00    -0.289 OA
ENDBRANCH  39  40
ENDBRANCH  34  39
ENDBRANCH  30  31
ENDBRANCH  25  30
ENDBRANCH  21  22
ENDBRANCH   1  21
BRANCH  19  49
HETATM   49  O10 UNL     1      -4.036  15.027  16.974  1.00  0.00    -0.388 OA
ATOM     50  H10 UNL     1      -3.798  15.947  16.993  1.00  0.00     0.210 HD
ENDBRANCH  19  49
BRANCH  16  51
HETATM   51  C27 UNL     1       0.699  15.178  15.543  1.00  0.00    -0.045 C 
HETATM   52  C28 UNL     1       1.161  16.357  15.730  1.00  0.00     0.087 C 
HETATM   53  C29 UNL     1       2.440  16.548  15.953  1.00  0.00     0.283 C 
HETATM   54  O8  UNL     1       2.810  17.714  16.236  1.00  0.00    -0.260 OA
HETATM   55  O9  UNL     1       3.078  15.346  15.622  1.00  0.00    -0.314 OA
HETATM   56  C30 UNL     1       1.954  14.345  15.433  1.00  0.00     0.213 C 
ENDBRANCH  16  51
TORSDOF 8
ENDMDL
MODEL 6
REMARK minimizedAffinity -8.93674469
REMARK CNNscore 0.311434776
REMARK CNNaffinity 5.70603561
REMARK  8 active torsions:
REMARK  status: ('A' for Active; 'I' for Inactive)
REMARK    1  A    between atoms: C3_4  and  O2_5 
REMARK    2  A    between atoms: O2_5  and  C4_6 
REMARK    3  A    between atoms: C7_10  and  O4_11 
REMARK    4  A    between atoms: O4_11  and  C8_12 
REMARK    5  A    between atoms: C11_16  and  O6_17 
REMARK    6  A    between atoms: O6_17  and  C12_18 
REMARK    7  A    between atoms: C26_33  and  C27_34 
REMARK    8  A    between atoms: C33_42  and  O10_43 
ROOT
HETATM    1  C12 UNL     1       0.132  10.882  18.175  1.00  0.00     0.125 C 
HETATM    2  C13 UNL     1       0.157   9.813  17.128  1.00  0.00     0.033 C 
HETATM    3  C14 UNL     1      -0.870  10.070  16.057  1.00  0.00     0.012 C 
HETATM    4  C15 UNL     1      -2.279  10.570  16.578  1.00  0.00    -0.036 C 
HETATM    5  C16 UNL     1      -3.399   9.789  15.849  1.00  0.00     0.016 C 
HETATM    6  C17 UNL     1      -2.350  10.383  18.128  1.00  0.00    -0.004 C 
HETATM    7  C18 UNL     1      -3.726  10.898  18.630  1.00  0.00     0.006 C 
HETATM    8  C19 UNL     1      -3.939  12.382  18.381  1.00  0.00     0.008 C 
HETATM    9  C20 UNL     1      -3.508  12.927  16.962  1.00  0.00     0.026 C 
HETATM   10  C21 UNL     1      -2.398  12.088  16.272  1.00  0.00     0.008 C 
HETATM   11  C22 UNL     1      -2.373  12.452  14.771  1.00  0.00     0.085 C 
HETATM   12  C23 UNL     1      -2.622  13.915  14.472  1.00  0.00     0.139 C 
HETATM   13  O7  UNL     1      -3.111  14.298  13.400  1.00  0.00    -0.297 OA
HETATM   14  C24 UNL     1      -2.239  14.887  15.582  1.00  0.00     0.055 C 
HETATM   15  C25 UNL     1      -2.447  16.372  15.121  1.00  0.00     0.027 C 
HETATM   16  C26 UNL     1      -0.754  14.722  16.049  1.00  0.00     0.035 C 
HETATM   17  C31 UNL     1      -0.755  15.340  17.470  1.00  0.00     0.013 C 
HETATM   18  C32 UNL     1      -2.063  14.876  18.075  1.00  0.00     0.040 C 
HETATM   19  C33 UNL     1      -3.050  14.481  16.898  1.00  0.00     0.077 C 
HETATM   20  C34 UNL     1      -1.199  11.080  18.853  1.00  0.00     0.037 C 
ENDROOT
BRANCH   1  21
HETATM   21  O6  UNL     1       1.144  11.483  18.746  1.00  0.00    -0.355 OA
BRANCH  21  22
HETATM   22  C11 UNL     1       2.030  10.881  19.469  1.00  0.00     0.274 C 
HETATM   23  C10 UNL     1       3.489  11.098  19.197  1.00  0.00     0.147 C 
HETATM   24  C9  UNL     1       4.005  11.755  20.511  1.00  0.00     0.190 C 
HETATM   25  C8  UNL     1       3.615  11.088  21.614  1.00  0.00     0.150 C 
HETATM   26  O5  UNL     1       4.709  12.773  20.337  1.00  0.00    -0.290 OA
HETATM   27  C35 UNL     1       2.630  10.010  21.437  1.00  0.00     0.100 C 
HETATM   28  O11 UNL     1       1.583  10.316  20.519  1.00  0.00    -0.318 OA
HETATM   29  C36 UNL     1       2.492   8.979  22.262  1.00  0.00     0.054 C 
BRANCH  25  30
HETATM   30  O4  UNL     1       4.018  11.427  22.935  1.00  0.00    -0.313 OA
BRANCH  30  31
HETATM   31  C7  UNL     1       5.162  12.160  22.971  1.00  0.00     0.280 C 
HETATM   32  C6  UNL     1       6.410  11.277  22.996  1.00  0.00     0.147 C 
HETATM   33  C5  UNL     1       7.745  12.021  23.130  1.00  0.00     0.190 C 
HETATM   34  C4  UNL     1       7.695  13.370  23.097  1.00  0.00     0.150 C 
HETATM   35  O3  UNL     1       8.732  11.238  23.282  1.00  0.00    -0.290 OA
HETATM   36  C37 UNL     1       6.422  14.085  22.995  1.00  0.00     0.100 C 
HETATM   37  O12 UNL     1       5.173  13.451  23.129  1.00  0.00    -0.318 OA
HETATM   38  C38 UNL     1       6.291  15.418  22.902  1.00  0.00     0.054 C 
BRANCH  34  39
HETATM   39  O2  UNL     1       8.852  14.219  23.117  1.00  0.00    -0.313 OA
BRANCH  39  40
HETATM   40  C3  UNL     1       9.504  14.238  21.928  1.00  0.00     0.280 C 
HETATM   41  O1  UNL     1      10.306  13.274  21.569  1.00  0.00    -0.316 OA
HETATM   42  C2  UNL     1      10.603  13.181  20.204  1.00  0.00     0.116 C 
HETATM   43  C1  UNL     1      11.307  12.077  19.920  1.00  0.00     0.055 C 
HETATM   44  C41 UNL     1      10.170  14.123  19.153  1.00  0.00     0.249 C 
HETATM   45  C40 UNL     1       9.712  15.429  19.732  1.00  0.00     0.206 C 
HETATM   46  O14 UNL     1      10.214  13.961  17.947  1.00  0.00    -0.281 OA
HETATM   47  C39 UNL     1       9.366  15.489  21.170  1.00  0.00     0.149 C 
HETATM   48  O13 UNL     1       9.753  16.444  19.061  1.00  0.00    -0.289 OA
ENDBRANCH  39  40
ENDBRANCH  34  39
ENDBRANCH  30  31
ENDBRANCH  25  30
ENDBRANCH  21  22
ENDBRANCH   1  21
BRANCH  19  49
HETATM   49  O10 UNL     1      -4.132  15.202  17.070  1.00  0.00    -0.388 OA
ATOM     50  H10 UNL     1      -3.864  16.113  17.033  1.00  0.00     0.210 HD
ENDBRANCH  19  49
BRANCH  16  51
HETATM   51  C27 UNL     1       0.475  15.130  15.268  1.00  0.00    -0.045 C 
HETATM   52  C28 UNL     1       0.613  14.855  14.025  1.00  0.00     0.087 C 
HETATM   53  C29 UNL     1       1.054  15.760  13.183  1.00  0.00     0.283 C 
HETATM   54  O8  UNL     1       1.063  15.461  11.964  1.00  0.00    -0.260 OA
HETATM   55  O9  UNL     1       1.577  16.799  13.965  1.00  0.00    -0.314 OA
HETATM   56  C30 UNL     1       1.130  16.487  15.381  1.00  0.00     0.213 C 
ENDBRANCH  16  51
TORSDOF 8
ENDMDL
MODEL 7
REMARK minimizedAffinity -8.12086773
REMARK CNNscore 0.257581681
REMARK CNNaffinity 6.18724871
REMARK  8 active torsions:
REMARK  status: ('A' for Active; 'I' for Inactive)
REMARK    1  A    between atoms: C3_4  and  O2_5 
REMARK    2  A    between atoms: O2_5  and  C4_6 
REMARK    3  A    between atoms: C7_10  and  O4_11 
REMARK    4  A    between atoms: O4_11  and  C8_12 
REMARK    5  A    between atoms: C11_16  and  O6_17 
REMARK    6  A    between atoms: O6_17  and  C12_18 
REMARK    7  A    between atoms: C26_33  and  C27_34 
REMARK    8  A    between atoms: C33_42  and  O10_43 
ROOT
HETATM    1  C12 UNL     1      -4.539  14.273  18.573  1.00  0.00     0.125 C 
HETATM    2  C13 UNL     1      -4.307  15.646  18.023  1.00  0.00     0.033 C 
HETATM    3  C14 UNL     1      -5.406  16.592  18.429  1.00  0.00     0.012 C 
HETATM    4  C15 UNL     1      -6.871  15.998  18.355  1.00  0.00    -0.036 C 
HETATM    5  C16 UNL     1      -7.806  17.029  17.679  1.00  0.00     0.016 C 
HETATM    6  C17 UNL     1      -6.838  14.642  17.577  1.00  0.00    -0.004 C 
HETATM    7  C18 UNL     1      -8.275  14.057  17.532  1.00  0.00     0.006 C 
HETATM    8  C19 UNL     1      -8.835  13.733  18.907  1.00  0.00     0.008 C 
HETATM    9  C20 UNL     1      -8.597  14.812  20.037  1.00  0.00     0.026 C 
HETATM   10  C21 UNL     1      -7.350  15.707  19.804  1.00  0.00     0.008 C 
HETATM   11  C22 UNL     1      -7.468  16.954  20.711  1.00  0.00     0.085 C 
HETATM   12  C23 UNL     1      -8.060  16.686  22.078  1.00  0.00     0.139 C 
HETATM   13  O7  UNL     1      -8.665  17.555  22.719  1.00  0.00    -0.297 OA
HETATM   14  C24 UNL     1      -7.871  15.270  22.610  1.00  0.00     0.055 C 
HETATM   15  C25 UNL     1      -8.434  15.141  24.068  1.00  0.00     0.027 C 
HETATM   16  C26 UNL     1      -6.370  14.821  22.622  1.00  0.00     0.035 C 
HETATM   17  C31 UNL     1      -6.460  13.274  22.631  1.00  0.00     0.013 C 
HETATM   18  C32 UNL     1      -7.601  12.964  21.685  1.00  0.00     0.040 C 
HETATM   19  C33 UNL     1      -8.515  14.254  21.557  1.00  0.00     0.077 C 
HETATM   20  C34 UNL     1      -5.853  13.644  18.187  1.00  0.00     0.037 C 
ENDROOT
BRANCH   1  21
HETATM   21  O6  UNL     1      -3.672  13.462  19.124  1.00  0.00    -0.355 OA
BRANCH  21  22
HETATM   22  C11 UNL     1      -2.826  12.747  18.459  1.00  0.00     0.274 C 
HETATM   23  C10 UNL     1      -2.963  11.253  18.440  1.00  0.00     0.147 C 
HETATM   24  C9  UNL     1      -3.218  10.936  16.937  1.00  0.00     0.190 C 
HETATM   25  C8  UNL     1      -2.336  11.545  16.120  1.00  0.00     0.150 C 
HETATM   26  O5  UNL     1      -4.174  10.159  16.728  1.00  0.00    -0.290 OA
HETATM   27  C35 UNL     1      -1.437  12.540  16.722  1.00  0.00     0.100 C 
HETATM   28  O11 UNL     1      -2.061  13.396  17.675  1.00  0.00    -0.318 OA
HETATM   29  C36 UNL     1      -0.250  12.873  16.227  1.00  0.00     0.054 C 
BRANCH  25  30
HETATM   30  O4  UNL     1      -2.294  11.356  14.712  1.00  0.00    -0.313 OA
BRANCH  30  31
HETATM   31  C7  UNL     1      -1.723  10.177  14.347  1.00  0.00     0.280 C 
HETATM   32  C6  UNL     1      -2.724   9.237  13.676  1.00  0.00     0.147 C 
HETATM   33  C5  UNL     1      -2.187   7.847  13.315  1.00  0.00     0.190 C 
HETATM   34  C4  UNL     1      -0.869   7.633  13.518  1.00  0.00     0.150 C 
HETATM   35  O3  UNL     1      -3.091   7.065  12.887  1.00  0.00    -0.290 OA
HETATM   36  C37 UNL     1      -0.010   8.662  14.106  1.00  0.00     0.100 C 
HETATM   37  O12 UNL     1      -0.512   9.843  14.682  1.00  0.00    -0.318 OA
HETATM   38  C38 UNL     1       1.316   8.548  14.290  1.00  0.00     0.054 C 
BRANCH  34  39
HETATM   39  O2  UNL     1      -0.184   6.426  13.151  1.00  0.00    -0.313 OA
BRANCH  39  40
HETATM   40  C3  UNL     1       0.267   6.452  11.872  1.00  0.00     0.280 C 
HETATM   41  O1  UNL     1      -0.230   7.268  10.984  1.00  0.00    -0.316 OA
HETATM   42  C2  UNL     1       0.546   7.503   9.843  1.00  0.00     0.116 C 
HETATM   43  C1  UNL     1       0.021   8.463   9.071  1.00  0.00     0.055 C 
HETATM   44  C41 UNL     1       1.826   6.846   9.511  1.00  0.00     0.249 C 
HETATM   45  C40 UNL     1       2.031   5.593  10.311  1.00  0.00     0.206 C 
HETATM   46  O14 UNL     1       2.632   7.177   8.660  1.00  0.00    -0.281 OA
HETATM   47  C39 UNL     1       1.224   5.389  11.535  1.00  0.00     0.149 C 
HETATM   48  O13 UNL     1       2.751   4.708   9.887  1.00  0.00    -0.289 OA
ENDBRANCH  39  40
ENDBRANCH  34  39
ENDBRANCH  30  31
ENDBRANCH  25  30
ENDBRANCH  21  22
ENDBRANCH   1  21
BRANCH  19  49
HETATM   49  O10 UNL     1      -9.727  13.879  21.890  1.00  0.00    -0.388 OA
ATOM     50  H10 UNL     1      -9.678  13.552  22.780  1.00  0.00     0.210 HD
ENDBRANCH  19  49
BRANCH  16  51
HETATM   51  C27 UNL     1      -5.301  15.320  23.567  1.00  0.00    -0.045 C 
HETATM   52  C28 UNL     1      -4.060  15.319  23.251  1.00  0.00     0.087 C 
HETATM   53  C29 UNL     1      -3.303  16.361  23.504  1.00  0.00     0.283 C 
HETATM   54  O8  UNL     1      -2.125  16.339  23.072  1.00  0.00    -0.260 OA
HETATM   55  O9  UNL     1      -4.033  17.168  24.387  1.00  0.00    -0.314 OA
HETATM   56  C30 UNL     1      -5.430  16.577  24.394  1.00  0.00     0.213 C 
ENDBRANCH  16  51
TORSDOF 8
ENDMDL
MODEL 8
REMARK minimizedAffinity -10.2174072
REMARK CNNscore 0.227474451
REMARK CNNaffinity 6.73391676
REMARK  8 active torsions:
REMARK  status: ('A' for Active; 'I' for Inactive)
REMARK    1  A    between atoms: C3_4  and  O2_5 
REMARK    2  A    between atoms: O2_5  and  C4_6 
REMARK    3  A    between atoms: C7_10  and  O4_11 
REMARK    4  A    between atoms: O4_11  and  C8_12 
REMARK    5  A    between atoms: C11_16  and  O6_17 
REMARK    6  A    between atoms: O6_17  and  C12_18 
REMARK    7  A    between atoms: C26_33  and  C27_34 
REMARK    8  A    between atoms: C33_42  and  O10_43 
ROOT
HETATM    1  C12 UNL     1       1.036   6.961  12.353  1.00  0.00     0.125 C 
HETATM    2  C13 UNL     1       1.064   5.492  12.068  1.00  0.00     0.033 C 
HETATM    3  C14 UNL     1       2.245   5.122  11.209  1.00  0.00     0.012 C 
HETATM    4  C15 UNL     1       2.554   6.119  10.018  1.00  0.00    -0.036 C 
HETATM    5  C16 UNL     1       2.828   5.306   8.731  1.00  0.00     0.016 C 
HETATM    6  C17 UNL     1       1.350   7.100   9.844  1.00  0.00    -0.004 C 
HETATM    7  C18 UNL     1       1.674   8.088   8.690  1.00  0.00     0.006 C 
HETATM    8  C19 UNL     1       2.885   8.962   8.971  1.00  0.00     0.008 C 
HETATM    9  C20 UNL     1       4.145   8.241   9.595  1.00  0.00     0.026 C 
HETATM   10  C21 UNL     1       3.804   6.957  10.401  1.00  0.00     0.008 C 
HETATM   11  C22 UNL     1       5.103   6.140  10.586  1.00  0.00     0.085 C 
HETATM   12  C23 UNL     1       6.344   6.972  10.826  1.00  0.00     0.139 C 
HETATM   13  O7  UNL     1       7.476   6.576  10.518  1.00  0.00    -0.297 OA
HETATM   14  C24 UNL     1       6.107   8.335  11.465  1.00  0.00     0.055 C 
HETATM   15  C25 UNL     1       7.467   9.060  11.757  1.00  0.00     0.027 C 
HETATM   16  C26 UNL     1       5.302   8.247  12.805  1.00  0.00     0.035 C 
HETATM   17  C31 UNL     1       4.705   9.669  12.958  1.00  0.00     0.013 C 
HETATM   18  C32 UNL     1       4.291  10.050  11.553  1.00  0.00     0.040 C 
HETATM   19  C33 UNL     1       5.106   9.156  10.528  1.00  0.00     0.077 C 
HETATM   20  C34 UNL     1       1.015   7.848  11.135  1.00  0.00     0.037 C 
ENDROOT
BRANCH   1  21
HETATM   21  O6  UNL     1       0.781   7.563  13.487  1.00  0.00    -0.355 OA
BRANCH  21  22
HETATM   22  C11 UNL     1      -0.291   8.246  13.718  1.00  0.00     0.274 C 
HETATM   23  C10 UNL     1      -1.564   7.539  14.078  1.00  0.00     0.147 C 
HETATM   24  C9  UNL     1      -1.867   8.056  15.515  1.00  0.00     0.190 C 
HETATM   25  C8  UNL     1      -1.788   9.397  15.612  1.00  0.00     0.150 C 
HETATM   26  O5  UNL     1      -2.154   7.159  16.336  1.00  0.00    -0.290 OA
HETATM   27  C35 UNL     1      -1.246  10.126  14.456  1.00  0.00     0.100 C 
HETATM   28  O11 UNL     1      -0.121   9.502  13.843  1.00  0.00    -0.318 OA
HETATM   29  C36 UNL     1      -1.520  11.395  14.175  1.00  0.00     0.054 C 
BRANCH  25  30
HETATM   30  O4  UNL     1      -2.100  10.130  16.790  1.00  0.00    -0.313 OA
BRANCH  30  31
HETATM   31  C7  UNL     1      -0.998  10.598  17.435  1.00  0.00     0.280 C 
HETATM   32  C6  UNL     1       0.266   9.836  17.040  1.00  0.00     0.147 C 
HETATM   33  C5  UNL     1       1.543  10.239  17.789  1.00  0.00     0.190 C 
HETATM   34  C4  UNL     1       1.448  11.292  18.629  1.00  0.00     0.150 C 
HETATM   35  O3  UNL     1       2.529   9.486  17.522  1.00  0.00    -0.290 OA
HETATM   36  C37 UNL     1       0.175  11.978  18.854  1.00  0.00     0.100 C 
HETATM   37  O12 UNL     1      -1.056  11.481  18.388  1.00  0.00    -0.318 OA
HETATM   38  C38 UNL     1       0.008  13.062  19.628  1.00  0.00     0.054 C 
BRANCH  34  39
HETATM   39  O2  UNL     1       2.560  11.859  19.337  1.00  0.00    -0.313 OA
BRANCH  39  40
HETATM   40  C3  UNL     1       2.949  11.098  20.390  1.00  0.00     0.280 C 
HETATM   41  O1  UNL     1       4.062  11.329  21.032  1.00  0.00    -0.316 OA
HETATM   42  C2  UNL     1       4.175  10.773  22.311  1.00  0.00     0.116 C 
HETATM   43  C1  UNL     1       5.281  11.191  22.941  1.00  0.00     0.055 C 
HETATM   44  C41 UNL     1       3.198   9.878  22.961  1.00  0.00     0.249 C 
HETATM   45  C40 UNL     1       2.246   9.280  21.966  1.00  0.00     0.206 C 
HETATM   46  O14 UNL     1       3.148   9.559  24.135  1.00  0.00    -0.281 OA
HETATM   47  C39 UNL     1       2.116   9.912  20.635  1.00  0.00     0.149 C 
HETATM   48  O13 UNL     1       1.694   8.222  22.208  1.00  0.00    -0.289 OA
ENDBRANCH  39  40
ENDBRANCH  34  39
ENDBRANCH  30  31
ENDBRANCH  25  30
ENDBRANCH  21  22
ENDBRANCH   1  21
BRANCH  19  49
HETATM   49  O10 UNL     1       5.728   9.989   9.728  1.00  0.00    -0.388 OA
ATOM     50  H10 UNL     1       6.290  10.525  10.274  1.00  0.00     0.210 HD
ENDBRANCH  19  49
BRANCH  16  51
HETATM   51  C27 UNL     1       5.823   7.719  14.123  1.00  0.00    -0.045 C 
HETATM   52  C28 UNL     1       7.067   7.499  14.323  1.00  0.00     0.087 C 
HETATM   53  C29 UNL     1       7.646   7.880  15.438  1.00  0.00     0.283 C 
HETATM   54  O8  UNL     1       8.889   7.732  15.525  1.00  0.00    -0.260 OA
HETATM   55  O9  UNL     1       6.610   8.206  16.323  1.00  0.00    -0.314 OA
HETATM   56  C30 UNL     1       5.355   8.217  15.471  1.00  0.00     0.213 C 
ENDBRANCH  16  51
TORSDOF 8
ENDMDL
MODEL 9
REMARK minimizedAffinity -9.46926117
REMARK CNNscore 0.205428973
REMARK CNNaffinity 6.18945646
REMARK  8 active torsions:
REMARK  status: ('A' for Active; 'I' for Inactive)
REMARK    1  A    between atoms: C3_4  and  O2_5 
REMARK    2  A    between atoms: O2_5  and  C4_6 
REMARK    3  A    between atoms: C7_10  and  O4_11 
REMARK    4  A    between atoms: O4_11  and  C8_12 
REMARK    5  A    between atoms: C11_16  and  O6_17 
REMARK    6  A    between atoms: O6_17  and  C12_18 
REMARK    7  A    between atoms: C26_33  and  C27_34 
REMARK    8  A    between atoms: C33_42  and  O10_43 
ROOT
HETATM    1  C12 UNL     1       1.671  12.171  17.938  1.00  0.00     0.125 C 
HETATM    2  C13 UNL     1       2.355  11.323  16.912  1.00  0.00     0.033 C 
HETATM    3  C14 UNL     1       3.853  11.427  17.023  1.00  0.00     0.012 C 
HETATM    4  C15 UNL     1       4.413  12.886  17.276  1.00  0.00    -0.036 C 
HETATM    5  C16 UNL     1       5.619  13.139  16.341  1.00  0.00     0.016 C 
HETATM    6  C17 UNL     1       3.267  13.923  17.044  1.00  0.00    -0.004 C 
HETATM    7  C18 UNL     1       3.820  15.348  17.319  1.00  0.00     0.006 C 
HETATM    8  C19 UNL     1       4.277  15.548  18.753  1.00  0.00     0.008 C 
HETATM    9  C20 UNL     1       5.124  14.378  19.394  1.00  0.00     0.026 C 
HETATM   10  C21 UNL     1       4.855  12.984  18.762  1.00  0.00     0.008 C 
HETATM   11  C22 UNL     1       6.010  12.037  19.159  1.00  0.00     0.085 C 
HETATM   12  C23 UNL     1       6.527  12.230  20.569  1.00  0.00     0.139 C 
HETATM   13  O7  UNL     1       7.689  11.949  20.892  1.00  0.00    -0.297 OA
HETATM   14  C24 UNL     1       5.524  12.801  21.564  1.00  0.00     0.055 C 
HETATM   15  C25 UNL     1       6.139  12.860  23.006  1.00  0.00     0.027 C 
HETATM   16  C26 UNL     1       4.196  11.975  21.631  1.00  0.00     0.035 C 
HETATM   17  C31 UNL     1       3.174  12.987  22.208  1.00  0.00     0.013 C 
HETATM   18  C32 UNL     1       3.519  14.293  21.524  1.00  0.00     0.040 C 
HETATM   19  C33 UNL     1       5.014  14.208  21.003  1.00  0.00     0.077 C 
HETATM   20  C34 UNL     1       2.035  13.633  17.902  1.00  0.00     0.037 C 
ENDROOT
BRANCH   1  21
HETATM   21  O6  UNL     1       0.638  11.871  18.682  1.00  0.00    -0.355 OA
BRANCH  21  22
HETATM   22  C11 UNL     1      -0.576  12.223  18.412  1.00  0.00     0.274 C 
HETATM   23  C10 UNL     1      -0.834  13.278  17.377  1.00  0.00     0.147 C 
HETATM   24  C9  UNL     1      -1.644  12.519  16.285  1.00  0.00     0.190 C 
HETATM   25  C8  UNL     1      -2.668  11.809  16.797  1.00  0.00     0.150 C 
HETATM   26  O5  UNL     1      -1.235  12.703  15.119  1.00  0.00    -0.290 OA
HETATM   27  C35 UNL     1      -2.740  11.689  18.261  1.00  0.00     0.100 C 
HETATM   28  O11 UNL     1      -1.482  11.471  18.895  1.00  0.00    -0.318 OA
HETATM   29  C36 UNL     1      -3.859  11.465  18.939  1.00  0.00     0.054 C 
BRANCH  25  30
HETATM   30  O4  UNL     1      -3.612  11.094  16.011  1.00  0.00    -0.313 OA
BRANCH  30  31
HETATM   31  C7  UNL     1      -3.267   9.794  15.813  1.00  0.00     0.280 C 
HETATM   32  C6  UNL     1      -4.455   8.946  15.360  1.00  0.00     0.147 C 
HETATM   33  C5  UNL     1      -4.175   7.446  15.201  1.00  0.00     0.190 C 
HETATM   34  C4  UNL     1      -2.895   7.046  15.363  1.00  0.00     0.150 C 
HETATM   35  O3  UNL     1      -5.223   6.773  14.958  1.00  0.00    -0.290 OA
HETATM   36  C37 UNL     1      -1.839   7.992  15.727  1.00  0.00     0.100 C 
HETATM   37  O12 UNL     1      -2.100   9.314  16.129  1.00  0.00    -0.318 OA
HETATM   38  C38 UNL     1      -0.538   7.685  15.853  1.00  0.00     0.054 C 
BRANCH  34  39
HETATM   39  O2  UNL     1      -2.442   5.699  15.161  1.00  0.00    -0.313 OA
BRANCH  39  40
HETATM   40  C3  UNL     1      -2.370   5.366  13.848  1.00  0.00     0.280 C 
HETATM   41  O1  UNL     1      -1.525   5.942  13.038  1.00  0.00    -0.316 OA
HETATM   42  C2  UNL     1      -1.247   5.272  11.841  1.00  0.00     0.116 C 
HETATM   43  C1  UNL     1      -0.262   5.865  11.153  1.00  0.00     0.055 C 
HETATM   44  C41 UNL     1      -1.887   4.027  11.371  1.00  0.00     0.249 C 
HETATM   45  C40 UNL     1      -3.166   3.750  12.105  1.00  0.00     0.206 C 
HETATM   46  O14 UNL     1      -1.523   3.302  10.463  1.00  0.00    -0.281 OA
HETATM   47  C39 UNL     1      -3.416   4.442  13.388  1.00  0.00     0.149 C 
HETATM   48  O13 UNL     1      -4.033   3.071  11.586  1.00  0.00    -0.289 OA
ENDBRANCH  39  40
ENDBRANCH  34  39
ENDBRANCH  30  31
ENDBRANCH  25  30
ENDBRANCH  21  22
ENDBRANCH   1  21
BRANCH  19  49
HETATM   49  O10 UNL     1       5.646  15.227  21.535  1.00  0.00    -0.388 OA
ATOM     50  H10 UNL     1       5.581  15.128  22.477  1.00  0.00     0.210 HD
ENDBRANCH  19  49
BRANCH  16  51
HETATM   51  C27 UNL     1       4.031  10.605  22.251  1.00  0.00    -0.045 C 
HETATM   52  C28 UNL     1       3.703  10.450  23.478  1.00  0.00     0.087 C 
HETATM   53  C29 UNL     1       2.792   9.570  23.824  1.00  0.00     0.283 C 
HETATM   54  O8  UNL     1       2.440   9.543  25.028  1.00  0.00    -0.260 OA
HETATM   55  O9  UNL     1       2.593   8.754  22.702  1.00  0.00    -0.314 OA
HETATM   56  C30 UNL     1       3.323   9.456  21.572  1.00  0.00     0.213 C 
ENDBRANCH  16  51
TORSDOF 8
ENDMDL
