MODEL 1
REMARK minimizedAffinity -8.97995377
REMARK CNNscore 0.428816527
REMARK CNNaffinity 6.61802816
REMARK  11 active torsions:
REMARK  status: ('A' for Active; 'I' for Inactive)
REMARK    1  A    between atoms: C19_20  and  O2_21 
REMARK    2  A    between atoms: C19_20  and  C20_22 
REMARK    3  A    between atoms: C20_22  and  C21_24 
REMARK    4  A    between atoms: C21_24  and  O4_25 
REMARK    5  A    between atoms: O4_25  and  C22_26 
REMARK    6  A    between atoms: C22_26  and  C23_28 
REMARK    7  A    between atoms: C23_28  and  C24_29 
REMARK    8  A    between atoms: C24_29  and  C25_30 
REMARK       I    between atoms: C25_30  and  N1_32 
REMARK    9  A    between atoms: N1_32  and  C26_33 
REMARK   10  A    between atoms: C26_33  and  C27_34 
REMARK   11  A    between atoms: C27_34  and  C28_35 
ROOT
HETATM    1  C20 UNL     1      -7.294  48.426 -22.855  1.00  0.00     0.185 C 
HETATM    2  O3  UNL     1      -8.113  47.636 -22.358  1.00  0.00    -0.292 OA
ENDROOT
BRANCH   1   3
HETATM    3  C19 UNL     1      -6.541  49.413 -21.924  1.00  0.00     0.128 C 
HETATM    4  C14 UNL     1      -4.984  49.367 -21.828  1.00  0.00    -0.002 C 
HETATM    5  C13 UNL     1      -4.212  49.946 -23.028  1.00  0.00     0.013 C 
HETATM    6  C15 UNL     1      -4.451  47.947 -21.517  1.00  0.00     0.019 C 
HETATM    7  C16 UNL     1      -4.773  50.343 -20.636  1.00  0.00     0.002 C 
HETATM    8  C12 UNL     1      -2.720  50.158 -22.704  1.00  0.00     0.007 C 
HETATM    9  C11 UNL     1      -2.480  51.016 -21.432  1.00  0.00     0.002 C 
HETATM   10  C2  UNL     1      -0.956  51.238 -21.089  1.00  0.00    -0.016 C 
HETATM   11  C10 UNL     1      -3.305  50.492 -20.215  1.00  0.00    -0.004 C 
HETATM   12  C1  UNL     1      -0.204  49.901 -20.906  1.00  0.00     0.020 C 
HETATM   13  C3  UNL     1      -0.306  52.034 -22.258  1.00  0.00     0.022 C 
HETATM   14  C7  UNL     1      -0.827  52.038 -19.785  1.00  0.00    -0.068 C 
HETATM   15  C4  UNL     1       1.060  52.617 -21.925  1.00  0.00     0.084 C 
HETATM   16  C5  UNL     1       0.995  53.451 -20.674  1.00  0.00     0.149 C 
HETATM   17  O1  UNL     1       1.761  54.391 -20.474  1.00  0.00    -0.293 OA
HETATM   18  C6  UNL     1       0.029  53.062 -19.621  1.00  0.00     0.053 C 
HETATM   19  C8  UNL     1      -1.697  51.608 -18.627  1.00  0.00     0.035 C 
HETATM   20  C9  UNL     1      -3.158  51.457 -19.031  1.00  0.00     0.010 C 
HETATM   21  C17 UNL     1      -5.791  49.861 -19.608  1.00  0.00     0.009 C 
HETATM   22  C18 UNL     1      -7.001  49.408 -20.452  1.00  0.00     0.047 C 
BRANCH   3  23
HETATM   23  O2  UNL     1      -6.894  50.731 -22.435  1.00  0.00    -0.381 OA
HETATM   24  H27 UNL     1      -7.782  50.631 -22.839  1.00  0.00     0.211 HD
ENDBRANCH   3  23
ENDBRANCH   1   3
BRANCH   1  25
HETATM   25  C21 UNL     1      -7.089  48.413 -24.367  1.00  0.00     0.260 C 
BRANCH  25  26
HETATM   26  O4  UNL     1      -5.940  47.758 -24.879  1.00  0.00    -0.314 OA
BRANCH  26  27
HETATM   27  C22 UNL     1      -5.604  48.079 -26.160  1.00  0.00     0.259 C 
HETATM   28  O5  UNL     1      -4.530  48.545 -26.508  1.00  0.00    -0.265 OA
BRANCH  27  29
HETATM   29  C23 UNL     1      -6.718  47.703 -27.107  1.00  0.00     0.120 C 
BRANCH  29  30
HETATM   30  C24 UNL     1      -6.226  47.687 -28.549  1.00  0.00     0.112 C 
BRANCH  30  31
HETATM   31  C25 UNL     1      -7.370  47.595 -29.538  1.00  0.00     0.218 C 
HETATM   32  O6  UNL     1      -8.138  46.641 -29.582  1.00  0.00    -0.274 OA
HETATM   33  N1  UNL     1      -7.417  48.662 -30.407  1.00  0.00    -0.361 N 
HETATM   34  H34 UNL     1      -6.687  49.365 -30.362  1.00  0.00     0.162 HD
BRANCH  33  35
HETATM   35  C26 UNL     1      -8.387  48.755 -31.486  1.00  0.00     0.127 C 
BRANCH  35  36
HETATM   36  C27 UNL     1      -8.226  47.640 -32.524  1.00  0.00     0.060 C 
BRANCH  36  37
HETATM   37  C28 UNL     1      -9.506  46.937 -32.853  1.00  0.00    -0.029 A 
HETATM   38  C29 UNL     1     -10.573  46.757 -31.992  1.00  0.00     0.096 A 
HETATM   39  N2  UNL     1     -11.547  46.057 -32.650  1.00  0.00    -0.365 N 
HETATM   40  C30 UNL     1     -11.139  45.762 -33.929  1.00  0.00     0.042 A 
HETATM   41  H40 UNL     1     -12.444  45.799 -32.262  1.00  0.00     0.165 HD
HETATM   42  C31 UNL     1     -11.801  45.063 -34.944  1.00  0.00     0.030 A 
HETATM   43  C35 UNL     1      -9.867  46.314 -34.091  1.00  0.00    -0.002 A 
HETATM   44  C32 UNL     1     -11.152  44.942 -36.176  1.00  0.00     0.002 A 
HETATM   45  C33 UNL     1      -9.886  45.487 -36.374  1.00  0.00     0.001 A 
HETATM   46  C34 UNL     1      -9.229  46.166 -35.341  1.00  0.00     0.014 A 
ENDBRANCH  36  37
ENDBRANCH  35  36
ENDBRANCH  33  35
ENDBRANCH  30  31
ENDBRANCH  29  30
ENDBRANCH  27  29
ENDBRANCH  26  27
ENDBRANCH  25  26
ENDBRANCH   1  25
TORSDOF 11
ENDMDL
MODEL 2
REMARK minimizedAffinity -10.1695099
REMARK CNNscore 0.400948316
REMARK CNNaffinity 7.6398263
REMARK  11 active torsions:
REMARK  status: ('A' for Active; 'I' for Inactive)
REMARK    1  A    between atoms: C19_20  and  O2_21 
REMARK    2  A    between atoms: C19_20  and  C20_22 
REMARK    3  A    between atoms: C20_22  and  C21_24 
REMARK    4  A    between atoms: C21_24  and  O4_25 
REMARK    5  A    between atoms: O4_25  and  C22_26 
REMARK    6  A    between atoms: C22_26  and  C23_28 
REMARK    7  A    between atoms: C23_28  and  C24_29 
REMARK    8  A    between atoms: C24_29  and  C25_30 
REMARK       I    between atoms: C25_30  and  N1_32 
REMARK    9  A    between atoms: N1_32  and  C26_33 
REMARK   10  A    between atoms: C26_33  and  C27_34 
REMARK   11  A    between atoms: C27_34  and  C28_35 
ROOT
HETATM    1  C20 UNL     1      -3.052  48.392 -17.450  1.00  0.00     0.185 C 
HETATM    2  O3  UNL     1      -2.711  47.601 -16.555  1.00  0.00    -0.292 OA
ENDROOT
BRANCH   1   3
HETATM    3  C19 UNL     1      -3.710  47.831 -18.739  1.00  0.00     0.128 C 
HETATM    4  C14 UNL     1      -3.789  48.712 -20.024  1.00  0.00    -0.002 C 
HETATM    5  C13 UNL     1      -2.475  48.896 -20.804  1.00  0.00     0.013 C 
HETATM    6  C15 UNL     1      -4.420  50.100 -19.755  1.00  0.00     0.019 C 
HETATM    7  C16 UNL     1      -4.712  47.811 -20.893  1.00  0.00     0.002 C 
HETATM    8  C12 UNL     1      -2.715  49.488 -22.206  1.00  0.00     0.007 C 
HETATM    9  C11 UNL     1      -3.744  48.684 -23.048  1.00  0.00     0.002 C 
HETATM   10  C2  UNL     1      -4.000  49.282 -24.486  1.00  0.00    -0.016 C 
HETATM   11  C10 UNL     1      -5.063  48.423 -22.257  1.00  0.00    -0.004 C 
HETATM   12  C1  UNL     1      -4.483  50.748 -24.424  1.00  0.00     0.020 C 
HETATM   13  C3  UNL     1      -2.665  49.217 -25.284  1.00  0.00     0.022 C 
HETATM   14  C7  UNL     1      -5.075  48.458 -25.208  1.00  0.00    -0.068 C 
HETATM   15  C4  UNL     1      -2.829  49.437 -26.781  1.00  0.00     0.084 C 
HETATM   16  C5  UNL     1      -3.848  48.488 -27.353  1.00  0.00     0.149 C 
HETATM   17  O1  UNL     1      -3.807  48.111 -28.522  1.00  0.00    -0.293 OA
HETATM   18  C6  UNL     1      -4.978  48.070 -26.492  1.00  0.00     0.053 C 
HETATM   19  C8  UNL     1      -6.315  48.107 -24.420  1.00  0.00     0.035 C 
HETATM   20  C9  UNL     1      -5.982  47.497 -23.065  1.00  0.00     0.010 C 
HETATM   21  C17 UNL     1      -5.841  47.445 -19.936  1.00  0.00     0.009 C 
HETATM   22  C18 UNL     1      -5.149  47.302 -18.564  1.00  0.00     0.047 C 
BRANCH   3  23
HETATM   23  O2  UNL     1      -2.907  46.664 -19.075  1.00  0.00    -0.381 OA
HETATM   24  H27 UNL     1      -2.553  46.330 -18.224  1.00  0.00     0.211 HD
ENDBRANCH   3  23
ENDBRANCH   1   3
BRANCH   1  25
HETATM   25  C21 UNL     1      -2.778  49.880 -17.256  1.00  0.00     0.260 C 
BRANCH  25  26
HETATM   26  O4  UNL     1      -1.444  50.338 -17.410  1.00  0.00    -0.314 OA
BRANCH  26  27
HETATM   27  C22 UNL     1      -1.275  51.364 -18.291  1.00  0.00     0.259 C 
HETATM   28  O5  UNL     1      -2.124  52.195 -18.573  1.00  0.00    -0.265 OA
BRANCH  27  29
HETATM   29  C23 UNL     1       0.141  51.381 -18.814  1.00  0.00     0.120 C 
BRANCH  29  30
HETATM   30  C24 UNL     1       0.687  52.803 -18.861  1.00  0.00     0.112 C 
BRANCH  30  31
HETATM   31  C25 UNL     1       0.845  53.304 -20.284  1.00  0.00     0.218 C 
HETATM   32  O6  UNL     1       1.191  54.448 -20.552  1.00  0.00    -0.274 OA
HETATM   33  N1  UNL     1       0.507  52.359 -21.226  1.00  0.00    -0.361 N 
HETATM   34  H34 UNL     1       0.142  51.465 -20.918  1.00  0.00     0.162 HD
BRANCH  33  35
HETATM   35  C26 UNL     1       0.514  52.637 -22.654  1.00  0.00     0.127 C 
BRANCH  35  36
HETATM   36  C27 UNL     1      -0.653  51.975 -23.392  1.00  0.00     0.060 C 
BRANCH  36  37
HETATM   37  C28 UNL     1      -0.681  52.271 -24.859  1.00  0.00    -0.029 A 
HETATM   38  C29 UNL     1      -1.744  52.819 -25.552  1.00  0.00     0.096 A 
HETATM   39  N2  UNL     1      -1.394  52.922 -26.871  1.00  0.00    -0.365 N 
HETATM   40  C30 UNL     1      -0.120  52.443 -27.063  1.00  0.00     0.042 A 
HETATM   41  H40 UNL     1      -1.978  53.305 -27.602  1.00  0.00     0.165 HD
HETATM   42  C31 UNL     1       0.635  52.347 -28.237  1.00  0.00     0.030 A 
HETATM   43  C35 UNL     1       0.360  52.039 -25.816  1.00  0.00    -0.002 A 
HETATM   44  C32 UNL     1       1.934  51.843 -28.131  1.00  0.00     0.002 A 
HETATM   45  C33 UNL     1       2.447  51.440 -26.901  1.00  0.00     0.001 A 
HETATM   46  C34 UNL     1       1.670  51.523 -25.740  1.00  0.00     0.014 A 
ENDBRANCH  36  37
ENDBRANCH  35  36
ENDBRANCH  33  35
ENDBRANCH  30  31
ENDBRANCH  29  30
ENDBRANCH  27  29
ENDBRANCH  26  27
ENDBRANCH  25  26
ENDBRANCH   1  25
TORSDOF 11
ENDMDL
MODEL 3
REMARK minimizedAffinity -9.25731277
REMARK CNNscore 0.381211013
REMARK CNNaffinity 6.27146959
REMARK  11 active torsions:
REMARK  status: ('A' for Active; 'I' for Inactive)
REMARK    1  A    between atoms: C19_20  and  O2_21 
REMARK    2  A    between atoms: C19_20  and  C20_22 
REMARK    3  A    between atoms: C20_22  and  C21_24 
REMARK    4  A    between atoms: C21_24  and  O4_25 
REMARK    5  A    between atoms: O4_25  and  C22_26 
REMARK    6  A    between atoms: C22_26  and  C23_28 
REMARK    7  A    between atoms: C23_28  and  C24_29 
REMARK    8  A    between atoms: C24_29  and  C25_30 
REMARK       I    between atoms: C25_30  and  N1_32 
REMARK    9  A    between atoms: N1_32  and  C26_33 
REMARK   10  A    between atoms: C26_33  and  C27_34 
REMARK   11  A    between atoms: C27_34  and  C28_35 
ROOT
HETATM    1  C20 UNL     1      -6.894  48.415 -24.465  1.00  0.00     0.185 C 
HETATM    2  O3  UNL     1      -6.141  48.030 -25.374  1.00  0.00    -0.292 OA
ENDROOT
BRANCH   1   3
HETATM    3  C19 UNL     1      -6.345  49.402 -23.401  1.00  0.00     0.128 C 
HETATM    4  C14 UNL     1      -4.866  49.291 -22.918  1.00  0.00    -0.002 C 
HETATM    5  C13 UNL     1      -3.791  49.792 -23.901  1.00  0.00     0.013 C 
HETATM    6  C15 UNL     1      -4.500  47.862 -22.449  1.00  0.00     0.019 C 
HETATM    7  C16 UNL     1      -4.907  50.301 -21.736  1.00  0.00     0.002 C 
HETATM    8  C12 UNL     1      -2.418  49.949 -23.221  1.00  0.00     0.007 C 
HETATM    9  C11 UNL     1      -2.457  50.843 -21.950  1.00  0.00     0.002 C 
HETATM   10  C2  UNL     1      -1.056  51.010 -21.243  1.00  0.00    -0.016 C 
HETATM   11  C10 UNL     1      -3.583  50.401 -20.965  1.00  0.00    -0.004 C 
HETATM   12  C1  UNL     1      -0.443  49.649 -20.845  1.00  0.00     0.020 C 
HETATM   13  C3  UNL     1      -0.095  51.734 -22.232  1.00  0.00     0.022 C 
HETATM   14  C7  UNL     1      -1.214  51.852 -19.968  1.00  0.00    -0.068 C 
HETATM   15  C4  UNL     1       1.173  52.268 -21.583  1.00  0.00     0.084 C 
HETATM   16  C5  UNL     1       0.842  53.149 -20.409  1.00  0.00     0.149 C 
HETATM   17  O1  UNL     1       1.583  54.062 -20.047  1.00  0.00    -0.293 OA
HETATM   18  C6  UNL     1      -0.373  52.843 -19.621  1.00  0.00     0.053 C 
HETATM   19  C8  UNL     1      -2.365  51.503 -19.055  1.00  0.00     0.035 C 
HETATM   20  C9  UNL     1      -3.686  51.401 -19.806  1.00  0.00     0.010 C 
HETATM   21  C17 UNL     1      -6.172  49.902 -20.983  1.00  0.00     0.009 C 
HETATM   22  C18 UNL     1      -7.157  49.472 -22.090  1.00  0.00     0.047 C 
BRANCH   3  23
HETATM   23  O2  UNL     1      -6.492  50.714 -24.016  1.00  0.00    -0.381 OA
HETATM   24  H27 UNL     1      -7.256  50.639 -24.626  1.00  0.00     0.211 HD
ENDBRANCH   3  23
ENDBRANCH   1   3
BRANCH   1  25
HETATM   25  C21 UNL     1      -8.319  47.872 -24.415  1.00  0.00     0.260 C 
BRANCH  25  26
HETATM   26  O4  UNL     1      -8.937  47.508 -25.638  1.00  0.00    -0.314 OA
BRANCH  26  27
HETATM   27  C22 UNL     1     -10.293  47.644 -25.673  1.00  0.00     0.259 C 
HETATM   28  O5  UNL     1     -11.045  47.425 -24.736  1.00  0.00    -0.265 OA
BRANCH  27  29
HETATM   29  C23 UNL     1     -10.734  48.183 -27.012  1.00  0.00     0.120 C 
BRANCH  29  30
HETATM   30  C24 UNL     1     -12.252  48.151 -27.140  1.00  0.00     0.112 C 
BRANCH  30  31
HETATM   31  C25 UNL     1     -12.715  47.119 -28.150  1.00  0.00     0.218 C 
HETATM   32  O6  UNL     1     -12.212  47.002 -29.261  1.00  0.00    -0.274 OA
HETATM   33  N1  UNL     1     -13.785  46.375 -27.706  1.00  0.00    -0.361 N 
HETATM   34  H34 UNL     1     -14.201  46.598 -26.809  1.00  0.00     0.162 HD
BRANCH  33  35
HETATM   35  C26 UNL     1     -14.441  45.373 -28.531  1.00  0.00     0.127 C 
BRANCH  35  36
HETATM   36  C27 UNL     1     -15.134  44.286 -27.705  1.00  0.00     0.060 C 
BRANCH  36  37
HETATM   37  C28 UNL     1     -16.525  44.646 -27.285  1.00  0.00    -0.029 A 
HETATM   38  C29 UNL     1     -17.684  44.320 -27.966  1.00  0.00     0.096 A 
HETATM   39  N2  UNL     1     -18.749  44.836 -27.279  1.00  0.00    -0.365 N 
HETATM   40  C30 UNL     1     -18.313  45.505 -26.161  1.00  0.00     0.042 A 
HETATM   41  H40 UNL     1     -19.719  44.734 -27.544  1.00  0.00     0.165 HD
HETATM   42  C31 UNL     1     -19.045  46.187 -25.181  1.00  0.00     0.030 A 
HETATM   43  C35 UNL     1     -16.922  45.391 -26.129  1.00  0.00    -0.002 A 
HETATM   44  C32 UNL     1     -18.332  46.753 -24.120  1.00  0.00     0.002 A 
HETATM   45  C33 UNL     1     -16.946  46.651 -24.053  1.00  0.00     0.001 A 
HETATM   46  C34 UNL     1     -16.228  45.983 -25.053  1.00  0.00     0.014 A 
ENDBRANCH  36  37
ENDBRANCH  35  36
ENDBRANCH  33  35
ENDBRANCH  30  31
ENDBRANCH  29  30
ENDBRANCH  27  29
ENDBRANCH  26  27
ENDBRANCH  25  26
ENDBRANCH   1  25
TORSDOF 11
ENDMDL
MODEL 4
REMARK minimizedAffinity -8.5308094
REMARK CNNscore 0.345949501
REMARK CNNaffinity 6.62792587
REMARK  11 active torsions:
REMARK  status: ('A' for Active; 'I' for Inactive)
REMARK    1  A    between atoms: C19_20  and  O2_21 
REMARK    2  A    between atoms: C19_20  and  C20_22 
REMARK    3  A    between atoms: C20_22  and  C21_24 
REMARK    4  A    between atoms: C21_24  and  O4_25 
REMARK    5  A    between atoms: O4_25  and  C22_26 
REMARK    6  A    between atoms: C22_26  and  C23_28 
REMARK    7  A    between atoms: C23_28  and  C24_29 
REMARK    8  A    between atoms: C24_29  and  C25_30 
REMARK       I    between atoms: C25_30  and  N1_32 
REMARK    9  A    between atoms: N1_32  and  C26_33 
REMARK   10  A    between atoms: C26_33  and  C27_34 
REMARK   11  A    between atoms: C27_34  and  C28_35 
ROOT
HETATM    1  C20 UNL     1      -7.001  48.507 -23.480  1.00  0.00     0.185 C 
HETATM    2  O3  UNL     1      -7.601  47.506 -23.056  1.00  0.00    -0.292 OA
ENDROOT
BRANCH   1   3
HETATM    3  C19 UNL     1      -6.336  49.473 -22.464  1.00  0.00     0.128 C 
HETATM    4  C14 UNL     1      -4.795  49.420 -22.227  1.00  0.00    -0.002 C 
HETATM    5  C13 UNL     1      -3.915  50.021 -23.338  1.00  0.00     0.013 C 
HETATM    6  C15 UNL     1      -4.293  47.992 -21.898  1.00  0.00     0.019 C 
HETATM    7  C16 UNL     1      -4.693  50.370 -21.000  1.00  0.00     0.002 C 
HETATM    8  C12 UNL     1      -2.459  50.222 -22.874  1.00  0.00     0.007 C 
HETATM    9  C11 UNL     1      -2.336  51.053 -21.567  1.00  0.00     0.002 C 
HETATM   10  C2  UNL     1      -0.849  51.263 -21.081  1.00  0.00    -0.016 C 
HETATM   11  C10 UNL     1      -3.269  50.506 -20.443  1.00  0.00    -0.004 C 
HETATM   12  C1  UNL     1      -0.119  49.921 -20.858  1.00  0.00     0.020 C 
HETATM   13  C3  UNL     1      -0.093  52.082 -22.169  1.00  0.00     0.022 C 
HETATM   14  C7  UNL     1      -0.840  52.036 -19.754  1.00  0.00    -0.068 C 
HETATM   15  C4  UNL     1       1.237  52.653 -21.700  1.00  0.00     0.084 C 
HETATM   16  C5  UNL     1       1.058  53.461 -20.442  1.00  0.00     0.149 C 
HETATM   17  O1  UNL     1       1.803  54.395 -20.153  1.00  0.00    -0.293 OA
HETATM   18  C6  UNL     1      -0.002  53.054 -19.491  1.00  0.00     0.053 C 
HETATM   19  C8  UNL     1      -1.813  51.584 -18.691  1.00  0.00     0.035 C 
HETATM   20  C9  UNL     1      -3.231  51.446 -19.230  1.00  0.00     0.010 C 
HETATM   21  C17 UNL     1      -5.801  49.870 -20.080  1.00  0.00     0.009 C 
HETATM   22  C18 UNL     1      -6.930  49.438 -21.040  1.00  0.00     0.047 C 
BRANCH   3  23
HETATM   23  O2  UNL     1      -6.639  50.801 -22.977  1.00  0.00    -0.381 OA
HETATM   24  H27 UNL     1      -7.486  50.713 -23.463  1.00  0.00     0.211 HD
ENDBRANCH   3  23
ENDBRANCH   1   3
BRANCH   1  25
HETATM   25  C21 UNL     1      -6.974  48.761 -24.984  1.00  0.00     0.260 C 
BRANCH  25  26
HETATM   26  O4  UNL     1      -6.324  47.809 -25.810  1.00  0.00    -0.314 OA
BRANCH  26  27
HETATM   27  C22 UNL     1      -5.040  48.111 -26.154  1.00  0.00     0.259 C 
HETATM   28  O5  UNL     1      -4.082  48.070 -25.398  1.00  0.00    -0.265 OA
BRANCH  27  29
HETATM   29  C23 UNL     1      -4.950  48.428 -27.627  1.00  0.00     0.120 C 
BRANCH  29  30
HETATM   30  C24 UNL     1      -5.900  47.550 -28.433  1.00  0.00     0.112 C 
BRANCH  30  31
HETATM   31  C25 UNL     1      -5.617  47.624 -29.920  1.00  0.00     0.218 C 
HETATM   32  O6  UNL     1      -5.092  48.595 -30.451  1.00  0.00    -0.274 OA
HETATM   33  N1  UNL     1      -6.061  46.516 -30.607  1.00  0.00    -0.361 N 
HETATM   34  H34 UNL     1      -6.569  45.797 -30.105  1.00  0.00     0.162 HD
BRANCH  33  35
HETATM   35  C26 UNL     1      -5.961  46.397 -32.053  1.00  0.00     0.127 C 
BRANCH  35  36
HETATM   36  C27 UNL     1      -7.006  45.445 -32.642  1.00  0.00     0.060 C 
BRANCH  36  37
HETATM   37  C28 UNL     1      -6.565  44.015 -32.673  1.00  0.00    -0.029 A 
HETATM   38  C29 UNL     1      -5.468  43.493 -32.012  1.00  0.00     0.096 A 
HETATM   39  N2  UNL     1      -5.386  42.158 -32.297  1.00  0.00    -0.365 N 
HETATM   40  C30 UNL     1      -6.404  41.789 -33.144  1.00  0.00     0.042 A 
HETATM   41  H40 UNL     1      -4.687  41.525 -31.933  1.00  0.00     0.165 HD
HETATM   42  C31 UNL     1      -6.702  40.539 -33.697  1.00  0.00     0.030 A 
HETATM   43  C35 UNL     1      -7.170  42.930 -33.387  1.00  0.00    -0.002 A 
HETATM   44  C32 UNL     1      -7.836  40.445 -34.510  1.00  0.00     0.002 A 
HETATM   45  C33 UNL     1      -8.626  41.562 -34.766  1.00  0.00     0.001 A 
HETATM   46  C34 UNL     1      -8.301  42.809 -34.221  1.00  0.00     0.014 A 
ENDBRANCH  36  37
ENDBRANCH  35  36
ENDBRANCH  33  35
ENDBRANCH  30  31
ENDBRANCH  29  30
ENDBRANCH  27  29
ENDBRANCH  26  27
ENDBRANCH  25  26
ENDBRANCH   1  25
TORSDOF 11
ENDMDL
MODEL 5
REMARK minimizedAffinity -9.05764771
REMARK CNNscore 0.338796407
REMARK CNNaffinity 6.54865217
REMARK  11 active torsions:
REMARK  status: ('A' for Active; 'I' for Inactive)
REMARK    1  A    between atoms: C19_20  and  O2_21 
REMARK    2  A    between atoms: C19_20  and  C20_22 
REMARK    3  A    between atoms: C20_22  and  C21_24 
REMARK    4  A    between atoms: C21_24  and  O4_25 
REMARK    5  A    between atoms: O4_25  and  C22_26 
REMARK    6  A    between atoms: C22_26  and  C23_28 
REMARK    7  A    between atoms: C23_28  and  C24_29 
REMARK    8  A    between atoms: C24_29  and  C25_30 
REMARK       I    between atoms: C25_30  and  N1_32 
REMARK    9  A    between atoms: N1_32  and  C26_33 
REMARK   10  A    between atoms: C26_33  and  C27_34 
REMARK   11  A    between atoms: C27_34  and  C28_35 
ROOT
HETATM    1  C20 UNL     1      -7.292  48.447 -23.092  1.00  0.00     0.185 C 
HETATM    2  O3  UNL     1      -8.251  47.801 -22.638  1.00  0.00    -0.292 OA
ENDROOT
BRANCH   1   3
HETATM    3  C19 UNL     1      -6.547  49.442 -22.163  1.00  0.00     0.128 C 
HETATM    4  C14 UNL     1      -4.993  49.385 -22.039  1.00  0.00    -0.002 C 
HETATM    5  C13 UNL     1      -4.195  49.941 -23.233  1.00  0.00     0.013 C 
HETATM    6  C15 UNL     1      -4.476  47.966 -21.698  1.00  0.00     0.019 C 
HETATM    7  C16 UNL     1      -4.795  50.377 -20.858  1.00  0.00     0.002 C 
HETATM    8  C12 UNL     1      -2.708  50.145 -22.886  1.00  0.00     0.007 C 
HETATM    9  C11 UNL     1      -2.483  51.020 -21.622  1.00  0.00     0.002 C 
HETATM   10  C2  UNL     1      -0.964  51.236 -21.256  1.00  0.00    -0.016 C 
HETATM   11  C10 UNL     1      -3.333  50.521 -20.413  1.00  0.00    -0.004 C 
HETATM   12  C1  UNL     1      -0.226  49.896 -21.041  1.00  0.00     0.020 C 
HETATM   13  C3  UNL     1      -0.286  52.010 -22.425  1.00  0.00     0.022 C 
HETATM   14  C7  UNL     1      -0.852  52.054 -19.962  1.00  0.00    -0.068 C 
HETATM   15  C4  UNL     1       1.078  52.587 -22.077  1.00  0.00     0.084 C 
HETATM   16  C5  UNL     1       0.997  53.439 -20.839  1.00  0.00     0.149 C 
HETATM   17  O1  UNL     1       1.768  54.376 -20.639  1.00  0.00    -0.293 OA
HETATM   18  C6  UNL     1       0.010  53.074 -19.798  1.00  0.00     0.053 C 
HETATM   19  C8  UNL     1      -1.745  51.647 -18.814  1.00  0.00     0.035 C 
HETATM   20  C9  UNL     1      -3.200  51.502 -19.241  1.00  0.00     0.010 C 
HETATM   21  C17 UNL     1      -5.835  49.918 -19.841  1.00  0.00     0.009 C 
HETATM   22  C18 UNL     1      -7.034  49.462 -20.699  1.00  0.00     0.047 C 
BRANCH   3  23
HETATM   23  O2  UNL     1      -6.881  50.755 -22.699  1.00  0.00    -0.381 OA
HETATM   24  H27 UNL     1      -7.763  50.656 -23.117  1.00  0.00     0.211 HD
ENDBRANCH   3  23
ENDBRANCH   1   3
BRANCH   1  25
HETATM   25  C21 UNL     1      -6.909  48.257 -24.557  1.00  0.00     0.260 C 
BRANCH  25  26
HETATM   26  O4  UNL     1      -7.929  48.383 -25.534  1.00  0.00    -0.314 OA
BRANCH  26  27
HETATM   27  C22 UNL     1      -8.175  47.263 -26.272  1.00  0.00     0.259 C 
HETATM   28  O5  UNL     1      -8.602  46.209 -25.827  1.00  0.00    -0.265 OA
BRANCH  27  29
HETATM   29  C23 UNL     1      -7.921  47.531 -27.736  1.00  0.00     0.120 C 
BRANCH  29  30
HETATM   30  C24 UNL     1      -6.655  46.826 -28.207  1.00  0.00     0.112 C 
BRANCH  30  31
HETATM   31  C25 UNL     1      -6.966  45.596 -29.038  1.00  0.00     0.218 C 
HETATM   32  O6  UNL     1      -7.195  44.498 -28.545  1.00  0.00    -0.274 OA
HETATM   33  N1  UNL     1      -6.909  45.835 -30.393  1.00  0.00    -0.361 N 
HETATM   34  H34 UNL     1      -6.621  46.751 -30.719  1.00  0.00     0.162 HD
BRANCH  33  35
HETATM   35  C26 UNL     1      -7.103  44.789 -31.384  1.00  0.00     0.127 C 
BRANCH  35  36
HETATM   36  C27 UNL     1      -8.060  45.204 -32.504  1.00  0.00     0.060 C 
BRANCH  36  37
HETATM   37  C28 UNL     1      -7.500  46.253 -33.414  1.00  0.00    -0.029 A 
HETATM   38  C29 UNL     1      -8.197  46.917 -34.407  1.00  0.00     0.096 A 
HETATM   39  N2  UNL     1      -7.342  47.785 -35.029  1.00  0.00    -0.365 N 
HETATM   40  C30 UNL     1      -6.089  47.698 -34.472  1.00  0.00     0.042 A 
HETATM   41  H40 UNL     1      -7.591  48.409 -35.784  1.00  0.00     0.165 HD
HETATM   42  C31 UNL     1      -4.914  48.388 -34.794  1.00  0.00     0.030 A 
HETATM   43  C35 UNL     1      -6.159  46.755 -33.446  1.00  0.00    -0.002 A 
HETATM   44  C32 UNL     1      -3.777  48.120 -34.026  1.00  0.00     0.002 A 
HETATM   45  C33 UNL     1      -3.814  47.192 -32.990  1.00  0.00     0.001 A 
HETATM   46  C34 UNL     1      -4.993  46.497 -32.695  1.00  0.00     0.014 A 
ENDBRANCH  36  37
ENDBRANCH  35  36
ENDBRANCH  33  35
ENDBRANCH  30  31
ENDBRANCH  29  30
ENDBRANCH  27  29
ENDBRANCH  26  27
ENDBRANCH  25  26
ENDBRANCH   1  25
TORSDOF 11
ENDMDL
MODEL 6
REMARK minimizedAffinity -9.29655075
REMARK CNNscore 0.330350935
REMARK CNNaffinity 6.7568593
REMARK  11 active torsions:
REMARK  status: ('A' for Active; 'I' for Inactive)
REMARK    1  A    between atoms: C19_20  and  O2_21 
REMARK    2  A    between atoms: C19_20  and  C20_22 
REMARK    3  A    between atoms: C20_22  and  C21_24 
REMARK    4  A    between atoms: C21_24  and  O4_25 
REMARK    5  A    between atoms: O4_25  and  C22_26 
REMARK    6  A    between atoms: C22_26  and  C23_28 
REMARK    7  A    between atoms: C23_28  and  C24_29 
REMARK    8  A    between atoms: C24_29  and  C25_30 
REMARK       I    between atoms: C25_30  and  N1_32 
REMARK    9  A    between atoms: N1_32  and  C26_33 
REMARK   10  A    between atoms: C26_33  and  C27_34 
REMARK   11  A    between atoms: C27_34  and  C28_35 
ROOT
HETATM    1  C20 UNL     1      -2.575  49.273 -17.653  1.00  0.00     0.185 C 
HETATM    2  O3  UNL     1      -3.479  48.777 -16.961  1.00  0.00    -0.292 OA
ENDROOT
BRANCH   1   3
HETATM    3  C19 UNL     1      -2.453  48.857 -19.143  1.00  0.00     0.128 C 
HETATM    4  C14 UNL     1      -2.408  49.947 -20.258  1.00  0.00    -0.002 C 
HETATM    5  C13 UNL     1      -1.088  50.727 -20.394  1.00  0.00     0.013 C 
HETATM    6  C15 UNL     1      -3.584  50.950 -20.157  1.00  0.00     0.019 C 
HETATM    7  C16 UNL     1      -2.528  49.034 -21.512  1.00  0.00     0.002 C 
HETATM    8  C12 UNL     1      -1.025  51.529 -21.708  1.00  0.00     0.007 C 
HETATM    9  C11 UNL     1      -1.281  50.663 -22.972  1.00  0.00     0.002 C 
HETATM   10  C2  UNL     1      -1.221  51.474 -24.325  1.00  0.00    -0.016 C 
HETATM   11  C10 UNL     1      -2.580  49.809 -22.835  1.00  0.00    -0.004 C 
HETATM   12  C1  UNL     1      -2.228  52.645 -24.342  1.00  0.00     0.020 C 
HETATM   13  C3  UNL     1       0.221  52.037 -24.490  1.00  0.00     0.022 C 
HETATM   14  C7  UNL     1      -1.552  50.546 -25.502  1.00  0.00    -0.068 C 
HETATM   15  C4  UNL     1       0.529  52.545 -25.891  1.00  0.00     0.084 C 
HETATM   16  C5  UNL     1       0.241  51.485 -26.920  1.00  0.00     0.149 C 
HETATM   17  O1  UNL     1       0.840  51.434 -27.992  1.00  0.00    -0.293 OA
HETATM   18  C6  UNL     1      -0.859  50.531 -26.655  1.00  0.00     0.053 C 
HETATM   19  C8  UNL     1      -2.746  49.635 -25.344  1.00  0.00     0.035 C 
HETATM   20  C9  UNL     1      -2.708  48.859 -24.034  1.00  0.00     0.010 C 
HETATM   21  C17 UNL     1      -3.683  48.104 -21.154  1.00  0.00     0.009 C 
HETATM   22  C18 UNL     1      -3.528  47.867 -19.638  1.00  0.00     0.047 C 
BRANCH   3  23
HETATM   23  O2  UNL     1      -1.195  48.128 -19.213  1.00  0.00    -0.381 OA
HETATM   24  H27 UNL     1      -1.066  47.732 -18.325  1.00  0.00     0.211 HD
ENDBRANCH   3  23
ENDBRANCH   1   3
BRANCH   1  25
HETATM   25  C21 UNL     1      -1.600  50.246 -16.996  1.00  0.00     0.260 C 
BRANCH  25  26
HETATM   26  O4  UNL     1      -0.219  49.924 -17.021  1.00  0.00    -0.314 OA
BRANCH  26  27
HETATM   27  C22 UNL     1       0.628  50.957 -16.749  1.00  0.00     0.259 C 
HETATM   28  O5  UNL     1       0.863  51.890 -17.501  1.00  0.00    -0.265 OA
BRANCH  27  29
HETATM   29  C23 UNL     1       1.178  50.832 -15.348  1.00  0.00     0.120 C 
BRANCH  29  30
HETATM   30  C24 UNL     1       0.803  52.044 -14.505  1.00  0.00     0.112 C 
BRANCH  30  31
HETATM   31  C25 UNL     1       1.228  51.883 -13.059  1.00  0.00     0.218 C 
HETATM   32  O6  UNL     1       0.591  51.221 -12.247  1.00  0.00    -0.274 OA
HETATM   33  N1  UNL     1       2.363  52.598 -12.749  1.00  0.00    -0.361 N 
HETATM   34  H34 UNL     1       2.777  53.194 -13.456  1.00  0.00     0.162 HD
BRANCH  33  35
HETATM   35  C26 UNL     1       2.916  52.649 -11.405  1.00  0.00     0.127 C 
BRANCH  35  36
HETATM   36  C27 UNL     1       3.311  54.067 -10.981  1.00  0.00     0.060 C 
BRANCH  36  37
HETATM   37  C28 UNL     1       2.434  54.640  -9.912  1.00  0.00    -0.029 A 
HETATM   38  C29 UNL     1       1.169  54.194  -9.579  1.00  0.00     0.096 A 
HETATM   39  N2  UNL     1       0.685  54.978  -8.569  1.00  0.00    -0.365 N 
HETATM   40  C30 UNL     1       1.605  55.943  -8.234  1.00  0.00     0.042 A 
HETATM   41  H40 UNL     1      -0.214  54.865  -8.121  1.00  0.00     0.165 HD
HETATM   42  C31 UNL     1       1.533  56.956  -7.271  1.00  0.00     0.030 A 
HETATM   43  C35 UNL     1       2.720  55.748  -9.050  1.00  0.00    -0.002 A 
HETATM   44  C32 UNL     1       2.648  57.786  -7.121  1.00  0.00     0.002 A 
HETATM   45  C33 UNL     1       3.779  57.614  -7.913  1.00  0.00     0.001 A 
HETATM   46  C34 UNL     1       3.826  56.608  -8.886  1.00  0.00     0.014 A 
ENDBRANCH  36  37
ENDBRANCH  35  36
ENDBRANCH  33  35
ENDBRANCH  30  31
ENDBRANCH  29  30
ENDBRANCH  27  29
ENDBRANCH  26  27
ENDBRANCH  25  26
ENDBRANCH   1  25
TORSDOF 11
ENDMDL
MODEL 7
REMARK minimizedAffinity -8.57987022
REMARK CNNscore 0.32615605
REMARK CNNaffinity 6.23868036
REMARK  11 active torsions:
REMARK  status: ('A' for Active; 'I' for Inactive)
REMARK    1  A    between atoms: C19_20  and  O2_21 
REMARK    2  A    between atoms: C19_20  and  C20_22 
REMARK    3  A    between atoms: C20_22  and  C21_24 
REMARK    4  A    between atoms: C21_24  and  O4_25 
REMARK    5  A    between atoms: O4_25  and  C22_26 
REMARK    6  A    between atoms: C22_26  and  C23_28 
REMARK    7  A    between atoms: C23_28  and  C24_29 
REMARK    8  A    between atoms: C24_29  and  C25_30 
REMARK       I    between atoms: C25_30  and  N1_32 
REMARK    9  A    between atoms: N1_32  and  C26_33 
REMARK   10  A    between atoms: C26_33  and  C27_34 
REMARK   11  A    between atoms: C27_34  and  C28_35 
ROOT
HETATM    1  C20 UNL     1      -7.566  48.451 -23.088  1.00  0.00     0.185 C 
HETATM    2  O3  UNL     1      -7.951  47.344 -22.675  1.00  0.00    -0.292 OA
ENDROOT
BRANCH   1   3
HETATM    3  C19 UNL     1      -6.794  49.387 -22.121  1.00  0.00     0.128 C 
HETATM    4  C14 UNL     1      -5.236  49.335 -22.057  1.00  0.00    -0.002 C 
HETATM    5  C13 UNL     1      -4.486  49.977 -23.239  1.00  0.00     0.013 C 
HETATM    6  C15 UNL     1      -4.699  47.901 -21.832  1.00  0.00     0.019 C 
HETATM    7  C16 UNL     1      -5.001  50.247 -20.819  1.00  0.00     0.002 C 
HETATM    8  C12 UNL     1      -2.988  50.171 -22.933  1.00  0.00     0.007 C 
HETATM    9  C11 UNL     1      -2.723  50.960 -21.621  1.00  0.00     0.002 C 
HETATM   10  C2  UNL     1      -1.192  51.164 -21.296  1.00  0.00    -0.016 C 
HETATM   11  C10 UNL     1      -3.525  50.373 -20.419  1.00  0.00    -0.004 C 
HETATM   12  C1  UNL     1      -0.439  49.819 -21.198  1.00  0.00     0.020 C 
HETATM   13  C3  UNL     1      -0.563  52.020 -22.434  1.00  0.00     0.022 C 
HETATM   14  C7  UNL     1      -1.038  51.894 -19.954  1.00  0.00    -0.068 C 
HETATM   15  C4  UNL     1       0.810  52.584 -22.096  1.00  0.00     0.084 C 
HETATM   16  C5  UNL     1       0.769  53.351 -20.801  1.00  0.00     0.149 C 
HETATM   17  O1  UNL     1       1.541  54.279 -20.567  1.00  0.00    -0.293 OA
HETATM   18  C6  UNL     1      -0.177  52.907 -19.753  1.00  0.00     0.053 C 
HETATM   19  C8  UNL     1      -1.886  51.403 -18.805  1.00  0.00     0.035 C 
HETATM   20  C9  UNL     1      -3.355  51.274 -19.188  1.00  0.00     0.010 C 
HETATM   21  C17 UNL     1      -6.000  49.712 -19.799  1.00  0.00     0.009 C 
HETATM   22  C18 UNL     1      -7.227  49.305 -20.642  1.00  0.00     0.047 C 
BRANCH   3  23
HETATM   23  O2  UNL     1      -7.155  50.730 -22.554  1.00  0.00    -0.381 OA
HETATM   24  H27 UNL     1      -8.051  50.652 -22.946  1.00  0.00     0.211 HD
ENDBRANCH   3  23
ENDBRANCH   1   3
BRANCH   1  25
HETATM   25  C21 UNL     1      -7.900  48.855 -24.520  1.00  0.00     0.260 C 
BRANCH  25  26
HETATM   26  O4  UNL     1      -7.955  47.835 -25.505  1.00  0.00    -0.314 OA
BRANCH  26  27
HETATM   27  C22 UNL     1      -6.839  47.707 -26.278  1.00  0.00     0.259 C 
HETATM   28  O5  UNL     1      -5.700  47.958 -25.915  1.00  0.00    -0.265 OA
BRANCH  27  29
HETATM   29  C23 UNL     1      -7.197  47.133 -27.628  1.00  0.00     0.120 C 
BRANCH  29  30
HETATM   30  C24 UNL     1      -7.646  45.682 -27.501  1.00  0.00     0.112 C 
BRANCH  30  31
HETATM   31  C25 UNL     1      -8.569  45.273 -28.632  1.00  0.00     0.218 C 
HETATM   32  O6  UNL     1      -8.967  44.124 -28.786  1.00  0.00    -0.274 OA
HETATM   33  N1  UNL     1      -8.863  46.311 -29.488  1.00  0.00    -0.361 N 
HETATM   34  H34 UNL     1      -8.419  47.210 -29.342  1.00  0.00     0.162 HD
BRANCH  33  35
HETATM   35  C26 UNL     1      -9.674  46.138 -30.683  1.00  0.00     0.127 C 
BRANCH  35  36
HETATM   36  C27 UNL     1      -9.533  47.302 -31.668  1.00  0.00     0.060 C 
BRANCH  36  37
HETATM   37  C28 UNL     1      -9.214  46.870 -33.065  1.00  0.00    -0.029 A 
HETATM   38  C29 UNL     1      -8.008  47.060 -33.714  1.00  0.00     0.096 A 
HETATM   39  N2  UNL     1      -8.109  46.544 -34.977  1.00  0.00    -0.365 N 
HETATM   40  C30 UNL     1      -9.366  46.025 -35.178  1.00  0.00     0.042 A 
HETATM   41  H40 UNL     1      -7.369  46.533 -35.664  1.00  0.00     0.165 HD
HETATM   42  C31 UNL     1      -9.912  45.411 -36.311  1.00  0.00     0.030 A 
HETATM   43  C35 UNL     1     -10.079  46.202 -33.991  1.00  0.00    -0.002 A 
HETATM   44  C32 UNL     1     -11.225  44.940 -36.221  1.00  0.00     0.002 A 
HETATM   45  C33 UNL     1     -11.962  45.093 -35.049  1.00  0.00     0.001 A 
HETATM   46  C34 UNL     1     -11.406  45.728 -33.933  1.00  0.00     0.014 A 
ENDBRANCH  36  37
ENDBRANCH  35  36
ENDBRANCH  33  35
ENDBRANCH  30  31
ENDBRANCH  29  30
ENDBRANCH  27  29
ENDBRANCH  26  27
ENDBRANCH  25  26
ENDBRANCH   1  25
TORSDOF 11
ENDMDL
MODEL 8
REMARK minimizedAffinity -10.303894
REMARK CNNscore 0.284851611
REMARK CNNaffinity 7.26273489
REMARK  11 active torsions:
REMARK  status: ('A' for Active; 'I' for Inactive)
REMARK    1  A    between atoms: C19_20  and  O2_21 
REMARK    2  A    between atoms: C19_20  and  C20_22 
REMARK    3  A    between atoms: C20_22  and  C21_24 
REMARK    4  A    between atoms: C21_24  and  O4_25 
REMARK    5  A    between atoms: O4_25  and  C22_26 
REMARK    6  A    between atoms: C22_26  and  C23_28 
REMARK    7  A    between atoms: C23_28  and  C24_29 
REMARK    8  A    between atoms: C24_29  and  C25_30 
REMARK       I    between atoms: C25_30  and  N1_32 
REMARK    9  A    between atoms: N1_32  and  C26_33 
REMARK   10  A    between atoms: C26_33  and  C27_34 
REMARK   11  A    between atoms: C27_34  and  C28_35 
ROOT
HETATM    1  C20 UNL     1      -7.447  48.325 -23.127  1.00  0.00     0.185 C 
HETATM    2  O3  UNL     1      -7.345  47.099 -22.955  1.00  0.00    -0.292 OA
ENDROOT
BRANCH   1   3
HETATM    3  C19 UNL     1      -6.713  49.284 -22.154  1.00  0.00     0.128 C 
HETATM    4  C14 UNL     1      -5.160  49.219 -22.012  1.00  0.00    -0.002 C 
HETATM    5  C13 UNL     1      -4.346  49.816 -23.175  1.00  0.00     0.013 C 
HETATM    6  C15 UNL     1      -4.651  47.788 -21.715  1.00  0.00     0.019 C 
HETATM    7  C16 UNL     1      -4.976  50.168 -20.794  1.00  0.00     0.002 C 
HETATM    8  C12 UNL     1      -2.863  50.004 -22.802  1.00  0.00     0.007 C 
HETATM    9  C11 UNL     1      -2.653  50.833 -21.505  1.00  0.00     0.002 C 
HETATM   10  C2  UNL     1      -1.138  51.032 -21.112  1.00  0.00    -0.016 C 
HETATM   11  C10 UNL     1      -3.519  50.293 -20.325  1.00  0.00    -0.004 C 
HETATM   12  C1  UNL     1      -0.405  49.684 -20.935  1.00  0.00     0.020 C 
HETATM   13  C3  UNL     1      -0.445  51.846 -22.244  1.00  0.00     0.022 C 
HETATM   14  C7  UNL     1      -1.041  51.803 -19.788  1.00  0.00    -0.068 C 
HETATM   15  C4  UNL     1       0.916  52.407 -21.858  1.00  0.00     0.084 C 
HETATM   16  C5  UNL     1       0.821  53.215 -20.591  1.00  0.00     0.149 C 
HETATM   17  O1  UNL     1       1.591  54.143 -20.349  1.00  0.00    -0.293 OA
HETATM   18  C6  UNL     1      -0.180  52.815 -19.577  1.00  0.00     0.053 C 
HETATM   19  C8  UNL     1      -1.950  51.358 -18.667  1.00  0.00     0.035 C 
HETATM   20  C9  UNL     1      -3.399  51.231 -19.117  1.00  0.00     0.010 C 
HETATM   21  C17 UNL     1      -6.029  49.675 -19.807  1.00  0.00     0.009 C 
HETATM   22  C18 UNL     1      -7.218  49.253 -20.696  1.00  0.00     0.047 C 
BRANCH   3  23
HETATM   23  O2  UNL     1      -7.037  50.616 -22.646  1.00  0.00    -0.381 OA
HETATM   24  H27 UNL     1      -7.914  50.534 -23.078  1.00  0.00     0.211 HD
ENDBRANCH   3  23
ENDBRANCH   1   3
BRANCH   1  25
HETATM   25  C21 UNL     1      -8.320  48.834 -24.270  1.00  0.00     0.260 C 
BRANCH  25  26
HETATM   26  O4  UNL     1      -7.786  48.798 -25.583  1.00  0.00    -0.314 OA
BRANCH  26  27
HETATM   27  C22 UNL     1      -8.405  47.942 -26.445  1.00  0.00     0.259 C 
HETATM   28  O5  UNL     1      -9.590  47.974 -26.736  1.00  0.00    -0.265 OA
BRANCH  27  29
HETATM   29  C23 UNL     1      -7.402  46.993 -27.056  1.00  0.00     0.120 C 
BRANCH  29  30
HETATM   30  C24 UNL     1      -6.812  47.573 -28.336  1.00  0.00     0.112 C 
BRANCH  30  31
HETATM   31  C25 UNL     1      -5.350  47.939 -28.172  1.00  0.00     0.218 C 
HETATM   32  O6  UNL     1      -4.543  47.889 -29.094  1.00  0.00    -0.274 OA
HETATM   33  N1  UNL     1      -5.021  48.275 -26.878  1.00  0.00    -0.361 N 
HETATM   34  H34 UNL     1      -5.729  48.201 -26.156  1.00  0.00     0.162 HD
BRANCH  33  35
HETATM   35  C26 UNL     1      -3.662  48.593 -26.471  1.00  0.00     0.127 C 
BRANCH  35  36
HETATM   36  C27 UNL     1      -2.996  49.625 -27.386  1.00  0.00     0.060 C 
BRANCH  36  37
HETATM   37  C28 UNL     1      -2.533  50.854 -26.667  1.00  0.00    -0.029 A 
HETATM   38  C29 UNL     1      -3.350  51.829 -26.126  1.00  0.00     0.096 A 
HETATM   39  N2  UNL     1      -2.559  52.796 -25.569  1.00  0.00    -0.365 N 
HETATM   40  C30 UNL     1      -1.232  52.482 -25.741  1.00  0.00     0.042 A 
HETATM   41  H40 UNL     1      -2.894  53.620 -25.089  1.00  0.00     0.165 HD
HETATM   42  C31 UNL     1      -0.085  53.180 -25.344  1.00  0.00     0.030 A 
HETATM   43  C35 UNL     1      -1.182  51.261 -26.415  1.00  0.00    -0.002 A 
HETATM   44  C32 UNL     1       1.154  52.599 -25.625  1.00  0.00     0.002 A 
HETATM   45  C33 UNL     1       1.239  51.378 -26.288  1.00  0.00     0.001 A 
HETATM   46  C34 UNL     1       0.082  50.703 -26.696  1.00  0.00     0.014 A 
ENDBRANCH  36  37
ENDBRANCH  35  36
ENDBRANCH  33  35
ENDBRANCH  30  31
ENDBRANCH  29  30
ENDBRANCH  27  29
ENDBRANCH  26  27
ENDBRANCH  25  26
ENDBRANCH   1  25
TORSDOF 11
ENDMDL
MODEL 9
REMARK minimizedAffinity -9.0641613
REMARK CNNscore 0.283431023
REMARK CNNaffinity 6.53824663
REMARK  11 active torsions:
REMARK  status: ('A' for Active; 'I' for Inactive)
REMARK    1  A    between atoms: C19_20  and  O2_21 
REMARK    2  A    between atoms: C19_20  and  C20_22 
REMARK    3  A    between atoms: C20_22  and  C21_24 
REMARK    4  A    between atoms: C21_24  and  O4_25 
REMARK    5  A    between atoms: O4_25  and  C22_26 
REMARK    6  A    between atoms: C22_26  and  C23_28 
REMARK    7  A    between atoms: C23_28  and  C24_29 
REMARK    8  A    between atoms: C24_29  and  C25_30 
REMARK       I    between atoms: C25_30  and  N1_32 
REMARK    9  A    between atoms: N1_32  and  C26_33 
REMARK   10  A    between atoms: C26_33  and  C27_34 
REMARK   11  A    between atoms: C27_34  and  C28_35 
ROOT
HETATM    1  C20 UNL     1      -4.263  48.650 -18.569  1.00  0.00     0.185 C 
HETATM    2  O3  UNL     1      -5.488  48.689 -18.368  1.00  0.00    -0.292 OA
ENDROOT
BRANCH   1   3
HETATM    3  C19 UNL     1      -3.744  48.376 -20.006  1.00  0.00     0.128 C 
HETATM    4  C14 UNL     1      -3.422  49.565 -20.962  1.00  0.00    -0.002 C 
HETATM    5  C13 UNL     1      -2.125  50.341 -20.668  1.00  0.00     0.013 C 
HETATM    6  C15 UNL     1      -4.597  50.566 -21.082  1.00  0.00     0.019 C 
HETATM    7  C16 UNL     1      -3.192  48.776 -22.282  1.00  0.00     0.002 C 
HETATM    8  C12 UNL     1      -1.728  51.263 -21.838  1.00  0.00     0.007 C 
HETATM    9  C11 UNL     1      -1.628  50.524 -23.200  1.00  0.00     0.002 C 
HETATM   10  C2  UNL     1      -1.224  51.458 -24.407  1.00  0.00    -0.016 C 
HETATM   11  C10 UNL     1      -2.903  49.673 -23.493  1.00  0.00    -0.004 C 
HETATM   12  C1  UNL     1      -2.208  52.636 -24.579  1.00  0.00     0.020 C 
HETATM   13  C3  UNL     1       0.202  52.019 -24.130  1.00  0.00     0.022 C 
HETATM   14  C7  UNL     1      -1.217  50.649 -25.711  1.00  0.00    -0.068 C 
HETATM   15  C4  UNL     1       0.863  52.654 -25.345  1.00  0.00     0.084 C 
HETATM   16  C5  UNL     1       0.873  51.699 -26.508  1.00  0.00     0.149 C 
HETATM   17  O1  UNL     1       1.736  51.744 -27.383  1.00  0.00    -0.293 OA
HETATM   18  C6  UNL     1      -0.244  50.735 -26.636  1.00  0.00     0.053 C 
HETATM   19  C8  UNL     1      -2.397  49.740 -25.961  1.00  0.00     0.035 C 
HETATM   20  C9  UNL     1      -2.695  48.843 -24.767  1.00  0.00     0.010 C 
HETATM   21  C17 UNL     1      -4.386  47.829 -22.333  1.00  0.00     0.009 C 
HETATM   22  C18 UNL     1      -4.635  47.448 -20.858  1.00  0.00     0.047 C 
BRANCH   3  23
HETATM   23  O2  UNL     1      -2.502  47.643 -19.808  1.00  0.00    -0.381 OA
HETATM   24  H27 UNL     1      -2.607  47.164 -18.959  1.00  0.00     0.211 HD
ENDBRANCH   3  23
ENDBRANCH   1   3
BRANCH   1  25
HETATM   25  C21 UNL     1      -3.319  48.840 -17.385  1.00  0.00     0.260 C 
BRANCH  25  26
HETATM   26  O4  UNL     1      -1.972  49.192 -17.655  1.00  0.00    -0.314 OA
BRANCH  26  27
HETATM   27  C22 UNL     1      -1.377  49.989 -16.723  1.00  0.00     0.259 C 
HETATM   28  O5  UNL     1      -0.911  51.096 -16.940  1.00  0.00    -0.265 OA
BRANCH  27  29
HETATM   29  C23 UNL     1      -1.443  49.344 -15.360  1.00  0.00     0.120 C 
BRANCH  29  30
HETATM   30  C24 UNL     1      -1.952  50.330 -14.315  1.00  0.00     0.112 C 
BRANCH  30  31
HETATM   31  C25 UNL     1      -2.439  49.629 -13.062  1.00  0.00     0.218 C 
HETATM   32  O6  UNL     1      -2.028  48.529 -12.712  1.00  0.00    -0.274 OA
HETATM   33  N1  UNL     1      -3.422  50.331 -12.401  1.00  0.00    -0.361 N 
HETATM   34  H34 UNL     1      -3.771  51.190 -12.809  1.00  0.00     0.162 HD
BRANCH  33  35
HETATM   35  C26 UNL     1      -4.087  49.820 -11.213  1.00  0.00     0.127 C 
BRANCH  35  36
HETATM   36  C27 UNL     1      -4.385  50.915 -10.185  1.00  0.00     0.060 C 
BRANCH  36  37
HETATM   37  C28 UNL     1      -3.783  52.242 -10.529  1.00  0.00    -0.029 A 
HETATM   38  C29 UNL     1      -4.150  53.045 -11.593  1.00  0.00     0.096 A 
HETATM   39  N2  UNL     1      -3.363  54.163 -11.583  1.00  0.00    -0.365 N 
HETATM   40  C30 UNL     1      -2.474  54.109 -10.537  1.00  0.00     0.042 A 
HETATM   41  H40 UNL     1      -3.426  54.928 -12.241  1.00  0.00     0.165 HD
HETATM   42  C31 UNL     1      -1.485  55.022 -10.151  1.00  0.00     0.030 A 
HETATM   43  C35 UNL     1      -2.722  52.921  -9.847  1.00  0.00    -0.002 A 
HETATM   44  C32 UNL     1      -0.739  54.721  -9.007  1.00  0.00     0.002 A 
HETATM   45  C33 UNL     1      -0.967  53.549  -8.292  1.00  0.00     0.001 A 
HETATM   46  C34 UNL     1      -1.946  52.638  -8.704  1.00  0.00     0.014 A 
ENDBRANCH  36  37
ENDBRANCH  35  36
ENDBRANCH  33  35
ENDBRANCH  30  31
ENDBRANCH  29  30
ENDBRANCH  27  29
ENDBRANCH  26  27
ENDBRANCH  25  26
ENDBRANCH   1  25
TORSDOF 11
ENDMDL
