MODEL 1
REMARK minimizedAffinity -10.2440157
REMARK  3 active torsions:
REMARK  status: ('A' for Active; 'I' for Inactive)
REMARK    1  A    between atoms: C4_4  and  C5_5 
REMARK    2  A    between atoms: C5_5  and  C7_7 
REMARK    3  A    between atoms: C7_7  and  O1_10 
ROOT
HETATM    1  C1  UNL     1      -4.697   9.731  15.987  1.00  0.00     0.010 C 
HETATM    2  C2  UNL     1      -5.010   8.474  15.179  1.00  0.00    -0.009 C 
HETATM    3  C3  UNL     1      -6.088   7.630  15.871  1.00  0.00     0.037 C 
HETATM    4  C4  UNL     1      -6.565   6.492  14.952  1.00  0.00     0.129 C 
HETATM    5  O2  UNL     1      -5.479   6.041  14.116  1.00  0.00    -0.380 OA
HETATM    6  C10 UNL     1      -4.186   6.104  14.697  1.00  0.00     0.128 C 
HETATM    7  C11 UNL     1      -3.161   5.566  13.680  1.00  0.00     0.042 C 
HETATM    8  C12 UNL     1      -1.964   6.535  13.772  1.00  0.00    -0.030 C 
HETATM    9  C13 UNL     1      -1.128   6.103  15.018  1.00  0.00     0.016 C 
HETATM   10  C14 UNL     1      -1.072   6.576  12.505  1.00  0.00     0.004 C 
HETATM   11  C15 UNL     1      -0.251   5.299  12.286  1.00  0.00     0.007 C 
HETATM   12  C16 UNL     1       0.538   5.389  10.986  1.00  0.00     0.007 C 
HETATM   13  C17 UNL     1       1.642   6.439  11.116  1.00  0.00     0.010 C 
HETATM   14  C18 UNL     1       2.492   6.646   9.821  1.00  0.00     0.018 C 
HETATM   15  C19 UNL     1       1.657   6.757   8.538  1.00  0.00     0.023 C 
HETATM   16  C20 UNL     1       3.502   5.492   9.669  1.00  0.00     0.023 C 
HETATM   17  C21 UNL     1       3.316   7.935   9.960  1.00  0.00     0.135 C 
HETATM   18  O3  UNL     1       3.800   8.498   8.968  1.00  0.00    -0.297 OA
HETATM   19  C22 UNL     1       3.597   8.436  11.353  1.00  0.00     0.080 C 
HETATM   20  C23 UNL     1       2.314   8.651  12.149  1.00  0.00     0.018 C 
HETATM   21  C24 UNL     1       1.156   7.777  11.681  1.00  0.00    -0.026 A 
HETATM   22  C25 UNL     1      -0.031   8.469  11.062  1.00  0.00     0.021 A 
HETATM   23  C26 UNL     1      -0.198   7.852  12.442  1.00  0.00    -0.027 A 
HETATM   24  C27 UNL     1      -0.308   8.839  13.614  1.00  0.00     0.011 C 
HETATM   25  C28 UNL     1      -1.671   8.970  14.319  1.00  0.00     0.011 C 
HETATM   26  C29 UNL     1      -2.705   7.909  13.925  1.00  0.00    -0.030 C 
HETATM   27  C30 UNL     1      -3.418   8.403  12.629  1.00  0.00     0.016 C 
HETATM   28  C31 UNL     1      -3.771   7.569  15.010  1.00  0.00     0.027 C 
ENDROOT
BRANCH   4  29
HETATM   29  C5  UNL     1      -7.746   6.811  13.968  1.00  0.00     0.044 C 
HETATM   30  C6  UNL     1      -7.813   5.648  12.946  1.00  0.00     0.015 C 
BRANCH  29  31
HETATM   31  C7  UNL     1      -9.153   7.101  14.607  1.00  0.00     0.056 C 
HETATM   32  C8  UNL     1      -9.322   8.581  15.005  1.00  0.00     0.045 C 
HETATM   33  C9  UNL     1     -10.330   6.778  13.660  1.00  0.00     0.045 C 
BRANCH  31  34
HETATM   34  O1  UNL     1      -9.355   6.268  15.750  1.00  0.00    -0.390 OA
HETATM   35  H18 UNL     1      -8.950   6.685  16.530  1.00  0.00     0.210 HD
ENDBRANCH  31  34
ENDBRANCH  29  31
ENDBRANCH   4  29
TORSDOF 3
ENDMDL
MODEL 2
REMARK minimizedAffinity -9.20345211
REMARK  3 active torsions:
REMARK  status: ('A' for Active; 'I' for Inactive)
REMARK    1  A    between atoms: C4_4  and  C5_5 
REMARK    2  A    between atoms: C5_5  and  C7_7 
REMARK    3  A    between atoms: C7_7  and  O1_10 
ROOT
HETATM    1  C1  UNL     1      -1.772   4.910  12.069  1.00  0.00     0.010 C 
HETATM    2  C2  UNL     1      -0.755   5.997  11.734  1.00  0.00    -0.009 C 
HETATM    3  C3  UNL     1       0.467   5.407  11.018  1.00  0.00     0.037 C 
HETATM    4  C4  UNL     1       1.378   6.523  10.481  1.00  0.00     0.129 C 
HETATM    5  O2  UNL     1       1.325   7.671  11.354  1.00  0.00    -0.380 OA
HETATM    6  C10 UNL     1       1.141   7.390  12.732  1.00  0.00     0.128 C 
HETATM    7  C11 UNL     1       1.131   8.720  13.511  1.00  0.00     0.042 C 
HETATM    8  C12 UNL     1      -0.014   8.573  14.534  1.00  0.00    -0.030 C 
HETATM    9  C13 UNL     1       0.553   7.743  15.730  1.00  0.00     0.016 C 
HETATM   10  C14 UNL     1      -0.605   9.915  15.033  1.00  0.00     0.004 C 
HETATM   11  C15 UNL     1       0.344  10.708  15.942  1.00  0.00     0.007 C 
HETATM   12  C16 UNL     1      -0.279  12.043  16.327  1.00  0.00     0.007 C 
HETATM   13  C17 UNL     1      -1.468  11.815  17.261  1.00  0.00     0.010 C 
HETATM   14  C18 UNL     1      -2.212  13.121  17.689  1.00  0.00     0.018 C 
HETATM   15  C19 UNL     1      -2.490  14.090  16.531  1.00  0.00     0.023 C 
HETATM   16  C20 UNL     1      -1.401  13.852  18.777  1.00  0.00     0.023 C 
HETATM   17  C21 UNL     1      -3.561  12.747  18.324  1.00  0.00     0.135 C 
HETATM   18  O3  UNL     1      -4.471  13.580  18.434  1.00  0.00    -0.297 OA
HETATM   19  C22 UNL     1      -3.701  11.361  18.895  1.00  0.00     0.080 C 
HETATM   20  C23 UNL     1      -3.395  10.284  17.859  1.00  0.00     0.018 C 
HETATM   21  C24 UNL     1      -2.452  10.755  16.757  1.00  0.00    -0.026 A 
HETATM   22  C25 UNL     1      -3.007  10.848  15.359  1.00  0.00     0.021 A 
HETATM   23  C26 UNL     1      -2.009   9.742  15.663  1.00  0.00    -0.027 A 
HETATM   24  C27 UNL     1      -2.578   8.318  15.733  1.00  0.00     0.011 C 
HETATM   25  C28 UNL     1      -2.201   7.336  14.607  1.00  0.00     0.011 C 
HETATM   26  C29 UNL     1      -1.090   7.826  13.670  1.00  0.00    -0.030 C 
HETATM   27  C30 UNL     1      -1.755   8.707  12.569  1.00  0.00     0.016 C 
HETATM   28  C31 UNL     1      -0.232   6.711  12.999  1.00  0.00     0.027 C 
ENDROOT
BRANCH   4  29
HETATM   29  C5  UNL     1       1.068   7.075   9.045  1.00  0.00     0.044 C 
HETATM   30  C6  UNL     1       0.376   8.450   9.225  1.00  0.00     0.015 C 
BRANCH  29  31
HETATM   31  C7  UNL     1       2.270   7.160   8.035  1.00  0.00     0.056 C 
HETATM   32  C8  UNL     1       1.820   6.987   6.571  1.00  0.00     0.045 C 
HETATM   33  C9  UNL     1       3.019   8.511   8.092  1.00  0.00     0.045 C 
BRANCH  31  34
HETATM   34  O1  UNL     1       3.254   6.175   8.357  1.00  0.00    -0.390 OA
HETATM   35  H18 UNL     1       3.010   5.328   7.946  1.00  0.00     0.210 HD
ENDBRANCH  31  34
ENDBRANCH  29  31
ENDBRANCH   4  29
TORSDOF 3
ENDMDL
MODEL 3
REMARK minimizedAffinity -9.12726116
REMARK  3 active torsions:
REMARK  status: ('A' for Active; 'I' for Inactive)
REMARK    1  A    between atoms: C4_4  and  C5_5 
REMARK    2  A    between atoms: C5_5  and  C7_7 
REMARK    3  A    between atoms: C7_7  and  O1_10 
ROOT
HETATM    1  C1  UNL     1      -3.748   3.944  13.040  1.00  0.00     0.010 C 
HETATM    2  C2  UNL     1      -4.480   5.200  13.503  1.00  0.00    -0.009 C 
HETATM    3  C3  UNL     1      -5.871   5.294  12.862  1.00  0.00     0.037 C 
HETATM    4  C4  UNL     1      -6.691   6.428  13.499  1.00  0.00     0.129 C 
HETATM    5  O2  UNL     1      -5.820   7.506  13.900  1.00  0.00    -0.380 OA
HETATM    6  C10 UNL     1      -4.678   7.713  13.083  1.00  0.00     0.128 C 
HETATM    7  C11 UNL     1      -3.881   8.908  13.642  1.00  0.00     0.042 C 
HETATM    8  C12 UNL     1      -2.404   8.472  13.562  1.00  0.00    -0.030 C 
HETATM    9  C13 UNL     1      -1.944   8.705  12.087  1.00  0.00     0.016 C 
HETATM   10  C14 UNL     1      -1.463   9.208  14.549  1.00  0.00     0.004 C 
HETATM   11  C15 UNL     1      -1.232  10.684  14.199  1.00  0.00     0.007 C 
HETATM   12  C16 UNL     1      -0.361  11.352  15.255  1.00  0.00     0.007 C 
HETATM   13  C17 UNL     1       1.064  10.799  15.183  1.00  0.00     0.010 C 
HETATM   14  C18 UNL     1       2.038  11.387  16.254  1.00  0.00     0.018 C 
HETATM   15  C19 UNL     1       1.448  11.444  17.670  1.00  0.00     0.023 C 
HETATM   16  C20 UNL     1       2.485  12.801  15.834  1.00  0.00     0.023 C 
HETATM   17  C21 UNL     1       3.308  10.523  16.307  1.00  0.00     0.135 C 
HETATM   18  O3  UNL     1       4.072  10.565  17.282  1.00  0.00    -0.297 OA
HETATM   19  C22 UNL     1       3.641   9.700  15.091  1.00  0.00     0.080 C 
HETATM   20  C23 UNL     1       2.498   8.768  14.704  1.00  0.00     0.018 C 
HETATM   21  C24 UNL     1       1.129   9.269  15.152  1.00  0.00    -0.026 A 
HETATM   22  C25 UNL     1       0.402   8.464  16.198  1.00  0.00     0.021 A 
HETATM   23  C26 UNL     1      -0.135   8.445  14.775  1.00  0.00    -0.027 A 
HETATM   24  C27 UNL     1       0.069   7.140  13.992  1.00  0.00     0.011 C 
HETATM   25  C28 UNL     1      -1.174   6.284  13.684  1.00  0.00     0.011 C 
HETATM   26  C29 UNL     1      -2.515   6.965  13.982  1.00  0.00    -0.030 C 
HETATM   27  C30 UNL     1      -2.834   6.741  15.492  1.00  0.00     0.016 C 
HETATM   28  C31 UNL     1      -3.721   6.488  13.118  1.00  0.00     0.027 C 
ENDROOT
BRANCH   4  29
HETATM   29  C5  UNL     1      -7.535   6.076  14.775  1.00  0.00     0.044 C 
HETATM   30  C6  UNL     1      -6.615   6.295  16.004  1.00  0.00     0.015 C 
BRANCH  29  31
HETATM   31  C7  UNL     1      -8.915   6.809  14.947  1.00  0.00     0.056 C 
HETATM   32  C8  UNL     1      -8.748   8.317  15.218  1.00  0.00     0.045 C 
HETATM   33  C9  UNL     1      -9.822   6.699  13.701  1.00  0.00     0.045 C 
BRANCH  31  34
HETATM   34  O1  UNL     1      -9.663   6.209  16.006  1.00  0.00    -0.390 OA
HETATM   35  H18 UNL     1      -9.388   6.595  16.856  1.00  0.00     0.210 HD
ENDBRANCH  31  34
ENDBRANCH  29  31
ENDBRANCH   4  29
TORSDOF 3
ENDMDL
MODEL 4
REMARK minimizedAffinity -9.05873394
REMARK  3 active torsions:
REMARK  status: ('A' for Active; 'I' for Inactive)
REMARK    1  A    between atoms: C4_4  and  C5_5 
REMARK    2  A    between atoms: C5_5  and  C7_7 
REMARK    3  A    between atoms: C7_7  and  O1_10 
ROOT
HETATM    1  C1  UNL     1       1.955   5.817  10.301  1.00  0.00     0.010 C 
HETATM    2  C2  UNL     1       1.990   6.842  11.431  1.00  0.00    -0.009 C 
HETATM    3  C3  UNL     1       3.420   7.045  11.946  1.00  0.00     0.037 C 
HETATM    4  C4  UNL     1       3.488   8.235  12.918  1.00  0.00     0.129 C 
HETATM    5  O2  UNL     1       2.252   8.346  13.653  1.00  0.00    -0.380 OA
HETATM    6  C10 UNL     1       1.591   7.124  13.939  1.00  0.00     0.128 C 
HETATM    7  C11 UNL     1       0.312   7.429  14.742  1.00  0.00     0.042 C 
HETATM    8  C12 UNL     1      -0.768   6.511  14.134  1.00  0.00    -0.030 C 
HETATM    9  C13 UNL     1      -0.568   5.097  14.767  1.00  0.00     0.016 C 
HETATM   10  C14 UNL     1      -2.222   7.002  14.345  1.00  0.00     0.004 C 
HETATM   11  C15 UNL     1      -2.703   6.903  15.798  1.00  0.00     0.007 C 
HETATM   12  C16 UNL     1      -4.109   7.473  15.935  1.00  0.00     0.007 C 
HETATM   13  C17 UNL     1      -5.113   6.565  15.223  1.00  0.00     0.010 C 
HETATM   14  C18 UNL     1      -6.589   7.078  15.264  1.00  0.00     0.018 C 
HETATM   15  C19 UNL     1      -6.740   8.570  14.940  1.00  0.00     0.023 C 
HETATM   16  C20 UNL     1      -7.201   6.795  16.650  1.00  0.00     0.023 C 
HETATM   17  C21 UNL     1      -7.424   6.287  14.245  1.00  0.00     0.135 C 
HETATM   18  O3  UNL     1      -8.516   6.713  13.842  1.00  0.00    -0.297 OA
HETATM   19  C22 UNL     1      -6.916   4.931  13.830  1.00  0.00     0.080 C 
HETATM   20  C23 UNL     1      -5.500   5.002  13.269  1.00  0.00     0.018 C 
HETATM   21  C24 UNL     1      -4.696   6.183  13.800  1.00  0.00    -0.026 A 
HETATM   22  C25 UNL     1      -4.308   7.257  12.816  1.00  0.00     0.021 A 
HETATM   23  C26 UNL     1      -3.215   6.347  13.354  1.00  0.00    -0.027 A 
HETATM   24  C27 UNL     1      -2.646   5.317  12.367  1.00  0.00     0.011 C 
HETATM   25  C28 UNL     1      -1.204   5.521  11.865  1.00  0.00     0.011 C 
HETATM   26  C29 UNL     1      -0.410   6.601  12.609  1.00  0.00    -0.030 C 
HETATM   27  C30 UNL     1      -0.748   7.973  11.949  1.00  0.00     0.016 C 
HETATM   28  C31 UNL     1       1.135   6.403  12.639  1.00  0.00     0.027 C 
ENDROOT
BRANCH   4  29
HETATM   29  C5  UNL     1       3.736   9.655  12.298  1.00  0.00     0.044 C 
HETATM   30  C6  UNL     1       3.194  10.695  13.312  1.00  0.00     0.015 C 
BRANCH  29  31
HETATM   31  C7  UNL     1       5.204   9.996  11.850  1.00  0.00     0.056 C 
HETATM   32  C8  UNL     1       6.259   9.443  12.829  1.00  0.00     0.045 C 
HETATM   33  C9  UNL     1       5.566   9.418  10.464  1.00  0.00     0.045 C 
BRANCH  31  34
HETATM   34  O1  UNL     1       5.363  11.409  11.717  1.00  0.00    -0.390 OA
HETATM   35  H18 UNL     1       5.572  11.795  12.586  1.00  0.00     0.210 HD
ENDBRANCH  31  34
ENDBRANCH  29  31
ENDBRANCH   4  29
TORSDOF 3
ENDMDL
MODEL 5
REMARK minimizedAffinity -8.60786629
REMARK  3 active torsions:
REMARK  status: ('A' for Active; 'I' for Inactive)
REMARK    1  A    between atoms: C4_4  and  C5_5 
REMARK    2  A    between atoms: C5_5  and  C7_7 
REMARK    3  A    between atoms: C7_7  and  O1_10 
ROOT
HETATM    1  C1  UNL     1      -4.341   4.173  12.076  1.00  0.00     0.010 C 
HETATM    2  C2  UNL     1      -4.060   5.339  13.020  1.00  0.00    -0.009 C 
HETATM    3  C3  UNL     1      -2.702   5.173  13.712  1.00  0.00     0.037 C 
HETATM    4  C4  UNL     1      -2.319   6.449  14.480  1.00  0.00     0.129 C 
HETATM    5  O2  UNL     1      -3.504   7.097  14.986  1.00  0.00    -0.380 OA
HETATM    6  C10 UNL     1      -4.568   6.236  15.358  1.00  0.00     0.128 C 
HETATM    7  C11 UNL     1      -5.733   7.091  15.894  1.00  0.00     0.042 C 
HETATM    8  C12 UNL     1      -7.001   6.465  15.279  1.00  0.00    -0.030 C 
HETATM    9  C13 UNL     1      -7.360   5.221  16.154  1.00  0.00     0.016 C 
HETATM   10  C14 UNL     1      -8.211   7.428  15.180  1.00  0.00     0.004 C 
HETATM   11  C15 UNL     1      -8.829   7.785  16.538  1.00  0.00     0.007 C 
HETATM   12  C16 UNL     1      -9.959   8.791  16.362  1.00  0.00     0.007 C 
HETATM   13  C17 UNL     1     -11.143   8.128  15.658  1.00  0.00     0.010 C 
HETATM   14  C18 UNL     1     -12.350   9.084  15.386  1.00  0.00     0.018 C 
HETATM   15  C19 UNL     1     -11.947  10.448  14.808  1.00  0.00     0.023 C 
HETATM   16  C20 UNL     1     -13.148   9.301  16.687  1.00  0.00     0.023 C 
HETATM   17  C21 UNL     1     -13.309   8.414  14.389  1.00  0.00     0.135 C 
HETATM   18  O3  UNL     1     -14.145   9.076  13.759  1.00  0.00    -0.297 OA
HETATM   19  C22 UNL     1     -13.262   6.913  14.280  1.00  0.00     0.080 C 
HETATM   20  C23 UNL     1     -11.862   6.410  13.942  1.00  0.00     0.018 C 
HETATM   21  C24 UNL     1     -10.754   7.353  14.395  1.00  0.00    -0.026 A 
HETATM   22  C25 UNL     1      -9.930   8.023  13.326  1.00  0.00     0.021 A 
HETATM   23  C26 UNL     1      -9.272   6.939  14.165  1.00  0.00    -0.027 A 
HETATM   24  C27 UNL     1      -9.004   5.604  13.455  1.00  0.00     0.011 C 
HETATM   25  C28 UNL     1      -7.539   5.228  13.158  1.00  0.00     0.011 C 
HETATM   26  C29 UNL     1      -6.495   6.124  13.834  1.00  0.00    -0.030 C 
HETATM   27  C30 UNL     1      -6.277   7.368  12.919  1.00  0.00     0.016 C 
HETATM   28  C31 UNL     1      -5.122   5.452  14.135  1.00  0.00     0.027 C 
ENDROOT
BRANCH   4  29
HETATM   29  C5  UNL     1      -1.541   7.558  13.688  1.00  0.00     0.044 C 
HETATM   30  C6  UNL     1      -1.099   6.931  12.341  1.00  0.00     0.015 C 
BRANCH  29  31
HETATM   31  C7  UNL     1      -2.275   8.933  13.473  1.00  0.00     0.056 C 
HETATM   32  C8  UNL     1      -3.565   8.786  12.643  1.00  0.00     0.045 C 
HETATM   33  C9  UNL     1      -2.694   9.612  14.796  1.00  0.00     0.045 C 
BRANCH  31  34
HETATM   34  O1  UNL     1      -1.397   9.865  12.839  1.00  0.00    -0.390 OA
HETATM   35  H18 UNL     1      -1.427   9.734  11.875  1.00  0.00     0.210 HD
ENDBRANCH  31  34
ENDBRANCH  29  31
ENDBRANCH   4  29
TORSDOF 3
ENDMDL
MODEL 6
REMARK minimizedAffinity -8.58851719
REMARK  3 active torsions:
REMARK  status: ('A' for Active; 'I' for Inactive)
REMARK    1  A    between atoms: C4_4  and  C5_5 
REMARK    2  A    between atoms: C5_5  and  C7_7 
REMARK    3  A    between atoms: C7_7  and  O1_10 
ROOT
HETATM    1  C1  UNL     1      -2.048   8.912  12.141  1.00  0.00     0.010 C 
HETATM    2  C2  UNL     1      -2.809   8.673  13.442  1.00  0.00    -0.009 C 
HETATM    3  C3  UNL     1      -4.324   8.668  13.201  1.00  0.00     0.037 C 
HETATM    4  C4  UNL     1      -5.076   8.203  14.459  1.00  0.00     0.129 C 
HETATM    5  O2  UNL     1      -4.364   8.614  15.644  1.00  0.00    -0.380 OA
HETATM    6  C10 UNL     1      -3.662   9.844  15.547  1.00  0.00     0.128 C 
HETATM    7  C11 UNL     1      -2.984  10.134  16.901  1.00  0.00     0.042 C 
HETATM    8  C12 UNL     1      -1.579  10.655  16.537  1.00  0.00    -0.030 C 
HETATM    9  C13 UNL     1      -1.739  12.162  16.162  1.00  0.00     0.016 C 
HETATM   10  C14 UNL     1      -0.520  10.481  17.656  1.00  0.00     0.004 C 
HETATM   11  C15 UNL     1      -0.743  11.398  18.865  1.00  0.00     0.007 C 
HETATM   12  C16 UNL     1       0.290  11.114  19.947  1.00  0.00     0.007 C 
HETATM   13  C17 UNL     1       1.675  11.564  19.479  1.00  0.00     0.010 C 
HETATM   14  C18 UNL     1       2.825  11.281  20.500  1.00  0.00     0.018 C 
HETATM   15  C19 UNL     1       2.786   9.872  21.108  1.00  0.00     0.023 C 
HETATM   16  C20 UNL     1       2.786  12.324  21.633  1.00  0.00     0.023 C 
HETATM   17  C21 UNL     1       4.178  11.451  19.792  1.00  0.00     0.135 C 
HETATM   18  O3  UNL     1       5.215  10.966  20.266  1.00  0.00    -0.297 OA
HETATM   19  C22 UNL     1       4.215  12.311  18.556  1.00  0.00     0.080 C 
HETATM   20  C23 UNL     1       3.229  11.829  17.498  1.00  0.00     0.018 C 
HETATM   21  C24 UNL     1       2.042  11.068  18.077  1.00  0.00    -0.026 A 
HETATM   22  C25 UNL     1       1.923   9.604  17.742  1.00  0.00     0.021 A 
HETATM   23  C26 UNL     1       0.928  10.566  17.115  1.00  0.00    -0.027 A 
HETATM   24  C27 UNL     1       1.103  10.837  15.613  1.00  0.00     0.011 C 
HETATM   25  C28 UNL     1       0.039  10.274  14.652  1.00  0.00     0.011 C 
HETATM   26  C29 UNL     1      -1.216   9.716  15.334  1.00  0.00    -0.030 C 
HETATM   27  C30 UNL     1      -0.916   8.240  15.738  1.00  0.00     0.016 C 
HETATM   28  C31 UNL     1      -2.525   9.770  14.490  1.00  0.00     0.027 C 
ENDROOT
BRANCH   4  29
HETATM   29  C5  UNL     1      -5.311   6.661  14.626  1.00  0.00     0.044 C 
HETATM   30  C6  UNL     1      -4.142   6.111  15.482  1.00  0.00     0.015 C 
BRANCH  29  31
HETATM   31  C7  UNL     1      -6.706   6.205  15.193  1.00  0.00     0.056 C 
HETATM   32  C8  UNL     1      -7.798   7.275  14.993  1.00  0.00     0.045 C 
HETATM   33  C9  UNL     1      -7.243   4.919  14.527  1.00  0.00     0.045 C 
BRANCH  31  34
HETATM   34  O1  UNL     1      -6.592   5.886  16.581  1.00  0.00    -0.390 OA
HETATM   35  H18 UNL     1      -6.679   6.699  17.109  1.00  0.00     0.210 HD
ENDBRANCH  31  34
ENDBRANCH  29  31
ENDBRANCH   4  29
TORSDOF 3
ENDMDL
MODEL 7
REMARK minimizedAffinity -8.57543945
REMARK  3 active torsions:
REMARK  status: ('A' for Active; 'I' for Inactive)
REMARK    1  A    between atoms: C4_4  and  C5_5 
REMARK    2  A    between atoms: C5_5  and  C7_7 
REMARK    3  A    between atoms: C7_7  and  O1_10 
ROOT
HETATM    1  C1  UNL     1      -4.497   8.486  13.063  1.00  0.00     0.010 C 
HETATM    2  C2  UNL     1      -3.642   7.223  12.999  1.00  0.00    -0.009 C 
HETATM    3  C3  UNL     1      -4.481   5.974  13.296  1.00  0.00     0.037 C 
HETATM    4  C4  UNL     1      -3.678   4.694  13.009  1.00  0.00     0.129 C 
HETATM    5  O2  UNL     1      -2.279   4.915  13.283  1.00  0.00    -0.380 OA
HETATM    6  C10 UNL     1      -1.991   5.811  14.345  1.00  0.00     0.128 C 
HETATM    7  C11 UNL     1      -0.462   5.908  14.510  1.00  0.00     0.042 C 
HETATM    8  C12 UNL     1      -0.180   7.408  14.732  1.00  0.00    -0.030 C 
HETATM    9  C13 UNL     1      -0.478   7.705  16.236  1.00  0.00     0.016 C 
HETATM   10  C14 UNL     1       1.257   7.853  14.362  1.00  0.00     0.004 C 
HETATM   11  C15 UNL     1       2.333   7.327  15.321  1.00  0.00     0.007 C 
HETATM   12  C16 UNL     1       3.719   7.743  14.849  1.00  0.00     0.007 C 
HETATM   13  C17 UNL     1       3.892   9.255  15.004  1.00  0.00     0.010 C 
HETATM   14  C18 UNL     1       5.270   9.802  14.508  1.00  0.00     0.018 C 
HETATM   15  C19 UNL     1       5.706   9.248  13.144  1.00  0.00     0.023 C 
HETATM   16  C20 UNL     1       6.360   9.494  15.552  1.00  0.00     0.023 C 
HETATM   17  C21 UNL     1       5.192  11.332  14.393  1.00  0.00     0.135 C 
HETATM   18  O3  UNL     1       6.012  11.967  13.714  1.00  0.00    -0.297 OA
HETATM   19  C22 UNL     1       4.145  12.040  15.211  1.00  0.00     0.080 C 
HETATM   20  C23 UNL     1       2.744  11.510  14.925  1.00  0.00     0.018 C 
HETATM   21  C24 UNL     1       2.730  10.070  14.427  1.00  0.00    -0.026 A 
HETATM   22  C25 UNL     1       2.272   9.827  13.012  1.00  0.00     0.021 A 
HETATM   23  C26 UNL     1       1.363   9.382  14.147  1.00  0.00    -0.027 A 
HETATM   24  C27 UNL     1       0.088  10.212  14.358  1.00  0.00     0.011 C 
HETATM   25  C28 UNL     1      -1.262   9.558  14.009  1.00  0.00     0.011 C 
HETATM   26  C29 UNL     1      -1.194   8.053  13.724  1.00  0.00    -0.030 C 
HETATM   27  C30 UNL     1      -0.811   7.874  12.223  1.00  0.00     0.016 C 
HETATM   28  C31 UNL     1      -2.493   7.248  14.030  1.00  0.00     0.027 C 
ENDROOT
BRANCH   4  29
HETATM   29  C5  UNL     1      -3.733   4.125  11.548  1.00  0.00     0.044 C 
HETATM   30  C6  UNL     1      -2.270   3.873  11.101  1.00  0.00     0.015 C 
BRANCH  29  31
HETATM   31  C7  UNL     1      -4.637   2.861  11.305  1.00  0.00     0.056 C 
HETATM   32  C8  UNL     1      -3.925   1.548  11.686  1.00  0.00     0.045 C 
HETATM   33  C9  UNL     1      -5.949   2.886  12.120  1.00  0.00     0.045 C 
BRANCH  31  34
HETATM   34  O1  UNL     1      -5.050   2.807   9.938  1.00  0.00    -0.390 OA
HETATM   35  H18 UNL     1      -4.358   2.374   9.408  1.00  0.00     0.210 HD
ENDBRANCH  31  34
ENDBRANCH  29  31
ENDBRANCH   4  29
TORSDOF 3
ENDMDL
MODEL 8
REMARK minimizedAffinity -8.41254234
REMARK  3 active torsions:
REMARK  status: ('A' for Active; 'I' for Inactive)
REMARK    1  A    between atoms: C4_4  and  C5_5 
REMARK    2  A    between atoms: C5_5  and  C7_7 
REMARK    3  A    between atoms: C7_7  and  O1_10 
ROOT
HETATM    1  C1  UNL     1       0.669   7.753   8.588  1.00  0.00     0.010 C 
HETATM    2  C2  UNL     1       1.592   7.393   9.749  1.00  0.00    -0.009 C 
HETATM    3  C3  UNL     1       2.497   6.209   9.386  1.00  0.00     0.037 C 
HETATM    4  C4  UNL     1       3.575   5.995  10.461  1.00  0.00     0.129 C 
HETATM    5  O2  UNL     1       3.061   6.358  11.759  1.00  0.00    -0.380 OA
HETATM    6  C10 UNL     1       1.677   6.119  11.963  1.00  0.00     0.128 C 
HETATM    7  C11 UNL     1       1.309   6.541  13.399  1.00  0.00     0.042 C 
HETATM    8  C12 UNL     1      -0.039   7.279  13.263  1.00  0.00    -0.030 C 
HETATM    9  C13 UNL     1      -1.147   6.182  13.177  1.00  0.00     0.016 C 
HETATM   10  C14 UNL     1      -0.345   8.274  14.411  1.00  0.00     0.004 C 
HETATM   11  C15 UNL     1      -0.648   7.596  15.753  1.00  0.00     0.007 C 
HETATM   12  C16 UNL     1      -0.863   8.639  16.842  1.00  0.00     0.007 C 
HETATM   13  C17 UNL     1      -2.165   9.398  16.588  1.00  0.00     0.010 C 
HETATM   14  C18 UNL     1      -2.467  10.528  17.626  1.00  0.00     0.018 C 
HETATM   15  C19 UNL     1      -1.260  11.422  17.943  1.00  0.00     0.023 C 
HETATM   16  C20 UNL     1      -2.995   9.907  18.934  1.00  0.00     0.023 C 
HETATM   17  C21 UNL     1      -3.589  11.425  17.081  1.00  0.00     0.135 C 
HETATM   18  O3  UNL     1      -3.779  12.562  17.536  1.00  0.00    -0.297 OA
HETATM   19  C22 UNL     1      -4.510  10.838  16.044  1.00  0.00     0.080 C 
HETATM   20  C23 UNL     1      -3.744  10.316  14.833  1.00  0.00     0.018 C 
HETATM   21  C24 UNL     1      -2.309   9.911  15.152  1.00  0.00    -0.026 A 
HETATM   22  C25 UNL     1      -1.203  10.723  14.529  1.00  0.00     0.021 A 
HETATM   23  C26 UNL     1      -1.429   9.308  14.020  1.00  0.00    -0.027 A 
HETATM   24  C27 UNL     1      -2.048   9.183  12.620  1.00  0.00     0.011 C 
HETATM   25  C28 UNL     1      -1.153   8.658  11.481  1.00  0.00     0.011 C 
HETATM   26  C29 UNL     1       0.193   8.080  11.935  1.00  0.00    -0.030 C 
HETATM   27  C30 UNL     1       1.196   9.267  12.066  1.00  0.00     0.016 C 
HETATM   28  C31 UNL     1       0.802   6.983  11.011  1.00  0.00     0.027 C 
ENDROOT
BRANCH   4  29
HETATM   29  C5  UNL     1       4.916   6.796  10.304  1.00  0.00     0.044 C 
HETATM   30  C6  UNL     1       4.563   8.301  10.412  1.00  0.00     0.015 C 
BRANCH  29  31
HETATM   31  C7  UNL     1       6.099   6.409  11.265  1.00  0.00     0.056 C 
HETATM   32  C8  UNL     1       6.821   5.122  10.818  1.00  0.00     0.045 C 
HETATM   33  C9  UNL     1       7.190   7.499  11.357  1.00  0.00     0.045 C 
BRANCH  31  34
HETATM   34  O1  UNL     1       5.616   6.252  12.601  1.00  0.00    -0.390 OA
HETATM   35  H18 UNL     1       5.269   5.350  12.716  1.00  0.00     0.210 HD
ENDBRANCH  31  34
ENDBRANCH  29  31
ENDBRANCH   4  29
TORSDOF 3
ENDMDL
MODEL 9
REMARK minimizedAffinity -8.4016695
REMARK  3 active torsions:
REMARK  status: ('A' for Active; 'I' for Inactive)
REMARK    1  A    between atoms: C4_4  and  C5_5 
REMARK    2  A    between atoms: C5_5  and  C7_7 
REMARK    3  A    between atoms: C7_7  and  O1_10 
ROOT
HETATM    1  C1  UNL     1       2.330  10.357  15.433  1.00  0.00     0.010 C 
HETATM    2  C2  UNL     1       2.925   9.227  14.597  1.00  0.00    -0.009 C 
HETATM    3  C3  UNL     1       4.273   9.641  13.993  1.00  0.00     0.037 C 
HETATM    4  C4  UNL     1       4.976   8.436  13.346  1.00  0.00     0.129 C 
HETATM    5  O2  UNL     1       3.998   7.525  12.803  1.00  0.00    -0.380 OA
HETATM    6  C10 UNL     1       2.814   8.120  12.296  1.00  0.00     0.128 C 
HETATM    7  C11 UNL     1       1.901   7.010  11.740  1.00  0.00     0.042 C 
HETATM    8  C12 UNL     1       0.483   7.385  12.217  1.00  0.00    -0.030 C 
HETATM    9  C13 UNL     1      -0.049   8.476  11.234  1.00  0.00     0.016 C 
HETATM   10  C14 UNL     1      -0.504   6.193  12.296  1.00  0.00     0.004 C 
HETATM   11  C15 UNL     1      -0.918   5.641  10.925  1.00  0.00     0.007 C 
HETATM   12  C16 UNL     1      -1.825   4.430  11.090  1.00  0.00     0.007 C 
HETATM   13  C17 UNL     1      -3.177   4.863  11.660  1.00  0.00     0.010 C 
HETATM   14  C18 UNL     1      -4.178   3.689  11.910  1.00  0.00     0.018 C 
HETATM   15  C19 UNL     1      -3.552   2.474  12.610  1.00  0.00     0.023 C 
HETATM   16  C20 UNL     1      -4.800   3.239  10.574  1.00  0.00     0.023 C 
HETATM   17  C21 UNL     1      -5.335   4.193  12.786  1.00  0.00     0.135 C 
HETATM   18  O3  UNL     1      -6.067   3.403  13.400  1.00  0.00    -0.297 OA
HETATM   19  C22 UNL     1      -5.610   5.674  12.793  1.00  0.00     0.080 C 
HETATM   20  C23 UNL     1      -4.379   6.479  13.195  1.00  0.00     0.018 C 
HETATM   21  C24 UNL     1      -3.064   5.769  12.889  1.00  0.00    -0.026 A 
HETATM   22  C25 UNL     1      -2.214   5.347  14.060  1.00  0.00     0.021 A 
HETATM   23  C26 UNL     1      -1.726   6.500  13.196  1.00  0.00    -0.027 A 
HETATM   24  C27 UNL     1      -1.801   7.898  13.827  1.00  0.00     0.011 C 
HETATM   25  C28 UNL     1      -0.477   8.591  14.202  1.00  0.00     0.011 C 
HETATM   26  C29 UNL     1       0.784   7.902  13.667  1.00  0.00    -0.030 C 
HETATM   27  C30 UNL     1       1.176   6.783  14.680  1.00  0.00     0.016 C 
HETATM   28  C31 UNL     1       2.009   8.833  13.419  1.00  0.00     0.027 C 
ENDROOT
BRANCH   4  29
HETATM   29  C5  UNL     1       5.896   7.561  14.268  1.00  0.00     0.044 C 
HETATM   30  C6  UNL     1       6.484   6.431  13.384  1.00  0.00     0.015 C 
BRANCH  29  31
HETATM   31  C7  UNL     1       7.020   8.308  15.076  1.00  0.00     0.056 C 
HETATM   32  C8  UNL     1       8.419   7.712  14.823  1.00  0.00     0.045 C 
HETATM   33  C9  UNL     1       7.127   9.809  14.723  1.00  0.00     0.045 C 
BRANCH  31  34
HETATM   34  O1  UNL     1       6.727   8.274  16.473  1.00  0.00    -0.390 OA
HETATM   35  H18 UNL     1       7.053   7.439  16.853  1.00  0.00     0.210 HD
ENDBRANCH  31  34
ENDBRANCH  29  31
ENDBRANCH   4  29
TORSDOF 3
ENDMDL
