MODEL 1
REMARK minimizedAffinity -10.8951521
REMARK CNNscore 0.193823248
REMARK CNNaffinity 7.75107193
REMARK  6 active torsions:
REMARK  status: ('A' for Active; 'I' for Inactive)
REMARK    1  A    between atoms: C2_2  and  C3_3 
REMARK    2  A    between atoms: C11_12  and  C12_13 
REMARK    3  A    between atoms: C25_28  and  C26_29 
REMARK    4  A    between atoms: C27_32  and  C30_35 
REMARK    5  A    between atoms: C31_36  and  O3_37 
REMARK    6  A    between atoms: C37_44  and  O4_45 
ROOT
HETATM    1  C12 UNL     1      -6.454   6.615  14.419  1.00  0.00    -0.003 C 
HETATM    2  C13 UNL     1      -5.802   5.692  13.693  1.00  0.00     0.102 C 
HETATM    3  N2  UNL     1      -4.446   5.498  13.751  1.00  0.00    -0.349 N 
HETATM    4  C14 UNL     1      -3.629   4.869  12.784  1.00  0.00     0.041 A 
HETATM    5  C15 UNL     1      -4.031   3.990  11.785  1.00  0.00     0.030 A 
HETATM    6  C16 UNL     1      -3.088   3.520  10.866  1.00  0.00     0.002 A 
HETATM    7  C17 UNL     1      -1.747   3.920  10.951  1.00  0.00     0.001 A 
HETATM    8  C18 UNL     1      -1.340   4.803  11.950  1.00  0.00     0.010 A 
HETATM    9  C19 UNL     1      -2.284   5.264  12.856  1.00  0.00    -0.018 A 
HETATM   10  C20 UNL     1      -2.112   6.283  13.930  1.00  0.00     0.043 C 
HETATM   11  C21 UNL     1      -0.825   6.228  14.788  1.00  0.00     0.049 C 
HETATM   12  C22 UNL     1      -0.095   7.627  14.641  1.00  0.00     0.274 C 
HETATM   13  N3  UNL     1      -0.801   8.450  13.615  1.00  0.00     0.098 N 
HETATM   14  C23 UNL     1      -1.291   9.820  14.145  1.00  0.00     0.308 C 
HETATM   15  C24 UNL     1      -2.859   9.973  14.514  1.00  0.00    -0.041 C 
HETATM   16  C25 UNL     1      -3.338  10.947  15.315  1.00  0.00     0.089 C 
HETATM   17  C27 UNL     1      -3.905   8.922  13.938  1.00  0.00     0.027 C 
HETATM   18  C28 UNL     1      -3.188   8.328  12.743  1.00  0.00     0.046 C 
HETATM   19  C29 UNL     1      -2.016   7.692  13.467  1.00  0.00     0.239 C 
HETATM   20  C30 UNL     1      -4.218   7.713  14.999  1.00  0.00     0.052 C 
HETATM   21  C31 UNL     1      -5.709   7.532  15.360  1.00  0.00     0.160 C 
HETATM   22  C32 UNL     1      -3.544   6.261  14.660  1.00  0.00     0.112 C 
ENDROOT
BRANCH   1  23
HETATM   23  C11 UNL     1      -7.910   6.766  14.284  1.00  0.00    -0.016 A 
HETATM   24  C3  UNL     1      -8.660   6.078  13.323  1.00  0.00    -0.032 A 
HETATM   25  C4  UNL     1     -10.036   6.325  13.256  1.00  0.00     0.104 A 
HETATM   26  N1  UNL     1     -10.664   7.198  14.086  1.00  0.00    -0.330 N 
HETATM   27  C5  UNL     1     -11.998   7.394  13.972  1.00  0.00     0.097 A 
HETATM   28  C9  UNL     1      -9.933   7.865  15.028  1.00  0.00     0.067 A 
HETATM   29  C6  UNL     1     -12.697   8.262  14.800  1.00  0.00     0.032 A 
HETATM   30  C7  UNL     1     -11.993   8.962  15.787  1.00  0.00     0.009 A 
HETATM   31  C8  UNL     1     -10.623   8.753  15.879  1.00  0.00     0.071 A 
HETATM   32  C39 UNL     1     -12.378   9.908  16.793  1.00  0.00     0.036 A 
HETATM   33  N4  UNL     1     -10.174   9.567  16.899  1.00  0.00    -0.353 N 
HETATM   34  C33 UNL     1     -11.213  10.273  17.461  1.00  0.00     0.046 A 
HETATM   35  H30 UNL     1      -9.207   9.664  17.196  1.00  0.00     0.166 HD
HETATM   36  C34 UNL     1     -11.197  11.199  18.505  1.00  0.00     0.030 A 
HETATM   37  C35 UNL     1     -12.417  11.770  18.870  1.00  0.00     0.005 A 
HETATM   38  C36 UNL     1     -13.606  11.415  18.233  1.00  0.00     0.038 A 
HETATM   39  C37 UNL     1     -13.617  10.476  17.191  1.00  0.00     0.081 A 
HETATM   40  C10 UNL     1      -8.551   7.660  15.139  1.00  0.00     0.045 A 
BRANCH  24  41
HETATM   41  C2  UNL     1      -8.040   5.093  12.347  1.00  0.00     0.036 C 
HETATM   42  C1  UNL     1      -8.289   3.640  12.733  1.00  0.00     0.010 C 
ENDBRANCH  24  41
BRANCH  39  43
HETATM   43  O4  UNL     1     -14.740  10.059  16.525  1.00  0.00    -0.355 OA
HETATM   44  C38 UNL     1     -15.287  10.936  15.542  1.00  0.00     0.210 C 
ENDBRANCH  39  43
ENDBRANCH   1  23
BRANCH  21  45
HETATM   45  O3  UNL     1      -6.390   8.784  15.458  1.00  0.00    -0.390 OA
HETATM   46  H28 UNL     1      -5.811   9.401  15.951  1.00  0.00     0.210 HD
ENDBRANCH  21  45
BRANCH  16  47
HETATM   47  C26 UNL     1      -2.595  12.072  16.046  1.00  0.00     0.198 C 
HETATM   48  O1  UNL     1      -2.189  11.723  17.193  1.00  0.00    -0.645 OA
HETATM   49  O2  UNL     1      -2.479  13.164  15.431  1.00  0.00    -0.645 OA
ENDBRANCH  16  47
TORSDOF 6
ENDMDL
MODEL 2
REMARK minimizedAffinity -8.19645882
REMARK CNNscore 0.191890478
REMARK CNNaffinity 6.57612276
REMARK  6 active torsions:
REMARK  status: ('A' for Active; 'I' for Inactive)
REMARK    1  A    between atoms: C2_2  and  C3_3 
REMARK    2  A    between atoms: C11_12  and  C12_13 
REMARK    3  A    between atoms: C25_28  and  C26_29 
REMARK    4  A    between atoms: C27_32  and  C30_35 
REMARK    5  A    between atoms: C31_36  and  O3_37 
REMARK    6  A    between atoms: C37_44  and  O4_45 
ROOT
HETATM    1  C12 UNL     1      -3.148  10.699  16.376  1.00  0.00    -0.003 C 
HETATM    2  C13 UNL     1      -4.071   9.807  15.985  1.00  0.00     0.102 C 
HETATM    3  N2  UNL     1      -3.779   8.512  15.640  1.00  0.00    -0.349 N 
HETATM    4  C14 UNL     1      -4.565   7.636  14.856  1.00  0.00     0.041 A 
HETATM    5  C15 UNL     1      -5.927   7.732  14.596  1.00  0.00     0.030 A 
HETATM    6  C16 UNL     1      -6.526   6.808  13.734  1.00  0.00     0.002 A 
HETATM    7  C17 UNL     1      -5.768   5.789  13.141  1.00  0.00     0.001 A 
HETATM    8  C18 UNL     1      -4.402   5.692  13.397  1.00  0.00     0.010 A 
HETATM    9  C19 UNL     1      -3.817   6.612  14.254  1.00  0.00    -0.018 A 
HETATM   10  C20 UNL     1      -2.374   6.773  14.591  1.00  0.00     0.043 C 
HETATM   11  C21 UNL     1      -1.541   5.496  14.856  1.00  0.00     0.049 C 
HETATM   12  C22 UNL     1      -0.334   5.494  13.828  1.00  0.00     0.274 C 
HETATM   13  N3  UNL     1      -0.501   6.622  12.864  1.00  0.00     0.098 N 
HETATM   14  C23 UNL     1       0.701   7.597  12.833  1.00  0.00     0.308 C 
HETATM   15  C24 UNL     1       0.557   9.004  13.618  1.00  0.00    -0.041 C 
HETATM   16  C25 UNL     1       1.614   9.757  13.987  1.00  0.00     0.089 C 
HETATM   17  C27 UNL     1      -0.890   9.537  14.011  1.00  0.00     0.027 C 
HETATM   18  C28 UNL     1      -1.809   8.795  13.061  1.00  0.00     0.046 C 
HETATM   19  C29 UNL     1      -1.531   7.379  13.527  1.00  0.00     0.239 C 
HETATM   20  C30 UNL     1      -1.305   9.134  15.543  1.00  0.00     0.052 C 
HETATM   21  C31 UNL     1      -1.687  10.325  16.451  1.00  0.00     0.160 C 
HETATM   22  C32 UNL     1      -2.407   7.934  15.703  1.00  0.00     0.112 C 
ENDROOT
BRANCH   1  23
HETATM   23  C11 UNL     1      -3.547  12.073  16.715  1.00  0.00    -0.016 A 
HETATM   24  C3  UNL     1      -3.291  13.167  15.880  1.00  0.00    -0.032 A 
HETATM   25  C4  UNL     1      -3.681  14.438  16.317  1.00  0.00     0.104 A 
HETATM   26  N1  UNL     1      -4.295  14.645  17.511  1.00  0.00    -0.330 N 
HETATM   27  C5  UNL     1      -4.648  15.900  17.877  1.00  0.00     0.097 A 
HETATM   28  C9  UNL     1      -4.551  13.577  18.323  1.00  0.00     0.067 A 
HETATM   29  C6  UNL     1      -5.291  16.171  19.078  1.00  0.00     0.032 A 
HETATM   30  C7  UNL     1      -5.582  15.108  19.941  1.00  0.00     0.009 A 
HETATM   31  C8  UNL     1      -5.202  13.831  19.548  1.00  0.00     0.071 A 
HETATM   32  C39 UNL     1      -6.223  15.019  21.220  1.00  0.00     0.036 A 
HETATM   33  N4  UNL     1      -5.578  12.983  20.570  1.00  0.00    -0.353 N 
HETATM   34  C33 UNL     1      -6.191  13.677  21.587  1.00  0.00     0.046 A 
HETATM   35  H30 UNL     1      -5.413  11.980  20.597  1.00  0.00     0.166 HD
HETATM   36  C34 UNL     1      -6.714  13.210  22.794  1.00  0.00     0.030 A 
HETATM   37  C35 UNL     1      -7.284  14.153  23.650  1.00  0.00     0.005 A 
HETATM   38  C36 UNL     1      -7.347  15.504  23.306  1.00  0.00     0.038 A 
HETATM   39  C37 UNL     1      -6.828  15.966  22.088  1.00  0.00     0.081 A 
HETATM   40  C10 UNL     1      -4.181  12.281  17.938  1.00  0.00     0.045 A 
BRANCH  24  41
HETATM   41  C2  UNL     1      -2.599  13.031  14.535  1.00  0.00     0.036 C 
HETATM   42  C1  UNL     1      -2.418  14.366  13.823  1.00  0.00     0.010 C 
ENDBRANCH  24  41
BRANCH  39  43
HETATM   43  O4  UNL     1      -6.865  17.269  21.666  1.00  0.00    -0.355 OA
HETATM   44  C38 UNL     1      -5.924  18.174  22.240  1.00  0.00     0.210 C 
ENDBRANCH  39  43
ENDBRANCH   1  23
BRANCH  21  45
HETATM   45  O3  UNL     1      -0.878  11.474  16.191  1.00  0.00    -0.390 OA
HETATM   46  H28 UNL     1       0.049  11.171  16.099  1.00  0.00     0.210 HD
ENDBRANCH  21  45
BRANCH  16  47
HETATM   47  C26 UNL     1       3.115   9.505  13.794  1.00  0.00     0.198 C 
HETATM   48  O1  UNL     1       3.562  10.020  12.728  1.00  0.00    -0.645 OA
HETATM   49  O2  UNL     1       3.696   8.844  14.694  1.00  0.00    -0.645 OA
ENDBRANCH  16  47
TORSDOF 6
ENDMDL
MODEL 3
REMARK minimizedAffinity -8.75502968
REMARK CNNscore 0.164055958
REMARK CNNaffinity 7.00378275
REMARK  6 active torsions:
REMARK  status: ('A' for Active; 'I' for Inactive)
REMARK    1  A    between atoms: C2_2  and  C3_3 
REMARK    2  A    between atoms: C11_12  and  C12_13 
REMARK    3  A    between atoms: C25_28  and  C26_29 
REMARK    4  A    between atoms: C27_32  and  C30_35 
REMARK    5  A    between atoms: C31_36  and  O3_37 
REMARK    6  A    between atoms: C37_44  and  O4_45 
ROOT
HETATM    1  C12 UNL     1      -3.171   9.849  16.501  1.00  0.00    -0.003 C 
HETATM    2  C13 UNL     1      -4.212   9.054  16.204  1.00  0.00     0.102 C 
HETATM    3  N2  UNL     1      -4.083   7.823  15.614  1.00  0.00    -0.349 N 
HETATM    4  C14 UNL     1      -5.076   7.102  14.911  1.00  0.00     0.041 A 
HETATM    5  C15 UNL     1      -6.453   7.273  14.986  1.00  0.00     0.030 A 
HETATM    6  C16 UNL     1      -7.284   6.513  14.158  1.00  0.00     0.002 A 
HETATM    7  C17 UNL     1      -6.741   5.580  13.263  1.00  0.00     0.001 A 
HETATM    8  C18 UNL     1      -5.360   5.408  13.182  1.00  0.00     0.010 A 
HETATM    9  C19 UNL     1      -4.544   6.167  14.008  1.00  0.00    -0.018 A 
HETATM   10  C20 UNL     1      -3.056   6.234  14.026  1.00  0.00     0.043 C 
HETATM   11  C21 UNL     1      -2.264   4.911  13.902  1.00  0.00     0.049 C 
HETATM   12  C22 UNL     1      -1.319   5.039  12.636  1.00  0.00     0.274 C 
HETATM   13  N3  UNL     1      -1.626   6.310  11.913  1.00  0.00     0.098 N 
HETATM   14  C23 UNL     1      -0.403   7.246  11.752  1.00  0.00     0.308 C 
HETATM   15  C24 UNL     1      -0.283   8.514  12.749  1.00  0.00    -0.041 C 
HETATM   16  C25 UNL     1       0.873   9.172  12.973  1.00  0.00     0.089 C 
HETATM   17  C27 UNL     1      -1.571   9.016  13.536  1.00  0.00     0.027 C 
HETATM   18  C28 UNL     1      -2.722   8.457  12.724  1.00  0.00     0.046 C 
HETATM   19  C29 UNL     1      -2.434   6.978  12.899  1.00  0.00     0.239 C 
HETATM   20  C30 UNL     1      -1.659   8.387  15.046  1.00  0.00     0.052 C 
HETATM   21  C31 UNL     1      -1.756   9.430  16.183  1.00  0.00     0.160 C 
HETATM   22  C32 UNL     1      -2.769   7.206  15.275  1.00  0.00     0.112 C 
ENDROOT
BRANCH   1  23
HETATM   23  C11 UNL     1      -3.401  11.162  17.121  1.00  0.00    -0.016 A 
HETATM   24  C3  UNL     1      -2.732  11.586  18.275  1.00  0.00    -0.032 A 
HETATM   25  C4  UNL     1      -3.055  12.840  18.804  1.00  0.00     0.104 A 
HETATM   26  N1  UNL     1      -3.985  13.655  18.242  1.00  0.00    -0.330 N 
HETATM   27  C5  UNL     1      -4.254  14.858  18.801  1.00  0.00     0.097 A 
HETATM   28  C9  UNL     1      -4.635  13.244  17.112  1.00  0.00     0.067 A 
HETATM   29  C6  UNL     1      -5.183  15.738  18.263  1.00  0.00     0.032 A 
HETATM   30  C7  UNL     1      -5.869  15.365  17.101  1.00  0.00     0.009 A 
HETATM   31  C8  UNL     1      -5.584  14.122  16.550  1.00  0.00     0.071 A 
HETATM   32  C39 UNL     1      -6.862  16.006  16.290  1.00  0.00     0.036 A 
HETATM   33  N4  UNL     1      -6.398  13.993  15.443  1.00  0.00    -0.353 N 
HETATM   34  C33 UNL     1      -7.177  15.113  15.270  1.00  0.00     0.046 A 
HETATM   35  H30 UNL     1      -6.447  13.178  14.837  1.00  0.00     0.166 HD
HETATM   36  C34 UNL     1      -8.129  15.392  14.288  1.00  0.00     0.030 A 
HETATM   37  C35 UNL     1      -8.779  16.625  14.360  1.00  0.00     0.005 A 
HETATM   38  C36 UNL     1      -8.476  17.550  15.360  1.00  0.00     0.038 A 
HETATM   39  C37 UNL     1      -7.511  17.268  16.338  1.00  0.00     0.081 A 
HETATM   40  C10 UNL     1      -4.354  11.996  16.539  1.00  0.00     0.045 A 
BRANCH  24  41
HETATM   41  C2  UNL     1      -1.686  10.737  18.978  1.00  0.00     0.036 C 
HETATM   42  C1  UNL     1      -0.440  11.527  19.360  1.00  0.00     0.010 C 
ENDBRANCH  24  41
BRANCH  39  43
HETATM   43  O4  UNL     1      -7.141  18.125  17.341  1.00  0.00    -0.355 OA
HETATM   44  C38 UNL     1      -6.226  19.168  17.012  1.00  0.00     0.210 C 
ENDBRANCH  39  43
ENDBRANCH   1  23
BRANCH  21  45
HETATM   45  O3  UNL     1      -0.956  10.584  15.917  1.00  0.00    -0.390 OA
HETATM   46  H28 UNL     1      -0.093  10.276  15.571  1.00  0.00     0.210 HD
ENDBRANCH  21  45
BRANCH  16  47
HETATM   47  C26 UNL     1       2.275   8.915  12.406  1.00  0.00     0.198 C 
HETATM   48  O1  UNL     1       3.044   9.912  12.536  1.00  0.00    -0.645 OA
HETATM   49  O2  UNL     1       2.482   7.778  11.905  1.00  0.00    -0.645 OA
ENDBRANCH  16  47
TORSDOF 6
ENDMDL
MODEL 4
REMARK minimizedAffinity -8.20110226
REMARK CNNscore 0.14636384
REMARK CNNaffinity 6.32262564
REMARK  6 active torsions:
REMARK  status: ('A' for Active; 'I' for Inactive)
REMARK    1  A    between atoms: C2_2  and  C3_3 
REMARK    2  A    between atoms: C11_12  and  C12_13 
REMARK    3  A    between atoms: C25_28  and  C26_29 
REMARK    4  A    between atoms: C27_32  and  C30_35 
REMARK    5  A    between atoms: C31_36  and  O3_37 
REMARK    6  A    between atoms: C37_44  and  O4_45 
ROOT
HETATM    1  C12 UNL     1      -1.939  10.332  16.610  1.00  0.00    -0.003 C 
HETATM    2  C13 UNL     1      -3.130   9.746  16.405  1.00  0.00     0.102 C 
HETATM    3  N2  UNL     1      -3.279   8.503  15.847  1.00  0.00    -0.349 N 
HETATM    4  C14 UNL     1      -4.438   7.974  15.231  1.00  0.00     0.041 A 
HETATM    5  C15 UNL     1      -5.748   8.408  15.390  1.00  0.00     0.030 A 
HETATM    6  C16 UNL     1      -6.764   7.807  14.640  1.00  0.00     0.002 A 
HETATM    7  C17 UNL     1      -6.471   6.772  13.741  1.00  0.00     0.001 A 
HETATM    8  C18 UNL     1      -5.158   6.336  13.577  1.00  0.00     0.010 A 
HETATM    9  C19 UNL     1      -4.158   6.938  14.326  1.00  0.00    -0.018 A 
HETATM   10  C20 UNL     1      -2.686   6.718  14.246  1.00  0.00     0.043 C 
HETATM   11  C21 UNL     1      -2.172   5.265  14.112  1.00  0.00     0.049 C 
HETATM   12  C22 UNL     1      -1.309   5.186  12.785  1.00  0.00     0.274 C 
HETATM   13  N3  UNL     1      -1.417   6.479  12.045  1.00  0.00     0.098 N 
HETATM   14  C23 UNL     1      -0.052   7.159  11.776  1.00  0.00     0.308 C 
HETATM   15  C24 UNL     1       0.376   8.398  12.723  1.00  0.00    -0.041 C 
HETATM   16  C25 UNL     1       1.649   8.825  12.852  1.00  0.00     0.089 C 
HETATM   17  C27 UNL     1      -0.735   9.153  13.576  1.00  0.00     0.027 C 
HETATM   18  C28 UNL     1      -2.025   8.811  12.857  1.00  0.00     0.046 C 
HETATM   19  C29 UNL     1      -2.013   7.308  13.059  1.00  0.00     0.239 C 
HETATM   20  C30 UNL     1      -0.837   8.580  15.107  1.00  0.00     0.052 C 
HETATM   21  C31 UNL     1      -0.655   9.643  16.215  1.00  0.00     0.160 C 
HETATM   22  C32 UNL     1      -2.134   7.639  15.443  1.00  0.00     0.112 C 
ENDROOT
BRANCH   1  23
HETATM   23  C11 UNL     1      -1.871  11.676  17.203  1.00  0.00    -0.016 A 
HETATM   24  C3  UNL     1      -1.346  11.920  18.477  1.00  0.00    -0.032 A 
HETATM   25  C4  UNL     1      -1.365  13.233  18.960  1.00  0.00     0.104 A 
HETATM   26  N1  UNL     1      -1.868  14.270  18.242  1.00  0.00    -0.330 N 
HETATM   27  C5  UNL     1      -1.858  15.518  18.765  1.00  0.00     0.097 A 
HETATM   28  C9  UNL     1      -2.376  14.034  16.996  1.00  0.00     0.067 A 
HETATM   29  C6  UNL     1      -2.345  16.620  18.073  1.00  0.00     0.032 A 
HETATM   30  C7  UNL     1      -2.868  16.429  16.788  1.00  0.00     0.009 A 
HETATM   31  C8  UNL     1      -2.877  15.137  16.276  1.00  0.00     0.071 A 
HETATM   32  C39 UNL     1      -3.435  17.311  15.811  1.00  0.00     0.036 A 
HETATM   33  N4  UNL     1      -3.456  15.220  15.026  1.00  0.00    -0.353 N 
HETATM   34  C33 UNL     1      -3.801  16.518  14.727  1.00  0.00     0.046 A 
HETATM   35  H30 UNL     1      -3.633  14.437  14.403  1.00  0.00     0.166 HD
HETATM   36  C34 UNL     1      -4.407  17.036  13.581  1.00  0.00     0.030 A 
HETATM   37  C35 UNL     1      -4.646  18.410  13.550  1.00  0.00     0.005 A 
HETATM   38  C36 UNL     1      -4.276  19.236  14.613  1.00  0.00     0.038 A 
HETATM   39  C37 UNL     1      -3.659  18.712  15.757  1.00  0.00     0.081 A 
HETATM   40  C10 UNL     1      -2.385  12.738  16.461  1.00  0.00     0.045 A 
BRANCH  24  41
HETATM   41  C2  UNL     1      -0.774  10.820  19.355  1.00  0.00     0.036 C 
HETATM   42  C1  UNL     1       0.468  11.258  20.121  1.00  0.00     0.010 C 
ENDBRANCH  24  41
BRANCH  39  43
HETATM   43  O4  UNL     1      -3.249  19.453  16.834  1.00  0.00    -0.355 OA
HETATM   44  C38 UNL     1      -4.250  19.898  17.747  1.00  0.00     0.210 C 
ENDBRANCH  39  43
ENDBRANCH   1  23
BRANCH  21  45
HETATM   45  O3  UNL     1       0.330  10.616  15.863  1.00  0.00    -0.390 OA
HETATM   46  H28 UNL     1       1.092  10.141  15.472  1.00  0.00     0.210 HD
ENDBRANCH  21  45
BRANCH  16  47
HETATM   47  C26 UNL     1       2.934   8.293  12.205  1.00  0.00     0.198 C 
HETATM   48  O1  UNL     1       3.685   9.219  11.780  1.00  0.00    -0.645 OA
HETATM   49  O2  UNL     1       3.079   7.042  12.185  1.00  0.00    -0.645 OA
ENDBRANCH  16  47
TORSDOF 6
ENDMDL
MODEL 5
REMARK minimizedAffinity -10.0154343
REMARK CNNscore 0.134630591
REMARK CNNaffinity 7.10728598
REMARK  6 active torsions:
REMARK  status: ('A' for Active; 'I' for Inactive)
REMARK    1  A    between atoms: C2_2  and  C3_3 
REMARK    2  A    between atoms: C11_12  and  C12_13 
REMARK    3  A    between atoms: C25_28  and  C26_29 
REMARK    4  A    between atoms: C27_32  and  C30_35 
REMARK    5  A    between atoms: C31_36  and  O3_37 
REMARK    6  A    between atoms: C37_44  and  O4_45 
ROOT
HETATM    1  C12 UNL     1      -1.753   8.801  16.367  1.00  0.00    -0.003 C 
HETATM    2  C13 UNL     1      -3.059   8.508  16.252  1.00  0.00     0.102 C 
HETATM    3  N2  UNL     1      -3.533   7.373  15.646  1.00  0.00    -0.349 N 
HETATM    4  C14 UNL     1      -4.829   7.159  15.124  1.00  0.00     0.041 A 
HETATM    5  C15 UNL     1      -5.989   7.856  15.437  1.00  0.00     0.030 A 
HETATM    6  C16 UNL     1      -7.176   7.551  14.763  1.00  0.00     0.002 A 
HETATM    7  C17 UNL     1      -7.204   6.547  13.785  1.00  0.00     0.001 A 
HETATM    8  C18 UNL     1      -6.041   5.847  13.466  1.00  0.00     0.010 A 
HETATM    9  C19 UNL     1      -4.870   6.158  14.140  1.00  0.00    -0.018 A 
HETATM   10  C20 UNL     1      -3.498   5.627  13.900  1.00  0.00     0.043 C 
HETATM   11  C21 UNL     1      -3.339   4.111  13.636  1.00  0.00     0.049 C 
HETATM   12  C22 UNL     1      -2.634   3.944  12.226  1.00  0.00     0.274 C 
HETATM   13  N3  UNL     1      -2.512   5.281  11.571  1.00  0.00     0.098 N 
HETATM   14  C23 UNL     1      -1.058   5.664  11.203  1.00  0.00     0.308 C 
HETATM   15  C24 UNL     1      -0.281   6.704  12.166  1.00  0.00    -0.041 C 
HETATM   16  C25 UNL     1       1.062   6.830  12.188  1.00  0.00     0.089 C 
HETATM   17  C27 UNL     1      -1.115   7.618  13.167  1.00  0.00     0.027 C 
HETATM   18  C28 UNL     1      -2.506   7.622  12.565  1.00  0.00     0.046 C 
HETATM   19  C29 UNL     1      -2.815   6.142  12.684  1.00  0.00     0.239 C 
HETATM   20  C30 UNL     1      -1.210   6.968  14.668  1.00  0.00     0.052 C 
HETATM   21  C31 UNL     1      -0.697   7.879  15.807  1.00  0.00     0.160 C 
HETATM   22  C32 UNL     1      -2.651   6.312  15.082  1.00  0.00     0.112 C 
ENDROOT
BRANCH   1  23
HETATM   23  C11 UNL     1      -1.333  10.049  17.020  1.00  0.00    -0.016 A 
HETATM   24  C3  UNL     1      -1.764  11.312  16.598  1.00  0.00    -0.032 A 
HETATM   25  C4  UNL     1      -1.271  12.437  17.267  1.00  0.00     0.104 A 
HETATM   26  N1  UNL     1      -0.399  12.349  18.305  1.00  0.00    -0.330 N 
HETATM   27  C5  UNL     1       0.042  13.475  18.912  1.00  0.00     0.097 A 
HETATM   28  C9  UNL     1       0.018  11.116  18.722  1.00  0.00     0.067 A 
HETATM   29  C6  UNL     1       0.922  13.447  19.986  1.00  0.00     0.032 A 
HETATM   30  C7  UNL     1       1.371  12.206  20.455  1.00  0.00     0.009 A 
HETATM   31  C8  UNL     1       0.913  11.064  19.809  1.00  0.00     0.071 A 
HETATM   32  C39 UNL     1       2.251  11.809  21.514  1.00  0.00     0.036 A 
HETATM   33  N4  UNL     1       1.514   9.995  20.441  1.00  0.00    -0.353 N 
HETATM   34  C33 UNL     1       2.325  10.420  21.468  1.00  0.00     0.046 A 
HETATM   35  H30 UNL     1       1.404   9.018  20.184  1.00  0.00     0.166 HD
HETATM   36  C34 UNL     1       3.111   9.675  22.348  1.00  0.00     0.030 A 
HETATM   37  C35 UNL     1       3.845  10.380  23.303  1.00  0.00     0.005 A 
HETATM   38  C36 UNL     1       3.781  11.771  23.388  1.00  0.00     0.038 A 
HETATM   39  C37 UNL     1       2.982  12.514  22.506  1.00  0.00     0.081 A 
HETATM   40  C10 UNL     1      -0.441   9.954  18.087  1.00  0.00     0.045 A 
BRANCH  24  41
HETATM   41  C2  UNL     1      -2.728  11.507  15.440  1.00  0.00     0.036 C 
HETATM   42  C1  UNL     1      -4.063  12.100  15.873  1.00  0.00     0.010 C 
ENDBRANCH  24  41
BRANCH  39  43
HETATM   43  O4  UNL     1       2.848  13.878  22.532  1.00  0.00    -0.355 OA
HETATM   44  C38 UNL     1       2.696  14.501  23.806  1.00  0.00     0.210 C 
ENDBRANCH  39  43
ENDBRANCH   1  23
BRANCH  21  45
HETATM   45  O3  UNL     1       0.447   8.636  15.409  1.00  0.00    -0.390 OA
HETATM   46  H28 UNL     1       1.046   8.036  14.918  1.00  0.00     0.210 HD
ENDBRANCH  21  45
BRANCH  16  47
HETATM   47  C26 UNL     1       2.133   6.079  11.386  1.00  0.00     0.198 C 
HETATM   48  O1  UNL     1       3.133   6.804  11.112  1.00  0.00    -0.645 OA
HETATM   49  O2  UNL     1       1.893   4.873  11.117  1.00  0.00    -0.645 OA
ENDBRANCH  16  47
TORSDOF 6
ENDMDL
MODEL 6
REMARK minimizedAffinity -10.5805302
REMARK CNNscore 0.134018108
REMARK CNNaffinity 7.20656729
REMARK  6 active torsions:
REMARK  status: ('A' for Active; 'I' for Inactive)
REMARK    1  A    between atoms: C2_2  and  C3_3 
REMARK    2  A    between atoms: C11_12  and  C12_13 
REMARK    3  A    between atoms: C25_28  and  C26_29 
REMARK    4  A    between atoms: C27_32  and  C30_35 
REMARK    5  A    between atoms: C31_36  and  O3_37 
REMARK    6  A    between atoms: C37_44  and  O4_45 
ROOT
HETATM    1  C12 UNL     1     -11.856   7.563  13.669  1.00  0.00    -0.003 C 
HETATM    2  C13 UNL     1     -12.756   6.617  13.982  1.00  0.00     0.102 C 
HETATM    3  N2  UNL     1     -14.048   6.616  13.523  1.00  0.00    -0.349 N 
HETATM    4  C14 UNL     1     -15.155   5.935  14.081  1.00  0.00     0.041 A 
HETATM    5  C15 UNL     1     -15.126   4.846  14.943  1.00  0.00     0.030 A 
HETATM    6  C16 UNL     1     -16.327   4.345  15.455  1.00  0.00     0.002 A 
HETATM    7  C17 UNL     1     -17.552   4.925  15.099  1.00  0.00     0.001 A 
HETATM    8  C18 UNL     1     -17.585   6.020  14.237  1.00  0.00     0.010 A 
HETATM    9  C19 UNL     1     -16.389   6.509  13.735  1.00  0.00    -0.018 A 
HETATM   10  C20 UNL     1     -16.166   7.718  12.892  1.00  0.00     0.043 C 
HETATM   11  C21 UNL     1     -17.150   7.988  11.729  1.00  0.00     0.049 C 
HETATM   12  C22 UNL     1     -17.785   9.420  11.965  1.00  0.00     0.274 C 
HETATM   13  N3  UNL     1     -17.347   9.946  13.292  1.00  0.00     0.098 N 
HETATM   14  C23 UNL     1     -16.624  11.313  13.213  1.00  0.00     0.308 C 
HETATM   15  C24 UNL     1     -15.010  11.324  13.318  1.00  0.00    -0.041 C 
HETATM   16  C25 UNL     1     -14.248  12.355  12.898  1.00  0.00     0.089 C 
HETATM   17  C27 UNL     1     -14.256  10.058  13.920  1.00  0.00     0.027 C 
HETATM   18  C28 UNL     1     -15.331   9.358  14.727  1.00  0.00     0.046 C 
HETATM   19  C29 UNL     1     -16.287   9.022  13.598  1.00  0.00     0.239 C 
HETATM   20  C30 UNL     1     -13.741   9.030  12.753  1.00  0.00     0.052 C 
HETATM   21  C31 UNL     1     -12.226   8.723  12.776  1.00  0.00     0.160 C 
HETATM   22  C32 UNL     1     -14.590   7.641  12.586  1.00  0.00     0.112 C 
ENDROOT
BRANCH   1  23
HETATM   23  C11 UNL     1     -10.494   7.495  14.218  1.00  0.00    -0.016 A 
HETATM   24  C3  UNL     1     -10.069   8.278  15.297  1.00  0.00    -0.032 A 
HETATM   25  C4  UNL     1      -8.739   8.163  15.716  1.00  0.00     0.104 A 
HETATM   26  N1  UNL     1      -7.854   7.322  15.119  1.00  0.00    -0.330 N 
HETATM   27  C5  UNL     1      -6.580   7.255  15.570  1.00  0.00     0.097 A 
HETATM   28  C9  UNL     1      -8.270   6.553  14.068  1.00  0.00     0.067 A 
HETATM   29  C6  UNL     1      -5.635   6.406  15.009  1.00  0.00     0.032 A 
HETATM   30  C7  UNL     1      -6.016   5.591  13.936  1.00  0.00     0.009 A 
HETATM   31  C8  UNL     1      -7.327   5.685  13.483  1.00  0.00     0.071 A 
HETATM   32  C39 UNL     1      -5.327   4.619  13.140  1.00  0.00     0.036 A 
HETATM   33  N4  UNL     1      -7.433   4.809  12.422  1.00  0.00    -0.353 N 
HETATM   34  C33 UNL     1      -6.242   4.159  12.196  1.00  0.00     0.046 A 
HETATM   35  H30 UNL     1      -8.264   4.665  11.855  1.00  0.00     0.166 HD
HETATM   36  C34 UNL     1      -5.917   3.206  11.229  1.00  0.00     0.030 A 
HETATM   37  C35 UNL     1      -4.612   2.713  11.232  1.00  0.00     0.005 A 
HETATM   38  C36 UNL     1      -3.675   3.139  12.174  1.00  0.00     0.038 A 
HETATM   39  C37 UNL     1      -4.009   4.090  13.149  1.00  0.00     0.081 A 
HETATM   40  C10 UNL     1      -9.590   6.629  13.605  1.00  0.00     0.045 A 
BRANCH  24  41
HETATM   41  C2  UNL     1     -10.986   9.253  16.017  1.00  0.00     0.036 C 
HETATM   42  C1  UNL     1     -10.691   9.353  17.509  1.00  0.00     0.010 C 
ENDBRANCH  24  41
BRANCH  39  43
HETATM   43  O4  UNL     1      -3.158   4.549  14.119  1.00  0.00    -0.355 OA
HETATM   44  C38 UNL     1      -2.199   5.536  13.742  1.00  0.00     0.210 C 
ENDBRANCH  39  43
ENDBRANCH   1  23
BRANCH  21  45
HETATM   45  O3  UNL     1     -11.455   9.873  13.130  1.00  0.00    -0.390 OA
HETATM   46  H28 UNL     1     -11.819  10.639  12.640  1.00  0.00     0.210 HD
ENDBRANCH  21  45
BRANCH  16  47
HETATM   47  C26 UNL     1     -14.662  13.681  12.248  1.00  0.00     0.198 C 
HETATM   48  O1  UNL     1     -14.141  14.685  12.815  1.00  0.00    -0.645 OA
HETATM   49  O2  UNL     1     -15.437  13.606  11.258  1.00  0.00    -0.645 OA
ENDBRANCH  16  47
TORSDOF 6
ENDMDL
MODEL 7
REMARK minimizedAffinity -10.4014568
REMARK CNNscore 0.116819225
REMARK CNNaffinity 6.90901423
REMARK  6 active torsions:
REMARK  status: ('A' for Active; 'I' for Inactive)
REMARK    1  A    between atoms: C2_2  and  C3_3 
REMARK    2  A    between atoms: C11_12  and  C12_13 
REMARK    3  A    between atoms: C25_28  and  C26_29 
REMARK    4  A    between atoms: C27_32  and  C30_35 
REMARK    5  A    between atoms: C31_36  and  O3_37 
REMARK    6  A    between atoms: C37_44  and  O4_45 
ROOT
HETATM    1  C12 UNL     1      -0.679   8.501  15.840  1.00  0.00    -0.003 C 
HETATM    2  C13 UNL     1      -1.821   7.818  15.660  1.00  0.00     0.102 C 
HETATM    3  N2  UNL     1      -1.909   6.664  14.924  1.00  0.00    -0.349 N 
HETATM    4  C14 UNL     1      -3.073   6.103  14.347  1.00  0.00     0.041 A 
HETATM    5  C15 UNL     1      -4.392   6.352  14.702  1.00  0.00     0.030 A 
HETATM    6  C16 UNL     1      -5.423   5.757  13.968  1.00  0.00     0.002 A 
HETATM    7  C17 UNL     1      -5.134   4.911  12.888  1.00  0.00     0.001 A 
HETATM    8  C18 UNL     1      -3.812   4.662  12.527  1.00  0.00     0.010 A 
HETATM    9  C19 UNL     1      -2.797   5.256  13.262  1.00  0.00    -0.018 A 
HETATM   10  C20 UNL     1      -1.329   5.224  13.003  1.00  0.00     0.043 C 
HETATM   11  C21 UNL     1      -0.692   3.878  12.584  1.00  0.00     0.049 C 
HETATM   12  C22 UNL     1       0.016   4.102  11.183  1.00  0.00     0.274 C 
HETATM   13  N3  UNL     1      -0.306   5.471  10.678  1.00  0.00     0.098 N 
HETATM   14  C23 UNL     1       0.944   6.338  10.391  1.00  0.00     0.308 C 
HETATM   15  C24 UNL     1       1.353   7.461  11.481  1.00  0.00    -0.041 C 
HETATM   16  C25 UNL     1       2.584   8.010  11.552  1.00  0.00     0.089 C 
HETATM   17  C27 UNL     1       0.278   7.943  12.550  1.00  0.00     0.027 C 
HETATM   18  C28 UNL     1      -1.045   7.566  11.915  1.00  0.00     0.046 C 
HETATM   19  C29 UNL     1      -0.860   6.062  11.868  1.00  0.00     0.239 C 
HETATM   20  C30 UNL     1       0.411   7.137  13.970  1.00  0.00     0.052 C 
HETATM   21  C31 UNL     1       0.613   8.034  15.213  1.00  0.00     0.160 C 
HETATM   22  C32 UNL     1      -0.738   6.012  14.274  1.00  0.00     0.112 C 
ENDROOT
BRANCH   1  23
HETATM   23  C11 UNL     1      -0.677   9.738  16.634  1.00  0.00    -0.016 A 
HETATM   24  C3  UNL     1      -1.504  10.829  16.344  1.00  0.00    -0.032 A 
HETATM   25  C4  UNL     1      -1.394  11.973  17.141  1.00  0.00     0.104 A 
HETATM   26  N1  UNL     1      -0.523  12.061  18.179  1.00  0.00    -0.330 N 
HETATM   27  C5  UNL     1      -0.463  13.196  18.914  1.00  0.00     0.097 A 
HETATM   28  C9  UNL     1       0.281  10.994  18.467  1.00  0.00     0.067 A 
HETATM   29  C6  UNL     1       0.397  13.339  19.995  1.00  0.00     0.032 A 
HETATM   30  C7  UNL     1       1.234  12.269  20.334  1.00  0.00     0.009 A 
HETATM   31  C8  UNL     1       1.163  11.118  19.559  1.00  0.00     0.071 A 
HETATM   32  C39 UNL     1       2.214  12.068  21.360  1.00  0.00     0.036 A 
HETATM   33  N4  UNL     1       2.092  10.241  20.082  1.00  0.00    -0.353 N 
HETATM   34  C33 UNL     1       2.738  10.793  21.164  1.00  0.00     0.046 A 
HETATM   35  H30 UNL     1       2.302   9.317  19.717  1.00  0.00     0.166 HD
HETATM   36  C34 UNL     1       3.739  10.254  21.972  1.00  0.00     0.030 A 
HETATM   37  C35 UNL     1       4.219  11.050  23.012  1.00  0.00     0.005 A 
HETATM   38  C36 UNL     1       3.706  12.327  23.247  1.00  0.00     0.038 A 
HETATM   39  C37 UNL     1       2.692  12.860  22.438  1.00  0.00     0.081 A 
HETATM   40  C10 UNL     1       0.216   9.823  17.700  1.00  0.00     0.045 A 
BRANCH  24  41
HETATM   41  C2  UNL     1      -2.500  10.825  15.195  1.00  0.00     0.036 C 
HETATM   42  C1  UNL     1      -3.948  10.845  15.666  1.00  0.00     0.010 C 
ENDBRANCH  24  41
BRANCH  39  43
HETATM   43  O4  UNL     1       2.121  14.093  22.610  1.00  0.00    -0.355 OA
HETATM   44  C38 UNL     1       2.754  14.992  23.519  1.00  0.00     0.210 C 
ENDBRANCH  39  43
ENDBRANCH   1  23
BRANCH  21  45
HETATM   45  O3  UNL     1       1.449   9.158  14.929  1.00  0.00    -0.390 OA
HETATM   46  H28 UNL     1       2.204   8.840  14.393  1.00  0.00     0.210 HD
ENDBRANCH  21  45
BRANCH  16  47
HETATM   47  C26 UNL     1       3.832   7.735  10.703  1.00  0.00     0.198 C 
HETATM   48  O1  UNL     1       4.721   7.096  11.338  1.00  0.00    -0.645 OA
HETATM   49  O2  UNL     1       3.813   8.159   9.518  1.00  0.00    -0.645 OA
ENDBRANCH  16  47
TORSDOF 6
ENDMDL
MODEL 8
REMARK minimizedAffinity -8.58175373
REMARK CNNscore 0.113042995
REMARK CNNaffinity 7.00920677
REMARK  6 active torsions:
REMARK  status: ('A' for Active; 'I' for Inactive)
REMARK    1  A    between atoms: C2_2  and  C3_3 
REMARK    2  A    between atoms: C11_12  and  C12_13 
REMARK    3  A    between atoms: C25_28  and  C26_29 
REMARK    4  A    between atoms: C27_32  and  C30_35 
REMARK    5  A    between atoms: C31_36  and  O3_37 
REMARK    6  A    between atoms: C37_44  and  O4_45 
ROOT
HETATM    1  C12 UNL     1      -9.950  10.048  15.749  1.00  0.00    -0.003 C 
HETATM    2  C13 UNL     1      -9.788  11.255  15.183  1.00  0.00     0.102 C 
HETATM    3  N2  UNL     1     -10.036  12.438  15.831  1.00  0.00    -0.349 N 
HETATM    4  C14 UNL     1     -10.285  13.700  15.243  1.00  0.00     0.041 A 
HETATM    5  C15 UNL     1      -9.961  14.108  13.956  1.00  0.00     0.030 A 
HETATM    6  C16 UNL     1     -10.353  15.378  13.521  1.00  0.00     0.002 A 
HETATM    7  C17 UNL     1     -11.058  16.239  14.373  1.00  0.00     0.001 A 
HETATM    8  C18 UNL     1     -11.388  15.832  15.664  1.00  0.00     0.010 A 
HETATM    9  C19 UNL     1     -10.995  14.571  16.086  1.00  0.00    -0.018 A 
HETATM   10  C20 UNL     1     -11.320  13.883  17.368  1.00  0.00     0.043 C 
HETATM   11  C21 UNL     1     -11.251  14.708  18.675  1.00  0.00     0.049 C 
HETATM   12  C22 UNL     1     -12.679  14.633  19.361  1.00  0.00     0.274 C 
HETATM   13  N3  UNL     1     -13.633  13.938  18.446  1.00  0.00     0.098 N 
HETATM   14  C23 UNL     1     -14.303  12.692  19.074  1.00  0.00     0.308 C 
HETATM   15  C24 UNL     1     -13.737  11.236  18.658  1.00  0.00    -0.041 C 
HETATM   16  C25 UNL     1     -13.956  10.121  19.385  1.00  0.00     0.089 C 
HETATM   17  C27 UNL     1     -12.854  11.086  17.342  1.00  0.00     0.027 C 
HETATM   18  C28 UNL     1     -13.215  12.315  16.533  1.00  0.00     0.046 C 
HETATM   19  C29 UNL     1     -12.713  13.379  17.489  1.00  0.00     0.239 C 
HETATM   20  C30 UNL     1     -11.248  11.139  17.664  1.00  0.00     0.052 C 
HETATM   21  C31 UNL     1     -10.443   9.916  17.170  1.00  0.00     0.160 C 
HETATM   22  C32 UNL     1     -10.474  12.521  17.253  1.00  0.00     0.112 C 
ENDROOT
BRANCH   1  23
HETATM   23  C11 UNL     1      -9.673   8.829  14.976  1.00  0.00    -0.016 A 
HETATM   24  C3  UNL     1     -10.670   8.109  14.308  1.00  0.00    -0.032 A 
HETATM   25  C4  UNL     1     -10.303   6.939  13.634  1.00  0.00     0.104 A 
HETATM   26  N1  UNL     1      -9.024   6.483  13.603  1.00  0.00    -0.330 N 
HETATM   27  C5  UNL     1      -8.732   5.344  12.932  1.00  0.00     0.097 A 
HETATM   28  C9  UNL     1      -8.049   7.189  14.250  1.00  0.00     0.067 A 
HETATM   29  C6  UNL     1      -7.441   4.837  12.853  1.00  0.00     0.032 A 
HETATM   30  C7  UNL     1      -6.406   5.529  13.494  1.00  0.00     0.009 A 
HETATM   31  C8  UNL     1      -6.732   6.690  14.184  1.00  0.00     0.071 A 
HETATM   32  C39 UNL     1      -4.995   5.308  13.614  1.00  0.00     0.036 A 
HETATM   33  N4  UNL     1      -5.555   7.157  14.733  1.00  0.00    -0.353 N 
HETATM   34  C33 UNL     1      -4.498   6.340  14.405  1.00  0.00     0.046 A 
HETATM   35  H30 UNL     1      -5.464   7.980  15.323  1.00  0.00     0.166 HD
HETATM   36  C34 UNL     1      -3.151   6.445  14.753  1.00  0.00     0.030 A 
HETATM   37  C35 UNL     1      -2.289   5.457  14.275  1.00  0.00     0.005 A 
HETATM   38  C36 UNL     1      -2.751   4.418  13.466  1.00  0.00     0.038 A 
HETATM   39  C37 UNL     1      -4.105   4.323  13.112  1.00  0.00     0.081 A 
HETATM   40  C10 UNL     1      -8.359   8.366  14.944  1.00  0.00     0.045 A 
BRANCH  24  41
HETATM   41  C2  UNL     1     -12.128   8.537  14.299  1.00  0.00     0.036 C 
HETATM   42  C1  UNL     1     -12.896   8.005  13.095  1.00  0.00     0.010 C 
ENDBRANCH  24  41
BRANCH  39  43
HETATM   43  O4  UNL     1      -4.637   3.348  12.309  1.00  0.00    -0.355 OA
HETATM   44  C38 UNL     1      -4.380   3.435  10.909  1.00  0.00     0.210 C 
ENDBRANCH  39  43
ENDBRANCH   1  23
BRANCH  21  45
HETATM   45  O3  UNL     1     -11.178   8.699  17.317  1.00  0.00    -0.390 OA
HETATM   46  H28 UNL     1     -11.607   8.714  18.198  1.00  0.00     0.210 HD
ENDBRANCH  21  45
BRANCH  16  47
HETATM   47  C26 UNL     1     -14.723   9.942  20.701  1.00  0.00     0.198 C 
HETATM   48  O1  UNL     1     -15.091   8.746  20.891  1.00  0.00    -0.645 OA
HETATM   49  O2  UNL     1     -14.879  10.972  21.408  1.00  0.00    -0.645 OA
ENDBRANCH  16  47
TORSDOF 6
ENDMDL
MODEL 9
REMARK minimizedAffinity -11.8388128
REMARK CNNscore 0.0921054557
REMARK CNNaffinity 7.27535629
REMARK  6 active torsions:
REMARK  status: ('A' for Active; 'I' for Inactive)
REMARK    1  A    between atoms: C2_2  and  C3_3 
REMARK    2  A    between atoms: C11_12  and  C12_13 
REMARK    3  A    between atoms: C25_28  and  C26_29 
REMARK    4  A    between atoms: C27_32  and  C30_35 
REMARK    5  A    between atoms: C31_36  and  O3_37 
REMARK    6  A    between atoms: C37_44  and  O4_45 
ROOT
HETATM    1  C12 UNL     1      -2.596   5.979  13.753  1.00  0.00    -0.003 C 
HETATM    2  C13 UNL     1      -1.668   5.956  12.782  1.00  0.00     0.102 C 
HETATM    3  N2  UNL     1      -0.375   6.377  12.958  1.00  0.00    -0.349 N 
HETATM    4  C14 UNL     1       0.542   6.767  11.954  1.00  0.00     0.041 A 
HETATM    5  C15 UNL     1       0.493   6.457  10.601  1.00  0.00     0.030 A 
HETATM    6  C16 UNL     1       1.453   6.994   9.739  1.00  0.00     0.002 A 
HETATM    7  C17 UNL     1       2.464   7.833  10.230  1.00  0.00     0.001 A 
HETATM    8  C18 UNL     1       2.515   8.150  11.586  1.00  0.00     0.010 A 
HETATM    9  C19 UNL     1       1.558   7.611  12.432  1.00  0.00    -0.018 A 
HETATM   10  C20 UNL     1       1.347   7.886  13.882  1.00  0.00     0.043 C 
HETATM   11  C21 UNL     1       2.592   7.969  14.797  1.00  0.00     0.049 C 
HETATM   12  C22 UNL     1       2.584   9.396  15.486  1.00  0.00     0.274 C 
HETATM   13  N3  UNL     1       1.484  10.222  14.904  1.00  0.00     0.098 N 
HETATM   14  C23 UNL     1       0.475  10.745  15.955  1.00  0.00     0.308 C 
HETATM   15  C24 UNL     1      -0.945   9.982  16.089  1.00  0.00    -0.041 C 
HETATM   16  C25 UNL     1      -1.737  10.079  17.177  1.00  0.00     0.089 C 
HETATM   17  C27 UNL     1      -1.444   9.044  14.905  1.00  0.00     0.027 C 
HETATM   18  C28 UNL     1      -0.654   9.534  13.709  1.00  0.00     0.046 C 
HETATM   19  C29 UNL     1       0.742   9.206  14.202  1.00  0.00     0.239 C 
HETATM   20  C30 UNL     1      -1.066   7.471  15.158  1.00  0.00     0.052 C 
HETATM   21  C31 UNL     1      -2.266   6.498  15.132  1.00  0.00     0.160 C 
HETATM   22  C32 UNL     1       0.162   6.868  14.259  1.00  0.00     0.112 C 
ENDROOT
BRANCH   1  23
HETATM   23  C11 UNL     1      -3.965   5.522  13.474  1.00  0.00    -0.016 A 
HETATM   24  C3  UNL     1      -4.245   4.347  12.767  1.00  0.00    -0.032 A 
HETATM   25  C4  UNL     1      -5.585   4.025  12.523  1.00  0.00     0.104 A 
HETATM   26  N1  UNL     1      -6.614   4.803  12.947  1.00  0.00    -0.330 N 
HETATM   27  C5  UNL     1      -7.889   4.438  12.680  1.00  0.00     0.097 A 
HETATM   28  C9  UNL     1      -6.341   5.948  13.643  1.00  0.00     0.067 A 
HETATM   29  C6  UNL     1      -8.982   5.185  13.100  1.00  0.00     0.032 A 
HETATM   30  C7  UNL     1      -8.753   6.362  13.824  1.00  0.00     0.009 A 
HETATM   31  C8  UNL     1      -7.436   6.722  14.077  1.00  0.00     0.071 A 
HETATM   32  C39 UNL     1      -9.616   7.349  14.404  1.00  0.00     0.036 A 
HETATM   33  N4  UNL     1      -7.487   7.912  14.775  1.00  0.00    -0.353 N 
HETATM   34  C33 UNL     1      -8.789   8.309  14.980  1.00  0.00     0.046 A 
HETATM   35  H30 UNL     1      -6.683   8.451  15.084  1.00  0.00     0.166 HD
HETATM   36  C34 UNL     1      -9.282   9.441  15.630  1.00  0.00     0.030 A 
HETATM   37  C35 UNL     1     -10.668   9.592  15.687  1.00  0.00     0.005 A 
HETATM   38  C36 UNL     1     -11.526   8.641  15.134  1.00  0.00     0.038 A 
HETATM   39  C37 UNL     1     -11.025   7.500  14.490  1.00  0.00     0.081 A 
HETATM   40  C10 UNL     1      -5.018   6.322  13.914  1.00  0.00     0.045 A 
BRANCH  24  41
HETATM   41  C2  UNL     1      -3.159   3.423  12.244  1.00  0.00     0.036 C 
HETATM   42  C1  UNL     1      -3.707   2.105  11.711  1.00  0.00     0.010 C 
ENDBRANCH  24  41
BRANCH  39  43
HETATM   43  O4  UNL     1     -11.796   6.511  13.939  1.00  0.00    -0.355 OA
HETATM   44  C38 UNL     1     -13.115   6.339  14.453  1.00  0.00     0.210 C 
ENDBRANCH  39  43
ENDBRANCH   1  23
BRANCH  21  45
HETATM   45  O3  UNL     1      -3.432   7.074  15.725  1.00  0.00    -0.390 OA
HETATM   46  H28 UNL     1      -3.154   7.530  16.547  1.00  0.00     0.210 HD
ENDBRANCH  21  45
BRANCH  16  47
HETATM   47  C26 UNL     1      -1.524  10.860  18.480  1.00  0.00     0.198 C 
HETATM   48  O1  UNL     1      -2.501  11.614  18.761  1.00  0.00    -0.645 OA
HETATM   49  O2  UNL     1      -0.443  10.653  19.091  1.00  0.00    -0.645 OA
ENDBRANCH  16  47
TORSDOF 6
ENDMDL
