MODEL 1
REMARK minimizedAffinity -8.04524803
REMARK CNNscore 0.609397113
REMARK CNNaffinity 6.61383581
REMARK  13 active torsions:
REMARK  status: ('A' for Active; 'I' for Inactive)
REMARK    1  A    between atoms: C19_21  and  O3_22 
REMARK    2  A    between atoms: C19_21  and  C20_23 
REMARK    3  A    between atoms: C20_23  and  C21_25 
REMARK    4  A    between atoms: C21_25  and  O5_26 
REMARK    5  A    between atoms: O5_26  and  C22_27 
REMARK    6  A    between atoms: C22_27  and  C23_29 
REMARK    7  A    between atoms: C23_29  and  C24_30 
REMARK    8  A    between atoms: C24_30  and  C25_31 
REMARK       I    between atoms: C25_31  and  N1_33 
REMARK    9  A    between atoms: N1_33  and  C26_34 
REMARK   10  A    between atoms: C26_34  and  C27_35 
REMARK   11  A    between atoms: C27_35  and  C28_36 
REMARK   12  A    between atoms: C27_35  and  C29_39 
REMARK   13  A    between atoms: C28_36  and  O9_38 
ROOT
HETATM    1  C20 UNL     1      -7.171   5.839  15.124  1.00  0.00     0.185 C 
HETATM    2  O4  UNL     1      -6.966   4.625  15.202  1.00  0.00    -0.292 OA
ENDROOT
BRANCH   1   3
HETATM    3  C19 UNL     1      -6.277   6.762  14.266  1.00  0.00     0.128 C 
HETATM    4  C14 UNL     1      -4.745   6.434  14.218  1.00  0.00     0.005 C 
HETATM    5  C13 UNL     1      -4.328   5.288  13.288  1.00  0.00     0.091 C 
HETATM    6  C15 UNL     1      -4.161   6.173  15.637  1.00  0.00     0.019 C 
HETATM    7  C16 UNL     1      -4.217   7.757  13.599  1.00  0.00     0.002 C 
HETATM    8  C12 UNL     1      -2.819   5.312  13.079  1.00  0.00     0.133 C 
HETATM    9  C11 UNL     1      -2.221   6.633  12.556  1.00  0.00     0.072 C 
HETATM   10  O2  UNL     1      -2.160   4.289  13.254  1.00  0.00    -0.297 OA
HETATM   11  C2  UNL     1      -0.673   6.621  12.290  1.00  0.00    -0.009 C 
HETATM   12  C10 UNL     1      -2.687   7.813  13.457  1.00  0.00     0.003 C 
HETATM   13  C1  UNL     1       0.147   6.283  13.555  1.00  0.00     0.021 C 
HETATM   14  C3  UNL     1      -0.369   5.575  11.174  1.00  0.00     0.022 C 
HETATM   15  C7  UNL     1      -0.246   8.025  11.819  1.00  0.00    -0.067 C 
HETATM   16  C4  UNL     1       0.991   5.749  10.513  1.00  0.00     0.084 C 
HETATM   17  C5  UNL     1       1.119   7.143   9.960  1.00  0.00     0.149 C 
HETATM   18  O1  UNL     1       1.739   7.394   8.930  1.00  0.00    -0.293 OA
HETATM   19  C6  UNL     1       0.527   8.252  10.742  1.00  0.00     0.053 C 
HETATM   20  C8  UNL     1      -0.730   9.193  12.645  1.00  0.00     0.035 C 
HETATM   21  C9  UNL     1      -2.239   9.152  12.855  1.00  0.00     0.010 C 
HETATM   22  C17 UNL     1      -4.900   8.828  14.439  1.00  0.00     0.009 C 
HETATM   23  C18 UNL     1      -6.285   8.234  14.758  1.00  0.00     0.047 C 
BRANCH   3  24
HETATM   24  O3  UNL     1      -6.818   6.758  12.935  1.00  0.00    -0.381 OA
HETATM   25  H25 UNL     1      -6.852   5.836  12.621  1.00  0.00     0.211 HD
ENDBRANCH   3  24
ENDBRANCH   1   3
BRANCH   1  26
HETATM   26  C21 UNL     1      -8.443   6.422  15.742  1.00  0.00     0.260 C 
BRANCH  26  27
HETATM   27  O5  UNL     1      -9.455   6.721  14.788  1.00  0.00    -0.314 OA
BRANCH  27  28
HETATM   28  C22 UNL     1     -10.122   7.891  14.985  1.00  0.00     0.259 C 
HETATM   29  O6  UNL     1      -9.614   8.938  15.362  1.00  0.00    -0.265 OA
BRANCH  28  30
HETATM   30  C23 UNL     1     -11.595   7.683  14.724  1.00  0.00     0.120 C 
BRANCH  30  31
HETATM   31  C24 UNL     1     -11.956   8.058  13.293  1.00  0.00     0.112 C 
BRANCH  31  32
HETATM   32  C25 UNL     1     -13.155   8.984  13.249  1.00  0.00     0.218 C 
HETATM   33  O7  UNL     1     -13.263   9.978  13.958  1.00  0.00    -0.274 OA
HETATM   34  N1  UNL     1     -14.087   8.619  12.302  1.00  0.00    -0.360 N 
HETATM   35  H32 UNL     1     -14.096   7.648  12.009  1.00  0.00     0.162 HD
BRANCH  34  36
HETATM   36  C26 UNL     1     -15.342   9.345  12.169  1.00  0.00     0.142 C 
BRANCH  36  37
HETATM   37  C27 UNL     1     -16.453   8.543  11.467  1.00  0.00     0.134 C 
BRANCH  37  38
HETATM   38  C28 UNL     1     -17.455   9.463  10.780  1.00  0.00     0.150 C 
HETATM   39  O8  UNL     1     -18.341   9.158   9.997  1.00  0.00    -0.649 OA
BRANCH  38  40
HETATM   40  O9  UNL     1     -17.262  10.775  11.055  1.00  0.00    -0.776 OA
HETATM   41  H36 UNL     1     -17.917  11.219  10.472  1.00  0.00     0.167 HD
ENDBRANCH  38  40
ENDBRANCH  37  38
BRANCH  37  42
HETATM   42  C29 UNL     1     -17.092   7.594  12.476  1.00  0.00    -0.042 A 
HETATM   43  C30 UNL     1     -18.040   8.093  13.385  1.00  0.00     0.008 A 
HETATM   44  C31 UNL     1     -18.676   7.242  14.289  1.00  0.00     0.001 A 
HETATM   45  C32 UNL     1     -18.380   5.881  14.295  1.00  0.00     0.000 A 
HETATM   46  C33 UNL     1     -17.450   5.370  13.393  1.00  0.00     0.001 A 
HETATM   47  C34 UNL     1     -16.814   6.218  12.484  1.00  0.00     0.008 A 
ENDBRANCH  37  42
ENDBRANCH  36  37
ENDBRANCH  34  36
ENDBRANCH  31  32
ENDBRANCH  30  31
ENDBRANCH  28  30
ENDBRANCH  27  28
ENDBRANCH  26  27
ENDBRANCH   1  26
TORSDOF 13
ENDMDL
MODEL 2
REMARK minimizedAffinity -8.85483265
REMARK CNNscore 0.505271316
REMARK CNNaffinity 7.13221693
REMARK  13 active torsions:
REMARK  status: ('A' for Active; 'I' for Inactive)
REMARK    1  A    between atoms: C19_21  and  O3_22 
REMARK    2  A    between atoms: C19_21  and  C20_23 
REMARK    3  A    between atoms: C20_23  and  C21_25 
REMARK    4  A    between atoms: C21_25  and  O5_26 
REMARK    5  A    between atoms: O5_26  and  C22_27 
REMARK    6  A    between atoms: C22_27  and  C23_29 
REMARK    7  A    between atoms: C23_29  and  C24_30 
REMARK    8  A    between atoms: C24_30  and  C25_31 
REMARK       I    between atoms: C25_31  and  N1_33 
REMARK    9  A    between atoms: N1_33  and  C26_34 
REMARK   10  A    between atoms: C26_34  and  C27_35 
REMARK   11  A    between atoms: C27_35  and  C28_36 
REMARK   12  A    between atoms: C27_35  and  C29_39 
REMARK   13  A    between atoms: C28_36  and  O9_38 
ROOT
HETATM    1  C20 UNL     1       2.704   8.037  14.890  1.00  0.00     0.185 C 
HETATM    2  O4  UNL     1       2.840   7.352  13.873  1.00  0.00    -0.292 OA
ENDROOT
BRANCH   1   3
HETATM    3  C19 UNL     1       1.352   8.128  15.634  1.00  0.00     0.128 C 
HETATM    4  C14 UNL     1       0.052   8.149  14.759  1.00  0.00     0.005 C 
HETATM    5  C13 UNL     1      -0.421   6.793  14.218  1.00  0.00     0.091 C 
HETATM    6  C15 UNL     1       0.162   9.156  13.577  1.00  0.00     0.019 C 
HETATM    7  C16 UNL     1      -0.973   8.610  15.831  1.00  0.00     0.002 C 
HETATM    8  C12 UNL     1      -1.848   6.911  13.697  1.00  0.00     0.133 C 
HETATM    9  C11 UNL     1      -2.896   7.457  14.687  1.00  0.00     0.072 C 
HETATM   10  O2  UNL     1      -2.122   6.510  12.568  1.00  0.00    -0.297 OA
HETATM   11  C2  UNL     1      -4.372   7.515  14.153  1.00  0.00    -0.009 C 
HETATM   12  C10 UNL     1      -2.399   8.803  15.289  1.00  0.00     0.003 C 
HETATM   13  C1  UNL     1      -4.514   8.398  12.892  1.00  0.00     0.021 C 
HETATM   14  C3  UNL     1      -4.842   6.063  13.831  1.00  0.00     0.022 C 
HETATM   15  C7  UNL     1      -5.266   8.122  15.251  1.00  0.00    -0.067 C 
HETATM   16  C4  UNL     1      -6.351   5.910  13.720  1.00  0.00     0.084 C 
HETATM   17  C5  UNL     1      -7.012   6.397  14.981  1.00  0.00     0.149 C 
HETATM   18  O1  UNL     1      -8.031   5.886  15.436  1.00  0.00    -0.293 OA
HETATM   19  C6  UNL     1      -6.435   7.587  15.647  1.00  0.00     0.053 C 
HETATM   20  C8  UNL     1      -4.781   9.401  15.890  1.00  0.00     0.035 C 
HETATM   21  C9  UNL     1      -3.350   9.273  16.399  1.00  0.00     0.010 C 
HETATM   22  C17 UNL     1      -0.283   9.804  16.478  1.00  0.00     0.009 C 
HETATM   23  C18 UNL     1       1.212   9.429  16.468  1.00  0.00     0.047 C 
BRANCH   3  24
HETATM   24  O3  UNL     1       1.302   7.027  16.556  1.00  0.00    -0.381 OA
HETATM   25  H25 UNL     1       1.422   6.201  16.054  1.00  0.00     0.211 HD
ENDBRANCH   3  24
ENDBRANCH   1   3
BRANCH   1  26
HETATM   26  C21 UNL     1       3.938   8.666  15.537  1.00  0.00     0.260 C 
BRANCH  26  27
HETATM   27  O5  UNL     1       5.165   8.249  14.950  1.00  0.00    -0.314 OA
BRANCH  27  28
HETATM   28  C22 UNL     1       6.047   9.244  14.658  1.00  0.00     0.259 C 
HETATM   29  O6  UNL     1       5.945  10.407  15.023  1.00  0.00    -0.265 OA
BRANCH  28  30
HETATM   30  C23 UNL     1       7.139   8.705  13.764  1.00  0.00     0.120 C 
BRANCH  30  31
HETATM   31  C24 UNL     1       7.018   7.195  13.601  1.00  0.00     0.112 C 
BRANCH  31  32
HETATM   32  C25 UNL     1       6.569   6.824  12.203  1.00  0.00     0.218 C 
HETATM   33  O7  UNL     1       7.346   6.527  11.303  1.00  0.00    -0.274 OA
HETATM   34  N1  UNL     1       5.198   6.811  12.060  1.00  0.00    -0.360 N 
HETATM   35  H32 UNL     1       4.658   7.370  12.711  1.00  0.00     0.162 HD
BRANCH  34  36
HETATM   36  C26 UNL     1       4.584   6.554  10.766  1.00  0.00     0.142 C 
BRANCH  36  37
HETATM   37  C27 UNL     1       4.334   7.824   9.932  1.00  0.00     0.134 C 
BRANCH  37  38
HETATM   38  C28 UNL     1       4.865   9.066  10.637  1.00  0.00     0.150 C 
HETATM   39  O8  UNL     1       4.532   9.514  11.723  1.00  0.00    -0.649 OA
BRANCH  38  40
HETATM   40  O9  UNL     1       5.771   9.758   9.905  1.00  0.00    -0.776 OA
HETATM   41  H36 UNL     1       5.931  10.556  10.455  1.00  0.00     0.167 HD
ENDBRANCH  38  40
ENDBRANCH  37  38
BRANCH  37  42
HETATM   42  C29 UNL     1       2.848   7.907   9.591  1.00  0.00    -0.042 A 
HETATM   43  C30 UNL     1       2.458   8.057   8.250  1.00  0.00     0.008 A 
HETATM   44  C31 UNL     1       1.107   8.090   7.901  1.00  0.00     0.001 A 
HETATM   45  C32 UNL     1       0.129   7.967   8.885  1.00  0.00     0.000 A 
HETATM   46  C33 UNL     1       0.500   7.808  10.217  1.00  0.00     0.001 A 
HETATM   47  C34 UNL     1       1.851   7.771  10.569  1.00  0.00     0.008 A 
ENDBRANCH  37  42
ENDBRANCH  36  37
ENDBRANCH  34  36
ENDBRANCH  31  32
ENDBRANCH  30  31
ENDBRANCH  28  30
ENDBRANCH  27  28
ENDBRANCH  26  27
ENDBRANCH   1  26
TORSDOF 13
ENDMDL
MODEL 3
REMARK minimizedAffinity -8.33327389
REMARK CNNscore 0.399954736
REMARK CNNaffinity 6.65711069
REMARK  13 active torsions:
REMARK  status: ('A' for Active; 'I' for Inactive)
REMARK    1  A    between atoms: C19_21  and  O3_22 
REMARK    2  A    between atoms: C19_21  and  C20_23 
REMARK    3  A    between atoms: C20_23  and  C21_25 
REMARK    4  A    between atoms: C21_25  and  O5_26 
REMARK    5  A    between atoms: O5_26  and  C22_27 
REMARK    6  A    between atoms: C22_27  and  C23_29 
REMARK    7  A    between atoms: C23_29  and  C24_30 
REMARK    8  A    between atoms: C24_30  and  C25_31 
REMARK       I    between atoms: C25_31  and  N1_33 
REMARK    9  A    between atoms: N1_33  and  C26_34 
REMARK   10  A    between atoms: C26_34  and  C27_35 
REMARK   11  A    between atoms: C27_35  and  C28_36 
REMARK   12  A    between atoms: C27_35  and  C29_39 
REMARK   13  A    between atoms: C28_36  and  O9_38 
ROOT
HETATM    1  C20 UNL     1     -16.788   4.946  14.845  1.00  0.00     0.185 C 
HETATM    2  O4  UNL     1     -16.736   5.348  16.010  1.00  0.00    -0.292 OA
ENDROOT
BRANCH   1   3
HETATM    3  C19 UNL     1     -17.432   3.588  14.481  1.00  0.00     0.128 C 
HETATM    4  C14 UNL     1     -16.674   2.292  14.932  1.00  0.00     0.005 C 
HETATM    5  C13 UNL     1     -16.837   1.892  16.404  1.00  0.00     0.091 C 
HETATM    6  C15 UNL     1     -15.158   2.355  14.589  1.00  0.00     0.019 C 
HETATM    7  C16 UNL     1     -17.429   1.241  14.073  1.00  0.00     0.002 C 
HETATM    8  C12 UNL     1     -16.350   0.463  16.610  1.00  0.00     0.133 C 
HETATM    9  C11 UNL     1     -16.993  -0.616  15.716  1.00  0.00     0.072 C 
HETATM   10  O2  UNL     1     -15.544   0.214  17.504  1.00  0.00    -0.297 OA
HETATM   11  C2  UNL     1     -16.523  -2.091  15.984  1.00  0.00    -0.009 C 
HETATM   12  C10 UNL     1     -16.888  -0.191  14.223  1.00  0.00     0.003 C 
HETATM   13  C1  UNL     1     -15.000  -2.273  15.798  1.00  0.00     0.021 C 
HETATM   14  C3  UNL     1     -16.925  -2.484  17.439  1.00  0.00     0.022 C 
HETATM   15  C7  UNL     1     -17.230  -3.020  14.978  1.00  0.00    -0.067 C 
HETATM   16  C4  UNL     1     -16.929  -3.983  17.697  1.00  0.00     0.084 C 
HETATM   17  C5  UNL     1     -17.831  -4.674  16.710  1.00  0.00     0.149 C 
HETATM   18  O1  UNL     1     -18.493  -5.667  16.997  1.00  0.00    -0.293 OA
HETATM   19  C6  UNL     1     -17.853  -4.161  15.321  1.00  0.00     0.053 C 
HETATM   20  C8  UNL     1     -17.190  -2.603  13.527  1.00  0.00     0.035 C 
HETATM   21  C9  UNL     1     -17.670  -1.170  13.335  1.00  0.00     0.010 C 
HETATM   22  C17 UNL     1     -17.431   1.866  12.685  1.00  0.00     0.009 C 
HETATM   23  C18 UNL     1     -17.566   3.378  12.950  1.00  0.00     0.047 C 
BRANCH   3  24
HETATM   24  O3  UNL     1     -18.761   3.591  15.025  1.00  0.00    -0.381 OA
HETATM   25  H25 UNL     1     -18.700   3.755  15.985  1.00  0.00     0.211 HD
ENDBRANCH   3  24
ENDBRANCH   1   3
BRANCH   1  26
HETATM   26  C21 UNL     1     -16.374   5.885  13.712  1.00  0.00     0.260 C 
BRANCH  26  27
HETATM   27  O5  UNL     1     -15.121   6.523  13.929  1.00  0.00    -0.314 OA
BRANCH  27  28
HETATM   28  C22 UNL     1     -14.660   7.282  12.898  1.00  0.00     0.259 C 
HETATM   29  O6  UNL     1     -15.173   7.354  11.790  1.00  0.00    -0.265 OA
BRANCH  28  30
HETATM   30  C23 UNL     1     -13.382   7.974  13.311  1.00  0.00     0.120 C 
BRANCH  30  31
HETATM   31  C24 UNL     1     -12.427   7.000  13.988  1.00  0.00     0.112 C 
BRANCH  31  32
HETATM   32  C25 UNL     1     -11.083   6.967  13.290  1.00  0.00     0.218 C 
HETATM   33  O7  UNL     1     -10.869   7.518  12.215  1.00  0.00    -0.274 OA
HETATM   34  N1  UNL     1     -10.116   6.295  14.005  1.00  0.00    -0.360 N 
HETATM   35  H32 UNL     1     -10.432   5.608  14.682  1.00  0.00     0.162 HD
BRANCH  34  36
HETATM   36  C26 UNL     1      -8.783   6.092  13.455  1.00  0.00     0.142 C 
BRANCH  36  37
HETATM   37  C27 UNL     1      -7.762   5.564  14.479  1.00  0.00     0.134 C 
BRANCH  37  38
HETATM   38  C28 UNL     1      -7.394   6.631  15.501  1.00  0.00     0.150 C 
HETATM   39  O8  UNL     1      -7.525   7.842  15.404  1.00  0.00    -0.649 OA
BRANCH  38  40
HETATM   40  O9  UNL     1      -6.796   6.135  16.611  1.00  0.00    -0.776 OA
HETATM   41  H36 UNL     1      -6.547   6.947  17.106  1.00  0.00     0.167 HD
ENDBRANCH  38  40
ENDBRANCH  37  38
BRANCH  37  42
HETATM   42  C29 UNL     1      -6.558   4.999  13.730  1.00  0.00    -0.042 A 
HETATM   43  C30 UNL     1      -6.712   3.833  12.960  1.00  0.00     0.008 A 
HETATM   44  C31 UNL     1      -5.643   3.318  12.227  1.00  0.00     0.001 A 
HETATM   45  C32 UNL     1      -4.408   3.962  12.246  1.00  0.00     0.000 A 
HETATM   46  C33 UNL     1      -4.243   5.124  12.995  1.00  0.00     0.001 A 
HETATM   47  C34 UNL     1      -5.312   5.644  13.727  1.00  0.00     0.008 A 
ENDBRANCH  37  42
ENDBRANCH  36  37
ENDBRANCH  34  36
ENDBRANCH  31  32
ENDBRANCH  30  31
ENDBRANCH  28  30
ENDBRANCH  27  28
ENDBRANCH  26  27
ENDBRANCH   1  26
TORSDOF 13
ENDMDL
MODEL 4
REMARK minimizedAffinity -9.14644432
REMARK CNNscore 0.363417298
REMARK CNNaffinity 7.2148881
REMARK  13 active torsions:
REMARK  status: ('A' for Active; 'I' for Inactive)
REMARK    1  A    between atoms: C19_21  and  O3_22 
REMARK    2  A    between atoms: C19_21  and  C20_23 
REMARK    3  A    between atoms: C20_23  and  C21_25 
REMARK    4  A    between atoms: C21_25  and  O5_26 
REMARK    5  A    between atoms: O5_26  and  C22_27 
REMARK    6  A    between atoms: C22_27  and  C23_29 
REMARK    7  A    between atoms: C23_29  and  C24_30 
REMARK    8  A    between atoms: C24_30  and  C25_31 
REMARK       I    between atoms: C25_31  and  N1_33 
REMARK    9  A    between atoms: N1_33  and  C26_34 
REMARK   10  A    between atoms: C26_34  and  C27_35 
REMARK   11  A    between atoms: C27_35  and  C28_36 
REMARK   12  A    between atoms: C27_35  and  C29_39 
REMARK   13  A    between atoms: C28_36  and  O9_38 
ROOT
HETATM    1  C20 UNL     1      -6.143   4.404  13.578  1.00  0.00     0.185 C 
HETATM    2  O4  UNL     1      -6.512   3.500  12.826  1.00  0.00    -0.292 OA
ENDROOT
BRANCH   1   3
HETATM    3  C19 UNL     1      -7.080   5.004  14.652  1.00  0.00     0.128 C 
HETATM    4  C14 UNL     1      -8.040   6.158  14.202  1.00  0.00     0.005 C 
HETATM    5  C13 UNL     1      -9.303   5.730  13.444  1.00  0.00     0.091 C 
HETATM    6  C15 UNL     1      -7.295   7.245  13.373  1.00  0.00     0.019 C 
HETATM    7  C16 UNL     1      -8.483   6.682  15.595  1.00  0.00     0.002 C 
HETATM    8  C12 UNL     1     -10.289   6.889  13.381  1.00  0.00     0.133 C 
HETATM    9  C11 UNL     1     -10.694   7.517  14.729  1.00  0.00     0.072 C 
HETATM   10  O2  UNL     1     -10.772   7.225  12.301  1.00  0.00    -0.297 OA
HETATM   11  C2  UNL     1     -11.757   8.672  14.650  1.00  0.00    -0.009 C 
HETATM   12  C10 UNL     1      -9.419   7.901  15.534  1.00  0.00     0.003 C 
HETATM   13  C1  UNL     1     -11.283   9.859  13.782  1.00  0.00     0.021 C 
HETATM   14  C3  UNL     1     -13.081   8.090  14.065  1.00  0.00     0.022 C 
HETATM   15  C7  UNL     1     -12.006   9.206  16.074  1.00  0.00    -0.067 C 
HETATM   16  C4  UNL     1     -14.306   8.953  14.325  1.00  0.00     0.084 C 
HETATM   17  C5  UNL     1     -14.460   9.198  15.801  1.00  0.00     0.149 C 
HETATM   18  O1  UNL     1     -15.556   9.293  16.348  1.00  0.00    -0.293 OA
HETATM   19  C6  UNL     1     -13.229   9.399  16.599  1.00  0.00     0.053 C 
HETATM   20  C8  UNL     1     -10.784   9.535  16.898  1.00  0.00     0.035 C 
HETATM   21  C9  UNL     1      -9.802   8.371  16.945  1.00  0.00     0.010 C 
HETATM   22  C17 UNL     1      -7.167   6.824  16.346  1.00  0.00     0.009 C 
HETATM   23  C18 UNL     1      -6.307   5.655  15.829  1.00  0.00     0.047 C 
BRANCH   3  24
HETATM   24  O3  UNL     1      -7.845   3.918  15.199  1.00  0.00    -0.381 OA
HETATM   25  H25 UNL     1      -8.313   3.474  14.468  1.00  0.00     0.211 HD
ENDBRANCH   3  24
ENDBRANCH   1   3
BRANCH   1  26
HETATM   26  C21 UNL     1      -4.672   4.822  13.577  1.00  0.00     0.260 C 
BRANCH  26  27
HETATM   27  O5  UNL     1      -4.176   5.159  12.287  1.00  0.00    -0.314 OA
BRANCH  27  28
HETATM   28  C22 UNL     1      -3.541   4.157  11.620  1.00  0.00     0.259 C 
HETATM   29  O6  UNL     1      -4.032   3.486  10.722  1.00  0.00    -0.265 OA
BRANCH  28  30
HETATM   30  C23 UNL     1      -2.160   3.959  12.198  1.00  0.00     0.120 C 
BRANCH  30  31
HETATM   31  C24 UNL     1      -1.272   5.165  11.920  1.00  0.00     0.112 C 
BRANCH  31  32
HETATM   32  C25 UNL     1       0.107   4.742  11.459  1.00  0.00     0.218 C 
HETATM   33  O7  UNL     1       0.429   3.571  11.283  1.00  0.00    -0.274 OA
HETATM   34  N1  UNL     1       0.948   5.806  11.217  1.00  0.00    -0.360 N 
HETATM   35  H32 UNL     1       0.739   6.680  11.687  1.00  0.00     0.162 HD
BRANCH  34  36
HETATM   36  C26 UNL     1       2.339   5.591  10.843  1.00  0.00     0.142 C 
BRANCH  36  37
HETATM   37  C27 UNL     1       2.830   6.517   9.716  1.00  0.00     0.134 C 
BRANCH  37  38
HETATM   38  C28 UNL     1       2.909   5.782   8.384  1.00  0.00     0.150 C 
HETATM   39  O8  UNL     1       3.443   4.709   8.149  1.00  0.00    -0.649 OA
BRANCH  38  40
HETATM   40  O9  UNL     1       2.359   6.467   7.354  1.00  0.00    -0.776 OA
HETATM   41  H36 UNL     1       2.577   5.906   6.577  1.00  0.00     0.167 HD
ENDBRANCH  38  40
ENDBRANCH  37  38
BRANCH  37  42
HETATM   42  C29 UNL     1       4.152   7.152  10.139  1.00  0.00    -0.042 A 
HETATM   43  C30 UNL     1       4.327   8.539   9.995  1.00  0.00     0.008 A 
HETATM   44  C31 UNL     1       5.506   9.155  10.415  1.00  0.00     0.001 A 
HETATM   45  C32 UNL     1       6.524   8.398  10.990  1.00  0.00     0.000 A 
HETATM   46  C33 UNL     1       6.362   7.024  11.148  1.00  0.00     0.001 A 
HETATM   47  C34 UNL     1       5.181   6.404  10.732  1.00  0.00     0.008 A 
ENDBRANCH  37  42
ENDBRANCH  36  37
ENDBRANCH  34  36
ENDBRANCH  31  32
ENDBRANCH  30  31
ENDBRANCH  28  30
ENDBRANCH  27  28
ENDBRANCH  26  27
ENDBRANCH   1  26
TORSDOF 13
ENDMDL
MODEL 5
REMARK minimizedAffinity -8.19762516
REMARK CNNscore 0.319141746
REMARK CNNaffinity 6.22949648
REMARK  13 active torsions:
REMARK  status: ('A' for Active; 'I' for Inactive)
REMARK    1  A    between atoms: C19_21  and  O3_22 
REMARK    2  A    between atoms: C19_21  and  C20_23 
REMARK    3  A    between atoms: C20_23  and  C21_25 
REMARK    4  A    between atoms: C21_25  and  O5_26 
REMARK    5  A    between atoms: O5_26  and  C22_27 
REMARK    6  A    between atoms: C22_27  and  C23_29 
REMARK    7  A    between atoms: C23_29  and  C24_30 
REMARK    8  A    between atoms: C24_30  and  C25_31 
REMARK       I    between atoms: C25_31  and  N1_33 
REMARK    9  A    between atoms: N1_33  and  C26_34 
REMARK   10  A    between atoms: C26_34  and  C27_35 
REMARK   11  A    between atoms: C27_35  and  C28_36 
REMARK   12  A    between atoms: C27_35  and  C29_39 
REMARK   13  A    between atoms: C28_36  and  O9_38 
ROOT
HETATM    1  C20 UNL     1     -16.253   6.743  13.713  1.00  0.00     0.185 C 
HETATM    2  O4  UNL     1     -15.815   6.304  12.647  1.00  0.00    -0.292 OA
ENDROOT
BRANCH   1   3
HETATM    3  C19 UNL     1     -16.725   5.805  14.847  1.00  0.00     0.128 C 
HETATM    4  C14 UNL     1     -16.855   4.280  14.509  1.00  0.00     0.005 C 
HETATM    5  C13 UNL     1     -15.548   3.478  14.489  1.00  0.00     0.091 C 
HETATM    6  C15 UNL     1     -17.616   4.044  13.172  1.00  0.00     0.019 C 
HETATM    7  C16 UNL     1     -17.675   3.812  15.743  1.00  0.00     0.002 C 
HETATM    8  C12 UNL     1     -15.855   1.986  14.495  1.00  0.00     0.133 C 
HETATM    9  C11 UNL     1     -16.747   1.475  15.644  1.00  0.00     0.072 C 
HETATM   10  O2  UNL     1     -15.336   1.251  13.658  1.00  0.00    -0.297 OA
HETATM   11  C2  UNL     1     -17.004  -0.075  15.669  1.00  0.00    -0.009 C 
HETATM   12  C10 UNL     1     -18.051   2.321  15.713  1.00  0.00     0.003 C 
HETATM   13  C1  UNL     1     -17.681  -0.587  14.377  1.00  0.00     0.021 C 
HETATM   14  C3  UNL     1     -15.638  -0.802  15.868  1.00  0.00     0.022 C 
HETATM   15  C7  UNL     1     -17.943  -0.397  16.847  1.00  0.00    -0.067 C 
HETATM   16  C4  UNL     1     -15.766  -2.243  16.337  1.00  0.00     0.084 C 
HETATM   17  C5  UNL     1     -16.570  -2.303  17.607  1.00  0.00     0.149 C 
HETATM   18  O1  UNL     1     -16.347  -3.120  18.496  1.00  0.00    -0.293 OA
HETATM   19  C6  UNL     1     -17.717  -1.376  17.740  1.00  0.00     0.053 C 
HETATM   20  C8  UNL     1     -19.190   0.446  16.969  1.00  0.00     0.035 C 
HETATM   21  C9  UNL     1     -18.871   1.936  16.952  1.00  0.00     0.010 C 
HETATM   22  C17 UNL     1     -18.801   4.835  15.818  1.00  0.00     0.009 C 
HETATM   23  C18 UNL     1     -18.146   6.154  15.363  1.00  0.00     0.047 C 
BRANCH   3  24
HETATM   24  O3  UNL     1     -15.820   5.985  15.949  1.00  0.00    -0.381 OA
HETATM   25  H25 UNL     1     -14.915   5.803  15.635  1.00  0.00     0.211 HD
ENDBRANCH   3  24
ENDBRANCH   1   3
BRANCH   1  26
HETATM   26  C21 UNL     1     -16.160   8.243  13.996  1.00  0.00     0.260 C 
BRANCH  26  27
HETATM   27  O5  UNL     1     -15.005   8.613  14.740  1.00  0.00    -0.314 OA
BRANCH  27  28
HETATM   28  C22 UNL     1     -13.842   8.665  14.034  1.00  0.00     0.259 C 
HETATM   29  O6  UNL     1     -13.733   9.061  12.882  1.00  0.00    -0.265 OA
BRANCH  28  30
HETATM   30  C23 UNL     1     -12.717   8.102  14.871  1.00  0.00     0.120 C 
BRANCH  30  31
HETATM   31  C24 UNL     1     -12.267   6.747  14.342  1.00  0.00     0.112 C 
BRANCH  31  32
HETATM   32  C25 UNL     1     -10.982   6.861  13.548  1.00  0.00     0.218 C 
HETATM   33  O7  UNL     1     -10.919   7.383  12.440  1.00  0.00    -0.274 OA
HETATM   34  N1  UNL     1      -9.886   6.361  14.216  1.00  0.00    -0.360 N 
HETATM   35  H32 UNL     1     -10.058   5.672  14.941  1.00  0.00     0.162 HD
BRANCH  34  36
HETATM   36  C26 UNL     1      -8.578   6.313  13.578  1.00  0.00     0.142 C 
BRANCH  36  37
HETATM   37  C27 UNL     1      -7.520   5.539  14.386  1.00  0.00     0.134 C 
BRANCH  37  38
HETATM   38  C28 UNL     1      -6.424   6.464  14.899  1.00  0.00     0.150 C 
HETATM   39  O8  UNL     1      -5.471   6.180  15.608  1.00  0.00    -0.649 OA
BRANCH  38  40
HETATM   40  O9  UNL     1      -6.602   7.761  14.551  1.00  0.00    -0.776 OA
HETATM   41  H36 UNL     1      -5.877   8.218  15.032  1.00  0.00     0.167 HD
ENDBRANCH  38  40
ENDBRANCH  37  38
BRANCH  37  42
HETATM   42  C29 UNL     1      -6.993   4.387  13.534  1.00  0.00    -0.042 A 
HETATM   43  C30 UNL     1      -7.772   3.226  13.391  1.00  0.00     0.008 A 
HETATM   44  C31 UNL     1      -7.339   2.174  12.583  1.00  0.00     0.001 A 
HETATM   45  C32 UNL     1      -6.128   2.270  11.901  1.00  0.00     0.000 A 
HETATM   46  C33 UNL     1      -5.351   3.418  12.024  1.00  0.00     0.001 A 
HETATM   47  C34 UNL     1      -5.783   4.474  12.830  1.00  0.00     0.008 A 
ENDBRANCH  37  42
ENDBRANCH  36  37
ENDBRANCH  34  36
ENDBRANCH  31  32
ENDBRANCH  30  31
ENDBRANCH  28  30
ENDBRANCH  27  28
ENDBRANCH  26  27
ENDBRANCH   1  26
TORSDOF 13
ENDMDL
MODEL 6
REMARK minimizedAffinity -8.90611744
REMARK CNNscore 0.302970469
REMARK CNNaffinity 6.17394114
REMARK  13 active torsions:
REMARK  status: ('A' for Active; 'I' for Inactive)
REMARK    1  A    between atoms: C19_21  and  O3_22 
REMARK    2  A    between atoms: C19_21  and  C20_23 
REMARK    3  A    between atoms: C20_23  and  C21_25 
REMARK    4  A    between atoms: C21_25  and  O5_26 
REMARK    5  A    between atoms: O5_26  and  C22_27 
REMARK    6  A    between atoms: C22_27  and  C23_29 
REMARK    7  A    between atoms: C23_29  and  C24_30 
REMARK    8  A    between atoms: C24_30  and  C25_31 
REMARK       I    between atoms: C25_31  and  N1_33 
REMARK    9  A    between atoms: N1_33  and  C26_34 
REMARK   10  A    between atoms: C26_34  and  C27_35 
REMARK   11  A    between atoms: C27_35  and  C28_36 
REMARK   12  A    between atoms: C27_35  and  C29_39 
REMARK   13  A    between atoms: C28_36  and  O9_38 
ROOT
HETATM    1  C20 UNL     1      -0.172  10.463  17.008  1.00  0.00     0.185 C 
HETATM    2  O4  UNL     1       0.356   9.351  16.942  1.00  0.00    -0.292 OA
ENDROOT
BRANCH   1   3
HETATM    3  C19 UNL     1       0.541  11.664  17.671  1.00  0.00     0.128 C 
HETATM    4  C14 UNL     1       1.243  11.409  19.050  1.00  0.00     0.005 C 
HETATM    5  C13 UNL     1       2.612  10.721  18.995  1.00  0.00     0.091 C 
HETATM    6  C15 UNL     1       0.323  10.632  20.036  1.00  0.00     0.019 C 
HETATM    7  C16 UNL     1       1.474  12.879  19.497  1.00  0.00     0.002 C 
HETATM    8  C12 UNL     1       3.314  10.853  20.340  1.00  0.00     0.133 C 
HETATM    9  C11 UNL     1       3.487  12.285  20.885  1.00  0.00     0.072 C 
HETATM   10  O2  UNL     1       3.772   9.855  20.893  1.00  0.00    -0.297 OA
HETATM   11  C2  UNL     1       4.266  12.407  22.244  1.00  0.00    -0.009 C 
HETATM   12  C10 UNL     1       2.113  13.015  20.888  1.00  0.00     0.003 C 
HETATM   13  C1  UNL     1       3.590  11.622  23.390  1.00  0.00     0.021 C 
HETATM   14  C3  UNL     1       5.719  11.879  22.033  1.00  0.00     0.022 C 
HETATM   15  C7  UNL     1       4.304  13.891  22.654  1.00  0.00    -0.067 C 
HETATM   16  C4  UNL     1       6.701  12.322  23.107  1.00  0.00     0.084 C 
HETATM   17  C5  UNL     1       6.709  13.823  23.211  1.00  0.00     0.149 C 
HETATM   18  O1  UNL     1       7.721  14.465  23.479  1.00  0.00    -0.293 OA
HETATM   19  C6  UNL     1       5.419  14.532  23.048  1.00  0.00     0.053 C 
HETATM   20  C8  UNL     1       2.993  14.639  22.615  1.00  0.00     0.035 C 
HETATM   21  C9  UNL     1       2.296  14.491  21.268  1.00  0.00     0.010 C 
HETATM   22  C17 UNL     1       0.116  13.529  19.264  1.00  0.00     0.009 C 
HETATM   23  C18 UNL     1      -0.427  12.831  18.002  1.00  0.00     0.047 C 
BRANCH   3  24
HETATM   24  O3  UNL     1       1.497  12.164  16.723  1.00  0.00    -0.381 OA
HETATM   25  H25 UNL     1       2.096  11.435  16.477  1.00  0.00     0.211 HD
ENDBRANCH   3  24
ENDBRANCH   1   3
BRANCH   1  26
HETATM   26  C21 UNL     1      -1.482  10.714  16.261  1.00  0.00     0.260 C 
BRANCH  26  27
HETATM   27  O5  UNL     1      -2.197   9.524  15.949  1.00  0.00    -0.314 OA
BRANCH  27  28
HETATM   28  C22 UNL     1      -3.531   9.551  16.218  1.00  0.00     0.259 C 
HETATM   29  O6  UNL     1      -4.064  10.241  17.077  1.00  0.00    -0.265 OA
BRANCH  28  30
HETATM   30  C23 UNL     1      -4.245   8.554  15.336  1.00  0.00     0.120 C 
BRANCH  30  31
HETATM   31  C24 UNL     1      -5.727   8.889  15.220  1.00  0.00     0.112 C 
BRANCH  31  32
HETATM   32  C25 UNL     1      -6.546   7.662  14.876  1.00  0.00     0.218 C 
HETATM   33  O7  UNL     1      -7.767   7.677  14.769  1.00  0.00    -0.274 OA
HETATM   34  N1  UNL     1      -5.776   6.541  14.654  1.00  0.00    -0.360 N 
HETATM   35  H32 UNL     1      -4.853   6.520  15.074  1.00  0.00     0.162 HD
BRANCH  34  36
HETATM   36  C26 UNL     1      -6.394   5.250  14.389  1.00  0.00     0.142 C 
BRANCH  36  37
HETATM   37  C27 UNL     1      -6.626   4.966  12.893  1.00  0.00     0.134 C 
BRANCH  37  38
HETATM   38  C28 UNL     1      -8.103   4.748  12.590  1.00  0.00     0.150 C 
HETATM   39  O8  UNL     1      -8.825   5.406  11.857  1.00  0.00    -0.649 OA
BRANCH  38  40
HETATM   40  O9  UNL     1      -8.653   3.725  13.287  1.00  0.00    -0.776 OA
HETATM   41  H36 UNL     1      -9.604   3.785  13.047  1.00  0.00     0.167 HD
ENDBRANCH  38  40
ENDBRANCH  37  38
BRANCH  37  42
HETATM   42  C29 UNL     1      -5.739   3.800  12.468  1.00  0.00    -0.042 A 
HETATM   43  C30 UNL     1      -6.327   2.665  11.884  1.00  0.00     0.008 A 
HETATM   44  C31 UNL     1      -5.539   1.602  11.443  1.00  0.00     0.001 A 
HETATM   45  C32 UNL     1      -4.153   1.659  11.571  1.00  0.00     0.000 A 
HETATM   46  C33 UNL     1      -3.555   2.781  12.137  1.00  0.00     0.001 A 
HETATM   47  C34 UNL     1      -4.340   3.849  12.577  1.00  0.00     0.008 A 
ENDBRANCH  37  42
ENDBRANCH  36  37
ENDBRANCH  34  36
ENDBRANCH  31  32
ENDBRANCH  30  31
ENDBRANCH  28  30
ENDBRANCH  27  28
ENDBRANCH  26  27
ENDBRANCH   1  26
TORSDOF 13
ENDMDL
MODEL 7
REMARK minimizedAffinity -9.74810314
REMARK CNNscore 0.271392673
REMARK CNNaffinity 7.24693441
REMARK  13 active torsions:
REMARK  status: ('A' for Active; 'I' for Inactive)
REMARK    1  A    between atoms: C19_21  and  O3_22 
REMARK    2  A    between atoms: C19_21  and  C20_23 
REMARK    3  A    between atoms: C20_23  and  C21_25 
REMARK    4  A    between atoms: C21_25  and  O5_26 
REMARK    5  A    between atoms: O5_26  and  C22_27 
REMARK    6  A    between atoms: C22_27  and  C23_29 
REMARK    7  A    between atoms: C23_29  and  C24_30 
REMARK    8  A    between atoms: C24_30  and  C25_31 
REMARK       I    between atoms: C25_31  and  N1_33 
REMARK    9  A    between atoms: N1_33  and  C26_34 
REMARK   10  A    between atoms: C26_34  and  C27_35 
REMARK   11  A    between atoms: C27_35  and  C28_36 
REMARK   12  A    between atoms: C27_35  and  C29_39 
REMARK   13  A    between atoms: C28_36  and  O9_38 
ROOT
HETATM    1  C20 UNL     1      -0.762   6.797  14.187  1.00  0.00     0.185 C 
HETATM    2  O4  UNL     1       0.082   5.912  14.340  1.00  0.00    -0.292 OA
ENDROOT
BRANCH   1   3
HETATM    3  C19 UNL     1      -2.076   6.545  13.413  1.00  0.00     0.128 C 
HETATM    4  C14 UNL     1      -3.399   6.471  14.250  1.00  0.00     0.005 C 
HETATM    5  C13 UNL     1      -3.999   7.814  14.685  1.00  0.00     0.091 C 
HETATM    6  C15 UNL     1      -3.247   5.555  15.499  1.00  0.00     0.019 C 
HETATM    7  C16 UNL     1      -4.346   5.857  13.183  1.00  0.00     0.002 C 
HETATM    8  C12 UNL     1      -5.428   7.611  15.172  1.00  0.00     0.133 C 
HETATM    9  C11 UNL     1      -6.394   6.916  14.191  1.00  0.00     0.072 C 
HETATM   10  O2  UNL     1      -5.773   8.059  16.264  1.00  0.00    -0.297 OA
HETATM   11  C2  UNL     1      -7.878   6.769  14.687  1.00  0.00    -0.009 C 
HETATM   12  C10 UNL     1      -5.769   5.581  13.696  1.00  0.00     0.003 C 
HETATM   13  C1  UNL     1      -7.990   5.960  15.999  1.00  0.00     0.021 C 
HETATM   14  C3  UNL     1      -8.476   8.194  14.897  1.00  0.00     0.022 C 
HETATM   15  C7  UNL     1      -8.682   6.019  13.607  1.00  0.00    -0.067 C 
HETATM   16  C4  UNL     1      -9.996   8.226  14.954  1.00  0.00     0.084 C 
HETATM   17  C5  UNL     1     -10.572   7.605  13.711  1.00  0.00     0.149 C 
HETATM   18  O1  UNL     1     -11.613   7.999  13.193  1.00  0.00    -0.293 OA
HETATM   19  C6  UNL     1      -9.876   6.428  13.143  1.00  0.00     0.053 C 
HETATM   20  C8  UNL     1      -8.072   4.747  13.069  1.00  0.00     0.035 C 
HETATM   21  C9  UNL     1      -6.640   4.961  12.594  1.00  0.00     0.010 C 
HETATM   22  C17 UNL     1      -3.539   4.687  12.637  1.00  0.00     0.009 C 
HETATM   23  C18 UNL     1      -2.081   5.186  12.664  1.00  0.00     0.047 C 
BRANCH   3  24
HETATM   24  O3  UNL     1      -2.185   7.576  12.418  1.00  0.00    -0.381 OA
HETATM   25  H25 UNL     1      -2.150   8.440  12.867  1.00  0.00     0.211 HD
ENDBRANCH   3  24
ENDBRANCH   1   3
BRANCH   1  26
HETATM   26  C21 UNL     1      -0.596   8.123  14.932  1.00  0.00     0.260 C 
BRANCH  26  27
HETATM   27  O5  UNL     1       0.174   8.015  16.123  1.00  0.00    -0.314 OA
BRANCH  27  28
HETATM   28  C22 UNL     1       1.343   8.712  16.134  1.00  0.00     0.259 C 
HETATM   29  O6  UNL     1       1.456   9.896  16.419  1.00  0.00    -0.265 OA
BRANCH  28  30
HETATM   30  C23 UNL     1       2.470   7.815  15.681  1.00  0.00     0.120 C 
BRANCH  30  31
HETATM   31  C24 UNL     1       3.250   8.451  14.537  1.00  0.00     0.112 C 
BRANCH  31  32
HETATM   32  C25 UNL     1       2.580   8.197  13.202  1.00  0.00     0.218 C 
HETATM   33  O7  UNL     1       1.965   9.059  12.584  1.00  0.00    -0.274 OA
HETATM   34  N1  UNL     1       2.771   6.915  12.735  1.00  0.00    -0.360 N 
HETATM   35  H32 UNL     1       2.984   6.198  13.420  1.00  0.00     0.162 HD
BRANCH  34  36
HETATM   36  C26 UNL     1       2.135   6.465  11.505  1.00  0.00     0.142 C 
BRANCH  36  37
HETATM   37  C27 UNL     1       3.123   5.915  10.460  1.00  0.00     0.134 C 
BRANCH  37  38
HETATM   38  C28 UNL     1       4.551   6.353  10.758  1.00  0.00     0.150 C 
HETATM   39  O8  UNL     1       4.951   7.472  11.039  1.00  0.00    -0.649 OA
BRANCH  38  40
HETATM   40  O9  UNL     1       5.461   5.359  10.624  1.00  0.00    -0.776 OA
HETATM   41  H36 UNL     1       6.315   5.826  10.756  1.00  0.00     0.167 HD
ENDBRANCH  38  40
ENDBRANCH  37  38
BRANCH  37  42
HETATM   42  C29 UNL     1       2.643   6.316   9.067  1.00  0.00    -0.042 A 
HETATM   43  C30 UNL     1       1.979   7.543   8.895  1.00  0.00     0.008 A 
HETATM   44  C31 UNL     1       1.569   7.958   7.628  1.00  0.00     0.001 A 
HETATM   45  C32 UNL     1       1.822   7.160   6.515  1.00  0.00     0.000 A 
HETATM   46  C33 UNL     1       2.488   5.947   6.668  1.00  0.00     0.001 A 
HETATM   47  C34 UNL     1       2.902   5.529   7.935  1.00  0.00     0.008 A 
ENDBRANCH  37  42
ENDBRANCH  36  37
ENDBRANCH  34  36
ENDBRANCH  31  32
ENDBRANCH  30  31
ENDBRANCH  28  30
ENDBRANCH  27  28
ENDBRANCH  26  27
ENDBRANCH   1  26
TORSDOF 13
ENDMDL
MODEL 8
REMARK minimizedAffinity -9.99994659
REMARK CNNscore 0.26462248
REMARK CNNaffinity 7.14722967
REMARK  13 active torsions:
REMARK  status: ('A' for Active; 'I' for Inactive)
REMARK    1  A    between atoms: C19_21  and  O3_22 
REMARK    2  A    between atoms: C19_21  and  C20_23 
REMARK    3  A    between atoms: C20_23  and  C21_25 
REMARK    4  A    between atoms: C21_25  and  O5_26 
REMARK    5  A    between atoms: O5_26  and  C22_27 
REMARK    6  A    between atoms: C22_27  and  C23_29 
REMARK    7  A    between atoms: C23_29  and  C24_30 
REMARK    8  A    between atoms: C24_30  and  C25_31 
REMARK       I    between atoms: C25_31  and  N1_33 
REMARK    9  A    between atoms: N1_33  and  C26_34 
REMARK   10  A    between atoms: C26_34  and  C27_35 
REMARK   11  A    between atoms: C27_35  and  C28_36 
REMARK   12  A    between atoms: C27_35  and  C29_39 
REMARK   13  A    between atoms: C28_36  and  O9_38 
ROOT
HETATM    1  C20 UNL     1       0.532   7.283  13.132  1.00  0.00     0.185 C 
HETATM    2  O4  UNL     1       1.620   6.983  12.633  1.00  0.00    -0.292 OA
ENDROOT
BRANCH   1   3
HETATM    3  C19 UNL     1      -0.798   6.719  12.583  1.00  0.00     0.128 C 
HETATM    4  C14 UNL     1      -2.000   6.614  13.585  1.00  0.00     0.005 C 
HETATM    5  C13 UNL     1      -2.756   7.918  13.871  1.00  0.00     0.091 C 
HETATM    6  C15 UNL     1      -1.577   5.965  14.935  1.00  0.00     0.019 C 
HETATM    7  C16 UNL     1      -2.943   5.696  12.761  1.00  0.00     0.002 C 
HETATM    8  C12 UNL     1      -4.077   7.610  14.565  1.00  0.00     0.133 C 
HETATM    9  C11 UNL     1      -5.017   6.626  13.841  1.00  0.00     0.072 C 
HETATM   10  O2  UNL     1      -4.374   8.194  15.605  1.00  0.00    -0.297 OA
HETATM   11  C2  UNL     1      -6.400   6.366  14.540  1.00  0.00    -0.009 C 
HETATM   12  C10 UNL     1      -4.244   5.322  13.490  1.00  0.00     0.003 C 
HETATM   13  C1  UNL     1      -6.247   5.796  15.968  1.00  0.00     0.021 C 
HETATM   14  C3  UNL     1      -7.190   7.710  14.593  1.00  0.00     0.022 C 
HETATM   15  C7  UNL     1      -7.183   5.333  13.707  1.00  0.00    -0.067 C 
HETATM   16  C4  UNL     1      -8.682   7.542  14.839  1.00  0.00     0.084 C 
HETATM   17  C5  UNL     1      -9.278   6.637  13.796  1.00  0.00     0.149 C 
HETATM   18  O1  UNL     1     -10.416   6.785  13.360  1.00  0.00    -0.293 OA
HETATM   19  C6  UNL     1      -8.468   5.484  13.341  1.00  0.00     0.053 C 
HETATM   20  C8  UNL     1      -6.439   4.081  13.306  1.00  0.00     0.035 C 
HETATM   21  C9  UNL     1      -5.116   4.402  12.623  1.00  0.00     0.010 C 
HETATM   22  C17 UNL     1      -2.022   4.569  12.311  1.00  0.00     0.009 C 
HETATM   23  C18 UNL     1      -0.666   5.260  12.070  1.00  0.00     0.047 C 
BRANCH   3  24
HETATM   24  O3  UNL     1      -1.170   7.531  11.458  1.00  0.00    -0.381 OA
HETATM   25  H25 UNL     1      -1.226   8.458  11.754  1.00  0.00     0.211 HD
ENDBRANCH   3  24
ENDBRANCH   1   3
BRANCH   1  26
HETATM   26  C21 UNL     1       0.504   8.086  14.433  1.00  0.00     0.260 C 
BRANCH  26  27
HETATM   27  O5  UNL     1       1.723   8.765  14.711  1.00  0.00    -0.314 OA
BRANCH  27  28
HETATM   28  C22 UNL     1       2.365   8.381  15.848  1.00  0.00     0.259 C 
HETATM   29  O6  UNL     1       2.066   8.734  16.981  1.00  0.00    -0.265 OA
BRANCH  28  30
HETATM   30  C23 UNL     1       3.540   7.501  15.493  1.00  0.00     0.120 C 
BRANCH  30  31
HETATM   31  C24 UNL     1       4.823   8.315  15.391  1.00  0.00     0.112 C 
BRANCH  31  32
HETATM   32  C25 UNL     1       5.394   8.275  13.988  1.00  0.00     0.218 C 
HETATM   33  O7  UNL     1       6.596   8.248  13.752  1.00  0.00    -0.274 OA
HETATM   34  N1  UNL     1       4.425   8.226  13.010  1.00  0.00    -0.360 N 
HETATM   35  H32 UNL     1       3.504   8.580  13.249  1.00  0.00     0.162 HD
BRANCH  34  36
HETATM   36  C26 UNL     1       4.783   8.263  11.599  1.00  0.00     0.142 C 
BRANCH  36  37
HETATM   37  C27 UNL     1       4.654   6.902  10.890  1.00  0.00     0.134 C 
BRANCH  37  38
HETATM   38  C28 UNL     1       6.020   6.297  10.592  1.00  0.00     0.150 C 
HETATM   39  O8  UNL     1       7.099   6.867  10.541  1.00  0.00    -0.649 OA
BRANCH  38  40
HETATM   40  O9  UNL     1       5.975   4.977  10.295  1.00  0.00    -0.776 OA
HETATM   41  H36 UNL     1       6.904   4.777  10.044  1.00  0.00     0.167 HD
ENDBRANCH  38  40
ENDBRANCH  37  38
BRANCH  37  42
HETATM   42  C29 UNL     1       3.782   7.073   9.649  1.00  0.00    -0.042 A 
HETATM   43  C30 UNL     1       3.636   8.350   9.081  1.00  0.00     0.008 A 
HETATM   44  C31 UNL     1       2.883   8.530   7.920  1.00  0.00     0.001 A 
HETATM   45  C32 UNL     1       2.272   7.439   7.307  1.00  0.00     0.000 A 
HETATM   46  C33 UNL     1       2.416   6.166   7.852  1.00  0.00     0.001 A 
HETATM   47  C34 UNL     1       3.172   5.981   9.012  1.00  0.00     0.008 A 
ENDBRANCH  37  42
ENDBRANCH  36  37
ENDBRANCH  34  36
ENDBRANCH  31  32
ENDBRANCH  30  31
ENDBRANCH  28  30
ENDBRANCH  27  28
ENDBRANCH  26  27
ENDBRANCH   1  26
TORSDOF 13
ENDMDL
MODEL 9
REMARK minimizedAffinity -9.18924713
REMARK CNNscore 0.21485433
REMARK CNNaffinity 6.57483244
REMARK  13 active torsions:
REMARK  status: ('A' for Active; 'I' for Inactive)
REMARK    1  A    between atoms: C19_21  and  O3_22 
REMARK    2  A    between atoms: C19_21  and  C20_23 
REMARK    3  A    between atoms: C20_23  and  C21_25 
REMARK    4  A    between atoms: C21_25  and  O5_26 
REMARK    5  A    between atoms: O5_26  and  C22_27 
REMARK    6  A    between atoms: C22_27  and  C23_29 
REMARK    7  A    between atoms: C23_29  and  C24_30 
REMARK    8  A    between atoms: C24_30  and  C25_31 
REMARK       I    between atoms: C25_31  and  N1_33 
REMARK    9  A    between atoms: N1_33  and  C26_34 
REMARK   10  A    between atoms: C26_34  and  C27_35 
REMARK   11  A    between atoms: C27_35  and  C28_36 
REMARK   12  A    between atoms: C27_35  and  C29_39 
REMARK   13  A    between atoms: C28_36  and  O9_38 
ROOT
HETATM    1  C20 UNL     1      -0.501   9.112  13.766  1.00  0.00     0.185 C 
HETATM    2  O4  UNL     1      -0.613  10.271  14.172  1.00  0.00    -0.292 OA
ENDROOT
BRANCH   1   3
HETATM    3  C19 UNL     1      -1.696   8.342  13.160  1.00  0.00     0.128 C 
HETATM    4  C14 UNL     1      -2.916   8.054  14.102  1.00  0.00     0.005 C 
HETATM    5  C13 UNL     1      -3.881   9.223  14.335  1.00  0.00     0.091 C 
HETATM    6  C15 UNL     1      -2.465   7.486  15.479  1.00  0.00     0.019 C 
HETATM    7  C16 UNL     1      -3.659   6.994  13.244  1.00  0.00     0.002 C 
HETATM    8  C12 UNL     1      -5.171   8.713  14.966  1.00  0.00     0.133 C 
HETATM    9  C11 UNL     1      -5.906   7.590  14.209  1.00  0.00     0.072 C 
HETATM   10  O2  UNL     1      -5.608   9.248  15.983  1.00  0.00    -0.297 OA
HETATM   11  C2  UNL     1      -7.265   7.118  14.842  1.00  0.00    -0.009 C 
HETATM   12  C10 UNL     1      -4.921   6.423  13.913  1.00  0.00     0.003 C 
HETATM   13  C1  UNL     1      -7.096   6.586  16.283  1.00  0.00     0.021 C 
HETATM   14  C3  UNL     1      -8.258   8.321  14.840  1.00  0.00     0.022 C 
HETATM   15  C7  UNL     1      -7.832   5.971  13.985  1.00  0.00    -0.067 C 
HETATM   16  C4  UNL     1      -9.715   7.921  15.015  1.00  0.00     0.084 C 
HETATM   17  C5  UNL     1     -10.108   6.928  13.955  1.00  0.00     0.149 C 
HETATM   18  O1  UNL     1     -11.232   6.893  13.462  1.00  0.00    -0.293 OA
HETATM   19  C6  UNL     1      -9.105   5.916  13.554  1.00  0.00     0.053 C 
HETATM   20  C8  UNL     1      -6.881   4.851  13.637  1.00  0.00     0.035 C 
HETATM   21  C9  UNL     1      -5.592   5.374  13.015  1.00  0.00     0.010 C 
HETATM   22  C17 UNL     1      -2.552   6.025  12.854  1.00  0.00     0.009 C 
HETATM   23  C18 UNL     1      -1.311   6.921  12.671  1.00  0.00     0.047 C 
BRANCH   3  24
HETATM   24  O3  UNL     1      -2.134   9.080  12.007  1.00  0.00    -0.381 OA
HETATM   25  H25 UNL     1      -2.350   9.989  12.289  1.00  0.00     0.211 HD
ENDBRANCH   3  24
ENDBRANCH   1   3
BRANCH   1  26
HETATM   26  C21 UNL     1       0.889   8.479  13.691  1.00  0.00     0.260 C 
BRANCH  26  27
HETATM   27  O5  UNL     1       1.815   9.025  14.623  1.00  0.00    -0.314 OA
BRANCH  27  28
HETATM   28  C22 UNL     1       2.953   8.302  14.814  1.00  0.00     0.259 C 
HETATM   29  O6  UNL     1       3.051   7.318  15.534  1.00  0.00    -0.265 OA
BRANCH  28  30
HETATM   30  C23 UNL     1       4.090   8.938  14.051  1.00  0.00     0.120 C 
BRANCH  30  31
HETATM   31  C24 UNL     1       4.879   7.893  13.273  1.00  0.00     0.112 C 
BRANCH  31  32
HETATM   32  C25 UNL     1       4.718   8.077  11.778  1.00  0.00     0.218 C 
HETATM   33  O7  UNL     1       5.259   8.979  11.149  1.00  0.00    -0.274 OA
HETATM   34  N1  UNL     1       3.938   7.103  11.193  1.00  0.00    -0.360 N 
HETATM   35  H32 UNL     1       3.278   6.616  11.790  1.00  0.00     0.162 HD
BRANCH  34  36
HETATM   36  C26 UNL     1       3.606   7.161   9.777  1.00  0.00     0.142 C 
BRANCH  36  37
HETATM   37  C27 UNL     1       2.552   6.126   9.342  1.00  0.00     0.134 C 
BRANCH  37  38
HETATM   38  C28 UNL     1       1.758   5.605  10.534  1.00  0.00     0.150 C 
HETATM   39  O8  UNL     1       0.577   5.295  10.572  1.00  0.00    -0.649 OA
BRANCH  38  40
HETATM   40  O9  UNL     1       2.475   5.555  11.682  1.00  0.00    -0.776 OA
HETATM   41  H36 UNL     1       1.801   5.295  12.348  1.00  0.00     0.167 HD
ENDBRANCH  38  40
ENDBRANCH  37  38
BRANCH  37  42
HETATM   42  C29 UNL     1       3.241   5.024   8.543  1.00  0.00    -0.042 A 
HETATM   43  C30 UNL     1       3.045   4.957   7.153  1.00  0.00     0.008 A 
HETATM   44  C31 UNL     1       3.698   3.990   6.388  1.00  0.00     0.001 A 
HETATM   45  C32 UNL     1       4.559   3.081   6.997  1.00  0.00     0.000 A 
HETATM   46  C33 UNL     1       4.771   3.141   8.372  1.00  0.00     0.001 A 
HETATM   47  C34 UNL     1       4.123   4.110   9.140  1.00  0.00     0.008 A 
ENDBRANCH  37  42
ENDBRANCH  36  37
ENDBRANCH  34  36
ENDBRANCH  31  32
ENDBRANCH  30  31
ENDBRANCH  28  30
ENDBRANCH  27  28
ENDBRANCH  26  27
ENDBRANCH   1  26
TORSDOF 13
ENDMDL
