MODEL 1
REMARK minimizedAffinity -6.41054296
REMARK CNNscore 0.496300846
REMARK CNNaffinity 6.83179426
REMARK  10 active torsions:
REMARK  status: ('A' for Active; 'I' for Inactive)
REMARK    1  A    between atoms: C12_14  and  C13_15 
REMARK    2  A    between atoms: C13_15  and  C15_17 
REMARK    3  A    between atoms: C15_17  and  C16_18 
REMARK    4  A    between atoms: C16_18  and  C17_19 
REMARK    5  A    between atoms: C18_20  and  C20_22 
REMARK    6  A    between atoms: C20_22  and  O3_23 
REMARK    7  A    between atoms: C26_29  and  C27_30 
REMARK    8  A    between atoms: C27_30  and  C28_31 
REMARK    9  A    between atoms: C28_31  and  C29_32 
REMARK   10  A    between atoms: C29_32  and  O5_34 
ROOT
HETATM    1  C1  UNL     1      -2.980  51.556 -10.484  1.00  0.00     0.025 C 
HETATM    2  C2  UNL     1      -2.455  52.771 -10.683  1.00  0.00     0.015 C 
HETATM    3  C3  UNL     1      -3.259  53.994 -10.437  1.00  0.00     0.289 C 
HETATM    4  O1  UNL     1      -4.465  54.054 -10.292  1.00  0.00    -0.260 OA
HETATM    5  O2  UNL     1      -2.400  55.053 -10.439  1.00  0.00    -0.311 OA
HETATM    6  C4  UNL     1      -1.039  54.578 -10.456  1.00  0.00     0.142 C 
HETATM    7  C5  UNL     1      -0.512  54.567  -9.028  1.00  0.00     0.039 C 
HETATM    8  C6  UNL     1       0.891  53.967  -8.849  1.00  0.00     0.006 C 
HETATM    9  C7  UNL     1       1.151  52.699  -9.714  1.00  0.00    -0.027 A 
HETATM   10  C8  UNL     1       2.603  52.163  -9.633  1.00  0.00     0.011 C 
HETATM   11  C9  UNL     1       3.727  53.212  -9.578  1.00  0.00     0.011 C 
HETATM   12  C10 UNL     1       3.413  54.317  -8.562  1.00  0.00    -0.032 C 
HETATM   13  C11 UNL     1       3.373  53.680  -7.142  1.00  0.00     0.016 C 
HETATM   14  C12 UNL     1       4.386  55.538  -8.561  1.00  0.00    -0.002 C 
HETATM   15  C21 UNL     1       3.510  56.693  -8.011  1.00  0.00     0.006 C 
HETATM   16  C22 UNL     1       2.039  56.224  -8.093  1.00  0.00     0.011 C 
HETATM   17  C23 UNL     1       2.059  54.990  -9.017  1.00  0.00    -0.032 C 
HETATM   18  C24 UNL     1       2.072  55.529 -10.483  1.00  0.00     0.016 C 
HETATM   19  C25 UNL     1       0.173  51.553  -9.577  1.00  0.00     0.022 A 
HETATM   20  C26 UNL     1       0.141  52.337 -10.866  1.00  0.00    -0.021 A 
HETATM   21  C31 UNL     1      -1.093  53.212 -11.116  1.00  0.00     0.063 C 
ENDROOT
BRANCH  14  22
HETATM   22  C13 UNL     1       5.812  55.389  -7.935  1.00  0.00    -0.014 C 
HETATM   23  C14 UNL     1       6.794  55.005  -9.059  1.00  0.00     0.010 C 
BRANCH  22  24
HETATM   24  C15 UNL     1       6.342  56.640  -7.191  1.00  0.00     0.008 C 
BRANCH  24  25
HETATM   25  C16 UNL     1       6.536  56.461  -5.677  1.00  0.00     0.028 C 
BRANCH  25  26
HETATM   26  C17 UNL     1       6.171  57.654  -4.839  1.00  0.00    -0.022 C 
HETATM   27  C18 UNL     1       6.962  58.708  -4.544  1.00  0.00    -0.064 C 
HETATM   28  C19 UNL     1       8.405  58.832  -4.946  1.00  0.00     0.045 C 
BRANCH  27  29
HETATM   29  C20 UNL     1       6.441  59.865  -3.730  1.00  0.00     0.197 C 
BRANCH  29  30
HETATM   30  O3  UNL     1       5.041  59.979  -3.934  1.00  0.00    -0.397 OA
HETATM   31  H29 UNL     1       4.669  59.094  -3.778  1.00  0.00     0.209 HD
ENDBRANCH  29  30
ENDBRANCH  27  29
ENDBRANCH  25  26
ENDBRANCH  24  25
ENDBRANCH  22  24
ENDBRANCH  14  22
BRANCH  20  32
HETATM   32  C27 UNL     1       0.700  51.714 -12.157  1.00  0.00     0.021 C 
BRANCH  32  33
HETATM   33  C28 UNL     1       0.388  52.490 -13.439  1.00  0.00     0.112 C 
BRANCH  33  34
HETATM   34  C29 UNL     1       0.853  51.843 -14.720  1.00  0.00     0.258 C 
HETATM   35  O4  UNL     1       0.109  51.220 -15.472  1.00  0.00    -0.265 OA
BRANCH  34  36
HETATM   36  O5  UNL     1       2.190  51.990 -14.906  1.00  0.00    -0.326 OA
HETATM   37  C30 UNL     1       2.550  52.390 -16.228  1.00  0.00     0.213 C 
ENDBRANCH  34  36
ENDBRANCH  33  34
ENDBRANCH  32  33
ENDBRANCH  20  32
TORSDOF 10
ENDMDL
MODEL 2
REMARK minimizedAffinity -6.6334796
REMARK CNNscore 0.322506905
REMARK CNNaffinity 6.6855588
REMARK  10 active torsions:
REMARK  status: ('A' for Active; 'I' for Inactive)
REMARK    1  A    between atoms: C12_14  and  C13_15 
REMARK    2  A    between atoms: C13_15  and  C15_17 
REMARK    3  A    between atoms: C15_17  and  C16_18 
REMARK    4  A    between atoms: C16_18  and  C17_19 
REMARK    5  A    between atoms: C18_20  and  C20_22 
REMARK    6  A    between atoms: C20_22  and  O3_23 
REMARK    7  A    between atoms: C26_29  and  C27_30 
REMARK    8  A    between atoms: C27_30  and  C28_31 
REMARK    9  A    between atoms: C28_31  and  C29_32 
REMARK   10  A    between atoms: C29_32  and  O5_34 
ROOT
HETATM    1  C1  UNL     1      -3.649  49.041 -11.984  1.00  0.00     0.025 C 
HETATM    2  C2  UNL     1      -3.809  50.305 -11.577  1.00  0.00     0.015 C 
HETATM    3  C3  UNL     1      -4.883  50.663 -10.616  1.00  0.00     0.289 C 
HETATM    4  O1  UNL     1      -5.836  49.975 -10.303  1.00  0.00    -0.260 OA
HETATM    5  O2  UNL     1      -4.627  51.926 -10.171  1.00  0.00    -0.311 OA
HETATM    6  C4  UNL     1      -3.323  52.346 -10.617  1.00  0.00     0.142 C 
HETATM    7  C5  UNL     1      -2.323  52.096  -9.496  1.00  0.00     0.039 C 
HETATM    8  C6  UNL     1      -0.854  52.373  -9.850  1.00  0.00     0.006 C 
HETATM    9  C7  UNL     1      -0.450  51.911 -11.281  1.00  0.00    -0.027 A 
HETATM   10  C8  UNL     1       0.993  52.301 -11.690  1.00  0.00     0.011 C 
HETATM   11  C9  UNL     1       1.493  53.684 -11.237  1.00  0.00     0.011 C 
HETATM   12  C10 UNL     1       1.172  53.938  -9.759  1.00  0.00    -0.032 C 
HETATM   13  C11 UNL     1       1.968  52.911  -8.901  1.00  0.00     0.016 C 
HETATM   14  C12 UNL     1       1.455  55.384  -9.240  1.00  0.00    -0.002 C 
HETATM   15  C21 UNL     1       0.471  55.535  -8.052  1.00  0.00     0.006 C 
HETATM   16  C22 UNL     1      -0.566  54.396  -8.174  1.00  0.00     0.011 C 
HETATM   17  C23 UNL     1      -0.395  53.846  -9.604  1.00  0.00    -0.032 C 
HETATM   18  C24 UNL     1      -1.191  54.803 -10.548  1.00  0.00     0.016 C 
HETATM   19  C25 UNL     1      -0.714  50.466 -11.643  1.00  0.00     0.022 A 
HETATM   20  C26 UNL     1      -1.578  51.512 -12.304  1.00  0.00    -0.021 A 
HETATM   21  C31 UNL     1      -3.053  51.558 -11.886  1.00  0.00     0.063 C 
ENDROOT
BRANCH  14  22
HETATM   22  C13 UNL     1       2.930  55.838  -8.984  1.00  0.00    -0.014 C 
HETATM   23  C14 UNL     1       3.483  56.439 -10.291  1.00  0.00     0.010 C 
BRANCH  22  24
HETATM   24  C15 UNL     1       3.118  56.853  -7.829  1.00  0.00     0.008 C 
BRANCH  24  25
HETATM   25  C16 UNL     1       4.499  57.523  -7.772  1.00  0.00     0.028 C 
BRANCH  25  26
HETATM   26  C17 UNL     1       5.509  56.837  -6.895  1.00  0.00    -0.022 C 
HETATM   27  C18 UNL     1       6.433  55.931  -7.281  1.00  0.00    -0.064 C 
HETATM   28  C19 UNL     1       6.561  55.382  -8.675  1.00  0.00     0.045 C 
BRANCH  27  29
HETATM   29  C20 UNL     1       7.421  55.361  -6.295  1.00  0.00     0.197 C 
BRANCH  29  30
HETATM   30  O3  UNL     1       8.182  56.422  -5.740  1.00  0.00    -0.397 OA
HETATM   31  H29 UNL     1       7.542  57.086  -5.428  1.00  0.00     0.209 HD
ENDBRANCH  29  30
ENDBRANCH  27  29
ENDBRANCH  25  26
ENDBRANCH  24  25
ENDBRANCH  22  24
ENDBRANCH  14  22
BRANCH  20  32
HETATM   32  C27 UNL     1      -1.370  51.853 -13.790  1.00  0.00     0.021 C 
BRANCH  32  33
HETATM   33  C28 UNL     1      -1.176  50.646 -14.711  1.00  0.00     0.112 C 
BRANCH  33  34
HETATM   34  C29 UNL     1       0.201  50.500 -15.310  1.00  0.00     0.258 C 
HETATM   35  O4  UNL     1       1.052  49.732 -14.871  1.00  0.00    -0.265 OA
BRANCH  34  36
HETATM   36  O5  UNL     1       0.393  51.352 -16.350  1.00  0.00    -0.326 OA
HETATM   37  C30 UNL     1       1.426  52.311 -16.130  1.00  0.00     0.213 C 
ENDBRANCH  34  36
ENDBRANCH  33  34
ENDBRANCH  32  33
ENDBRANCH  20  32
TORSDOF 10
ENDMDL
MODEL 3
REMARK minimizedAffinity -6.40563726
REMARK CNNscore 0.320140362
REMARK CNNaffinity 5.86786985
REMARK  10 active torsions:
REMARK  status: ('A' for Active; 'I' for Inactive)
REMARK    1  A    between atoms: C12_14  and  C13_15 
REMARK    2  A    between atoms: C13_15  and  C15_17 
REMARK    3  A    between atoms: C15_17  and  C16_18 
REMARK    4  A    between atoms: C16_18  and  C17_19 
REMARK    5  A    between atoms: C18_20  and  C20_22 
REMARK    6  A    between atoms: C20_22  and  O3_23 
REMARK    7  A    between atoms: C26_29  and  C27_30 
REMARK    8  A    between atoms: C27_30  and  C28_31 
REMARK    9  A    between atoms: C28_31  and  C29_32 
REMARK   10  A    between atoms: C29_32  and  O5_34 
ROOT
HETATM    1  C1  UNL     1     -19.384  44.716 -21.587  1.00  0.00     0.025 C 
HETATM    2  C2  UNL     1     -18.755  45.732 -20.985  1.00  0.00     0.015 C 
HETATM    3  C3  UNL     1     -19.163  46.180 -19.630  1.00  0.00     0.289 C 
HETATM    4  O1  UNL     1     -20.192  45.892 -19.049  1.00  0.00    -0.260 OA
HETATM    5  O2  UNL     1     -18.186  47.010 -19.164  1.00  0.00    -0.311 OA
HETATM    6  C4  UNL     1     -17.047  46.966 -20.046  1.00  0.00     0.142 C 
HETATM    7  C5  UNL     1     -16.032  45.982 -19.478  1.00  0.00     0.039 C 
HETATM    8  C6  UNL     1     -14.804  45.718 -20.363  1.00  0.00     0.006 C 
HETATM    9  C7  UNL     1     -15.131  45.609 -21.881  1.00  0.00    -0.027 A 
HETATM   10  C8  UNL     1     -13.884  45.469 -22.790  1.00  0.00     0.011 C 
HETATM   11  C9  UNL     1     -12.647  46.297 -22.401  1.00  0.00     0.011 C 
HETATM   12  C10 UNL     1     -12.343  46.180 -20.903  1.00  0.00    -0.032 C 
HETATM   13  C11 UNL     1     -11.964  44.702 -20.593  1.00  0.00     0.016 C 
HETATM   14  C12 UNL     1     -11.231  47.131 -20.357  1.00  0.00    -0.002 C 
HETATM   15  C21 UNL     1     -11.603  47.294 -18.861  1.00  0.00     0.006 C 
HETATM   16  C22 UNL     1     -13.056  46.793 -18.699  1.00  0.00     0.011 C 
HETATM   17  C23 UNL     1     -13.616  46.705 -20.132  1.00  0.00    -0.032 C 
HETATM   18  C24 UNL     1     -14.056  48.151 -20.528  1.00  0.00     0.016 C 
HETATM   19  C25 UNL     1     -16.182  44.601 -22.294  1.00  0.00     0.022 A 
HETATM   20  C26 UNL     1     -16.549  46.061 -22.395  1.00  0.00    -0.021 A 
HETATM   21  C31 UNL     1     -17.599  46.583 -21.406  1.00  0.00     0.063 C 
ENDROOT
BRANCH  14  22
HETATM   22  C13 UNL     1      -9.729  46.823 -20.670  1.00  0.00    -0.014 C 
HETATM   23  C14 UNL     1      -9.522  46.932 -22.194  1.00  0.00     0.010 C 
BRANCH  22  24
HETATM   24  C15 UNL     1      -8.703  47.727 -19.943  1.00  0.00     0.008 C 
BRANCH  24  25
HETATM   25  C16 UNL     1      -7.231  47.423 -20.259  1.00  0.00     0.028 C 
BRANCH  25  26
HETATM   26  C17 UNL     1      -6.275  48.556 -20.011  1.00  0.00    -0.022 C 
HETATM   27  C18 UNL     1      -6.020  49.594 -20.837  1.00  0.00    -0.064 C 
HETATM   28  C19 UNL     1      -6.602  49.754 -22.213  1.00  0.00     0.045 C 
BRANCH  27  29
HETATM   29  C20 UNL     1      -5.069  50.692 -20.432  1.00  0.00     0.197 C 
BRANCH  29  30
HETATM   30  O3  UNL     1      -5.183  51.763 -21.357  1.00  0.00    -0.397 OA
HETATM   31  H29 UNL     1      -6.132  51.968 -21.423  1.00  0.00     0.209 HD
ENDBRANCH  29  30
ENDBRANCH  27  29
ENDBRANCH  25  26
ENDBRANCH  24  25
ENDBRANCH  22  24
ENDBRANCH  14  22
BRANCH  20  32
HETATM   32  C27 UNL     1     -16.644  46.735 -23.775  1.00  0.00     0.021 C 
BRANCH  32  33
HETATM   33  C28 UNL     1     -17.429  45.948 -24.827  1.00  0.00     0.112 C 
BRANCH  33  34
HETATM   34  C29 UNL     1     -18.872  46.354 -25.001  1.00  0.00     0.258 C 
HETATM   35  O4  UNL     1     -19.275  47.502 -24.839  1.00  0.00    -0.265 OA
BRANCH  34  36
HETATM   36  O5  UNL     1     -19.664  45.293 -25.304  1.00  0.00    -0.326 OA
HETATM   37  C30 UNL     1     -19.428  44.747 -26.601  1.00  0.00     0.213 C 
ENDBRANCH  34  36
ENDBRANCH  33  34
ENDBRANCH  32  33
ENDBRANCH  20  32
TORSDOF 10
ENDMDL
MODEL 4
REMARK minimizedAffinity -7.26577663
REMARK CNNscore 0.319096625
REMARK CNNaffinity 5.8675313
REMARK  10 active torsions:
REMARK  status: ('A' for Active; 'I' for Inactive)
REMARK    1  A    between atoms: C12_14  and  C13_15 
REMARK    2  A    between atoms: C13_15  and  C15_17 
REMARK    3  A    between atoms: C15_17  and  C16_18 
REMARK    4  A    between atoms: C16_18  and  C17_19 
REMARK    5  A    between atoms: C18_20  and  C20_22 
REMARK    6  A    between atoms: C20_22  and  O3_23 
REMARK    7  A    between atoms: C26_29  and  C27_30 
REMARK    8  A    between atoms: C27_30  and  C28_31 
REMARK    9  A    between atoms: C28_31  and  C29_32 
REMARK   10  A    between atoms: C29_32  and  O5_34 
ROOT
HETATM    1  C1  UNL     1      -5.224  48.504 -31.136  1.00  0.00     0.025 C 
HETATM    2  C2  UNL     1      -5.609  47.895 -30.007  1.00  0.00     0.015 C 
HETATM    3  C3  UNL     1      -5.039  48.297 -28.697  1.00  0.00     0.289 C 
HETATM    4  O1  UNL     1      -4.050  48.980 -28.514  1.00  0.00    -0.260 OA
HETATM    5  O2  UNL     1      -5.809  47.727 -27.726  1.00  0.00    -0.311 OA
HETATM    6  C4  UNL     1      -6.988  47.147 -28.317  1.00  0.00     0.142 C 
HETATM    7  C5  UNL     1      -8.134  48.142 -28.189  1.00  0.00     0.039 C 
HETATM    8  C6  UNL     1      -9.443  47.732 -28.881  1.00  0.00     0.006 C 
HETATM    9  C7  UNL     1      -9.239  47.055 -30.268  1.00  0.00    -0.027 A 
HETATM   10  C8  UNL     1     -10.544  46.526 -30.914  1.00  0.00     0.011 C 
HETATM   11  C9  UNL     1     -11.574  45.882 -29.969  1.00  0.00     0.011 C 
HETATM   12  C10 UNL     1     -11.800  46.741 -28.719  1.00  0.00    -0.032 C 
HETATM   13  C11 UNL     1     -12.433  48.093 -29.161  1.00  0.00     0.016 C 
HETATM   14  C12 UNL     1     -12.674  46.096 -27.598  1.00  0.00    -0.002 C 
HETATM   15  C21 UNL     1     -12.185  46.806 -26.310  1.00  0.00     0.006 C 
HETATM   16  C22 UNL     1     -10.846  47.498 -26.655  1.00  0.00     0.011 C 
HETATM   17  C23 UNL     1     -10.404  46.878 -27.995  1.00  0.00    -0.032 C 
HETATM   18  C24 UNL     1      -9.723  45.515 -27.652  1.00  0.00     0.016 C 
HETATM   19  C25 UNL     1      -8.427  47.811 -31.297  1.00  0.00     0.022 A 
HETATM   20  C26 UNL     1      -7.796  46.584 -30.686  1.00  0.00    -0.021 A 
HETATM   21  C31 UNL     1      -6.606  46.811 -29.746  1.00  0.00     0.063 C 
ENDROOT
BRANCH  14  22
HETATM   22  C13 UNL     1     -14.223  45.993 -27.789  1.00  0.00    -0.014 C 
HETATM   23  C14 UNL     1     -14.546  44.603 -28.372  1.00  0.00     0.010 C 
BRANCH  22  24
HETATM   24  C15 UNL     1     -15.064  46.224 -26.509  1.00  0.00     0.008 C 
BRANCH  24  25
HETATM   25  C16 UNL     1     -15.852  44.998 -26.020  1.00  0.00     0.028 C 
BRANCH  25  26
HETATM   26  C17 UNL     1     -17.148  45.306 -25.324  1.00  0.00    -0.022 C 
HETATM   27  C18 UNL     1     -18.392  45.158 -25.828  1.00  0.00    -0.064 C 
HETATM   28  C19 UNL     1     -18.698  44.725 -27.235  1.00  0.00     0.045 C 
BRANCH  27  29
HETATM   29  C20 UNL     1     -19.609  45.460 -24.992  1.00  0.00     0.197 C 
BRANCH  29  30
HETATM   30  O3  UNL     1     -19.913  46.842 -25.103  1.00  0.00    -0.397 OA
HETATM   31  H29 UNL     1     -19.940  47.041 -26.055  1.00  0.00     0.209 HD
ENDBRANCH  29  30
ENDBRANCH  27  29
ENDBRANCH  25  26
ENDBRANCH  24  25
ENDBRANCH  22  24
ENDBRANCH  14  22
BRANCH  20  32
HETATM   32  C27 UNL     1      -7.660  45.297 -31.518  1.00  0.00     0.021 C 
BRANCH  32  33
HETATM   33  C28 UNL     1      -6.614  45.353 -32.634  1.00  0.00     0.112 C 
BRANCH  33  34
HETATM   34  C29 UNL     1      -5.312  44.651 -32.341  1.00  0.00     0.258 C 
HETATM   35  O4  UNL     1      -4.275  45.242 -32.055  1.00  0.00    -0.265 OA
BRANCH  34  36
HETATM   36  O5  UNL     1      -5.419  43.305 -32.484  1.00  0.00    -0.326 OA
HETATM   37  C30 UNL     1      -4.190  42.658 -32.814  1.00  0.00     0.213 C 
ENDBRANCH  34  36
ENDBRANCH  33  34
ENDBRANCH  32  33
ENDBRANCH  20  32
TORSDOF 10
ENDMDL
MODEL 5
REMARK minimizedAffinity -7.41851091
REMARK CNNscore 0.315107703
REMARK CNNaffinity 6.54680967
REMARK  10 active torsions:
REMARK  status: ('A' for Active; 'I' for Inactive)
REMARK    1  A    between atoms: C12_14  and  C13_15 
REMARK    2  A    between atoms: C13_15  and  C15_17 
REMARK    3  A    between atoms: C15_17  and  C16_18 
REMARK    4  A    between atoms: C16_18  and  C17_19 
REMARK    5  A    between atoms: C18_20  and  C20_22 
REMARK    6  A    between atoms: C20_22  and  O3_23 
REMARK    7  A    between atoms: C26_29  and  C27_30 
REMARK    8  A    between atoms: C27_30  and  C28_31 
REMARK    9  A    between atoms: C28_31  and  C29_32 
REMARK   10  A    between atoms: C29_32  and  O5_34 
ROOT
HETATM    1  C1  UNL     1       0.602  52.042 -25.553  1.00  0.00     0.025 C 
HETATM    2  C2  UNL     1      -0.675  52.428 -25.456  1.00  0.00     0.015 C 
HETATM    3  C3  UNL     1      -1.447  52.807 -26.666  1.00  0.00     0.289 C 
HETATM    4  O1  UNL     1      -0.995  53.052 -27.768  1.00  0.00    -0.260 OA
HETATM    5  O2  UNL     1      -2.761  52.869 -26.308  1.00  0.00    -0.311 OA
HETATM    6  C4  UNL     1      -2.931  52.339 -24.979  1.00  0.00     0.142 C 
HETATM    7  C5  UNL     1      -3.363  50.882 -25.089  1.00  0.00     0.039 C 
HETATM    8  C6  UNL     1      -3.468  50.125 -23.757  1.00  0.00     0.006 C 
HETATM    9  C7  UNL     1      -2.329  50.455 -22.749  1.00  0.00    -0.027 A 
HETATM   10  C8  UNL     1      -2.499  49.792 -21.359  1.00  0.00     0.011 C 
HETATM   11  C9  UNL     1      -3.928  49.720 -20.795  1.00  0.00     0.011 C 
HETATM   12  C10 UNL     1      -4.922  49.220 -21.851  1.00  0.00    -0.032 C 
HETATM   13  C11 UNL     1      -4.549  47.753 -22.220  1.00  0.00     0.016 C 
HETATM   14  C12 UNL     1      -6.430  49.292 -21.455  1.00  0.00    -0.002 C 
HETATM   15  C21 UNL     1      -7.154  49.397 -22.822  1.00  0.00     0.006 C 
HETATM   16  C22 UNL     1      -6.084  49.769 -23.873  1.00  0.00     0.011 C 
HETATM   17  C23 UNL     1      -4.861  50.234 -23.059  1.00  0.00    -0.032 C 
HETATM   18  C24 UNL     1      -5.129  51.721 -22.662  1.00  0.00     0.016 C 
HETATM   19  C25 UNL     1      -0.905  50.281 -23.230  1.00  0.00     0.022 A 
HETATM   20  C26 UNL     1      -1.397  51.693 -23.026  1.00  0.00    -0.021 A 
HETATM   21  C31 UNL     1      -1.598  52.547 -24.284  1.00  0.00     0.063 C 
ENDROOT
BRANCH  14  22
HETATM   22  C13 UNL     1      -7.013  48.256 -20.438  1.00  0.00    -0.014 C 
HETATM   23  C14 UNL     1      -7.908  49.014 -19.437  1.00  0.00     0.010 C 
BRANCH  22  24
HETATM   24  C15 UNL     1      -7.815  47.090 -21.068  1.00  0.00     0.008 C 
BRANCH  24  25
HETATM   25  C16 UNL     1      -9.340  47.274 -21.063  1.00  0.00     0.028 C 
BRANCH  25  26
HETATM   26  C17 UNL     1     -10.033  46.909 -22.346  1.00  0.00    -0.022 C 
HETATM   27  C18 UNL     1     -11.279  46.406 -22.478  1.00  0.00    -0.064 C 
HETATM   28  C19 UNL     1     -12.178  46.040 -21.330  1.00  0.00     0.045 C 
BRANCH  27  29
HETATM   29  C20 UNL     1     -11.867  46.134 -23.839  1.00  0.00     0.197 C 
BRANCH  29  30
HETATM   30  O3  UNL     1     -11.842  47.333 -24.599  1.00  0.00    -0.397 OA
HETATM   31  H29 UNL     1     -10.933  47.674 -24.543  1.00  0.00     0.209 HD
ENDBRANCH  29  30
ENDBRANCH  27  29
ENDBRANCH  25  26
ENDBRANCH  24  25
ENDBRANCH  22  24
ENDBRANCH  14  22
BRANCH  20  32
HETATM   32  C27 UNL     1      -0.896  52.514 -21.824  1.00  0.00     0.021 C 
BRANCH  32  33
HETATM   33  C28 UNL     1       0.621  52.503 -21.619  1.00  0.00     0.112 C 
BRANCH  33  34
HETATM   34  C29 UNL     1       1.136  53.415 -20.534  1.00  0.00     0.258 C 
HETATM   35  O4  UNL     1       0.992  53.190 -19.336  1.00  0.00    -0.265 OA
BRANCH  34  36
HETATM   36  O5  UNL     1       1.726  54.527 -21.044  1.00  0.00    -0.326 OA
HETATM   37  C30 UNL     1       1.498  54.713 -22.441  1.00  0.00     0.213 C 
ENDBRANCH  34  36
ENDBRANCH  33  34
ENDBRANCH  32  33
ENDBRANCH  20  32
TORSDOF 10
ENDMDL
MODEL 6
REMARK minimizedAffinity -8.2272625
REMARK CNNscore 0.290458441
REMARK CNNaffinity 6.93523788
REMARK  10 active torsions:
REMARK  status: ('A' for Active; 'I' for Inactive)
REMARK    1  A    between atoms: C12_14  and  C13_15 
REMARK    2  A    between atoms: C13_15  and  C15_17 
REMARK    3  A    between atoms: C15_17  and  C16_18 
REMARK    4  A    between atoms: C16_18  and  C17_19 
REMARK    5  A    between atoms: C18_20  and  C20_22 
REMARK    6  A    between atoms: C20_22  and  O3_23 
REMARK    7  A    between atoms: C26_29  and  C27_30 
REMARK    8  A    between atoms: C27_30  and  C28_31 
REMARK    9  A    between atoms: C28_31  and  C29_32 
REMARK   10  A    between atoms: C29_32  and  O5_34 
ROOT
HETATM    1  C1  UNL     1      -5.239  47.844 -26.911  1.00  0.00     0.025 C 
HETATM    2  C2  UNL     1      -5.827  48.189 -25.759  1.00  0.00     0.015 C 
HETATM    3  C3  UNL     1      -6.997  47.432 -25.249  1.00  0.00     0.289 C 
HETATM    4  O1  UNL     1      -7.680  46.643 -25.872  1.00  0.00    -0.260 OA
HETATM    5  O2  UNL     1      -7.195  47.812 -23.954  1.00  0.00    -0.311 OA
HETATM    6  C4  UNL     1      -6.087  48.618 -23.507  1.00  0.00     0.142 C 
HETATM    7  C5  UNL     1      -5.108  47.723 -22.757  1.00  0.00     0.039 C 
HETATM    8  C6  UNL     1      -3.801  48.401 -22.318  1.00  0.00     0.006 C 
HETATM    9  C7  UNL     1      -3.207  49.377 -23.376  1.00  0.00    -0.027 A 
HETATM   10  C8  UNL     1      -1.960  50.158 -22.890  1.00  0.00     0.011 C 
HETATM   11  C9  UNL     1      -1.968  50.636 -21.428  1.00  0.00     0.011 C 
HETATM   12  C10 UNL     1      -2.416  49.521 -20.476  1.00  0.00    -0.032 C 
HETATM   13  C11 UNL     1      -1.360  48.377 -20.530  1.00  0.00     0.016 C 
HETATM   14  C12 UNL     1      -2.651  49.946 -18.992  1.00  0.00    -0.002 C 
HETATM   15  C21 UNL     1      -3.678  48.903 -18.481  1.00  0.00     0.006 C 
HETATM   16  C22 UNL     1      -4.272  48.204 -19.725  1.00  0.00     0.011 C 
HETATM   17  C23 UNL     1      -3.869  49.092 -20.918  1.00  0.00    -0.032 C 
HETATM   18  C24 UNL     1      -4.897  50.267 -20.967  1.00  0.00     0.016 C 
HETATM   19  C25 UNL     1      -2.961  48.828 -24.764  1.00  0.00     0.022 A 
HETATM   20  C26 UNL     1      -4.095  49.809 -24.602  1.00  0.00    -0.021 A 
HETATM   21  C31 UNL     1      -5.518  49.258 -24.760  1.00  0.00     0.063 C 
ENDROOT
BRANCH  14  22
HETATM   22  C13 UNL     1      -1.423  50.225 -18.064  1.00  0.00    -0.014 C 
HETATM   23  C14 UNL     1      -0.896  48.872 -17.543  1.00  0.00     0.010 C 
BRANCH  22  24
HETATM   24  C15 UNL     1      -0.263  51.012 -18.721  1.00  0.00     0.008 C 
BRANCH  24  25
HETATM   25  C16 UNL     1      -0.583  52.476 -19.062  1.00  0.00     0.028 C 
BRANCH  25  26
HETATM   26  C17 UNL     1       0.583  53.289 -19.551  1.00  0.00    -0.022 C 
HETATM   27  C18 UNL     1       0.965  53.464 -20.835  1.00  0.00    -0.064 C 
HETATM   28  C19 UNL     1       0.322  52.792 -22.016  1.00  0.00     0.045 C 
BRANCH  27  29
HETATM   29  C20 UNL     1       2.131  54.354 -21.183  1.00  0.00     0.197 C 
BRANCH  29  30
HETATM   30  O3  UNL     1       1.804  55.108 -22.341  1.00  0.00    -0.397 OA
HETATM   31  H29 UNL     1       0.939  55.518 -22.165  1.00  0.00     0.209 HD
ENDBRANCH  29  30
ENDBRANCH  27  29
ENDBRANCH  25  26
ENDBRANCH  24  25
ENDBRANCH  22  24
ENDBRANCH  14  22
BRANCH  20  32
HETATM   32  C27 UNL     1      -3.950  51.244 -25.138  1.00  0.00     0.021 C 
BRANCH  32  33
HETATM   33  C28 UNL     1      -3.104  51.381 -26.406  1.00  0.00     0.112 C 
BRANCH  33  34
HETATM   34  C29 UNL     1      -1.709  51.917 -26.202  1.00  0.00     0.258 C 
HETATM   35  O4  UNL     1      -1.473  53.053 -25.800  1.00  0.00    -0.265 OA
BRANCH  34  36
HETATM   36  O5  UNL     1      -0.761  51.014 -26.565  1.00  0.00    -0.326 OA
HETATM   37  C30 UNL     1       0.571  51.414 -26.247  1.00  0.00     0.213 C 
ENDBRANCH  34  36
ENDBRANCH  33  34
ENDBRANCH  32  33
ENDBRANCH  20  32
TORSDOF 10
ENDMDL
MODEL 7
REMARK minimizedAffinity -6.65147829
REMARK CNNscore 0.242913157
REMARK CNNaffinity 5.47474623
REMARK  10 active torsions:
REMARK  status: ('A' for Active; 'I' for Inactive)
REMARK    1  A    between atoms: C12_14  and  C13_15 
REMARK    2  A    between atoms: C13_15  and  C15_17 
REMARK    3  A    between atoms: C15_17  and  C16_18 
REMARK    4  A    between atoms: C16_18  and  C17_19 
REMARK    5  A    between atoms: C18_20  and  C20_22 
REMARK    6  A    between atoms: C20_22  and  O3_23 
REMARK    7  A    between atoms: C26_29  and  C27_30 
REMARK    8  A    between atoms: C27_30  and  C28_31 
REMARK    9  A    between atoms: C28_31  and  C29_32 
REMARK   10  A    between atoms: C29_32  and  O5_34 
ROOT
HETATM    1  C1  UNL     1       8.289  65.352 -36.598  1.00  0.00     0.025 C 
HETATM    2  C2  UNL     1       7.842  66.614 -36.599  1.00  0.00     0.015 C 
HETATM    3  C3  UNL     1       8.657  67.707 -37.185  1.00  0.00     0.289 C 
HETATM    4  O1  UNL     1       9.838  67.658 -37.474  1.00  0.00    -0.260 OA
HETATM    5  O2  UNL     1       7.848  68.798 -37.307  1.00  0.00    -0.311 OA
HETATM    6  C4  UNL     1       6.483  68.425 -37.038  1.00  0.00     0.142 C 
HETATM    7  C5  UNL     1       5.782  68.159 -38.364  1.00  0.00     0.039 C 
HETATM    8  C6  UNL     1       4.345  67.627 -38.254  1.00  0.00     0.006 C 
HETATM    9  C7  UNL     1       4.143  66.581 -37.119  1.00  0.00    -0.027 A 
HETATM   10  C8  UNL     1       2.673  66.135 -36.922  1.00  0.00     0.011 C 
HETATM   11  C9  UNL     1       1.593  67.221 -37.068  1.00  0.00     0.011 C 
HETATM   12  C10 UNL     1       1.823  68.074 -38.321  1.00  0.00    -0.032 C 
HETATM   13  C11 UNL     1       1.662  67.162 -39.572  1.00  0.00     0.016 C 
HETATM   14  C12 UNL     1       0.907  69.330 -38.468  1.00  0.00    -0.002 C 
HETATM   15  C21 UNL     1       1.754  70.290 -39.342  1.00  0.00     0.006 C 
HETATM   16  C22 UNL     1       3.204  69.753 -39.330  1.00  0.00     0.011 C 
HETATM   17  C23 UNL     1       3.248  68.737 -38.173  1.00  0.00    -0.032 C 
HETATM   18  C24 UNL     1       3.439  69.562 -36.861  1.00  0.00     0.016 C 
HETATM   19  C25 UNL     1       5.050  65.370 -37.123  1.00  0.00     0.022 A 
HETATM   20  C26 UNL     1       5.273  66.395 -36.039  1.00  0.00    -0.021 A 
HETATM   21  C31 UNL     1       6.562  67.221 -36.118  1.00  0.00     0.063 C 
ENDROOT
BRANCH  14  22
HETATM   22  C13 UNL     1      -0.590  69.150 -38.884  1.00  0.00    -0.014 C 
HETATM   23  C14 UNL     1      -1.476  69.631 -37.718  1.00  0.00     0.010 C 
BRANCH  22  24
HETATM   24  C15 UNL     1      -1.008  69.880 -40.185  1.00  0.00     0.008 C 
BRANCH  24  25
HETATM   25  C16 UNL     1      -1.068  68.991 -41.437  1.00  0.00     0.028 C 
BRANCH  25  26
HETATM   26  C17 UNL     1       0.184  68.973 -42.270  1.00  0.00    -0.022 C 
HETATM   27  C18 UNL     1       0.786  70.033 -42.850  1.00  0.00    -0.064 C 
HETATM   28  C19 UNL     1       0.248  71.437 -42.828  1.00  0.00     0.045 C 
BRANCH  27  29
HETATM   29  C20 UNL     1       2.073  69.872 -43.617  1.00  0.00     0.197 C 
BRANCH  29  30
HETATM   30  O3  UNL     1       1.828  70.144 -44.989  1.00  0.00    -0.397 OA
HETATM   31  H29 UNL     1       1.370  71.002 -45.021  1.00  0.00     0.209 HD
ENDBRANCH  29  30
ENDBRANCH  27  29
ENDBRANCH  25  26
ENDBRANCH  24  25
ENDBRANCH  22  24
ENDBRANCH  14  22
BRANCH  20  32
HETATM   32  C27 UNL     1       4.854  66.084 -34.591  1.00  0.00     0.021 C 
BRANCH  32  33
HETATM   33  C28 UNL     1       5.660  64.978 -33.906  1.00  0.00     0.112 C 
BRANCH  33  34
HETATM   34  C29 UNL     1       5.231  64.635 -32.501  1.00  0.00     0.258 C 
HETATM   35  O4  UNL     1       5.107  65.469 -31.610  1.00  0.00    -0.265 OA
BRANCH  34  36
HETATM   36  O5  UNL     1       5.054  63.299 -32.338  1.00  0.00    -0.326 OA
HETATM   37  C30 UNL     1       3.693  62.915 -32.144  1.00  0.00     0.213 C 
ENDBRANCH  34  36
ENDBRANCH  33  34
ENDBRANCH  32  33
ENDBRANCH  20  32
TORSDOF 10
ENDMDL
MODEL 8
REMARK minimizedAffinity -6.84303999
REMARK CNNscore 0.238932341
REMARK CNNaffinity 6.35893011
REMARK  10 active torsions:
REMARK  status: ('A' for Active; 'I' for Inactive)
REMARK    1  A    between atoms: C12_14  and  C13_15 
REMARK    2  A    between atoms: C13_15  and  C15_17 
REMARK    3  A    between atoms: C15_17  and  C16_18 
REMARK    4  A    between atoms: C16_18  and  C17_19 
REMARK    5  A    between atoms: C18_20  and  C20_22 
REMARK    6  A    between atoms: C20_22  and  O3_23 
REMARK    7  A    between atoms: C26_29  and  C27_30 
REMARK    8  A    between atoms: C27_30  and  C28_31 
REMARK    9  A    between atoms: C28_31  and  C29_32 
REMARK   10  A    between atoms: C29_32  and  O5_34 
ROOT
HETATM    1  C1  UNL     1      -4.296  47.661 -12.210  1.00  0.00     0.025 C 
HETATM    2  C2  UNL     1      -4.647  48.813 -11.626  1.00  0.00     0.015 C 
HETATM    3  C3  UNL     1      -5.570  48.823 -10.464  1.00  0.00     0.289 C 
HETATM    4  O1  UNL     1      -6.273  47.905 -10.086  1.00  0.00    -0.260 OA
HETATM    5  O2  UNL     1      -5.516  50.069  -9.912  1.00  0.00    -0.311 OA
HETATM    6  C4  UNL     1      -4.444  50.822 -10.512  1.00  0.00     0.142 C 
HETATM    7  C5  UNL     1      -3.219  50.723  -9.612  1.00  0.00     0.039 C 
HETATM    8  C6  UNL     1      -1.940  51.369 -10.167  1.00  0.00     0.006 C 
HETATM    9  C7  UNL     1      -1.725  51.138 -11.691  1.00  0.00    -0.027 A 
HETATM   10  C8  UNL     1      -0.507  51.892 -12.281  1.00  0.00     0.011 C 
HETATM   11  C9  UNL     1      -0.244  53.311 -11.747  1.00  0.00     0.011 C 
HETATM   12  C10 UNL     1      -0.325  53.357 -10.217  1.00  0.00    -0.032 C 
HETATM   13  C11 UNL     1       0.824  52.479  -9.638  1.00  0.00     0.016 C 
HETATM   14  C12 UNL     1      -0.271  54.779  -9.574  1.00  0.00    -0.002 C 
HETATM   15  C21 UNL     1      -1.020  54.592  -8.230  1.00  0.00     0.006 C 
HETATM   16  C22 UNL     1      -1.787  53.254  -8.321  1.00  0.00     0.011 C 
HETATM   17  C23 UNL     1      -1.776  52.883  -9.817  1.00  0.00    -0.032 C 
HETATM   18  C24 UNL     1      -2.926  53.700 -10.488  1.00  0.00     0.016 C 
HETATM   19  C25 UNL     1      -1.732  49.708 -12.184  1.00  0.00     0.022 A 
HETATM   20  C26 UNL     1      -2.913  50.571 -12.555  1.00  0.00    -0.021 A 
HETATM   21  C31 UNL     1      -4.255  50.231 -11.896  1.00  0.00     0.063 C 
ENDROOT
BRANCH  14  22
HETATM   22  C13 UNL     1       1.090  55.547  -9.510  1.00  0.00    -0.014 C 
HETATM   23  C14 UNL     1       1.601  55.503  -8.056  1.00  0.00     0.010 C 
BRANCH  22  24
HETATM   24  C15 UNL     1       2.193  55.018 -10.461  1.00  0.00     0.008 C 
BRANCH  24  25
HETATM   25  C16 UNL     1       3.379  55.972 -10.674  1.00  0.00     0.028 C 
BRANCH  25  26
HETATM   26  C17 UNL     1       4.737  55.360 -10.470  1.00  0.00    -0.022 C 
HETATM   27  C18 UNL     1       5.423  55.282  -9.310  1.00  0.00    -0.064 C 
HETATM   28  C19 UNL     1       4.969  55.880  -8.007  1.00  0.00     0.045 C 
BRANCH  27  29
HETATM   29  C20 UNL     1       6.761  54.590  -9.244  1.00  0.00     0.197 C 
BRANCH  29  30
HETATM   30  O3  UNL     1       7.629  55.346  -8.414  1.00  0.00    -0.397 OA
HETATM   31  H29 UNL     1       7.146  55.507  -7.585  1.00  0.00     0.209 HD
ENDBRANCH  29  30
ENDBRANCH  27  29
ENDBRANCH  25  26
ENDBRANCH  24  25
ENDBRANCH  22  24
ENDBRANCH  14  22
BRANCH  20  32
HETATM   32  C27 UNL     1      -3.070  51.075 -14.000  1.00  0.00     0.021 C 
BRANCH  32  33
HETATM   33  C28 UNL     1      -2.443  50.179 -15.071  1.00  0.00     0.112 C 
BRANCH  33  34
HETATM   34  C29 UNL     1      -3.038  50.302 -16.452  1.00  0.00     0.258 C 
HETATM   35  O4  UNL     1      -3.719  49.425 -16.975  1.00  0.00    -0.265 OA
BRANCH  34  36
HETATM   36  O5  UNL     1      -2.687  51.468 -17.053  1.00  0.00    -0.326 OA
HETATM   37  C30 UNL     1      -2.231  51.313 -18.397  1.00  0.00     0.213 C 
ENDBRANCH  34  36
ENDBRANCH  33  34
ENDBRANCH  32  33
ENDBRANCH  20  32
TORSDOF 10
ENDMDL
MODEL 9
REMARK minimizedAffinity -8.03836823
REMARK CNNscore 0.212463066
REMARK CNNaffinity 6.37619638
REMARK  10 active torsions:
REMARK  status: ('A' for Active; 'I' for Inactive)
REMARK    1  A    between atoms: C12_14  and  C13_15 
REMARK    2  A    between atoms: C13_15  and  C15_17 
REMARK    3  A    between atoms: C15_17  and  C16_18 
REMARK    4  A    between atoms: C16_18  and  C17_19 
REMARK    5  A    between atoms: C18_20  and  C20_22 
REMARK    6  A    between atoms: C20_22  and  O3_23 
REMARK    7  A    between atoms: C26_29  and  C27_30 
REMARK    8  A    between atoms: C27_30  and  C28_31 
REMARK    9  A    between atoms: C28_31  and  C29_32 
REMARK   10  A    between atoms: C29_32  and  O5_34 
ROOT
HETATM    1  C1  UNL     1       0.288  51.852 -25.587  1.00  0.00     0.025 C 
HETATM    2  C2  UNL     1      -0.968  52.283 -25.419  1.00  0.00     0.015 C 
HETATM    3  C3  UNL     1      -1.787  52.703 -26.583  1.00  0.00     0.289 C 
HETATM    4  O1  UNL     1      -1.386  52.943 -27.706  1.00  0.00    -0.260 OA
HETATM    5  O2  UNL     1      -3.078  52.809 -26.156  1.00  0.00    -0.311 OA
HETATM    6  C4  UNL     1      -3.196  52.271 -24.824  1.00  0.00     0.142 C 
HETATM    7  C5  UNL     1      -3.687  50.832 -24.924  1.00  0.00     0.039 C 
HETATM    8  C6  UNL     1      -3.750  50.064 -23.595  1.00  0.00     0.006 C 
HETATM    9  C7  UNL     1      -2.547  50.343 -22.646  1.00  0.00    -0.027 A 
HETATM   10  C8  UNL     1      -2.668  49.671 -21.255  1.00  0.00     0.011 C 
HETATM   11  C9  UNL     1      -4.068  49.644 -20.617  1.00  0.00     0.011 C 
HETATM   12  C10 UNL     1      -5.133  49.192 -21.623  1.00  0.00    -0.032 C 
HETATM   13  C11 UNL     1      -4.835  47.718 -22.024  1.00  0.00     0.016 C 
HETATM   14  C12 UNL     1      -6.615  49.315 -21.146  1.00  0.00    -0.002 C 
HETATM   15  C21 UNL     1      -7.406  49.461 -22.472  1.00  0.00     0.006 C 
HETATM   16  C22 UNL     1      -6.380  49.805 -23.576  1.00  0.00     0.011 C 
HETATM   17  C23 UNL     1      -5.099  50.217 -22.823  1.00  0.00    -0.032 C 
HETATM   18  C24 UNL     1      -5.291  51.708 -22.399  1.00  0.00     0.016 C 
HETATM   19  C25 UNL     1      -1.159  50.122 -23.204  1.00  0.00     0.022 A 
HETATM   20  C26 UNL     1      -1.586  51.549 -22.961  1.00  0.00    -0.021 A 
HETATM   21  C31 UNL     1      -1.822  52.423 -24.199  1.00  0.00     0.063 C 
ENDROOT
BRANCH  14  22
HETATM   22  C13 UNL     1      -7.181  48.290 -20.109  1.00  0.00    -0.014 C 
HETATM   23  C14 UNL     1      -6.578  48.619 -18.729  1.00  0.00     0.010 C 
BRANCH  22  24
HETATM   24  C15 UNL     1      -8.725  48.243 -20.000  1.00  0.00     0.008 C 
BRANCH  24  25
HETATM   25  C16 UNL     1      -9.300  48.787 -18.683  1.00  0.00     0.028 C 
BRANCH  25  26
HETATM   26  C17 UNL     1     -10.296  47.891 -18.001  1.00  0.00    -0.022 C 
HETATM   27  C18 UNL     1     -11.549  47.610 -18.418  1.00  0.00    -0.064 C 
HETATM   28  C19 UNL     1     -12.206  48.224 -19.623  1.00  0.00     0.045 C 
BRANCH  27  29
HETATM   29  C20 UNL     1     -12.424  46.648 -17.656  1.00  0.00     0.197 C 
BRANCH  29  30
HETATM   30  O3  UNL     1     -12.990  47.323 -16.543  1.00  0.00    -0.397 OA
HETATM   31  H29 UNL     1     -13.389  48.139 -16.891  1.00  0.00     0.209 HD
ENDBRANCH  29  30
ENDBRANCH  27  29
ENDBRANCH  25  26
ENDBRANCH  24  25
ENDBRANCH  22  24
ENDBRANCH  14  22
BRANCH  20  32
HETATM   32  C27 UNL     1      -0.993  52.337 -21.781  1.00  0.00     0.021 C 
BRANCH  32  33
HETATM   33  C28 UNL     1       0.536  52.382 -21.734  1.00  0.00     0.112 C 
BRANCH  33  34
HETATM   34  C29 UNL     1       1.129  53.448 -20.846  1.00  0.00     0.258 C 
HETATM   35  O4  UNL     1       1.286  54.612 -21.200  1.00  0.00    -0.265 OA
BRANCH  34  36
HETATM   36  O5  UNL     1       1.509  52.949 -19.641  1.00  0.00    -0.326 OA
HETATM   37  C30 UNL     1       0.436  52.798 -18.712  1.00  0.00     0.213 C 
ENDBRANCH  34  36
ENDBRANCH  33  34
ENDBRANCH  32  33
ENDBRANCH  20  32
TORSDOF 10
ENDMDL
