MODEL 1
REMARK minimizedAffinity -10.4569216
REMARK CNNscore 0.557901025
REMARK CNNaffinity 7.4426713
REMARK  6 active torsions:
REMARK  status: ('A' for Active; 'I' for Inactive)
REMARK    1  A    between atoms: C3_3  and  O1_4 
REMARK    2  A    between atoms: N1_14  and  O2_16 
REMARK    3  A    between atoms: O2_16  and  C13_17 
REMARK    4  A    between atoms: C13_17  and  C14_18 
REMARK       I    between atoms: C14_18  and  N2_20 
REMARK    5  A    between atoms: N2_20  and  C15_21 
REMARK    6  A    between atoms: C15_21  and  C17_23 
ROOT
HETATM    1  C1  UNL     1       0.056   8.468   8.696  1.00  0.00     0.015 C 
HETATM    2  C2  UNL     1       0.476   8.008   9.723  1.00  0.00    -0.078 C 
HETATM    3  C3  UNL     1       1.012   7.444  10.981  1.00  0.00     0.128 C 
HETATM    4  C4  UNL     1       1.493   5.987  10.735  1.00  0.00     0.052 C 
HETATM    5  C5  UNL     1       0.365   5.059  11.234  1.00  0.00     0.010 C 
HETATM    6  C6  UNL     1      -0.781   5.997  11.604  1.00  0.00     0.002 C 
HETATM    7  C7  UNL     1      -1.856   5.494  12.576  1.00  0.00    -0.004 C 
HETATM    8  C8  UNL     1      -2.536   4.225  12.046  1.00  0.00     0.010 C 
HETATM    9  C9  UNL     1      -3.620   3.740  12.998  1.00  0.00     0.035 C 
HETATM   10  C10 UNL     1      -4.638   4.816  13.301  1.00  0.00    -0.069 C 
HETATM   11  C11 UNL     1      -5.948   4.538  13.190  1.00  0.00     0.030 C 
HETATM   12  C12 UNL     1      -6.997   5.504  13.606  1.00  0.00     0.032 C 
HETATM   13  N1  UNL     1      -8.242   5.158  13.439  1.00  0.00    -0.271 N 
ATOM     14  H1  UNL     1      -8.541   4.290  12.997  1.00  0.00     0.194 HD
HETATM   15  C23 UNL     1      -6.544   6.793  14.260  1.00  0.00     0.060 C 
HETATM   16  C24 UNL     1      -5.214   7.249  13.678  1.00  0.00     0.020 C 
HETATM   17  C25 UNL     1      -4.089   6.175  13.752  1.00  0.00    -0.016 C 
HETATM   18  C26 UNL     1      -3.617   6.045  15.218  1.00  0.00     0.020 C 
HETATM   19  C27 UNL     1      -2.919   6.617  12.790  1.00  0.00     0.002 C 
HETATM   20  C28 UNL     1      -2.265   7.972  13.178  1.00  0.00     0.007 C 
HETATM   21  C29 UNL     1      -1.114   8.386  12.244  1.00  0.00     0.014 C 
HETATM   22  C30 UNL     1      -0.063   7.270  12.101  1.00  0.00     0.003 C 
HETATM   23  C31 UNL     1       0.643   7.085  13.477  1.00  0.00     0.020 C 
ENDROOT
BRANCH   3  24
HETATM   24  O1  UNL     1       2.084   8.282  11.388  1.00  0.00    -0.377 OA
HETATM   25  H2  UNL     1       2.662   7.779  11.982  1.00  0.00     0.211 HD
ENDBRANCH   3  24
BRANCH  13  26
HETATM   26  O2  UNL     1      -9.118   6.128  13.944  1.00  0.00    -0.271 OA
BRANCH  26  27
HETATM   27  C13 UNL     1      -9.973   6.572  12.893  1.00  0.00     0.303 C 
BRANCH  27  28
HETATM   28  C14 UNL     1     -11.202   7.271  13.466  1.00  0.00     0.244 C 
HETATM   29  O3  UNL     1     -11.467   8.443  13.216  1.00  0.00    -0.271 OA
HETATM   30  N2  UNL     1     -12.004   6.464  14.242  1.00  0.00    -0.351 N 
HETATM   31  H16 UNL     1     -11.627   5.560  14.506  1.00  0.00     0.163 HD
BRANCH  30  32
HETATM   32  C15 UNL     1     -13.184   6.953  14.931  1.00  0.00     0.113 C 
HETATM   33  C16 UNL     1     -13.061   8.442  15.271  1.00  0.00     0.037 C 
BRANCH  32  34
HETATM   34  C17 UNL     1     -14.417   6.656  14.094  1.00  0.00    -0.036 A 
HETATM   35  C18 UNL     1     -15.362   5.723  14.548  1.00  0.00     0.009 A 
HETATM   36  C19 UNL     1     -16.487   5.418  13.781  1.00  0.00     0.001 A 
HETATM   37  C20 UNL     1     -16.681   6.035  12.548  1.00  0.00     0.000 A 
HETATM   38  C21 UNL     1     -15.748   6.956  12.078  1.00  0.00     0.001 A 
HETATM   39  C22 UNL     1     -14.621   7.263  12.843  1.00  0.00     0.009 A 
ENDBRANCH  32  34
ENDBRANCH  30  32
ENDBRANCH  27  28
ENDBRANCH  26  27
ENDBRANCH  13  26
TORSDOF 6
ENDMDL
MODEL 2
REMARK minimizedAffinity -8.64402199
REMARK CNNscore 0.455268115
REMARK CNNaffinity 7.26122284
REMARK  6 active torsions:
REMARK  status: ('A' for Active; 'I' for Inactive)
REMARK    1  A    between atoms: C3_3  and  O1_4 
REMARK    2  A    between atoms: N1_14  and  O2_16 
REMARK    3  A    between atoms: O2_16  and  C13_17 
REMARK    4  A    between atoms: C13_17  and  C14_18 
REMARK       I    between atoms: C14_18  and  N2_20 
REMARK    5  A    between atoms: N2_20  and  C15_21 
REMARK    6  A    between atoms: C15_21  and  C17_23 
ROOT
HETATM    1  C1  UNL     1      -1.399   8.829  11.784  1.00  0.00     0.015 C 
HETATM    2  C2  UNL     1      -1.416   7.881  12.522  1.00  0.00    -0.078 C 
HETATM    3  C3  UNL     1      -1.417   6.712  13.429  1.00  0.00     0.128 C 
HETATM    4  C4  UNL     1      -1.262   5.408  12.598  1.00  0.00     0.052 C 
HETATM    5  C5  UNL     1      -2.679   4.817  12.436  1.00  0.00     0.010 C 
HETATM    6  C6  UNL     1      -3.613   5.864  13.037  1.00  0.00     0.002 C 
HETATM    7  C7  UNL     1      -5.010   5.425  13.496  1.00  0.00    -0.004 C 
HETATM    8  C8  UNL     1      -5.803   4.799  12.341  1.00  0.00     0.010 C 
HETATM    9  C9  UNL     1      -7.198   4.386  12.789  1.00  0.00     0.035 C 
HETATM   10  C10 UNL     1      -7.960   5.532  13.415  1.00  0.00    -0.069 C 
HETATM   11  C11 UNL     1      -9.211   5.799  13.002  1.00  0.00     0.030 C 
HETATM   12  C12 UNL     1     -10.061   6.817  13.670  1.00  0.00     0.032 C 
HETATM   13  N1  UNL     1     -11.253   7.026  13.186  1.00  0.00    -0.271 N 
ATOM     14  H1  UNL     1     -11.619   6.572  12.349  1.00  0.00     0.194 HD
HETATM   15  C23 UNL     1      -9.509   7.489  14.909  1.00  0.00     0.060 C 
HETATM   16  C24 UNL     1      -7.998   7.643  14.805  1.00  0.00     0.020 C 
HETATM   17  C25 UNL     1      -7.243   6.311  14.524  1.00  0.00    -0.016 C 
HETATM   18  C26 UNL     1      -7.255   5.449  15.806  1.00  0.00     0.020 C 
HETATM   19  C27 UNL     1      -5.777   6.661  14.060  1.00  0.00     0.002 C 
HETATM   20  C28 UNL     1      -4.945   7.425  15.127  1.00  0.00     0.007 C 
HETATM   21  C29 UNL     1      -3.511   7.747  14.670  1.00  0.00     0.014 C 
HETATM   22  C30 UNL     1      -2.773   6.492  14.170  1.00  0.00     0.003 C 
HETATM   23  C31 UNL     1      -2.557   5.538  15.382  1.00  0.00     0.020 C 
ENDROOT
BRANCH   3  24
HETATM   24  O1  UNL     1      -0.332   6.885  14.329  1.00  0.00    -0.377 OA
HETATM   25  H2  UNL     1      -0.090   6.019  14.692  1.00  0.00     0.211 HD
ENDBRANCH   3  24
BRANCH  13  26
HETATM   26  O2  UNL     1     -11.967   7.951  13.957  1.00  0.00    -0.271 OA
BRANCH  26  27
HETATM   27  C13 UNL     1     -12.036   9.188  13.251  1.00  0.00     0.303 C 
BRANCH  27  28
HETATM   28  C14 UNL     1     -12.075  10.358  14.230  1.00  0.00     0.244 C 
HETATM   29  O3  UNL     1     -12.184  10.197  15.442  1.00  0.00    -0.271 OA
HETATM   30  N2  UNL     1     -11.930  11.595  13.643  1.00  0.00    -0.351 N 
HETATM   31  H16 UNL     1     -11.993  11.633  12.631  1.00  0.00     0.163 HD
BRANCH  30  32
HETATM   32  C15 UNL     1     -12.005  12.837  14.391  1.00  0.00     0.113 C 
HETATM   33  C16 UNL     1     -12.941  12.712  15.597  1.00  0.00     0.037 C 
BRANCH  32  34
HETATM   34  C17 UNL     1     -10.604  13.268  14.793  1.00  0.00    -0.036 A 
HETATM   35  C18 UNL     1     -10.056  12.819  16.005  1.00  0.00     0.009 A 
HETATM   36  C19 UNL     1      -8.782  13.225  16.404  1.00  0.00     0.001 A 
HETATM   37  C20 UNL     1      -8.040  14.089  15.602  1.00  0.00     0.000 A 
HETATM   38  C21 UNL     1      -8.573  14.552  14.401  1.00  0.00     0.001 A 
HETATM   39  C22 UNL     1      -9.849  14.148  14.000  1.00  0.00     0.009 A 
ENDBRANCH  32  34
ENDBRANCH  30  32
ENDBRANCH  27  28
ENDBRANCH  26  27
ENDBRANCH  13  26
TORSDOF 6
ENDMDL
MODEL 3
REMARK minimizedAffinity -7.42331505
REMARK CNNscore 0.429852068
REMARK CNNaffinity 5.44708824
REMARK  6 active torsions:
REMARK  status: ('A' for Active; 'I' for Inactive)
REMARK    1  A    between atoms: C3_3  and  O1_4 
REMARK    2  A    between atoms: N1_14  and  O2_16 
REMARK    3  A    between atoms: O2_16  and  C13_17 
REMARK    4  A    between atoms: C13_17  and  C14_18 
REMARK       I    between atoms: C14_18  and  N2_20 
REMARK    5  A    between atoms: N2_20  and  C15_21 
REMARK    6  A    between atoms: C15_21  and  C17_23 
ROOT
HETATM    1  C1  UNL     1      -6.688  -6.628  12.143  1.00  0.00     0.015 C 
HETATM    2  C2  UNL     1      -6.631  -7.815  11.964  1.00  0.00    -0.078 C 
HETATM    3  C3  UNL     1      -6.551  -9.278  11.760  1.00  0.00     0.128 C 
HETATM    4  C4  UNL     1      -5.109  -9.666  11.329  1.00  0.00     0.052 C 
HETATM    5  C5  UNL     1      -5.135  -9.827   9.794  1.00  0.00     0.010 C 
HETATM    6  C6  UNL     1      -6.534  -9.381   9.376  1.00  0.00     0.002 C 
HETATM    7  C7  UNL     1      -7.083  -9.860   8.025  1.00  0.00    -0.004 C 
HETATM    8  C8  UNL     1      -6.167  -9.434   6.871  1.00  0.00     0.010 C 
HETATM    9  C9  UNL     1      -6.725  -9.886   5.528  1.00  0.00     0.035 C 
HETATM   10  C10 UNL     1      -8.140  -9.406   5.305  1.00  0.00    -0.069 C 
HETATM   11  C11 UNL     1      -8.458  -8.794   4.151  1.00  0.00     0.030 C 
HETATM   12  C12 UNL     1      -9.856  -8.425   3.814  1.00  0.00     0.032 C 
HETATM   13  N1  UNL     1     -10.067  -7.813   2.683  1.00  0.00    -0.271 N 
ATOM     14  H1  UNL     1      -9.330  -7.528   2.039  1.00  0.00     0.194 HD
HETATM   15  C23 UNL     1     -10.946  -8.849   4.776  1.00  0.00     0.060 C 
HETATM   16  C24 UNL     1     -10.431  -8.832   6.208  1.00  0.00     0.020 C 
HETATM   17  C25 UNL     1      -9.146  -9.682   6.430  1.00  0.00    -0.016 C 
HETATM   18  C26 UNL     1      -9.522 -11.180   6.386  1.00  0.00     0.020 C 
HETATM   19  C27 UNL     1      -8.513  -9.271   7.816  1.00  0.00     0.002 C 
HETATM   20  C28 UNL     1      -9.439  -9.542   9.034  1.00  0.00     0.007 C 
HETATM   21  C29 UNL     1      -8.806  -9.153  10.382  1.00  0.00     0.014 C 
HETATM   22  C30 UNL     1      -7.420  -9.796  10.571  1.00  0.00     0.003 C 
HETATM   23  C31 UNL     1      -7.609 -11.337  10.695  1.00  0.00     0.020 C 
ENDROOT
BRANCH   3  24
HETATM   24  O1  UNL     1      -6.905  -9.887  12.993  1.00  0.00    -0.377 OA
HETATM   25  H2  UNL     1      -6.542 -10.787  13.009  1.00  0.00     0.211 HD
ENDBRANCH   3  24
BRANCH  13  26
HETATM   26  O2  UNL     1     -11.433  -7.596   2.462  1.00  0.00    -0.271 OA
BRANCH  26  27
HETATM   27  C13 UNL     1     -11.597  -6.885   1.237  1.00  0.00     0.303 C 
BRANCH  27  28
HETATM   28  C14 UNL     1     -10.694  -7.470   0.156  1.00  0.00     0.244 C 
HETATM   29  O3  UNL     1     -10.727  -8.658  -0.156  1.00  0.00    -0.271 OA
HETATM   30  N2  UNL     1      -9.879  -6.550  -0.464  1.00  0.00    -0.351 N 
HETATM   31  H16 UNL     1      -9.820  -5.630  -0.039  1.00  0.00     0.163 HD
BRANCH  30  32
HETATM   32  C15 UNL     1      -8.900  -6.914  -1.472  1.00  0.00     0.113 C 
HETATM   33  C16 UNL     1      -8.308  -8.301  -1.206  1.00  0.00     0.037 C 
BRANCH  32  34
HETATM   34  C17 UNL     1      -9.534  -6.816  -2.849  1.00  0.00    -0.036 A 
HETATM   35  C18 UNL     1      -9.105  -5.825  -3.747  1.00  0.00     0.009 A 
HETATM   36  C19 UNL     1      -9.693  -5.703  -5.007  1.00  0.00     0.001 A 
HETATM   37  C20 UNL     1     -10.721  -6.563  -5.385  1.00  0.00     0.000 A 
HETATM   38  C21 UNL     1     -11.165  -7.545  -4.503  1.00  0.00     0.001 A 
HETATM   39  C22 UNL     1     -10.579  -7.669  -3.242  1.00  0.00     0.009 A 
ENDBRANCH  32  34
ENDBRANCH  30  32
ENDBRANCH  27  28
ENDBRANCH  26  27
ENDBRANCH  13  26
TORSDOF 6
ENDMDL
MODEL 4
REMARK minimizedAffinity -7.55617952
REMARK CNNscore 0.412067413
REMARK CNNaffinity 5.98908663
REMARK  6 active torsions:
REMARK  status: ('A' for Active; 'I' for Inactive)
REMARK    1  A    between atoms: C3_3  and  O1_4 
REMARK    2  A    between atoms: N1_14  and  O2_16 
REMARK    3  A    between atoms: O2_16  and  C13_17 
REMARK    4  A    between atoms: C13_17  and  C14_18 
REMARK       I    between atoms: C14_18  and  N2_20 
REMARK    5  A    between atoms: N2_20  and  C15_21 
REMARK    6  A    between atoms: C15_21  and  C17_23 
ROOT
HETATM    1  C1  UNL     1      -3.201  -9.496   3.821  1.00  0.00     0.015 C 
HETATM    2  C2  UNL     1      -3.786 -10.461   3.407  1.00  0.00    -0.078 C 
HETATM    3  C3  UNL     1      -4.494 -11.660   2.910  1.00  0.00     0.128 C 
HETATM    4  C4  UNL     1      -3.566 -12.451   1.946  1.00  0.00     0.052 C 
HETATM    5  C5  UNL     1      -3.986 -12.063   0.511  1.00  0.00     0.010 C 
HETATM    6  C6  UNL     1      -5.025 -10.958   0.691  1.00  0.00     0.002 C 
HETATM    7  C7  UNL     1      -6.005 -10.680  -0.456  1.00  0.00    -0.004 C 
HETATM    8  C8  UNL     1      -5.260 -10.321  -1.749  1.00  0.00     0.010 C 
HETATM    9  C9  UNL     1      -6.233 -10.019  -2.881  1.00  0.00     0.035 C 
HETATM   10  C10 UNL     1      -7.227  -8.943  -2.509  1.00  0.00    -0.069 C 
HETATM   11  C11 UNL     1      -7.426  -7.908  -3.343  1.00  0.00     0.030 C 
HETATM   12  C12 UNL     1      -8.485  -6.895  -3.104  1.00  0.00     0.032 C 
HETATM   13  N1  UNL     1      -8.589  -5.913  -3.954  1.00  0.00    -0.271 N 
ATOM     14  H1  UNL     1      -7.960  -5.768  -4.743  1.00  0.00     0.194 HD
HETATM   15  C23 UNL     1      -9.414  -7.115  -1.929  1.00  0.00     0.060 C 
HETATM   16  C24 UNL     1      -8.677  -7.795  -0.784  1.00  0.00     0.020 C 
HETATM   17  C25 UNL     1      -7.978  -9.128  -1.184  1.00  0.00    -0.016 C 
HETATM   18  C26 UNL     1      -9.055 -10.217  -1.386  1.00  0.00     0.020 C 
HETATM   19  C27 UNL     1      -6.954  -9.510  -0.046  1.00  0.00     0.002 C 
HETATM   20  C28 UNL     1      -7.616  -9.756   1.338  1.00  0.00     0.007 C 
HETATM   21  C29 UNL     1      -6.610 -10.145   2.437  1.00  0.00     0.014 C 
HETATM   22  C30 UNL     1      -5.729 -11.333   2.012  1.00  0.00     0.003 C 
HETATM   23  C31 UNL     1      -6.636 -12.595   1.894  1.00  0.00     0.020 C 
ENDROOT
BRANCH   3  24
HETATM   24  O1  UNL     1      -4.843 -12.436   4.046  1.00  0.00    -0.377 OA
HETATM   25  H2  UNL     1      -4.985 -13.352   3.763  1.00  0.00     0.211 HD
ENDBRANCH   3  24
BRANCH  13  26
HETATM   26  O2  UNL     1      -9.674  -5.080  -3.648  1.00  0.00    -0.271 OA
BRANCH  26  27
HETATM   27  C13 UNL     1     -10.053  -4.364  -4.821  1.00  0.00     0.303 C 
BRANCH  27  28
HETATM   28  C14 UNL     1     -11.349  -4.928  -5.394  1.00  0.00     0.244 C 
HETATM   29  O3  UNL     1     -11.869  -5.952  -4.959  1.00  0.00    -0.271 OA
HETATM   30  N2  UNL     1     -11.904  -4.169  -6.401  1.00  0.00    -0.351 N 
HETATM   31  H16 UNL     1     -11.329  -3.427  -6.785  1.00  0.00     0.163 HD
BRANCH  30  32
HETATM   32  C15 UNL     1     -13.100  -4.566  -7.121  1.00  0.00     0.113 C 
HETATM   33  C16 UNL     1     -13.216  -6.090  -7.221  1.00  0.00     0.037 C 
BRANCH  32  34
HETATM   34  C17 UNL     1     -14.317  -3.940  -6.461  1.00  0.00    -0.036 A 
HETATM   35  C18 UNL     1     -14.781  -2.689  -6.895  1.00  0.00     0.009 A 
HETATM   36  C19 UNL     1     -15.881  -2.085  -6.284  1.00  0.00     0.001 A 
HETATM   37  C20 UNL     1     -16.530  -2.721  -5.228  1.00  0.00     0.000 A 
HETATM   38  C21 UNL     1     -16.077  -3.959  -4.778  1.00  0.00     0.001 A 
HETATM   39  C22 UNL     1     -14.975  -4.564  -5.388  1.00  0.00     0.009 A 
ENDBRANCH  32  34
ENDBRANCH  30  32
ENDBRANCH  27  28
ENDBRANCH  26  27
ENDBRANCH  13  26
TORSDOF 6
ENDMDL
MODEL 5
REMARK minimizedAffinity -9.50900173
REMARK CNNscore 0.399627268
REMARK CNNaffinity 6.99897146
REMARK  6 active torsions:
REMARK  status: ('A' for Active; 'I' for Inactive)
REMARK    1  A    between atoms: C3_3  and  O1_4 
REMARK    2  A    between atoms: N1_14  and  O2_16 
REMARK    3  A    between atoms: O2_16  and  C13_17 
REMARK    4  A    between atoms: C13_17  and  C14_18 
REMARK       I    between atoms: C14_18  and  N2_20 
REMARK    5  A    between atoms: N2_20  and  C15_21 
REMARK    6  A    between atoms: C15_21  and  C17_23 
ROOT
HETATM    1  C1  UNL     1      -5.396   3.578  11.736  1.00  0.00     0.015 C 
HETATM    2  C2  UNL     1      -5.597   4.348  12.636  1.00  0.00    -0.078 C 
HETATM    3  C3  UNL     1      -5.864   5.291  13.744  1.00  0.00     0.128 C 
HETATM    4  C4  UNL     1      -6.582   6.554  13.192  1.00  0.00     0.052 C 
HETATM    5  C5  UNL     1      -5.497   7.640  13.022  1.00  0.00     0.010 C 
HETATM    6  C6  UNL     1      -4.180   6.932  13.329  1.00  0.00     0.002 C 
HETATM    7  C7  UNL     1      -2.970   7.780  13.739  1.00  0.00    -0.004 C 
HETATM    8  C8  UNL     1      -2.624   8.813  12.658  1.00  0.00     0.010 C 
HETATM    9  C9  UNL     1      -1.406   9.638  13.053  1.00  0.00     0.035 C 
HETATM   10  C10 UNL     1      -0.211   8.774  13.381  1.00  0.00    -0.069 C 
HETATM   11  C11 UNL     1       0.978   9.046  12.818  1.00  0.00     0.030 C 
HETATM   12  C12 UNL     1       2.217   8.324  13.203  1.00  0.00     0.032 C 
HETATM   13  N1  UNL     1       3.321   8.639  12.586  1.00  0.00    -0.271 N 
ATOM     14  H1  UNL     1       3.379   9.312  11.822  1.00  0.00     0.194 HD
HETATM   15  C23 UNL     1       2.123   7.324  14.337  1.00  0.00     0.060 C 
HETATM   16  C24 UNL     1       0.761   6.645  14.338  1.00  0.00     0.020 C 
HETATM   17  C25 UNL     1      -0.440   7.634  14.382  1.00  0.00    -0.016 C 
HETATM   18  C26 UNL     1      -0.535   8.244  15.798  1.00  0.00     0.020 C 
HETATM   19  C27 UNL     1      -1.747   6.842  13.989  1.00  0.00     0.002 C 
HETATM   20  C28 UNL     1      -2.094   5.681  14.961  1.00  0.00     0.007 C 
HETATM   21  C29 UNL     1      -3.380   4.926  14.579  1.00  0.00     0.014 C 
HETATM   22  C30 UNL     1      -4.572   5.882  14.392  1.00  0.00     0.003 C 
HETATM   23  C31 UNL     1      -4.921   6.505  15.777  1.00  0.00     0.020 C 
ENDROOT
BRANCH   3  24
HETATM   24  O1  UNL     1      -6.674   4.605  14.686  1.00  0.00    -0.377 OA
HETATM   25  H2  UNL     1      -7.143   5.259  15.226  1.00  0.00     0.211 HD
ENDBRANCH   3  24
BRANCH  13  26
HETATM   26  O2  UNL     1       4.418   7.938  13.103  1.00  0.00    -0.271 OA
BRANCH  26  27
HETATM   27  C13 UNL     1       5.259   7.533  12.025  1.00  0.00     0.303 C 
BRANCH  27  28
HETATM   28  C14 UNL     1       4.426   6.934  10.896  1.00  0.00     0.244 C 
HETATM   29  O3  UNL     1       4.558   7.284   9.726  1.00  0.00    -0.271 OA
HETATM   30  N2  UNL     1       3.556   5.944  11.294  1.00  0.00    -0.351 N 
HETATM   31  H16 UNL     1       3.417   5.830  12.293  1.00  0.00     0.163 HD
BRANCH  30  32
HETATM   32  C15 UNL     1       2.630   5.294  10.384  1.00  0.00     0.113 C 
HETATM   33  C16 UNL     1       1.608   4.439  11.139  1.00  0.00     0.037 C 
BRANCH  32  34
HETATM   34  C17 UNL     1       1.965   6.343   9.508  1.00  0.00    -0.036 A 
HETATM   35  C18 UNL     1       0.949   7.154  10.038  1.00  0.00     0.009 A 
HETATM   36  C19 UNL     1       0.309   8.105   9.242  1.00  0.00     0.001 A 
HETATM   37  C20 UNL     1       0.670   8.255   7.906  1.00  0.00     0.000 A 
HETATM   38  C21 UNL     1       1.669   7.452   7.361  1.00  0.00     0.001 A 
HETATM   39  C22 UNL     1       2.311   6.499   8.156  1.00  0.00     0.009 A 
ENDBRANCH  32  34
ENDBRANCH  30  32
ENDBRANCH  27  28
ENDBRANCH  26  27
ENDBRANCH  13  26
TORSDOF 6
ENDMDL
MODEL 6
REMARK minimizedAffinity -8.52349377
REMARK CNNscore 0.390584707
REMARK CNNaffinity 7.21117592
REMARK  6 active torsions:
REMARK  status: ('A' for Active; 'I' for Inactive)
REMARK    1  A    between atoms: C3_3  and  O1_4 
REMARK    2  A    between atoms: N1_14  and  O2_16 
REMARK    3  A    between atoms: O2_16  and  C13_17 
REMARK    4  A    between atoms: C13_17  and  C14_18 
REMARK       I    between atoms: C14_18  and  N2_20 
REMARK    5  A    between atoms: N2_20  and  C15_21 
REMARK    6  A    between atoms: C15_21  and  C17_23 
ROOT
HETATM    1  C1  UNL     1      -1.658   8.836  12.098  1.00  0.00     0.015 C 
HETATM    2  C2  UNL     1      -1.751   7.970  12.926  1.00  0.00    -0.078 C 
HETATM    3  C3  UNL     1      -1.846   6.902  13.944  1.00  0.00     0.128 C 
HETATM    4  C4  UNL     1      -1.679   5.516  13.262  1.00  0.00     0.052 C 
HETATM    5  C5  UNL     1      -3.100   4.945  13.068  1.00  0.00     0.010 C 
HETATM    6  C6  UNL     1      -4.038   6.071  13.496  1.00  0.00     0.002 C 
HETATM    7  C7  UNL     1      -5.474   5.715  13.903  1.00  0.00    -0.004 C 
HETATM    8  C8  UNL     1      -6.210   4.993  12.767  1.00  0.00     0.010 C 
HETATM    9  C9  UNL     1      -7.644   4.663  13.162  1.00  0.00     0.035 C 
HETATM   10  C10 UNL     1      -8.408   5.885  13.615  1.00  0.00    -0.069 C 
HETATM   11  C11 UNL     1      -9.621   6.138  13.096  1.00  0.00     0.030 C 
HETATM   12  C12 UNL     1     -10.480   7.240  13.599  1.00  0.00     0.032 C 
HETATM   13  N1  UNL     1     -11.632   7.426  13.018  1.00  0.00    -0.271 N 
ATOM     14  H1  UNL     1     -11.958   6.897  12.209  1.00  0.00     0.194 HD
HETATM   15  C23 UNL     1      -9.987   8.023  14.797  1.00  0.00     0.060 C 
HETATM   16  C24 UNL     1      -8.469   8.129  14.779  1.00  0.00     0.020 C 
HETATM   17  C25 UNL     1      -7.740   6.757  14.685  1.00  0.00    -0.016 C 
HETATM   18  C26 UNL     1      -7.859   6.032  16.045  1.00  0.00     0.020 C 
HETATM   19  C27 UNL     1      -6.236   7.022  14.286  1.00  0.00     0.002 C 
HETATM   20  C28 UNL     1      -5.451   7.871  15.323  1.00  0.00     0.007 C 
HETATM   21  C29 UNL     1      -3.982   8.110  14.932  1.00  0.00     0.014 C 
HETATM   22  C30 UNL     1      -3.253   6.793  14.612  1.00  0.00     0.003 C 
HETATM   23  C31 UNL     1      -3.143   5.963  15.927  1.00  0.00     0.020 C 
ENDROOT
BRANCH   3  24
HETATM   24  O1  UNL     1      -0.815   7.141  14.892  1.00  0.00    -0.377 OA
HETATM   25  H2  UNL     1      -0.624   6.311  15.356  1.00  0.00     0.211 HD
ENDBRANCH   3  24
BRANCH  13  26
HETATM   26  O2  UNL     1     -12.365   8.443  13.642  1.00  0.00    -0.271 OA
BRANCH  26  27
HETATM   27  C13 UNL     1     -12.415   9.576  12.778  1.00  0.00     0.303 C 
BRANCH  27  28
HETATM   28  C14 UNL     1     -13.363  10.632  13.338  1.00  0.00     0.244 C 
HETATM   29  O3  UNL     1     -14.162  10.387  14.238  1.00  0.00    -0.271 OA
HETATM   30  N2  UNL     1     -13.211  11.884  12.785  1.00  0.00    -0.351 N 
HETATM   31  H16 UNL     1     -12.631  11.951  11.954  1.00  0.00     0.163 HD
BRANCH  30  32
HETATM   32  C15 UNL     1     -14.058  13.010  13.133  1.00  0.00     0.113 C 
HETATM   33  C16 UNL     1     -13.421  13.878  14.222  1.00  0.00     0.037 C 
BRANCH  32  34
HETATM   34  C17 UNL     1     -14.380  13.806  11.880  1.00  0.00    -0.036 A 
HETATM   35  C18 UNL     1     -15.714  13.954  11.470  1.00  0.00     0.009 A 
HETATM   36  C19 UNL     1     -16.028  14.660  10.307  1.00  0.00     0.001 A 
HETATM   37  C20 UNL     1     -15.014  15.221   9.535  1.00  0.00     0.000 A 
HETATM   38  C21 UNL     1     -13.684  15.075   9.922  1.00  0.00     0.001 A 
HETATM   39  C22 UNL     1     -13.368  14.369  11.085  1.00  0.00     0.009 A 
ENDBRANCH  32  34
ENDBRANCH  30  32
ENDBRANCH  27  28
ENDBRANCH  26  27
ENDBRANCH  13  26
TORSDOF 6
ENDMDL
MODEL 7
REMARK minimizedAffinity -8.03210449
REMARK CNNscore 0.38687557
REMARK CNNaffinity 6.60420561
REMARK  6 active torsions:
REMARK  status: ('A' for Active; 'I' for Inactive)
REMARK    1  A    between atoms: C3_3  and  O1_4 
REMARK    2  A    between atoms: N1_14  and  O2_16 
REMARK    3  A    between atoms: O2_16  and  C13_17 
REMARK    4  A    between atoms: C13_17  and  C14_18 
REMARK       I    between atoms: C14_18  and  N2_20 
REMARK    5  A    between atoms: N2_20  and  C15_21 
REMARK    6  A    between atoms: C15_21  and  C17_23 
ROOT
HETATM    1  C1  UNL     1       0.450   8.106   8.943  1.00  0.00     0.015 C 
HETATM    2  C2  UNL     1       0.639   7.405   9.901  1.00  0.00    -0.078 C 
HETATM    3  C3  UNL     1       0.881   6.530  11.067  1.00  0.00     0.128 C 
HETATM    4  C4  UNL     1      -0.080   5.310  11.011  1.00  0.00     0.052 C 
HETATM    5  C5  UNL     1      -1.254   5.628  11.962  1.00  0.00     0.010 C 
HETATM    6  C6  UNL     1      -1.017   7.068  12.412  1.00  0.00     0.002 C 
HETATM    7  C7  UNL     1      -1.680   7.549  13.709  1.00  0.00    -0.004 C 
HETATM    8  C8  UNL     1      -3.205   7.399  13.642  1.00  0.00     0.010 C 
HETATM    9  C9  UNL     1      -3.865   7.902  14.919  1.00  0.00     0.035 C 
HETATM   10  C10 UNL     1      -3.473   9.324  15.245  1.00  0.00    -0.069 C 
HETATM   11  C11 UNL     1      -4.427  10.225  15.532  1.00  0.00     0.030 C 
HETATM   12  C12 UNL     1      -4.101  11.598  15.995  1.00  0.00     0.032 C 
HETATM   13  N1  UNL     1      -5.092  12.412  16.227  1.00  0.00    -0.271 N 
ATOM     14  H1  UNL     1      -6.072  12.184  16.064  1.00  0.00     0.194 HD
HETATM   15  C23 UNL     1      -2.643  11.931  16.232  1.00  0.00     0.060 C 
HETATM   16  C24 UNL     1      -1.757  11.181  15.249  1.00  0.00     0.020 C 
HETATM   17  C25 UNL     1      -1.972   9.639  15.251  1.00  0.00    -0.016 C 
HETATM   18  C26 UNL     1      -1.359   9.050  16.541  1.00  0.00     0.020 C 
HETATM   19  C27 UNL     1      -1.302   9.044  13.952  1.00  0.00     0.002 C 
HETATM   20  C28 UNL     1       0.232   9.277  13.873  1.00  0.00     0.007 C 
HETATM   21  C29 UNL     1       0.878   8.678  12.611  1.00  0.00     0.014 C 
HETATM   22  C30 UNL     1       0.522   7.191  12.436  1.00  0.00     0.003 C 
HETATM   23  C31 UNL     1       1.189   6.390  13.594  1.00  0.00     0.020 C 
ENDROOT
BRANCH   3  24
HETATM   24  O1  UNL     1       2.240   6.122  11.005  1.00  0.00    -0.377 OA
HETATM   25  H2  UNL     1       2.343   5.308  11.522  1.00  0.00     0.211 HD
ENDBRANCH   3  24
BRANCH  13  26
HETATM   26  O2  UNL     1      -4.643  13.640  16.729  1.00  0.00    -0.271 OA
BRANCH  26  27
HETATM   27  C13 UNL     1      -5.583  14.122  17.687  1.00  0.00     0.303 C 
BRANCH  27  28
HETATM   28  C14 UNL     1      -5.313  13.503  19.055  1.00  0.00     0.244 C 
HETATM   29  O3  UNL     1      -4.516  12.582  19.214  1.00  0.00    -0.271 OA
HETATM   30  N2  UNL     1      -5.999  14.095  20.092  1.00  0.00    -0.351 N 
HETATM   31  H16 UNL     1      -6.736  14.746  19.842  1.00  0.00     0.163 HD
BRANCH  30  32
HETATM   32  C15 UNL     1      -5.931  13.614  21.460  1.00  0.00     0.113 C 
HETATM   33  C16 UNL     1      -5.206  14.608  22.371  1.00  0.00     0.037 C 
BRANCH  32  34
HETATM   34  C17 UNL     1      -7.334  13.300  21.953  1.00  0.00    -0.036 A 
HETATM   35  C18 UNL     1      -7.565  13.105  23.324  1.00  0.00     0.009 A 
HETATM   36  C19 UNL     1      -8.841  12.791  23.794  1.00  0.00     0.001 A 
HETATM   37  C20 UNL     1      -9.902  12.662  22.902  1.00  0.00     0.000 A 
HETATM   38  C21 UNL     1      -9.688  12.843  21.537  1.00  0.00     0.001 A 
HETATM   39  C22 UNL     1      -8.412  13.156  21.065  1.00  0.00     0.009 A 
ENDBRANCH  32  34
ENDBRANCH  30  32
ENDBRANCH  27  28
ENDBRANCH  26  27
ENDBRANCH  13  26
TORSDOF 6
ENDMDL
MODEL 8
REMARK minimizedAffinity -9.73373795
REMARK CNNscore 0.379561573
REMARK CNNaffinity 7.14467621
REMARK  6 active torsions:
REMARK  status: ('A' for Active; 'I' for Inactive)
REMARK    1  A    between atoms: C3_3  and  O1_4 
REMARK    2  A    between atoms: N1_14  and  O2_16 
REMARK    3  A    between atoms: O2_16  and  C13_17 
REMARK    4  A    between atoms: C13_17  and  C14_18 
REMARK       I    between atoms: C14_18  and  N2_20 
REMARK    5  A    between atoms: N2_20  and  C15_21 
REMARK    6  A    between atoms: C15_21  and  C17_23 
ROOT
HETATM    1  C1  UNL     1      -0.098   8.470   8.720  1.00  0.00     0.015 C 
HETATM    2  C2  UNL     1       0.295   8.039   9.770  1.00  0.00    -0.078 C 
HETATM    3  C3  UNL     1       0.798   7.511  11.056  1.00  0.00     0.128 C 
HETATM    4  C4  UNL     1       1.295   6.051  10.862  1.00  0.00     0.052 C 
HETATM    5  C5  UNL     1       0.159   5.128  11.351  1.00  0.00     0.010 C 
HETATM    6  C6  UNL     1      -1.004   6.067  11.664  1.00  0.00     0.002 C 
HETATM    7  C7  UNL     1      -2.103   5.581  12.617  1.00  0.00    -0.004 C 
HETATM    8  C8  UNL     1      -2.758   4.294  12.100  1.00  0.00     0.010 C 
HETATM    9  C9  UNL     1      -3.867   3.826  13.033  1.00  0.00     0.035 C 
HETATM   10  C10 UNL     1      -4.899   4.901  13.279  1.00  0.00    -0.069 C 
HETATM   11  C11 UNL     1      -6.204   4.612  13.138  1.00  0.00     0.030 C 
HETATM   12  C12 UNL     1      -7.271   5.580  13.498  1.00  0.00     0.032 C 
HETATM   13  N1  UNL     1      -8.509   5.221  13.305  1.00  0.00    -0.271 N 
ATOM     14  H1  UNL     1      -8.789   4.340  12.876  1.00  0.00     0.194 HD
HETATM   15  C23 UNL     1      -6.846   6.888  14.132  1.00  0.00     0.060 C 
HETATM   16  C24 UNL     1      -5.502   7.339  13.578  1.00  0.00     0.020 C 
HETATM   17  C25 UNL     1      -4.373   6.276  13.711  1.00  0.00    -0.016 C 
HETATM   18  C26 UNL     1      -3.943   6.186  15.192  1.00  0.00     0.020 C 
HETATM   19  C27 UNL     1      -3.179   6.702  12.772  1.00  0.00     0.002 C 
HETATM   20  C28 UNL     1      -2.544   8.070  13.144  1.00  0.00     0.007 C 
HETATM   21  C29 UNL     1      -1.369   8.469  12.233  1.00  0.00     0.014 C 
HETATM   22  C30 UNL     1      -0.308   7.357  12.149  1.00  0.00     0.003 C 
HETATM   23  C31 UNL     1       0.359   7.212  13.549  1.00  0.00     0.020 C 
ENDROOT
BRANCH   3  24
HETATM   24  O1  UNL     1       1.852   8.367  11.472  1.00  0.00    -0.377 OA
HETATM   25  H2  UNL     1       2.416   7.883  12.095  1.00  0.00     0.211 HD
ENDBRANCH   3  24
BRANCH  13  26
HETATM   26  O2  UNL     1      -9.405   6.197  13.759  1.00  0.00    -0.271 OA
BRANCH  26  27
HETATM   27  C13 UNL     1     -10.181   6.662  12.658  1.00  0.00     0.303 C 
BRANCH  27  28
HETATM   28  C14 UNL     1     -11.354   7.504  13.151  1.00  0.00     0.244 C 
HETATM   29  O3  UNL     1     -12.516   7.257  12.840  1.00  0.00    -0.271 OA
HETATM   30  N2  UNL     1     -11.001   8.526  14.004  1.00  0.00    -0.351 N 
HETATM   31  H16 UNL     1     -10.012   8.738  14.082  1.00  0.00     0.163 HD
BRANCH  30  32
HETATM   32  C15 UNL     1     -11.960   9.480  14.531  1.00  0.00     0.113 C 
HETATM   33  C16 UNL     1     -12.633   8.957  15.803  1.00  0.00     0.037 C 
BRANCH  32  34
HETATM   34  C17 UNL     1     -11.270  10.816  14.755  1.00  0.00    -0.036 A 
HETATM   35  C18 UNL     1      -9.983  10.853  15.313  1.00  0.00     0.009 A 
HETATM   36  C19 UNL     1      -9.343  12.071  15.550  1.00  0.00     0.001 A 
HETATM   37  C20 UNL     1      -9.983  13.268  15.239  1.00  0.00     0.000 A 
HETATM   38  C21 UNL     1     -11.264  13.250  14.693  1.00  0.00     0.001 A 
HETATM   39  C22 UNL     1     -11.906  12.032  14.455  1.00  0.00     0.009 A 
ENDBRANCH  32  34
ENDBRANCH  30  32
ENDBRANCH  27  28
ENDBRANCH  26  27
ENDBRANCH  13  26
TORSDOF 6
ENDMDL
MODEL 9
REMARK minimizedAffinity -9.48979855
REMARK CNNscore 0.371593535
REMARK CNNaffinity 6.70494699
REMARK  6 active torsions:
REMARK  status: ('A' for Active; 'I' for Inactive)
REMARK    1  A    between atoms: C3_3  and  O1_4 
REMARK    2  A    between atoms: N1_14  and  O2_16 
REMARK    3  A    between atoms: O2_16  and  C13_17 
REMARK    4  A    between atoms: C13_17  and  C14_18 
REMARK       I    between atoms: C14_18  and  N2_20 
REMARK    5  A    between atoms: N2_20  and  C15_21 
REMARK    6  A    between atoms: C15_21  and  C17_23 
ROOT
HETATM    1  C1  UNL     1       1.796   7.282   6.958  1.00  0.00     0.015 C 
HETATM    2  C2  UNL     1       2.333   7.108   8.019  1.00  0.00    -0.078 C 
HETATM    3  C3  UNL     1       3.012   6.891   9.314  1.00  0.00     0.128 C 
HETATM    4  C4  UNL     1       3.334   5.380   9.487  1.00  0.00     0.052 C 
HETATM    5  C5  UNL     1       2.228   4.793  10.390  1.00  0.00     0.010 C 
HETATM    6  C6  UNL     1       1.229   5.932  10.580  1.00  0.00     0.002 C 
HETATM    7  C7  UNL     1       0.283   5.884  11.786  1.00  0.00    -0.004 C 
HETATM    8  C8  UNL     1      -0.568   4.607  11.775  1.00  0.00     0.010 C 
HETATM    9  C9  UNL     1      -1.526   4.571  12.958  1.00  0.00     0.035 C 
HETATM   10  C10 UNL     1      -2.397   5.804  13.026  1.00  0.00    -0.069 C 
HETATM   11  C11 UNL     1      -3.726   5.669  13.171  1.00  0.00     0.030 C 
HETATM   12  C12 UNL     1      -4.619   6.836  13.384  1.00  0.00     0.032 C 
HETATM   13  N1  UNL     1      -5.899   6.611  13.490  1.00  0.00    -0.271 N 
ATOM     14  H1  UNL     1      -6.330   5.693  13.387  1.00  0.00     0.194 HD
HETATM   15  C23 UNL     1      -3.972   8.197  13.533  1.00  0.00     0.060 C 
HETATM   16  C24 UNL     1      -2.717   8.288  12.678  1.00  0.00     0.020 C 
HETATM   17  C25 UNL     1      -1.681   7.158  12.950  1.00  0.00    -0.016 C 
HETATM   18  C26 UNL     1      -0.999   7.422  14.311  1.00  0.00     0.020 C 
HETATM   19  C27 UNL     1      -0.643   7.140  11.762  1.00  0.00     0.002 C 
HETATM   20  C28 UNL     1       0.167   8.458  11.615  1.00  0.00     0.007 C 
HETATM   21  C29 UNL     1       1.188   8.424  10.463  1.00  0.00     0.014 C 
HETATM   22  C30 UNL     1       2.114   7.198  10.554  1.00  0.00     0.003 C 
HETATM   23  C31 UNL     1       3.008   7.354  11.821  1.00  0.00     0.020 C 
ENDROOT
BRANCH   3  24
HETATM   24  O1  UNL     1       4.195   7.675   9.298  1.00  0.00    -0.377 OA
HETATM   25  H2  UNL     1       4.818   7.309   9.946  1.00  0.00     0.211 HD
ENDBRANCH   3  24
BRANCH  13  26
HETATM   26  O2  UNL     1      -6.607   7.788  13.764  1.00  0.00    -0.271 OA
BRANCH  26  27
HETATM   27  C13 UNL     1      -7.236   7.665  15.038  1.00  0.00     0.303 C 
BRANCH  27  28
HETATM   28  C14 UNL     1      -8.607   8.334  15.022  1.00  0.00     0.244 C 
HETATM   29  O3  UNL     1      -9.647   7.695  14.889  1.00  0.00    -0.271 OA
HETATM   30  N2  UNL     1      -8.577   9.697  15.215  1.00  0.00    -0.351 N 
HETATM   31  H16 UNL     1      -7.668  10.147  15.169  1.00  0.00     0.163 HD
BRANCH  30  32
HETATM   32  C15 UNL     1      -9.766  10.527  15.169  1.00  0.00     0.113 C 
HETATM   33  C16 UNL     1     -10.848   9.912  14.276  1.00  0.00     0.037 C 
BRANCH  32  34
HETATM   34  C17 UNL     1     -10.263  10.775  16.584  1.00  0.00    -0.036 A 
HETATM   35  C18 UNL     1     -10.824   9.721  17.322  1.00  0.00     0.009 A 
HETATM   36  C19 UNL     1     -11.308   9.934  18.614  1.00  0.00     0.001 A 
HETATM   37  C20 UNL     1     -11.246  11.204  19.182  1.00  0.00     0.000 A 
HETATM   38  C21 UNL     1     -10.702  12.263  18.460  1.00  0.00     0.001 A 
HETATM   39  C22 UNL     1     -10.216  12.052  17.167  1.00  0.00     0.009 A 
ENDBRANCH  32  34
ENDBRANCH  30  32
ENDBRANCH  27  28
ENDBRANCH  26  27
ENDBRANCH  13  26
TORSDOF 6
ENDMDL
