MODEL 1
REMARK minimizedAffinity -10.3788986
REMARK  5 active torsions:
REMARK  status: ('A' for Active; 'I' for Inactive)
REMARK    1  A    between atoms: N1_2  and  C2_3 
REMARK    2  A    between atoms: C4_5  and  N3_29 
REMARK    3  A    between atoms: C5_7  and  N2_12 
REMARK    4  A    between atoms: C7_9  and  O2_10 
REMARK    5  A    between atoms: C28_35  and  O4_36 
ROOT
HETATM    1  C2  UNL     1      10.086  -7.970  26.373  1.00  0.00     0.257 C 
HETATM    2  C3  UNL     1       9.157  -8.003  27.593  1.00  0.00     0.092 C 
HETATM    3  C4  UNL     1       9.921  -7.896  28.918  1.00  0.00     0.234 C 
HETATM    4  O1  UNL     1      11.332  -8.046  28.796  1.00  0.00    -0.333 OA
HETATM    5  C5  UNL     1      12.011  -7.219  27.818  1.00  0.00     0.168 C 
HETATM    6  C6  UNL     1      13.123  -8.196  27.368  1.00  0.00     0.074 C 
HETATM    7  C7  UNL     1      11.126  -6.846  26.578  1.00  0.00     0.209 C 
ENDROOT
BRANCH   1   8
HETATM    8  N1  UNL     1       9.350  -7.734  25.112  1.00  0.00     0.086 N 
HETATM    9  C1  UNL     1       7.938  -8.080  25.184  1.00  0.00     0.307 C 
HETATM   10  H4  UNL     1       9.455  -6.746  24.861  1.00  0.00     0.316 HD
ENDBRANCH   1   8
BRANCH   7  11
HETATM   11  O2  UNL     1      10.363  -5.634  26.772  1.00  0.00    -0.384 OA
HETATM   12  C8  UNL     1      11.161  -4.527  27.166  1.00  0.00     0.202 C 
ENDBRANCH   7  11
BRANCH   3  13
HETATM   13  N3  UNL     1       9.583  -6.744  29.749  1.00  0.00    -0.316 N 
HETATM   14  C24 UNL     1      10.499  -6.022  30.502  1.00  0.00     0.048 A 
HETATM   15  C19 UNL     1       9.819  -4.918  31.043  1.00  0.00     0.004 A 
HETATM   16  C23 UNL     1      11.867  -6.244  30.743  1.00  0.00     0.030 A 
HETATM   17  C18 UNL     1       8.465  -4.986  30.595  1.00  0.00     0.022 A 
HETATM   18  C20 UNL     1      10.545  -4.025  31.859  1.00  0.00     0.014 A 
HETATM   19  C17 UNL     1       7.272  -4.257  30.710  1.00  0.00     0.057 A 
HETATM   20  C25 UNL     1       8.370  -6.134  29.827  1.00  0.00     0.077 A 
HETATM   21  C16 UNL     1       6.022  -4.632  30.129  1.00  0.00     0.020 A 
HETATM   22  C27 UNL     1       7.051  -2.981  31.403  1.00  0.00     0.255 A 
HETATM   23  C15 UNL     1       5.880  -5.807  29.372  1.00  0.00     0.017 A 
HETATM   24  C28 UNL     1       5.005  -3.586  30.470  1.00  0.00     0.257 A 
HETATM   25  C14 UNL     1       4.827  -6.498  28.715  1.00  0.00     0.004 A 
HETATM   26  C26 UNL     1       7.014  -6.568  29.191  1.00  0.00     0.077 A 
HETATM   27  C9  UNL     1       5.359  -7.687  28.176  1.00  0.00     0.049 A 
HETATM   28  C13 UNL     1       3.447  -6.230  28.569  1.00  0.00     0.014 A 
HETATM   29  N2  UNL     1       6.726  -7.690  28.454  1.00  0.00    -0.308 N 
HETATM   30  C10 UNL     1       4.511  -8.607  27.528  1.00  0.00     0.030 A 
HETATM   31  C11 UNL     1       3.150  -8.312  27.395  1.00  0.00     0.002 A 
HETATM   32  C12 UNL     1       2.622  -7.136  27.905  1.00  0.00     0.001 A 
HETATM   33  N4  UNL     1       5.709  -2.675  31.306  1.00  0.00    -0.326 N 
HETATM   34  H24 UNL     1       5.405  -1.733  31.507  1.00  0.00     0.165 HD
HETATM   35  O3  UNL     1       7.873  -2.273  31.948  1.00  0.00    -0.268 OA
HETATM   36  C21 UNL     1      11.903  -4.245  32.109  1.00  0.00     0.001 A 
HETATM   37  C22 UNL     1      12.554  -5.341  31.556  1.00  0.00     0.002 A 
BRANCH  24  38
HETATM   38  O4  UNL     1       3.960  -4.105  31.246  1.00  0.00    -0.372 OA
HETATM   39  H26 UNL     1       4.051  -3.654  32.100  1.00  0.00     0.212 HD
ENDBRANCH  24  38
ENDBRANCH   3  13
TORSDOF 5
ENDMDL
MODEL 2
REMARK minimizedAffinity -9.95461655
REMARK  5 active torsions:
REMARK  status: ('A' for Active; 'I' for Inactive)
REMARK    1  A    between atoms: N1_2  and  C2_3 
REMARK    2  A    between atoms: C4_5  and  N3_29 
REMARK    3  A    between atoms: C5_7  and  N2_12 
REMARK    4  A    between atoms: C7_9  and  O2_10 
REMARK    5  A    between atoms: C28_35  and  O4_36 
ROOT
HETATM    1  C2  UNL     1       9.482  -8.875  25.615  1.00  0.00     0.257 C 
HETATM    2  C3  UNL     1       8.447  -8.679  26.728  1.00  0.00     0.092 C 
HETATM    3  C4  UNL     1       9.032  -8.914  28.126  1.00  0.00     0.234 C 
HETATM    4  O1  UNL     1      10.326  -9.511  28.127  1.00  0.00    -0.333 OA
HETATM    5  C5  UNL     1      11.350  -8.891  27.309  1.00  0.00     0.168 C 
HETATM    6  C6  UNL     1      12.139 -10.148  26.873  1.00  0.00     0.074 C 
HETATM    7  C7  UNL     1      10.792  -8.170  26.033  1.00  0.00     0.209 C 
ENDROOT
BRANCH   1   8
HETATM    8  N1  UNL     1       9.024  -8.330  24.319  1.00  0.00     0.086 N 
HETATM    9  C1  UNL     1       9.634  -8.972  23.164  1.00  0.00     0.307 C 
HETATM   10  H4  UNL     1       8.004  -8.426  24.274  1.00  0.00     0.316 HD
ENDBRANCH   1   8
BRANCH   7  11
HETATM   11  O2  UNL     1      10.437  -6.789  26.273  1.00  0.00    -0.384 OA
HETATM   12  C8  UNL     1      11.552  -5.975  26.608  1.00  0.00     0.202 C 
ENDBRANCH   7  11
BRANCH   3  13
HETATM   13  N3  UNL     1       8.978  -7.771  29.032  1.00  0.00    -0.316 N 
HETATM   14  C24 UNL     1      10.073  -7.252  29.710  1.00  0.00     0.048 A 
HETATM   15  C19 UNL     1       9.646  -6.084  30.363  1.00  0.00     0.004 A 
HETATM   16  C23 UNL     1      11.401  -7.707  29.793  1.00  0.00     0.030 A 
HETATM   17  C18 UNL     1       8.262  -5.904  30.062  1.00  0.00     0.022 A 
HETATM   18  C20 UNL     1      10.590  -5.369  31.130  1.00  0.00     0.014 A 
HETATM   19  C17 UNL     1       7.226  -4.998  30.333  1.00  0.00     0.057 A 
HETATM   20  C25 UNL     1       7.899  -6.977  29.265  1.00  0.00     0.077 A 
HETATM   21  C16 UNL     1       5.879  -5.130  29.876  1.00  0.00     0.020 A 
HETATM   22  C27 UNL     1       7.293  -3.744  31.096  1.00  0.00     0.255 A 
HETATM   23  C15 UNL     1       5.466  -6.222  29.094  1.00  0.00     0.017 A 
HETATM   24  C28 UNL     1       5.093  -3.953  30.366  1.00  0.00     0.257 A 
HETATM   25  C14 UNL     1       4.252  -6.694  28.528  1.00  0.00     0.004 A 
HETATM   26  C26 UNL     1       6.432  -7.147  28.763  1.00  0.00     0.077 A 
HETATM   27  C9  UNL     1       4.520  -7.922  27.890  1.00  0.00     0.049 A 
HETATM   28  C13 UNL     1       2.929  -6.197  28.544  1.00  0.00     0.014 A 
HETATM   29  N2  UNL     1       5.888  -8.163  28.018  1.00  0.00    -0.308 N 
HETATM   30  C10 UNL     1       3.468  -8.653  27.302  1.00  0.00     0.030 A 
HETATM   31  C11 UNL     1       2.170  -8.133  27.329  1.00  0.00     0.002 A 
HETATM   32  C12 UNL     1       1.901  -6.917  27.938  1.00  0.00     0.001 A 
HETATM   33  N4  UNL     1       6.020  -3.218  31.156  1.00  0.00    -0.326 N 
HETATM   34  H24 UNL     1       5.900  -2.252  31.424  1.00  0.00     0.165 HD
HETATM   35  O3  UNL     1       8.274  -3.212  31.575  1.00  0.00    -0.268 OA
HETATM   36  C21 UNL     1      11.910  -5.822  31.223  1.00  0.00     0.001 A 
HETATM   37  C22 UNL     1      12.308  -6.976  30.561  1.00  0.00     0.002 A 
BRANCH  24  38
HETATM   38  O4  UNL     1       4.058  -4.337  31.230  1.00  0.00    -0.372 OA
HETATM   39  H26 UNL     1       4.309  -3.956  32.085  1.00  0.00     0.212 HD
ENDBRANCH  24  38
ENDBRANCH   3  13
TORSDOF 5
ENDMDL
MODEL 3
REMARK minimizedAffinity -9.81031322
REMARK  5 active torsions:
REMARK  status: ('A' for Active; 'I' for Inactive)
REMARK    1  A    between atoms: N1_2  and  C2_3 
REMARK    2  A    between atoms: C4_5  and  N3_29 
REMARK    3  A    between atoms: C5_7  and  N2_12 
REMARK    4  A    between atoms: C7_9  and  O2_10 
REMARK    5  A    between atoms: C28_35  and  O4_36 
ROOT
HETATM    1  C2  UNL     1      10.682 -10.066  26.900  1.00  0.00     0.257 C 
HETATM    2  C3  UNL     1       9.513 -10.252  27.874  1.00  0.00     0.092 C 
HETATM    3  C4  UNL     1       9.207  -8.981  28.676  1.00  0.00     0.234 C 
HETATM    4  O1  UNL     1      10.199  -7.966  28.567  1.00  0.00    -0.333 OA
HETATM    5  C5  UNL     1      10.607  -7.568  27.234  1.00  0.00     0.168 C 
HETATM    6  C6  UNL     1      12.100  -7.255  27.494  1.00  0.00     0.074 C 
HETATM    7  C7  UNL     1      10.503  -8.716  26.171  1.00  0.00     0.209 C 
ENDROOT
BRANCH   1   8
HETATM    8  N1  UNL     1      10.761 -11.156  25.902  1.00  0.00     0.086 N 
HETATM    9  C1  UNL     1       9.945 -12.315  26.234  1.00  0.00     0.307 C 
HETATM   10  H4  UNL     1      10.478 -10.778  24.993  1.00  0.00     0.316 HD
ENDBRANCH   1   8
BRANCH   7  11
HETATM   11  O2  UNL     1       9.207  -8.781  25.533  1.00  0.00    -0.384 OA
HETATM   12  C8  UNL     1       9.279  -8.736  24.115  1.00  0.00     0.202 C 
ENDBRANCH   7  11
BRANCH   3  13
HETATM   13  N3  UNL     1       7.866  -8.431  28.496  1.00  0.00    -0.316 N 
HETATM   14  C24 UNL     1       6.865  -9.032  27.746  1.00  0.00     0.048 A 
HETATM   15  C19 UNL     1       5.694  -8.277  27.930  1.00  0.00     0.004 A 
HETATM   16  C23 UNL     1       6.889 -10.179  26.933  1.00  0.00     0.030 A 
HETATM   17  C18 UNL     1       6.010  -7.202  28.816  1.00  0.00     0.022 A 
HETATM   18  C20 UNL     1       4.524  -8.692  27.260  1.00  0.00     0.014 A 
HETATM   19  C17 UNL     1       5.375  -6.115  29.433  1.00  0.00     0.057 A 
HETATM   20  C25 UNL     1       7.357  -7.331  29.111  1.00  0.00     0.077 A 
HETATM   21  C16 UNL     1       6.017  -5.165  30.285  1.00  0.00     0.020 A 
HETATM   22  C27 UNL     1       3.958  -5.734  29.367  1.00  0.00     0.255 A 
HETATM   23  C15 UNL     1       7.388  -5.244  30.581  1.00  0.00     0.017 A 
HETATM   24  C28 UNL     1       4.994  -4.174  30.749  1.00  0.00     0.257 A 
HETATM   25  C14 UNL     1       8.339  -4.482  31.312  1.00  0.00     0.004 A 
HETATM   26  C26 UNL     1       8.081  -6.301  30.031  1.00  0.00     0.077 A 
HETATM   27  C9  UNL     1       9.598  -5.094  31.154  1.00  0.00     0.049 A 
HETATM   28  C13 UNL     1       8.238  -3.290  32.065  1.00  0.00     0.014 A 
HETATM   29  N2  UNL     1       9.406  -6.242  30.386  1.00  0.00    -0.308 N 
HETATM   30  C10 UNL     1      10.744  -4.500  31.720  1.00  0.00     0.030 A 
HETATM   31  C11 UNL     1      10.613  -3.323  32.464  1.00  0.00     0.002 A 
HETATM   32  C12 UNL     1       9.375  -2.725  32.640  1.00  0.00     0.001 A 
HETATM   33  N4  UNL     1       3.802  -4.562  30.077  1.00  0.00    -0.326 N 
HETATM   34  H24 UNL     1       2.874  -4.273  30.349  1.00  0.00     0.165 HD
HETATM   35  O3  UNL     1       3.048  -6.330  28.827  1.00  0.00    -0.268 OA
HETATM   36  C21 UNL     1       4.545  -9.826  26.442  1.00  0.00     0.001 A 
HETATM   37  C22 UNL     1       5.714 -10.560  26.283  1.00  0.00     0.002 A 
BRANCH  24  38
HETATM   38  O4  UNL     1       5.287  -2.875  30.313  1.00  0.00    -0.372 OA
HETATM   39  H26 UNL     1       4.564  -2.660  29.705  1.00  0.00     0.212 HD
ENDBRANCH  24  38
ENDBRANCH   3  13
TORSDOF 5
ENDMDL
MODEL 4
REMARK minimizedAffinity -9.71591377
REMARK  5 active torsions:
REMARK  status: ('A' for Active; 'I' for Inactive)
REMARK    1  A    between atoms: N1_2  and  C2_3 
REMARK    2  A    between atoms: C4_5  and  N3_29 
REMARK    3  A    between atoms: C5_7  and  N2_12 
REMARK    4  A    between atoms: C7_9  and  O2_10 
REMARK    5  A    between atoms: C28_35  and  O4_36 
ROOT
HETATM    1  C2  UNL     1      10.843  -7.518  26.288  1.00  0.00     0.257 C 
HETATM    2  C3  UNL     1       9.462  -8.035  26.707  1.00  0.00     0.092 C 
HETATM    3  C4  UNL     1       9.349  -8.252  28.222  1.00  0.00     0.234 C 
HETATM    4  O1  UNL     1      10.590  -8.187  28.917  1.00  0.00    -0.333 OA
HETATM    5  C5  UNL     1      11.426  -7.025  28.691  1.00  0.00     0.168 C 
HETATM    6  C6  UNL     1      12.825  -7.676  28.801  1.00  0.00     0.074 C 
HETATM    7  C7  UNL     1      11.265  -6.396  27.264  1.00  0.00     0.209 C 
ENDROOT
BRANCH   1   8
HETATM    8  N1  UNL     1      10.850  -6.993  24.905  1.00  0.00     0.086 N 
HETATM    9  C1  UNL     1      10.807  -8.030  23.884  1.00  0.00     0.307 C 
HETATM   10  H4  UNL     1      10.049  -6.363  24.797  1.00  0.00     0.316 HD
ENDBRANCH   1   8
BRANCH   7  11
HETATM   11  O2  UNL     1      10.217  -5.402  27.197  1.00  0.00    -0.384 OA
HETATM   12  C8  UNL     1      10.710  -4.070  27.188  1.00  0.00     0.202 C 
ENDBRANCH   7  11
BRANCH   3  13
HETATM   13  N3  UNL     1       8.324  -7.460  28.896  1.00  0.00    -0.316 N 
HETATM   14  C24 UNL     1       8.584  -6.503  29.867  1.00  0.00     0.048 A 
HETATM   15  C19 UNL     1       7.366  -5.870  30.167  1.00  0.00     0.004 A 
HETATM   16  C23 UNL     1       9.787  -6.135  30.496  1.00  0.00     0.030 A 
HETATM   17  C18 UNL     1       6.358  -6.467  29.349  1.00  0.00     0.022 A 
HETATM   18  C20 UNL     1       7.369  -4.848  31.139  1.00  0.00     0.014 A 
HETATM   19  C17 UNL     1       4.983  -6.344  29.101  1.00  0.00     0.057 A 
HETATM   20  C25 UNL     1       6.995  -7.450  28.610  1.00  0.00     0.077 A 
HETATM   21  C16 UNL     1       4.238  -7.156  28.192  1.00  0.00     0.020 A 
HETATM   22  C27 UNL     1       4.040  -5.377  29.676  1.00  0.00     0.255 A 
HETATM   23  C15 UNL     1       4.843  -8.184  27.450  1.00  0.00     0.017 A 
HETATM   24  C28 UNL     1       2.812  -6.699  28.206  1.00  0.00     0.257 A 
HETATM   25  C14 UNL     1       4.429  -9.185  26.531  1.00  0.00     0.004 A 
HETATM   26  C26 UNL     1       6.200  -8.353  27.619  1.00  0.00     0.077 A 
HETATM   27  C9  UNL     1       5.557  -9.958  26.193  1.00  0.00     0.049 A 
HETATM   28  C13 UNL     1       3.169  -9.526  25.989  1.00  0.00     0.014 A 
HETATM   29  N2  UNL     1       6.652  -9.399  26.852  1.00  0.00    -0.308 N 
HETATM   30  C10 UNL     1       5.417 -11.075  25.346  1.00  0.00     0.030 A 
HETATM   31  C11 UNL     1       4.158 -11.386  24.821  1.00  0.00     0.002 A 
HETATM   32  C12 UNL     1       3.045 -10.620  25.134  1.00  0.00     0.001 A 
HETATM   33  N4  UNL     1       2.783  -5.673  29.190  1.00  0.00    -0.326 N 
HETATM   34  H24 UNL     1       2.049  -4.985  29.276  1.00  0.00     0.165 HD
HETATM   35  O3  UNL     1       4.281  -4.448  30.420  1.00  0.00    -0.268 OA
HETATM   36  C21 UNL     1       8.561  -4.485  31.775  1.00  0.00     0.001 A 
HETATM   37  C22 UNL     1       9.754  -5.121  31.455  1.00  0.00     0.002 A 
BRANCH  24  38
HETATM   38  O4  UNL     1       1.944  -7.703  28.658  1.00  0.00    -0.372 OA
HETATM   39  H26 UNL     1       1.593  -7.355  29.492  1.00  0.00     0.212 HD
ENDBRANCH  24  38
ENDBRANCH   3  13
TORSDOF 5
ENDMDL
MODEL 5
REMARK minimizedAffinity -9.30465889
REMARK  5 active torsions:
REMARK  status: ('A' for Active; 'I' for Inactive)
REMARK    1  A    between atoms: N1_2  and  C2_3 
REMARK    2  A    between atoms: C4_5  and  N3_29 
REMARK    3  A    between atoms: C5_7  and  N2_12 
REMARK    4  A    between atoms: C7_9  and  O2_10 
REMARK    5  A    between atoms: C28_35  and  O4_36 
ROOT
HETATM    1  C2  UNL     1       6.326  -9.207  25.986  1.00  0.00     0.257 C 
HETATM    2  C3  UNL     1       6.120  -8.987  27.489  1.00  0.00     0.092 C 
HETATM    3  C4  UNL     1       7.445  -8.895  28.257  1.00  0.00     0.234 C 
HETATM    4  O1  UNL     1       8.589  -9.281  27.502  1.00  0.00    -0.333 OA
HETATM    5  C5  UNL     1       8.777  -8.659  26.206  1.00  0.00     0.168 C 
HETATM    6  C6  UNL     1       9.419  -9.837  25.436  1.00  0.00     0.074 C 
HETATM    7  C7  UNL     1       7.439  -8.253  25.497  1.00  0.00     0.209 C 
ENDROOT
BRANCH   1   8
HETATM    8  N1  UNL     1       5.092  -8.960  25.208  1.00  0.00     0.086 N 
HETATM    9  C1  UNL     1       3.874  -9.036  26.001  1.00  0.00     0.307 C 
HETATM   10  H4  UNL     1       5.168  -8.036  24.772  1.00  0.00     0.316 HD
ENDBRANCH   1   8
BRANCH   7  11
HETATM   11  O2  UNL     1       6.996  -6.921  25.844  1.00  0.00    -0.384 OA
HETATM   12  C8  UNL     1       8.068  -6.013  26.058  1.00  0.00     0.202 C 
ENDBRANCH   7  11
BRANCH   3  13
HETATM   13  N3  UNL     1       7.677  -7.638  28.963  1.00  0.00    -0.316 N 
HETATM   14  C24 UNL     1       6.690  -6.708  29.258  1.00  0.00     0.048 A 
HETATM   15  C19 UNL     1       7.277  -5.713  30.057  1.00  0.00     0.004 A 
HETATM   16  C23 UNL     1       5.331  -6.666  28.898  1.00  0.00     0.030 A 
HETATM   17  C18 UNL     1       8.649  -6.064  30.242  1.00  0.00     0.022 A 
HETATM   18  C20 UNL     1       6.466  -4.643  30.489  1.00  0.00     0.014 A 
HETATM   19  C17 UNL     1       9.788  -5.581  30.903  1.00  0.00     0.057 A 
HETATM   20  C25 UNL     1       8.845  -7.236  29.532  1.00  0.00     0.077 A 
HETATM   21  C16 UNL     1      11.080  -6.188  30.862  1.00  0.00     0.020 A 
HETATM   22  C27 UNL     1       9.901  -4.403  31.773  1.00  0.00     0.255 A 
HETATM   23  C15 UNL     1      11.325  -7.359  30.126  1.00  0.00     0.017 A 
HETATM   24  C28 UNL     1      12.014  -5.377  31.707  1.00  0.00     0.257 A 
HETATM   25  C14 UNL     1      12.443  -8.181  29.822  1.00  0.00     0.004 A 
HETATM   26  C26 UNL     1      10.249  -7.912  29.466  1.00  0.00     0.077 A 
HETATM   27  C9  UNL     1      12.009  -9.200  28.952  1.00  0.00     0.049 A 
HETATM   28  C13 UNL     1      13.808  -8.115  30.184  1.00  0.00     0.014 A 
HETATM   29  N2  UNL     1      10.635  -9.034  28.775  1.00  0.00    -0.308 N 
HETATM   30  C10 UNL     1      12.937 -10.122  28.430  1.00  0.00     0.030 A 
HETATM   31  C11 UNL     1      14.281 -10.035  28.810  1.00  0.00     0.002 A 
HETATM   32  C12 UNL     1      14.713  -9.047  29.680  1.00  0.00     0.001 A 
HETATM   33  N4  UNL     1      11.223  -4.281  32.148  1.00  0.00    -0.326 N 
HETATM   34  H24 UNL     1      11.458  -3.684  32.928  1.00  0.00     0.165 HD
HETATM   35  O3  UNL     1       9.015  -3.662  32.149  1.00  0.00    -0.268 OA
HETATM   36  C21 UNL     1       5.116  -4.592  30.127  1.00  0.00     0.001 A 
HETATM   37  C22 UNL     1       4.557  -5.593  29.342  1.00  0.00     0.002 A 
BRANCH  24  38
HETATM   38  O4  UNL     1      13.060  -4.829  30.953  1.00  0.00    -0.372 OA
HETATM   39  H26 UNL     1      12.909  -3.873  30.996  1.00  0.00     0.212 HD
ENDBRANCH  24  38
ENDBRANCH   3  13
TORSDOF 5
ENDMDL
MODEL 6
REMARK minimizedAffinity -9.27838707
REMARK  5 active torsions:
REMARK  status: ('A' for Active; 'I' for Inactive)
REMARK    1  A    between atoms: N1_2  and  C2_3 
REMARK    2  A    between atoms: C4_5  and  N3_29 
REMARK    3  A    between atoms: C5_7  and  N2_12 
REMARK    4  A    between atoms: C7_9  and  O2_10 
REMARK    5  A    between atoms: C28_35  and  O4_36 
ROOT
HETATM    1  C2  UNL     1      11.426  -3.802  33.155  1.00  0.00     0.257 C 
HETATM    2  C3  UNL     1      11.626  -4.954  32.164  1.00  0.00     0.092 C 
HETATM    3  C4  UNL     1      10.450  -5.939  32.160  1.00  0.00     0.234 C 
HETATM    4  O1  UNL     1       9.531  -5.759  33.233  1.00  0.00    -0.333 OA
HETATM    5  C5  UNL     1       9.001  -4.426  33.444  1.00  0.00     0.168 C 
HETATM    6  C6  UNL     1       8.873  -4.431  34.986  1.00  0.00     0.074 C 
HETATM    7  C7  UNL     1       9.979  -3.279  33.016  1.00  0.00     0.209 C 
ENDROOT
BRANCH   1   8
HETATM    8  N1  UNL     1      12.375  -2.691  32.924  1.00  0.00     0.086 N 
HETATM    9  C1  UNL     1      11.749  -1.487  32.398  1.00  0.00     0.307 C 
HETATM   10  H4  UNL     1      12.844  -2.482  33.811  1.00  0.00     0.316 HD
ENDBRANCH   1   8
BRANCH   7  11
HETATM   11  O2  UNL     1       9.831  -2.897  31.629  1.00  0.00    -0.384 OA
HETATM   12  C8  UNL     1       8.696  -2.076  31.394  1.00  0.00     0.202 C 
ENDBRANCH   7  11
BRANCH   3  13
HETATM   13  N3  UNL     1       9.752  -6.082  30.886  1.00  0.00    -0.316 N 
HETATM   14  C24 UNL     1       8.436  -5.701  30.664  1.00  0.00     0.048 A 
HETATM   15  C19 UNL     1       8.177  -5.867  29.293  1.00  0.00     0.004 A 
HETATM   16  C23 UNL     1       7.458  -5.217  31.551  1.00  0.00     0.030 A 
HETATM   17  C18 UNL     1       9.374  -6.356  28.686  1.00  0.00     0.022 A 
HETATM   18  C20 UNL     1       6.889  -5.545  28.816  1.00  0.00     0.014 A 
HETATM   19  C17 UNL     1       9.848  -6.718  27.417  1.00  0.00     0.057 A 
HETATM   20  C25 UNL     1      10.297  -6.492  29.710  1.00  0.00     0.077 A 
HETATM   21  C16 UNL     1      11.156  -7.220  27.142  1.00  0.00     0.020 A 
HETATM   22  C27 UNL     1       9.144  -6.643  26.130  1.00  0.00     0.255 A 
HETATM   23  C15 UNL     1      12.108  -7.402  28.159  1.00  0.00     0.017 A 
HETATM   24  C28 UNL     1      11.271  -7.471  25.669  1.00  0.00     0.257 A 
HETATM   25  C14 UNL     1      13.432  -7.907  28.264  1.00  0.00     0.004 A 
HETATM   26  C26 UNL     1      11.728  -7.046  29.434  1.00  0.00     0.077 A 
HETATM   27  C9  UNL     1      13.804  -7.868  29.623  1.00  0.00     0.049 A 
HETATM   28  C13 UNL     1      14.335  -8.437  27.315  1.00  0.00     0.014 A 
HETATM   29  N2  UNL     1      12.743  -7.295  30.325  1.00  0.00    -0.308 N 
HETATM   30  C10 UNL     1      15.053  -8.382  30.026  1.00  0.00     0.030 A 
HETATM   31  C11 UNL     1      15.927  -8.896  29.063  1.00  0.00     0.002 A 
HETATM   32  C12 UNL     1      15.577  -8.921  27.722  1.00  0.00     0.001 A 
HETATM   33  N4  UNL     1       9.977  -7.165  25.162  1.00  0.00    -0.326 N 
HETATM   34  H24 UNL     1       9.774  -6.982  24.190  1.00  0.00     0.165 HD
HETATM   35  O3  UNL     1       8.043  -6.183  25.904  1.00  0.00    -0.268 OA
HETATM   36  C21 UNL     1       5.911  -5.071  29.696  1.00  0.00     0.001 A 
HETATM   37  C22 UNL     1       6.194  -4.908  31.045  1.00  0.00     0.002 A 
BRANCH  24  38
HETATM   38  O4  UNL     1      11.494  -8.825  25.384  1.00  0.00    -0.372 OA
HETATM   39  H26 UNL     1      10.694  -9.104  24.915  1.00  0.00     0.212 HD
ENDBRANCH  24  38
ENDBRANCH   3  13
TORSDOF 5
ENDMDL
MODEL 7
REMARK minimizedAffinity -9.20776558
REMARK  5 active torsions:
REMARK  status: ('A' for Active; 'I' for Inactive)
REMARK    1  A    between atoms: N1_2  and  C2_3 
REMARK    2  A    between atoms: C4_5  and  N3_29 
REMARK    3  A    between atoms: C5_7  and  N2_12 
REMARK    4  A    between atoms: C7_9  and  O2_10 
REMARK    5  A    between atoms: C28_35  and  O4_36 
ROOT
HETATM    1  C2  UNL     1      10.845  -4.022  32.733  1.00  0.00     0.257 C 
HETATM    2  C3  UNL     1      10.805  -5.534  32.488  1.00  0.00     0.092 C 
HETATM    3  C4  UNL     1       9.616  -5.959  31.617  1.00  0.00     0.234 C 
HETATM    4  O1  UNL     1       8.643  -4.939  31.416  1.00  0.00    -0.333 OA
HETATM    5  C5  UNL     1       9.110  -3.652  30.941  1.00  0.00     0.168 C 
HETATM    6  C6  UNL     1       8.116  -2.720  31.673  1.00  0.00     0.074 C 
HETATM    7  C7  UNL     1      10.569  -3.300  31.395  1.00  0.00     0.209 C 
ENDROOT
BRANCH   1   8
HETATM    8  N1  UNL     1      12.147  -3.574  33.273  1.00  0.00     0.086 N 
HETATM    9  C1  UNL     1      12.114  -3.253  34.692  1.00  0.00     0.307 C 
HETATM   10  H4  UNL     1      12.837  -4.312  33.098  1.00  0.00     0.316 HD
ENDBRANCH   1   8
BRANCH   7  11
HETATM   11  O2  UNL     1      11.578  -3.776  30.475  1.00  0.00    -0.384 OA
HETATM   12  C8  UNL     1      11.283  -3.478  29.118  1.00  0.00     0.202 C 
ENDBRANCH   7  11
BRANCH   3  13
HETATM   13  N3  UNL     1       9.959  -6.617  30.360  1.00  0.00    -0.316 N 
HETATM   14  C24 UNL     1      11.244  -6.998  29.998  1.00  0.00     0.048 A 
HETATM   15  C19 UNL     1      11.144  -7.716  28.794  1.00  0.00     0.004 A 
HETATM   16  C23 UNL     1      12.480  -6.780  30.633  1.00  0.00     0.030 A 
HETATM   17  C18 UNL     1       9.763  -7.764  28.436  1.00  0.00     0.022 A 
HETATM   18  C20 UNL     1      12.331  -8.213  28.217  1.00  0.00     0.014 A 
HETATM   19  C17 UNL     1       8.947  -8.296  27.426  1.00  0.00     0.057 A 
HETATM   20  C25 UNL     1       9.086  -7.055  29.414  1.00  0.00     0.077 A 
HETATM   21  C16 UNL     1       7.531  -8.131  27.344  1.00  0.00     0.020 A 
HETATM   22  C27 UNL     1       9.343  -9.131  26.284  1.00  0.00     0.255 A 
HETATM   23  C15 UNL     1       6.815  -7.392  28.300  1.00  0.00     0.017 A 
HETATM   24  C28 UNL     1       7.036  -8.862  26.133  1.00  0.00     0.257 A 
HETATM   25  C14 UNL     1       5.468  -6.987  28.505  1.00  0.00     0.004 A 
HETATM   26  C26 UNL     1       7.542  -6.855  29.340  1.00  0.00     0.077 A 
HETATM   27  C9  UNL     1       5.429  -6.183  29.662  1.00  0.00     0.049 A 
HETATM   28  C13 UNL     1       4.279  -7.205  27.773  1.00  0.00     0.014 A 
HETATM   29  N2  UNL     1       6.722  -6.146  30.183  1.00  0.00    -0.308 N 
HETATM   30  C10 UNL     1       4.218  -5.582  30.059  1.00  0.00     0.030 A 
HETATM   31  C11 UNL     1       3.056  -5.820  29.317  1.00  0.00     0.002 A 
HETATM   32  C12 UNL     1       3.082  -6.625  28.190  1.00  0.00     0.001 A 
HETATM   33  N4  UNL     1       8.218  -9.364  25.522  1.00  0.00    -0.326 N 
HETATM   34  H24 UNL     1       8.235 -10.107  24.837  1.00  0.00     0.165 HD
HETATM   35  O3  UNL     1      10.442  -9.585  26.035  1.00  0.00    -0.268 OA
HETATM   36  C21 UNL     1      13.564  -7.991  28.840  1.00  0.00     0.001 A 
HETATM   37  C22 UNL     1      13.635  -7.285  30.033  1.00  0.00     0.002 A 
BRANCH  24  38
HETATM   38  O4  UNL     1       6.449  -7.994  25.202  1.00  0.00    -0.372 OA
HETATM   39  H26 UNL     1       7.039  -8.038  24.433  1.00  0.00     0.212 HD
ENDBRANCH  24  38
ENDBRANCH   3  13
TORSDOF 5
ENDMDL
MODEL 8
REMARK minimizedAffinity -9.18604565
REMARK  5 active torsions:
REMARK  status: ('A' for Active; 'I' for Inactive)
REMARK    1  A    between atoms: N1_2  and  C2_3 
REMARK    2  A    between atoms: C4_5  and  N3_29 
REMARK    3  A    between atoms: C5_7  and  N2_12 
REMARK    4  A    between atoms: C7_9  and  O2_10 
REMARK    5  A    between atoms: C28_35  and  O4_36 
ROOT
HETATM    1  C2  UNL     1       7.921  -9.008  25.724  1.00  0.00     0.257 C 
HETATM    2  C3  UNL     1       7.903  -9.105  27.254  1.00  0.00     0.092 C 
HETATM    3  C4  UNL     1       9.135  -9.830  27.813  1.00  0.00     0.234 C 
HETATM    4  O1  UNL     1       9.921 -10.494  26.828  1.00  0.00    -0.333 OA
HETATM    5  C5  UNL     1      10.338  -9.724  25.673  1.00  0.00     0.168 C 
HETATM    6  C6  UNL     1      10.301 -10.828  24.590  1.00  0.00     0.074 C 
HETATM    7  C7  UNL     1       9.338  -8.584  25.276  1.00  0.00     0.209 C 
ENDROOT
BRANCH   1   8
HETATM    8  N1  UNL     1       6.932  -8.034  25.212  1.00  0.00     0.086 N 
HETATM    9  C1  UNL     1       5.556  -8.361  25.554  1.00  0.00     0.307 C 
HETATM   10  H4  UNL     1       7.174  -7.109  25.581  1.00  0.00     0.316 HD
ENDBRANCH   1   8
BRANCH   7  11
HETATM   11  O2  UNL     1       9.607  -7.334  25.950  1.00  0.00    -0.384 OA
HETATM   12  C8  UNL     1      10.981  -6.971  25.927  1.00  0.00     0.202 C 
ENDBRANCH   7  11
BRANCH   3  13
HETATM   13  N3  UNL     1       9.972  -9.045  28.715  1.00  0.00    -0.316 N 
HETATM   14  C24 UNL     1      11.302  -9.324  28.995  1.00  0.00     0.048 A 
HETATM   15  C19 UNL     1      11.793  -8.273  29.787  1.00  0.00     0.004 A 
HETATM   16  C23 UNL     1      12.114 -10.406  28.610  1.00  0.00     0.030 A 
HETATM   17  C18 UNL     1      10.725  -7.343  29.978  1.00  0.00     0.022 A 
HETATM   18  C20 UNL     1      13.138  -8.330  30.208  1.00  0.00     0.014 A 
HETATM   19  C17 UNL     1      10.490  -6.114  30.610  1.00  0.00     0.057 A 
HETATM   20  C25 UNL     1       9.629  -7.877  29.322  1.00  0.00     0.077 A 
HETATM   21  C16 UNL     1       9.236  -5.430  30.634  1.00  0.00     0.020 A 
HETATM   22  C27 UNL     1      11.446  -5.270  31.339  1.00  0.00     0.255 A 
HETATM   23  C15 UNL     1       8.094  -5.957  30.008  1.00  0.00     0.017 A 
HETATM   24  C28 UNL     1       9.405  -4.151  31.394  1.00  0.00     0.257 A 
HETATM   25  C14 UNL     1       6.725  -5.601  29.874  1.00  0.00     0.004 A 
HETATM   26  C26 UNL     1       8.248  -7.153  29.342  1.00  0.00     0.077 A 
HETATM   27  C9  UNL     1       6.080  -6.622  29.149  1.00  0.00     0.049 A 
HETATM   28  C13 UNL     1       5.967  -4.507  30.351  1.00  0.00     0.014 A 
HETATM   29  N2  UNL     1       7.054  -7.557  28.798  1.00  0.00    -0.308 N 
HETATM   30  C10 UNL     1       4.689  -6.560  28.932  1.00  0.00     0.030 A 
HETATM   31  C11 UNL     1       3.966  -5.463  29.412  1.00  0.00     0.002 A 
HETATM   32  C12 UNL     1       4.596  -4.444  30.110  1.00  0.00     0.001 A 
HETATM   33  N4  UNL     1      10.755  -4.187  31.842  1.00  0.00    -0.326 N 
HETATM   34  H24 UNL     1      11.272  -3.381  32.163  1.00  0.00     0.165 HD
HETATM   35  O3  UNL     1      12.641  -5.437  31.472  1.00  0.00    -0.268 OA
HETATM   36  C21 UNL     1      13.947  -9.408  29.835  1.00  0.00     0.001 A 
HETATM   37  C22 UNL     1      13.440 -10.431  29.045  1.00  0.00     0.002 A 
BRANCH  24  38
HETATM   38  O4  UNL     1       8.609  -4.116  32.546  1.00  0.00    -0.372 OA
HETATM   39  H26 UNL     1       9.247  -4.110  33.276  1.00  0.00     0.212 HD
ENDBRANCH  24  38
ENDBRANCH   3  13
TORSDOF 5
ENDMDL
MODEL 9
REMARK minimizedAffinity -9.16512585
REMARK  5 active torsions:
REMARK  status: ('A' for Active; 'I' for Inactive)
REMARK    1  A    between atoms: N1_2  and  C2_3 
REMARK    2  A    between atoms: C4_5  and  N3_29 
REMARK    3  A    between atoms: C5_7  and  N2_12 
REMARK    4  A    between atoms: C7_9  and  O2_10 
REMARK    5  A    between atoms: C28_35  and  O4_36 
ROOT
HETATM    1  C2  UNL     1      11.147  -6.835  28.216  1.00  0.00     0.257 C 
HETATM    2  C3  UNL     1      10.124  -7.611  29.053  1.00  0.00     0.092 C 
HETATM    3  C4  UNL     1       9.191  -6.688  29.847  1.00  0.00     0.234 C 
HETATM    4  O1  UNL     1       9.597  -5.323  29.870  1.00  0.00    -0.333 OA
HETATM    5  C5  UNL     1       9.884  -4.687  28.599  1.00  0.00     0.168 C 
HETATM    6  C6  UNL     1      11.028  -3.738  29.027  1.00  0.00     0.074 C 
HETATM    7  C7  UNL     1      10.419  -5.673  27.504  1.00  0.00     0.209 C 
ENDROOT
BRANCH   1   8
HETATM    8  N1  UNL     1      11.811  -7.690  27.207  1.00  0.00     0.086 N 
HETATM    9  C1  UNL     1      13.047  -8.299  27.677  1.00  0.00     0.307 C 
HETATM   10  H4  UNL     1      11.150  -8.418  26.920  1.00  0.00     0.316 HD
ENDBRANCH   1   8
BRANCH   7  11
HETATM   11  O2  UNL     1       9.364  -6.285  26.728  1.00  0.00    -0.384 OA
HETATM   12  C8  UNL     1       9.751  -6.582  25.394  1.00  0.00     0.202 C 
ENDBRANCH   7  11
BRANCH   3  13
HETATM   13  N3  UNL     1       7.770  -6.810  29.536  1.00  0.00    -0.316 N 
HETATM   14  C24 UNL     1       6.800  -5.894  29.920  1.00  0.00     0.048 A 
HETATM   15  C19 UNL     1       5.593  -6.286  29.318  1.00  0.00     0.004 A 
HETATM   16  C23 UNL     1       6.888  -4.750  30.734  1.00  0.00     0.030 A 
HETATM   17  C18 UNL     1       5.855  -7.464  28.555  1.00  0.00     0.022 A 
HETATM   18  C20 UNL     1       4.444  -5.503  29.561  1.00  0.00     0.014 A 
HETATM   19  C17 UNL     1       5.173  -8.359  27.718  1.00  0.00     0.057 A 
HETATM   20  C25 UNL     1       7.196  -7.754  28.744  1.00  0.00     0.077 A 
HETATM   21  C16 UNL     1       5.752  -9.511  27.103  1.00  0.00     0.020 A 
HETATM   22  C27 UNL     1       3.772  -8.305  27.280  1.00  0.00     0.255 A 
HETATM   23  C15 UNL     1       7.100  -9.855  27.298  1.00  0.00     0.017 A 
HETATM   24  C28 UNL     1       4.701 -10.190  26.280  1.00  0.00     0.257 A 
HETATM   25  C14 UNL     1       7.970 -10.909  26.909  1.00  0.00     0.004 A 
HETATM   26  C26 UNL     1       7.847  -9.011  28.090  1.00  0.00     0.077 A 
HETATM   27  C9  UNL     1       9.224 -10.681  27.512  1.00  0.00     0.049 A 
HETATM   28  C13 UNL     1       7.781 -12.069  26.124  1.00  0.00     0.014 A 
HETATM   29  N2  UNL     1       9.133  -9.477  28.210  1.00  0.00    -0.308 N 
HETATM   30  C10 UNL     1      10.262 -11.620  27.351  1.00  0.00     0.030 A 
HETATM   31  C11 UNL     1      10.046 -12.757  26.565  1.00  0.00     0.002 A 
HETATM   32  C12 UNL     1       8.822 -12.979  25.953  1.00  0.00     0.001 A 
HETATM   33  N4  UNL     1       3.525  -9.427  26.517  1.00  0.00    -0.326 N 
HETATM   34  H24 UNL     1       2.701  -9.451  25.933  1.00  0.00     0.165 HD
HETATM   35  O3  UNL     1       2.953  -7.435  27.497  1.00  0.00    -0.268 OA
HETATM   36  C21 UNL     1       4.524  -4.371  30.378  1.00  0.00     0.001 A 
HETATM   37  C22 UNL     1       5.732  -4.000  30.955  1.00  0.00     0.002 A 
BRANCH  24  38
HETATM   38  O4  UNL     1       4.430 -11.485  26.742  1.00  0.00    -0.372 OA
HETATM   39  H26 UNL     1       3.514 -11.438  27.057  1.00  0.00     0.212 HD
ENDBRANCH  24  38
ENDBRANCH   3  13
TORSDOF 5
ENDMDL
