MODEL 1
REMARK minimizedAffinity -9.67429447
REMARK  7 active torsions:
REMARK  status: ('A' for Active; 'I' for Inactive)
REMARK    1  A    between atoms: C2_2  and  C3_3 
REMARK    2  A    between atoms: C4_5  and  C5_6 
REMARK    3  A    between atoms: C5_6  and  C6_7 
REMARK    4  A    between atoms: C6_7  and  C7_8 
REMARK    5  A    between atoms: C7_8  and  C9_10 
REMARK    6  A    between atoms: C11_12  and  O2_13 
REMARK    7  A    between atoms: C30_33  and  O4_34 
ROOT
HETATM    1  C9  UNL     1       0.782   6.703  12.919  1.00  0.00     0.001 C 
HETATM    2  C10 UNL     1       1.140   7.519  14.198  1.00  0.00     0.038 C 
HETATM    3  C11 UNL     1      -0.179   7.810  14.937  1.00  0.00     0.132 C 
HETATM    4  C12 UNL     1      -1.177   6.782  14.359  1.00  0.00     0.016 C 
HETATM    5  C13 UNL     1      -0.928   5.393  15.041  1.00  0.00     0.023 C 
HETATM    6  C14 UNL     1      -2.676   7.048  14.507  1.00  0.00    -0.037 C 
HETATM    7  C15 UNL     1      -3.539   6.488  13.618  1.00  0.00    -0.065 C 
HETATM    8  C16 UNL     1      -3.030   5.718  12.389  1.00  0.00     0.036 C 
HETATM    9  C17 UNL     1      -1.507   5.691  12.126  1.00  0.00     0.015 C 
HETATM   10  C18 UNL     1      -0.774   6.836  12.837  1.00  0.00    -0.026 C 
HETATM   11  C19 UNL     1      -1.156   8.181  12.145  1.00  0.00     0.016 C 
HETATM   12  C20 UNL     1      -5.080   6.605  13.779  1.00  0.00    -0.015 C 
HETATM   13  C21 UNL     1      -5.574   7.588  12.690  1.00  0.00     0.020 C 
HETATM   14  C22 UNL     1      -5.752   5.217  13.553  1.00  0.00     0.021 C 
HETATM   15  C23 UNL     1      -7.077   4.996  14.277  1.00  0.00     0.080 C 
HETATM   16  C24 UNL     1      -7.771   6.292  14.612  1.00  0.00     0.135 C 
HETATM   17  O3  UNL     1      -8.926   6.498  14.240  1.00  0.00    -0.297 OA
HETATM   18  C25 UNL     1      -6.990   7.281  15.484  1.00  0.00     0.018 C 
HETATM   19  C26 UNL     1      -7.328   6.941  16.950  1.00  0.00     0.023 C 
HETATM   20  C27 UNL     1      -7.489   8.715  15.224  1.00  0.00     0.023 C 
HETATM   21  C28 UNL     1      -5.455   7.078  15.232  1.00  0.00     0.016 C 
HETATM   22  C29 UNL     1      -4.599   8.279  15.655  1.00  0.00     0.043 C 
HETATM   23  C30 UNL     1      -3.115   7.920  15.661  1.00  0.00     0.148 C 
ENDROOT
BRANCH   1  24
HETATM   24  C7  UNL     1       1.656   7.107  11.699  1.00  0.00    -0.013 C 
HETATM   25  C8  UNL     1       1.078   8.288  10.912  1.00  0.00     0.010 C 
BRANCH  24  26
HETATM   26  C6  UNL     1       1.925   5.920  10.733  1.00  0.00     0.008 C 
BRANCH  26  27
HETATM   27  C5  UNL     1       3.067   6.142   9.737  1.00  0.00     0.028 C 
BRANCH  27  28
HETATM   28  C4  UNL     1       2.565   6.137   8.317  1.00  0.00    -0.017 C 
HETATM   29  C2  UNL     1       2.287   7.197   7.535  1.00  0.00    -0.028 C 
HETATM   30  C1  UNL     1       1.746   7.053   6.143  1.00  0.00     0.051 C 
BRANCH  29  31
HETATM   31  C3  UNL     1       2.522   8.609   7.963  1.00  0.00     0.265 C 
HETATM   32  O1  UNL     1       3.456   9.300   7.579  1.00  0.00    -0.302 OA
ENDBRANCH  29  31
ENDBRANCH  27  28
ENDBRANCH  26  27
ENDBRANCH  24  26
ENDBRANCH   1  24
BRANCH   3  33
HETATM   33  O2  UNL     1      -0.032   7.711  16.349  1.00  0.00    -0.394 OA
HETATM   34  H18 UNL     1       0.736   8.255  16.598  1.00  0.00     0.210 HD
ENDBRANCH   3  33
BRANCH  23  35
HETATM   35  O4  UNL     1      -2.821   7.252  16.882  1.00  0.00    -0.391 OA
HETATM   36  H46 UNL     1      -1.850   7.324  16.998  1.00  0.00     0.210 HD
ENDBRANCH  23  35
TORSDOF 7
ENDMDL
MODEL 2
REMARK minimizedAffinity -9.27012825
REMARK  7 active torsions:
REMARK  status: ('A' for Active; 'I' for Inactive)
REMARK    1  A    between atoms: C2_2  and  C3_3 
REMARK    2  A    between atoms: C4_5  and  C5_6 
REMARK    3  A    between atoms: C5_6  and  C6_7 
REMARK    4  A    between atoms: C6_7  and  C7_8 
REMARK    5  A    between atoms: C7_8  and  C9_10 
REMARK    6  A    between atoms: C11_12  and  O2_13 
REMARK    7  A    between atoms: C30_33  and  O4_34 
ROOT
HETATM    1  C9  UNL     1      -2.609   5.756  13.120  1.00  0.00     0.001 C 
HETATM    2  C10 UNL     1      -2.525   4.872  11.838  1.00  0.00     0.038 C 
HETATM    3  C11 UNL     1      -1.109   5.043  11.259  1.00  0.00     0.132 C 
HETATM    4  C12 UNL     1      -0.279   5.610  12.434  1.00  0.00     0.016 C 
HETATM    5  C13 UNL     1       0.097   4.436  13.403  1.00  0.00     0.023 C 
HETATM    6  C14 UNL     1       1.036   6.326  12.129  1.00  0.00    -0.037 C 
HETATM    7  C15 UNL     1       1.512   7.245  13.011  1.00  0.00    -0.065 C 
HETATM    8  C16 UNL     1       0.683   7.681  14.231  1.00  0.00     0.036 C 
HETATM    9  C17 UNL     1      -0.754   7.131  14.369  1.00  0.00     0.015 C 
HETATM   10  C18 UNL     1      -1.317   6.633  13.032  1.00  0.00    -0.026 C 
HETATM   11  C19 UNL     1      -1.573   7.863  12.107  1.00  0.00     0.016 C 
HETATM   12  C20 UNL     1       2.901   7.916  12.834  1.00  0.00    -0.015 C 
HETATM   13  C21 UNL     1       2.643   9.381  12.406  1.00  0.00     0.020 C 
HETATM   14  C22 UNL     1       3.677   7.912  14.187  1.00  0.00     0.021 C 
HETATM   15  C23 UNL     1       5.199   7.908  14.078  1.00  0.00     0.080 C 
HETATM   16  C24 UNL     1       5.682   8.463  12.761  1.00  0.00     0.135 C 
HETATM   17  O3  UNL     1       6.480   9.399  12.730  1.00  0.00    -0.297 OA
HETATM   18  C25 UNL     1       5.181   7.756  11.496  1.00  0.00     0.018 C 
HETATM   19  C26 UNL     1       6.196   6.639  11.182  1.00  0.00     0.023 C 
HETATM   20  C27 UNL     1       5.200   8.736  10.307  1.00  0.00     0.023 C 
HETATM   21  C28 UNL     1       3.774   7.127  11.790  1.00  0.00     0.016 C 
HETATM   22  C29 UNL     1       2.964   6.817  10.523  1.00  0.00     0.043 C 
HETATM   23  C30 UNL     1       1.749   5.952  10.848  1.00  0.00     0.148 C 
ENDROOT
BRANCH   1  24
HETATM   24  C7  UNL     1      -3.996   6.440  13.273  1.00  0.00    -0.013 C 
HETATM   25  C8  UNL     1      -3.918   7.810  13.955  1.00  0.00     0.010 C 
BRANCH  24  26
HETATM   26  C6  UNL     1      -5.027   5.547  14.016  1.00  0.00     0.008 C 
BRANCH  26  27
HETATM   27  C5  UNL     1      -6.198   5.057  13.158  1.00  0.00     0.028 C 
BRANCH  27  28
HETATM   28  C4  UNL     1      -5.774   3.944  12.236  1.00  0.00    -0.017 C 
HETATM   29  C2  UNL     1      -6.321   2.720  12.112  1.00  0.00    -0.028 C 
HETATM   30  C1  UNL     1      -5.770   1.682  11.180  1.00  0.00     0.051 C 
BRANCH  29  31
HETATM   31  C3  UNL     1      -7.541   2.294  12.860  1.00  0.00     0.265 C 
HETATM   32  O1  UNL     1      -8.638   2.825  12.753  1.00  0.00    -0.302 OA
ENDBRANCH  29  31
ENDBRANCH  27  28
ENDBRANCH  26  27
ENDBRANCH  24  26
ENDBRANCH   1  24
BRANCH   3  33
HETATM   33  O2  UNL     1      -0.589   3.820  10.751  1.00  0.00    -0.394 OA
HETATM   34  H18 UNL     1      -1.262   3.447  10.153  1.00  0.00     0.210 HD
ENDBRANCH   3  33
BRANCH  23  35
HETATM   35  O4  UNL     1       2.174   4.597  10.936  1.00  0.00    -0.391 OA
HETATM   36  H46 UNL     1       1.364   4.056  10.823  1.00  0.00     0.210 HD
ENDBRANCH  23  35
TORSDOF 7
ENDMDL
MODEL 3
REMARK minimizedAffinity -8.82951355
REMARK  7 active torsions:
REMARK  status: ('A' for Active; 'I' for Inactive)
REMARK    1  A    between atoms: C2_2  and  C3_3 
REMARK    2  A    between atoms: C4_5  and  C5_6 
REMARK    3  A    between atoms: C5_6  and  C6_7 
REMARK    4  A    between atoms: C6_7  and  C7_8 
REMARK    5  A    between atoms: C7_8  and  C9_10 
REMARK    6  A    between atoms: C11_12  and  O2_13 
REMARK    7  A    between atoms: C30_33  and  O4_34 
ROOT
HETATM    1  C9  UNL     1      -1.954   6.047  12.371  1.00  0.00     0.001 C 
HETATM    2  C10 UNL     1      -2.250   6.954  13.605  1.00  0.00     0.038 C 
HETATM    3  C11 UNL     1      -0.988   7.796  13.864  1.00  0.00     0.132 C 
HETATM    4  C12 UNL     1      -0.198   7.723  12.537  1.00  0.00     0.016 C 
HETATM    5  C13 UNL     1      -0.835   8.721  11.511  1.00  0.00     0.023 C 
HETATM    6  C14 UNL     1       1.296   8.048  12.552  1.00  0.00    -0.037 C 
HETATM    7  C15 UNL     1       2.097   7.523  11.587  1.00  0.00    -0.065 C 
HETATM    8  C16 UNL     1       1.560   6.498  10.574  1.00  0.00     0.036 C 
HETATM    9  C17 UNL     1       0.110   5.992  10.751  1.00  0.00     0.015 C 
HETATM   10  C18 UNL     1      -0.410   6.203  12.178  1.00  0.00    -0.026 C 
HETATM   11  C19 UNL     1       0.346   5.232  13.136  1.00  0.00     0.016 C 
HETATM   12  C20 UNL     1       3.596   7.910  11.459  1.00  0.00    -0.015 C 
HETATM   13  C21 UNL     1       4.420   6.689  11.933  1.00  0.00     0.020 C 
HETATM   14  C22 UNL     1       3.948   8.214   9.971  1.00  0.00     0.021 C 
HETATM   15  C23 UNL     1       5.100   9.192   9.749  1.00  0.00     0.080 C 
HETATM   16  C24 UNL     1       6.035   9.255  10.930  1.00  0.00     0.135 C 
HETATM   17  O3  UNL     1       7.240   9.048  10.788  1.00  0.00    -0.297 OA
HETATM   18  C25 UNL     1       5.414   9.656  12.274  1.00  0.00     0.018 C 
HETATM   19  C26 UNL     1       5.502  11.193  12.361  1.00  0.00     0.023 C 
HETATM   20  C27 UNL     1       6.257   9.085  13.430  1.00  0.00     0.023 C 
HETATM   21  C28 UNL     1       3.910   9.208  12.291  1.00  0.00     0.016 C 
HETATM   22  C29 UNL     1       3.316   9.111  13.703  1.00  0.00     0.043 C 
HETATM   23  C30 UNL     1       1.797   8.960  13.648  1.00  0.00     0.148 C 
ENDROOT
BRANCH   1  24
HETATM   24  C7  UNL     1      -2.572   4.629  12.522  1.00  0.00    -0.013 C 
HETATM   25  C8  UNL     1      -1.997   3.614  11.528  1.00  0.00     0.010 C 
BRANCH  24  26
HETATM   26  C6  UNL     1      -4.122   4.636  12.419  1.00  0.00     0.008 C 
BRANCH  26  27
HETATM   27  C5  UNL     1      -4.857   4.955  13.725  1.00  0.00     0.028 C 
BRANCH  27  28
HETATM   28  C4  UNL     1      -6.212   5.558  13.459  1.00  0.00    -0.017 C 
HETATM   29  C2  UNL     1      -7.343   4.922  13.103  1.00  0.00    -0.028 C 
HETATM   30  C1  UNL     1      -8.624   5.653  12.823  1.00  0.00     0.051 C 
BRANCH  29  31
HETATM   31  C3  UNL     1      -7.441   3.437  12.987  1.00  0.00     0.265 C 
HETATM   32  O1  UNL     1      -8.492   2.822  12.863  1.00  0.00    -0.302 OA
ENDBRANCH  29  31
ENDBRANCH  27  28
ENDBRANCH  26  27
ENDBRANCH  24  26
ENDBRANCH   1  24
BRANCH   3  33
HETATM   33  O2  UNL     1      -1.307   9.129  14.248  1.00  0.00    -0.394 OA
HETATM   34  H18 UNL     1      -1.950   9.073  14.977  1.00  0.00     0.210 HD
ENDBRANCH   3  33
BRANCH  23  35
HETATM   35  O4  UNL     1       1.225  10.251  13.471  1.00  0.00    -0.391 OA
HETATM   36  H46 UNL     1       0.290  10.170  13.756  1.00  0.00     0.210 HD
ENDBRANCH  23  35
TORSDOF 7
ENDMDL
MODEL 4
REMARK minimizedAffinity -8.75998306
REMARK  7 active torsions:
REMARK  status: ('A' for Active; 'I' for Inactive)
REMARK    1  A    between atoms: C2_2  and  C3_3 
REMARK    2  A    between atoms: C4_5  and  C5_6 
REMARK    3  A    between atoms: C5_6  and  C6_7 
REMARK    4  A    between atoms: C6_7  and  C7_8 
REMARK    5  A    between atoms: C7_8  and  C9_10 
REMARK    6  A    between atoms: C11_12  and  O2_13 
REMARK    7  A    between atoms: C30_33  and  O4_34 
ROOT
HETATM    1  C9  UNL     1       0.683   6.500  12.769  1.00  0.00     0.001 C 
HETATM    2  C10 UNL     1       1.097   7.254  14.070  1.00  0.00     0.038 C 
HETATM    3  C11 UNL     1      -0.196   7.566  14.845  1.00  0.00     0.132 C 
HETATM    4  C12 UNL     1      -1.244   6.598  14.251  1.00  0.00     0.016 C 
HETATM    5  C13 UNL     1      -1.035   5.177  14.876  1.00  0.00     0.023 C 
HETATM    6  C14 UNL     1      -2.728   6.914  14.439  1.00  0.00    -0.037 C 
HETATM    7  C15 UNL     1      -3.629   6.421  13.548  1.00  0.00    -0.065 C 
HETATM    8  C16 UNL     1      -3.173   5.679  12.281  1.00  0.00     0.036 C 
HETATM    9  C17 UNL     1      -1.657   5.605  11.986  1.00  0.00     0.015 C 
HETATM   10  C18 UNL     1      -0.868   6.694  12.724  1.00  0.00    -0.026 C 
HETATM   11  C19 UNL     1      -1.211   8.078  12.090  1.00  0.00     0.016 C 
HETATM   12  C20 UNL     1      -5.160   6.590  13.745  1.00  0.00    -0.015 C 
HETATM   13  C21 UNL     1      -5.638   7.630  12.704  1.00  0.00     0.020 C 
HETATM   14  C22 UNL     1      -5.889   5.237  13.482  1.00  0.00     0.021 C 
HETATM   15  C23 UNL     1      -7.207   5.038  14.225  1.00  0.00     0.080 C 
HETATM   16  C24 UNL     1      -7.846   6.346  14.621  1.00  0.00     0.135 C 
HETATM   17  O3  UNL     1      -8.999   6.609  14.280  1.00  0.00    -0.297 OA
HETATM   18  C25 UNL     1      -7.010   7.272  15.513  1.00  0.00     0.018 C 
HETATM   19  C26 UNL     1      -7.333   6.890  16.971  1.00  0.00     0.023 C 
HETATM   20  C27 UNL     1      -7.459   8.733  15.316  1.00  0.00     0.023 C 
HETATM   21  C28 UNL     1      -5.489   7.021  15.222  1.00  0.00     0.016 C 
HETATM   22  C29 UNL     1      -4.581   8.173  15.671  1.00  0.00     0.043 C 
HETATM   23  C30 UNL     1      -3.112   7.759  15.633  1.00  0.00     0.148 C 
ENDROOT
BRANCH   1  24
HETATM   24  C7  UNL     1       1.548   6.917  11.547  1.00  0.00    -0.013 C 
HETATM   25  C8  UNL     1       0.768   6.907  10.228  1.00  0.00     0.010 C 
BRANCH  24  26
HETATM   26  C6  UNL     1       2.833   6.056  11.399  1.00  0.00     0.008 C 
BRANCH  26  27
HETATM   27  C5  UNL     1       3.648   6.320  10.129  1.00  0.00     0.028 C 
BRANCH  27  28
HETATM   28  C4  UNL     1       4.267   7.693  10.150  1.00  0.00    -0.017 C 
HETATM   29  C2  UNL     1       5.458   8.054  10.662  1.00  0.00    -0.028 C 
HETATM   30  C1  UNL     1       5.940   9.475  10.659  1.00  0.00     0.051 C 
BRANCH  29  31
HETATM   31  C3  UNL     1       6.423   7.076  11.248  1.00  0.00     0.265 C 
HETATM   32  O1  UNL     1       7.610   7.306  11.438  1.00  0.00    -0.302 OA
ENDBRANCH  29  31
ENDBRANCH  27  28
ENDBRANCH  26  27
ENDBRANCH  24  26
ENDBRANCH   1  24
BRANCH   3  33
HETATM   33  O2  UNL     1      -0.026   7.408  16.250  1.00  0.00    -0.394 OA
HETATM   34  H18 UNL     1       0.766   7.914  16.503  1.00  0.00     0.210 HD
ENDBRANCH   3  33
BRANCH  23  35
HETATM   35  O4  UNL     1      -2.820   7.035  16.823  1.00  0.00    -0.391 OA
HETATM   36  H46 UNL     1      -1.844   7.066  16.921  1.00  0.00     0.210 HD
ENDBRANCH  23  35
TORSDOF 7
ENDMDL
MODEL 5
REMARK minimizedAffinity -8.66970634
REMARK  7 active torsions:
REMARK  status: ('A' for Active; 'I' for Inactive)
REMARK    1  A    between atoms: C2_2  and  C3_3 
REMARK    2  A    between atoms: C4_5  and  C5_6 
REMARK    3  A    between atoms: C5_6  and  C6_7 
REMARK    4  A    between atoms: C6_7  and  C7_8 
REMARK    5  A    between atoms: C7_8  and  C9_10 
REMARK    6  A    between atoms: C11_12  and  O2_13 
REMARK    7  A    between atoms: C30_33  and  O4_34 
ROOT
HETATM    1  C9  UNL     1       4.052   7.840  11.176  1.00  0.00     0.001 C 
HETATM    2  C10 UNL     1       4.161   6.346  10.744  1.00  0.00     0.038 C 
HETATM    3  C11 UNL     1       2.821   5.672  11.094  1.00  0.00     0.132 C 
HETATM    4  C12 UNL     1       1.832   6.848  11.261  1.00  0.00     0.016 C 
HETATM    5  C13 UNL     1       1.385   7.341   9.843  1.00  0.00     0.023 C 
HETATM    6  C14 UNL     1       0.538   6.616  12.041  1.00  0.00    -0.037 C 
HETATM    7  C15 UNL     1      -0.078   7.674  12.634  1.00  0.00    -0.065 C 
HETATM    8  C16 UNL     1       0.576   9.065  12.659  1.00  0.00     0.036 C 
HETATM    9  C17 UNL     1       2.006   9.208  12.090  1.00  0.00     0.015 C 
HETATM   10  C18 UNL     1       2.748   7.866  12.040  1.00  0.00    -0.026 C 
HETATM   11  C19 UNL     1       3.069   7.416  13.499  1.00  0.00     0.016 C 
HETATM   12  C20 UNL     1      -1.460   7.539  13.331  1.00  0.00    -0.015 C 
HETATM   13  C21 UNL     1      -1.207   7.631  14.855  1.00  0.00     0.020 C 
HETATM   14  C22 UNL     1      -2.395   8.709  12.900  1.00  0.00     0.021 C 
HETATM   15  C23 UNL     1      -3.892   8.409  12.936  1.00  0.00     0.080 C 
HETATM   16  C24 UNL     1      -4.229   7.284  13.881  1.00  0.00     0.135 C 
HETATM   17  O3  UNL     1      -5.052   7.446  14.781  1.00  0.00    -0.297 OA
HETATM   18  C25 UNL     1      -3.549   5.936  13.610  1.00  0.00     0.018 C 
HETATM   19  C26 UNL     1      -4.474   5.158  12.653  1.00  0.00     0.023 C 
HETATM   20  C27 UNL     1      -3.459   5.124  14.916  1.00  0.00     0.023 C 
HETATM   21  C28 UNL     1      -2.166   6.196  12.916  1.00  0.00     0.016 C 
HETATM   22  C29 UNL     1      -1.195   5.012  13.022  1.00  0.00     0.043 C 
HETATM   23  C30 UNL     1       0.004   5.203  12.095  1.00  0.00     0.148 C 
ENDROOT
BRANCH   1  24
HETATM   24  C7  UNL     1       5.382   8.378  11.773  1.00  0.00    -0.013 C 
HETATM   25  C8  UNL     1       6.177   9.242  10.787  1.00  0.00     0.010 C 
BRANCH  24  26
HETATM   26  C6  UNL     1       6.294   7.247  12.324  1.00  0.00     0.008 C 
BRANCH  26  27
HETATM   27  C5  UNL     1       6.971   7.555  13.663  1.00  0.00     0.028 C 
BRANCH  27  28
HETATM   28  C4  UNL     1       8.464   7.680  13.508  1.00  0.00    -0.017 C 
HETATM   29  C2  UNL     1       9.363   8.057  14.435  1.00  0.00    -0.028 C 
HETATM   30  C1  UNL     1      10.827   8.184  14.134  1.00  0.00     0.051 C 
BRANCH  29  31
HETATM   31  C3  UNL     1       8.996   8.350  15.853  1.00  0.00     0.265 C 
HETATM   32  O1  UNL     1       9.186   7.584  16.788  1.00  0.00    -0.302 OA
ENDBRANCH  29  31
ENDBRANCH  27  28
ENDBRANCH  26  27
ENDBRANCH  24  26
ENDBRANCH   1  24
BRANCH   3  33
HETATM   33  O2  UNL     1       2.416   4.742  10.096  1.00  0.00    -0.394 OA
HETATM   34  H18 UNL     1       3.170   4.149   9.931  1.00  0.00     0.210 HD
ENDBRANCH   3  33
BRANCH  23  35
HETATM   35  O4  UNL     1      -0.377   4.804  10.783  1.00  0.00    -0.391 OA
HETATM   36  H46 UNL     1       0.461   4.632  10.303  1.00  0.00     0.210 HD
ENDBRANCH  23  35
TORSDOF 7
ENDMDL
MODEL 6
REMARK minimizedAffinity -8.51502132
REMARK  7 active torsions:
REMARK  status: ('A' for Active; 'I' for Inactive)
REMARK    1  A    between atoms: C2_2  and  C3_3 
REMARK    2  A    between atoms: C4_5  and  C5_6 
REMARK    3  A    between atoms: C5_6  and  C6_7 
REMARK    4  A    between atoms: C6_7  and  C7_8 
REMARK    5  A    between atoms: C7_8  and  C9_10 
REMARK    6  A    between atoms: C11_12  and  O2_13 
REMARK    7  A    between atoms: C30_33  and  O4_34 
ROOT
HETATM    1  C9  UNL     1       2.131   7.084  11.916  1.00  0.00     0.001 C 
HETATM    2  C10 UNL     1       2.062   5.568  11.559  1.00  0.00     0.038 C 
HETATM    3  C11 UNL     1       0.663   5.069  11.964  1.00  0.00     0.132 C 
HETATM    4  C12 UNL     1      -0.183   6.356  12.088  1.00  0.00     0.016 C 
HETATM    5  C13 UNL     1      -0.604   6.827  10.653  1.00  0.00     0.023 C 
HETATM    6  C14 UNL     1      -1.478   6.311  12.899  1.00  0.00    -0.037 C 
HETATM    7  C15 UNL     1      -1.957   7.459  13.448  1.00  0.00    -0.065 C 
HETATM    8  C16 UNL     1      -1.150   8.767  13.391  1.00  0.00     0.036 C 
HETATM    9  C17 UNL     1       0.273   8.718  12.792  1.00  0.00     0.015 C 
HETATM   10  C18 UNL     1       0.859   7.300  12.798  1.00  0.00    -0.026 C 
HETATM   11  C19 UNL     1       1.159   6.888  14.273  1.00  0.00     0.016 C 
HETATM   12  C20 UNL     1      -3.330   7.516  14.173  1.00  0.00    -0.015 C 
HETATM   13  C21 UNL     1      -3.035   7.652  15.686  1.00  0.00     0.020 C 
HETATM   14  C22 UNL     1      -4.137   8.763  13.699  1.00  0.00     0.021 C 
HETATM   15  C23 UNL     1      -5.656   8.636  13.775  1.00  0.00     0.080 C 
HETATM   16  C24 UNL     1      -6.097   7.604  14.781  1.00  0.00     0.135 C 
HETATM   17  O3  UNL     1      -6.877   7.902  15.685  1.00  0.00    -0.297 OA
HETATM   18  C25 UNL     1      -5.579   6.176  14.568  1.00  0.00     0.018 C 
HETATM   19  C26 UNL     1      -6.608   5.463  13.667  1.00  0.00     0.023 C 
HETATM   20  C27 UNL     1      -5.552   5.423  15.911  1.00  0.00     0.023 C 
HETATM   21  C28 UNL     1      -4.192   6.243  13.839  1.00  0.00     0.016 C 
HETATM   22  C29 UNL     1      -3.358   4.963  13.988  1.00  0.00     0.043 C 
HETATM   23  C30 UNL     1      -2.167   4.971  13.033  1.00  0.00     0.148 C 
ENDROOT
BRANCH   1  24
HETATM   24  C7  UNL     1       3.527   7.496  12.462  1.00  0.00    -0.013 C 
HETATM   25  C8  UNL     1       3.456   8.197  13.823  1.00  0.00     0.010 C 
BRANCH  24  26
HETATM   26  C6  UNL     1       4.326   8.378  11.464  1.00  0.00     0.008 C 
BRANCH  26  27
HETATM   27  C5  UNL     1       4.576   7.742  10.093  1.00  0.00     0.028 C 
BRANCH  27  28
HETATM   28  C4  UNL     1       3.498   8.117   9.110  1.00  0.00    -0.017 C 
HETATM   29  C2  UNL     1       2.803   7.301   8.296  1.00  0.00    -0.028 C 
HETATM   30  C1  UNL     1       1.779   7.812   7.325  1.00  0.00     0.051 C 
BRANCH  29  31
HETATM   31  C3  UNL     1       2.956   5.816   8.306  1.00  0.00     0.265 C 
HETATM   32  O1  UNL     1       2.865   5.105   7.314  1.00  0.00    -0.302 OA
ENDBRANCH  29  31
ENDBRANCH  27  28
ENDBRANCH  26  27
ENDBRANCH  24  26
ENDBRANCH   1  24
BRANCH   3  33
HETATM   33  O2  UNL     1       0.134   4.143  11.021  1.00  0.00    -0.394 OA
HETATM   34  H18 UNL     1       0.813   3.462  10.874  1.00  0.00     0.210 HD
ENDBRANCH   3  33
BRANCH  23  35
HETATM   35  O4  UNL     1      -2.618   4.555  11.750  1.00  0.00    -0.391 OA
HETATM   36  H46 UNL     1      -1.816   4.266  11.266  1.00  0.00     0.210 HD
ENDBRANCH  23  35
TORSDOF 7
ENDMDL
MODEL 7
REMARK minimizedAffinity -8.50944424
REMARK  7 active torsions:
REMARK  status: ('A' for Active; 'I' for Inactive)
REMARK    1  A    between atoms: C2_2  and  C3_3 
REMARK    2  A    between atoms: C4_5  and  C5_6 
REMARK    3  A    between atoms: C5_6  and  C6_7 
REMARK    4  A    between atoms: C6_7  and  C7_8 
REMARK    5  A    between atoms: C7_8  and  C9_10 
REMARK    6  A    between atoms: C11_12  and  O2_13 
REMARK    7  A    between atoms: C30_33  and  O4_34 
ROOT
HETATM    1  C9  UNL     1      -2.701   5.575  13.421  1.00  0.00     0.001 C 
HETATM    2  C10 UNL     1      -2.678   4.745  12.101  1.00  0.00     0.038 C 
HETATM    3  C11 UNL     1      -1.300   4.965  11.451  1.00  0.00     0.132 C 
HETATM    4  C12 UNL     1      -0.413   5.498  12.599  1.00  0.00     0.016 C 
HETATM    5  C13 UNL     1       0.036   4.293  13.496  1.00  0.00     0.023 C 
HETATM    6  C14 UNL     1       0.872   6.249  12.249  1.00  0.00    -0.037 C 
HETATM    7  C15 UNL     1       1.383   7.139  13.140  1.00  0.00    -0.065 C 
HETATM    8  C16 UNL     1       0.619   7.512  14.423  1.00  0.00     0.036 C 
HETATM    9  C17 UNL     1      -0.800   6.932  14.619  1.00  0.00     0.015 C 
HETATM   10  C18 UNL     1      -1.430   6.478  13.296  1.00  0.00    -0.026 C 
HETATM   11  C19 UNL     1      -1.757   7.740  12.438  1.00  0.00     0.016 C 
HETATM   12  C20 UNL     1       2.750   7.842  12.913  1.00  0.00    -0.015 C 
HETATM   13  C21 UNL     1       2.445   9.318  12.561  1.00  0.00     0.020 C 
HETATM   14  C22 UNL     1       3.602   7.797  14.218  1.00  0.00     0.021 C 
HETATM   15  C23 UNL     1       5.115   7.825  14.023  1.00  0.00     0.080 C 
HETATM   16  C24 UNL     1       5.513   8.441  12.705  1.00  0.00     0.135 C 
HETATM   17  O3  UNL     1       6.293   9.391  12.667  1.00  0.00    -0.297 OA
HETATM   18  C25 UNL     1       4.951   7.776  11.442  1.00  0.00     0.018 C 
HETATM   19  C26 UNL     1       5.964   6.691  11.026  1.00  0.00     0.023 C 
HETATM   20  C27 UNL     1       4.887   8.803  10.296  1.00  0.00     0.023 C 
HETATM   21  C28 UNL     1       3.573   7.111  11.789  1.00  0.00     0.016 C 
HETATM   22  C29 UNL     1       2.697   6.838  10.559  1.00  0.00     0.043 C 
HETATM   23  C30 UNL     1       1.515   5.940  10.916  1.00  0.00     0.148 C 
ENDROOT
BRANCH   1  24
HETATM   24  C7  UNL     1      -4.088   6.228  13.680  1.00  0.00    -0.013 C 
HETATM   25  C8  UNL     1      -4.444   6.311  15.168  1.00  0.00     0.010 C 
BRANCH  24  26
HETATM   26  C6  UNL     1      -5.237   5.522  12.909  1.00  0.00     0.008 C 
BRANCH  26  27
HETATM   27  C5  UNL     1      -6.372   4.984  13.786  1.00  0.00     0.028 C 
BRANCH  27  28
HETATM   28  C4  UNL     1      -7.713   5.489  13.321  1.00  0.00    -0.017 C 
HETATM   29  C2  UNL     1      -8.607   6.217  14.014  1.00  0.00    -0.028 C 
HETATM   30  C1  UNL     1      -9.935   6.619  13.442  1.00  0.00     0.051 C 
BRANCH  29  31
HETATM   31  C3  UNL     1      -8.352   6.721  15.396  1.00  0.00     0.265 C 
HETATM   32  O1  UNL     1      -9.216   7.163  16.141  1.00  0.00    -0.302 OA
ENDBRANCH  29  31
ENDBRANCH  27  28
ENDBRANCH  26  27
ENDBRANCH  24  26
ENDBRANCH   1  24
BRANCH   3  33
HETATM   33  O2  UNL     1      -0.791   3.772  10.864  1.00  0.00    -0.394 OA
HETATM   34  H18 UNL     1      -1.491   3.412  10.290  1.00  0.00     0.210 HD
ENDBRANCH   3  33
BRANCH  23  35
HETATM   35  O4  UNL     1       1.965   4.590  10.923  1.00  0.00    -0.391 OA
HETATM   36  H46 UNL     1       1.159   4.039  10.834  1.00  0.00     0.210 HD
ENDBRANCH  23  35
TORSDOF 7
ENDMDL
MODEL 8
REMARK minimizedAffinity -8.33748817
REMARK  7 active torsions:
REMARK  status: ('A' for Active; 'I' for Inactive)
REMARK    1  A    between atoms: C2_2  and  C3_3 
REMARK    2  A    between atoms: C4_5  and  C5_6 
REMARK    3  A    between atoms: C5_6  and  C6_7 
REMARK    4  A    between atoms: C6_7  and  C7_8 
REMARK    5  A    between atoms: C7_8  and  C9_10 
REMARK    6  A    between atoms: C11_12  and  O2_13 
REMARK    7  A    between atoms: C30_33  and  O4_34 
ROOT
HETATM    1  C9  UNL     1      -2.086   5.876  12.135  1.00  0.00     0.001 C 
HETATM    2  C10 UNL     1      -2.965   5.099  13.162  1.00  0.00     0.038 C 
HETATM    3  C11 UNL     1      -3.148   6.013  14.387  1.00  0.00     0.132 C 
HETATM    4  C12 UNL     1      -2.800   7.426  13.868  1.00  0.00     0.016 C 
HETATM    5  C13 UNL     1      -4.028   7.993  13.076  1.00  0.00     0.023 C 
HETATM    6  C14 UNL     1      -2.429   8.511  14.880  1.00  0.00    -0.037 C 
HETATM    7  C15 UNL     1      -1.653   9.553  14.479  1.00  0.00    -0.065 C 
HETATM    8  C16 UNL     1      -1.025   9.587  13.075  1.00  0.00     0.036 C 
HETATM    9  C17 UNL     1      -1.205   8.348  12.168  1.00  0.00     0.015 C 
HETATM   10  C18 UNL     1      -1.552   7.087  12.968  1.00  0.00    -0.026 C 
HETATM   11  C19 UNL     1      -0.298   6.654  13.791  1.00  0.00     0.016 C 
HETATM   12  C20 UNL     1      -1.343  10.757  15.411  1.00  0.00    -0.015 C 
HETATM   13  C21 UNL     1       0.139  10.628  15.836  1.00  0.00     0.020 C 
HETATM   14  C22 UNL     1      -1.536  12.098  14.640  1.00  0.00     0.021 C 
HETATM   15  C23 UNL     1      -1.912  13.306  15.494  1.00  0.00     0.080 C 
HETATM   16  C24 UNL     1      -1.495  13.143  16.934  1.00  0.00     0.135 C 
HETATM   17  O3  UNL     1      -0.783  13.986  17.479  1.00  0.00    -0.297 OA
HETATM   18  C25 UNL     1      -2.060  11.926  17.676  1.00  0.00     0.018 C 
HETATM   19  C26 UNL     1      -3.392  12.374  18.310  1.00  0.00     0.023 C 
HETATM   20  C27 UNL     1      -1.117  11.534  18.830  1.00  0.00     0.023 C 
HETATM   21  C28 UNL     1      -2.324  10.778  16.641  1.00  0.00     0.016 C 
HETATM   22  C29 UNL     1      -2.428   9.387  17.281  1.00  0.00     0.043 C 
HETATM   23  C30 UNL     1      -2.968   8.364  16.285  1.00  0.00     0.148 C 
ENDROOT
BRANCH   1  24
HETATM   24  C7  UNL     1      -1.082   4.945  11.398  1.00  0.00    -0.013 C 
HETATM   25  C8  UNL     1      -1.636   3.537  11.155  1.00  0.00     0.010 C 
BRANCH  24  26
HETATM   26  C6  UNL     1       0.289   4.847  12.123  1.00  0.00     0.008 C 
BRANCH  26  27
HETATM   27  C5  UNL     1       1.507   5.176  11.254  1.00  0.00     0.028 C 
BRANCH  27  28
HETATM   28  C4  UNL     1       1.192   6.261  10.257  1.00  0.00    -0.017 C 
HETATM   29  C2  UNL     1       1.889   6.598   9.157  1.00  0.00    -0.028 C 
HETATM   30  C1  UNL     1       1.488   7.738   8.267  1.00  0.00     0.051 C 
BRANCH  29  31
HETATM   31  C3  UNL     1       3.100   5.854   8.698  1.00  0.00     0.265 C 
HETATM   32  O1  UNL     1       3.128   5.115   7.723  1.00  0.00    -0.302 OA
ENDBRANCH  29  31
ENDBRANCH  27  28
ENDBRANCH  26  27
ENDBRANCH  24  26
ENDBRANCH   1  24
BRANCH   3  33
HETATM   33  O2  UNL     1      -4.462   5.925  14.926  1.00  0.00    -0.394 OA
HETATM   34  H18 UNL     1      -4.659   4.981  15.055  1.00  0.00     0.210 HD
ENDBRANCH   3  33
BRANCH  23  35
HETATM   35  O4  UNL     1      -4.385   8.479  16.249  1.00  0.00    -0.391 OA
HETATM   36  H46 UNL     1      -4.712   7.634  15.871  1.00  0.00     0.210 HD
ENDBRANCH  23  35
TORSDOF 7
ENDMDL
MODEL 9
REMARK minimizedAffinity -8.19720268
REMARK  7 active torsions:
REMARK  status: ('A' for Active; 'I' for Inactive)
REMARK    1  A    between atoms: C2_2  and  C3_3 
REMARK    2  A    between atoms: C4_5  and  C5_6 
REMARK    3  A    between atoms: C5_6  and  C6_7 
REMARK    4  A    between atoms: C6_7  and  C7_8 
REMARK    5  A    between atoms: C7_8  and  C9_10 
REMARK    6  A    between atoms: C11_12  and  O2_13 
REMARK    7  A    between atoms: C30_33  and  O4_34 
ROOT
HETATM    1  C9  UNL     1      -1.317   5.659  13.097  1.00  0.00     0.001 C 
HETATM    2  C10 UNL     1      -0.349   6.405  12.129  1.00  0.00     0.038 C 
HETATM    3  C11 UNL     1      -0.335   7.885  12.550  1.00  0.00     0.132 C 
HETATM    4  C12 UNL     1      -0.887   7.878  13.995  1.00  0.00     0.016 C 
HETATM    5  C13 UNL     1       0.255   7.435  14.972  1.00  0.00     0.023 C 
HETATM    6  C14 UNL     1      -1.441   9.179  14.576  1.00  0.00    -0.037 C 
HETATM    7  C15 UNL     1      -2.360   9.118  15.577  1.00  0.00    -0.065 C 
HETATM    8  C16 UNL     1      -2.957   7.775  16.031  1.00  0.00     0.036 C 
HETATM    9  C17 UNL     1      -2.570   6.503  15.244  1.00  0.00     0.015 C 
HETATM   10  C18 UNL     1      -2.048   6.826  13.838  1.00  0.00    -0.026 C 
HETATM   11  C19 UNL     1      -3.237   7.344  12.969  1.00  0.00     0.016 C 
HETATM   12  C20 UNL     1      -2.871  10.391  16.305  1.00  0.00    -0.015 C 
HETATM   13  C21 UNL     1      -4.325  10.630  15.830  1.00  0.00     0.020 C 
HETATM   14  C22 UNL     1      -2.873  10.165  17.848  1.00  0.00     0.021 C 
HETATM   15  C23 UNL     1      -2.705  11.418  18.702  1.00  0.00     0.080 C 
HETATM   16  C24 UNL     1      -3.122  12.670  17.973  1.00  0.00     0.135 C 
HETATM   17  O3  UNL     1      -3.967  13.425  18.454  1.00  0.00    -0.297 OA
HETATM   18  C25 UNL     1      -2.391  12.971  16.658  1.00  0.00     0.018 C 
HETATM   19  C26 UNL     1      -1.158  13.821  17.023  1.00  0.00     0.023 C 
HETATM   20  C27 UNL     1      -3.286  13.835  15.749  1.00  0.00     0.023 C 
HETATM   21  C28 UNL     1      -1.932  11.618  16.012  1.00  0.00     0.016 C 
HETATM   22  C29 UNL     1      -1.627  11.728  14.512  1.00  0.00     0.043 C 
HETATM   23  C30 UNL     1      -0.915  10.475  14.004  1.00  0.00     0.148 C 
ENDROOT
BRANCH   1  24
HETATM   24  C7  UNL     1      -2.149   4.566  12.370  1.00  0.00    -0.013 C 
HETATM   25  C8  UNL     1      -1.609   4.229  10.975  1.00  0.00     0.010 C 
BRANCH  24  26
HETATM   26  C6  UNL     1      -3.657   4.927  12.270  1.00  0.00     0.008 C 
BRANCH  26  27
HETATM   27  C5  UNL     1      -4.574   4.147  13.219  1.00  0.00     0.028 C 
BRANCH  27  28
HETATM   28  C4  UNL     1      -5.935   4.787  13.315  1.00  0.00    -0.017 C 
HETATM   29  C2  UNL     1      -7.122   4.259  12.965  1.00  0.00    -0.028 C 
HETATM   30  C1  UNL     1      -8.407   5.026  13.072  1.00  0.00     0.051 C 
BRANCH  29  31
HETATM   31  C3  UNL     1      -7.278   2.857  12.475  1.00  0.00     0.265 C 
HETATM   32  O1  UNL     1      -8.200   2.115  12.785  1.00  0.00    -0.302 OA
ENDBRANCH  29  31
ENDBRANCH  27  28
ENDBRANCH  26  27
ENDBRANCH  24  26
ENDBRANCH   1  24
BRANCH   3  33
HETATM   33  O2  UNL     1       0.966   8.455  12.454  1.00  0.00    -0.394 OA
HETATM   34  H18 UNL     1       1.304   8.253  11.564  1.00  0.00     0.210 HD
ENDBRANCH   3  33
BRANCH  23  35
HETATM   35  O4  UNL     1       0.468  10.590  14.317  1.00  0.00    -0.391 OA
HETATM   36  H46 UNL     1       0.929   9.962  13.720  1.00  0.00     0.210 HD
ENDBRANCH  23  35
TORSDOF 7
ENDMDL
