MODEL 1
REMARK minimizedAffinity -8.46784592
REMARK  12 active torsions:
REMARK  status: ('A' for Active; 'I' for Inactive)
REMARK    1  A    between atoms: C4_4  and  C5_5 
REMARK    2  A    between atoms: C5_5  and  C6_6 
REMARK    3  A    between atoms: C6_6  and  C7_7 
REMARK    4  A    between atoms: C9_9  and  C10_10 
REMARK    5  A    between atoms: C11_11  and  C12_12 
REMARK    6  A    between atoms: C14_14  and  C15_15 
REMARK    7  A    between atoms: C19_20  and  C20_21 
REMARK    8  A    between atoms: C20_21  and  C21_22 
REMARK    9  A    between atoms: C21_22  and  C22_23 
REMARK   10  A    between atoms: C22_23  and  O2_24 
REMARK   11  A    between atoms: C24_26  and  C26_28 
REMARK   12  A    between atoms: C29_32  and  O4_34 
ROOT
HETATM    1  C15 UNL     1      -0.039   9.535  15.902  1.00  0.00     0.145 C 
HETATM    2  C16 UNL     1       0.774   9.022  14.710  1.00  0.00     0.051 C 
HETATM    3  C17 UNL     1       0.048   7.751  14.238  1.00  0.00     0.022 C 
HETATM    4  C18 UNL     1      -0.518   7.290  15.591  1.00  0.00     0.181 C 
HETATM    5  O1  UNL     1      -0.943   8.477  16.273  1.00  0.00    -0.381 OA
HETATM    6  C19 UNL     1      -1.103   8.028  13.183  1.00  0.00     0.029 C 
HETATM    7  C23 UNL     1      -1.817   6.695  12.860  1.00  0.00    -0.066 C 
HETATM    8  C24 UNL     1      -3.074   6.281  13.161  1.00  0.00    -0.021 C 
HETATM    9  C25 UNL     1      -3.689   5.003  12.642  1.00  0.00     0.052 C 
HETATM   10  C27 UNL     1      -0.839   5.757  12.160  1.00  0.00     0.038 C 
HETATM   11  C28 UNL     1       0.315   5.443  13.113  1.00  0.00     0.042 C 
HETATM   12  C29 UNL     1       1.051   6.698  13.628  1.00  0.00     0.065 C 
HETATM   13  C30 UNL     1       1.935   7.286  12.508  1.00  0.00     0.047 C 
ENDROOT
BRANCH   6  14
HETATM   14  C20 UNL     1      -1.957   9.308  13.372  1.00  0.00     0.012 C 
BRANCH  14  15
HETATM   15  C21 UNL     1      -3.049   9.242  14.455  1.00  0.00     0.027 C 
BRANCH  15  16
HETATM   16  C22 UNL     1      -3.447  10.584  15.060  1.00  0.00     0.164 C 
BRANCH  16  17
HETATM   17  O2  UNL     1      -4.819  10.570  15.426  1.00  0.00    -0.401 OA
HETATM   18  H34 UNL     1      -5.062  11.485  15.655  1.00  0.00     0.209 HD
ENDBRANCH  16  17
ENDBRANCH  15  16
ENDBRANCH  14  15
ENDBRANCH   6  14
BRANCH  12  19
HETATM   19  O4  UNL     1       1.957   6.262  14.653  1.00  0.00    -0.389 OA
HETATM   20  H46 UNL     1       2.618   5.668  14.255  1.00  0.00     0.210 HD
ENDBRANCH  12  19
BRANCH   1  21
HETATM   21  C14 UNL     1       0.809   9.868  17.097  1.00  0.00     0.011 C 
HETATM   22  C12 UNL     1       0.500  10.701  18.115  1.00  0.00    -0.063 C 
HETATM   23  C13 UNL     1      -0.791  11.477  18.186  1.00  0.00     0.048 C 
BRANCH  22  24
HETATM   24  C11 UNL     1       1.471  10.877  19.195  1.00  0.00     0.006 C 
HETATM   25  C10 UNL     1       1.365  10.410  20.451  1.00  0.00     0.001 C 
BRANCH  25  26
HETATM   26  C9  UNL     1       2.381  10.650  21.457  1.00  0.00     0.002 C 
HETATM   27  C7  UNL     1       2.782   9.807  22.430  1.00  0.00    -0.084 C 
HETATM   28  C8  UNL     1       2.271   8.407  22.648  1.00  0.00     0.043 C 
BRANCH  27  29
HETATM   29  C6  UNL     1       3.856  10.250  23.410  1.00  0.00     0.037 C 
BRANCH  29  30
HETATM   30  C5  UNL     1       4.482  11.593  23.017  1.00  0.00     0.031 C 
BRANCH  30  31
HETATM   31  C4  UNL     1       5.986  11.525  23.026  1.00  0.00    -0.024 C 
HETATM   32  C2  UNL     1       6.849  12.559  23.054  1.00  0.00    -0.091 C 
HETATM   33  C1  UNL     1       8.336  12.320  23.101  1.00  0.00     0.042 C 
HETATM   34  C3  UNL     1       6.455  14.011  23.026  1.00  0.00     0.042 C 
ENDBRANCH  30  31
ENDBRANCH  29  30
ENDBRANCH  27  29
ENDBRANCH  25  26
ENDBRANCH  22  24
ENDBRANCH   1  21
BRANCH   8  35
HETATM   35  C26 UNL     1      -3.971   7.013  14.106  1.00  0.00     0.265 C 
HETATM   36  O3  UNL     1      -5.045   6.565  14.490  1.00  0.00    -0.302 OA
ENDBRANCH   8  35
TORSDOF 12
ENDMDL
MODEL 2
REMARK minimizedAffinity -8.15304375
REMARK  12 active torsions:
REMARK  status: ('A' for Active; 'I' for Inactive)
REMARK    1  A    between atoms: C4_4  and  C5_5 
REMARK    2  A    between atoms: C5_5  and  C6_6 
REMARK    3  A    between atoms: C6_6  and  C7_7 
REMARK    4  A    between atoms: C9_9  and  C10_10 
REMARK    5  A    between atoms: C11_11  and  C12_12 
REMARK    6  A    between atoms: C14_14  and  C15_15 
REMARK    7  A    between atoms: C19_20  and  C20_21 
REMARK    8  A    between atoms: C20_21  and  C21_22 
REMARK    9  A    between atoms: C21_22  and  C22_23 
REMARK   10  A    between atoms: C22_23  and  O2_24 
REMARK   11  A    between atoms: C24_26  and  C26_28 
REMARK   12  A    between atoms: C29_32  and  O4_34 
ROOT
HETATM    1  C15 UNL     1       0.059   6.290  10.965  1.00  0.00     0.145 C 
HETATM    2  C16 UNL     1       0.530   7.624  11.550  1.00  0.00     0.051 C 
HETATM    3  C17 UNL     1       1.993   7.394  11.965  1.00  0.00     0.022 C 
HETATM    4  C18 UNL     1       1.905   5.898  12.309  1.00  0.00     0.181 C 
HETATM    5  O1  UNL     1       1.053   5.309  11.318  1.00  0.00    -0.381 OA
HETATM    6  C19 UNL     1       3.037   7.670  10.804  1.00  0.00     0.029 C 
HETATM    7  C23 UNL     1       4.454   7.314  11.310  1.00  0.00    -0.066 C 
HETATM    8  C24 UNL     1       5.286   6.305  10.944  1.00  0.00    -0.021 C 
HETATM    9  C25 UNL     1       6.713   6.174  11.419  1.00  0.00     0.052 C 
HETATM   10  C27 UNL     1       4.839   8.264  12.438  1.00  0.00     0.038 C 
HETATM   11  C28 UNL     1       3.870   8.067  13.605  1.00  0.00     0.042 C 
HETATM   12  C29 UNL     1       2.389   8.265  13.219  1.00  0.00     0.065 C 
HETATM   13  C30 UNL     1       2.092   9.768  13.026  1.00  0.00     0.047 C 
ENDROOT
BRANCH   6  14
HETATM   14  C20 UNL     1       2.632   7.264   9.363  1.00  0.00     0.012 C 
BRANCH  14  15
HETATM   15  C21 UNL     1       2.125   8.399   8.455  1.00  0.00     0.027 C 
BRANCH  15  16
HETATM   16  C22 UNL     1       0.696   8.235   7.946  1.00  0.00     0.164 C 
BRANCH  16  17
HETATM   17  O2  UNL     1      -0.173   9.128   8.627  1.00  0.00    -0.401 OA
HETATM   18  H34 UNL     1      -1.083   8.878   8.387  1.00  0.00     0.209 HD
ENDBRANCH  16  17
ENDBRANCH  15  16
ENDBRANCH  14  15
ENDBRANCH   6  14
BRANCH  12  19
HETATM   19  O4  UNL     1       1.602   7.852  14.346  1.00  0.00    -0.389 OA
HETATM   20  H46 UNL     1       1.798   8.440  15.097  1.00  0.00     0.210 HD
ENDBRANCH  12  19
BRANCH   1  21
HETATM   21  C14 UNL     1      -1.264   5.837  11.514  1.00  0.00     0.011 C 
HETATM   22  C12 UNL     1      -1.694   4.566  11.672  1.00  0.00    -0.063 C 
HETATM   23  C13 UNL     1      -0.881   3.361  11.272  1.00  0.00     0.048 C 
BRANCH  22  24
HETATM   24  C11 UNL     1      -3.023   4.342  12.241  1.00  0.00     0.006 C 
HETATM   25  C10 UNL     1      -3.987   3.552  11.738  1.00  0.00     0.001 C 
BRANCH  25  26
HETATM   26  C9  UNL     1      -5.281   3.405  12.373  1.00  0.00     0.002 C 
HETATM   27  C7  UNL     1      -6.238   2.502  12.077  1.00  0.00    -0.084 C 
HETATM   28  C8  UNL     1      -6.138   1.422  11.033  1.00  0.00     0.043 C 
BRANCH  27  29
HETATM   29  C6  UNL     1      -7.548   2.520  12.848  1.00  0.00     0.037 C 
BRANCH  29  30
HETATM   30  C5  UNL     1      -8.059   3.943  13.093  1.00  0.00     0.031 C 
BRANCH  30  31
HETATM   31  C4  UNL     1      -7.640   4.456  14.445  1.00  0.00    -0.024 C 
HETATM   32  C2  UNL     1      -7.043   5.633  14.723  1.00  0.00    -0.091 C 
HETATM   33  C1  UNL     1      -6.722   6.017  16.144  1.00  0.00     0.042 C 
HETATM   34  C3  UNL     1      -6.630   6.652  13.696  1.00  0.00     0.042 C 
ENDBRANCH  30  31
ENDBRANCH  29  30
ENDBRANCH  27  29
ENDBRANCH  25  26
ENDBRANCH  22  24
ENDBRANCH   1  21
BRANCH   8  35
HETATM   35  C26 UNL     1       4.855   5.164  10.081  1.00  0.00     0.265 C 
HETATM   36  O3  UNL     1       3.951   5.253   9.259  1.00  0.00    -0.302 OA
ENDBRANCH   8  35
TORSDOF 12
ENDMDL
MODEL 3
REMARK minimizedAffinity -8.01347065
REMARK  12 active torsions:
REMARK  status: ('A' for Active; 'I' for Inactive)
REMARK    1  A    between atoms: C4_4  and  C5_5 
REMARK    2  A    between atoms: C5_5  and  C6_6 
REMARK    3  A    between atoms: C6_6  and  C7_7 
REMARK    4  A    between atoms: C9_9  and  C10_10 
REMARK    5  A    between atoms: C11_11  and  C12_12 
REMARK    6  A    between atoms: C14_14  and  C15_15 
REMARK    7  A    between atoms: C19_20  and  C20_21 
REMARK    8  A    between atoms: C20_21  and  C21_22 
REMARK    9  A    between atoms: C21_22  and  C22_23 
REMARK   10  A    between atoms: C22_23  and  O2_24 
REMARK   11  A    between atoms: C24_26  and  C26_28 
REMARK   12  A    between atoms: C29_32  and  O4_34 
ROOT
HETATM    1  C15 UNL     1      -0.404   7.083  11.796  1.00  0.00     0.145 C 
HETATM    2  C16 UNL     1       0.401   8.314  12.220  1.00  0.00     0.051 C 
HETATM    3  C17 UNL     1       1.859   7.834  12.320  1.00  0.00     0.022 C 
HETATM    4  C18 UNL     1       1.597   6.375  12.725  1.00  0.00     0.181 C 
HETATM    5  O1  UNL     1       0.463   5.945  11.961  1.00  0.00    -0.381 OA
HETATM    6  C19 UNL     1       2.657   7.931  10.953  1.00  0.00     0.029 C 
HETATM    7  C23 UNL     1       4.069   7.335  11.155  1.00  0.00    -0.066 C 
HETATM    8  C24 UNL     1       4.619   6.199  10.654  1.00  0.00    -0.021 C 
HETATM    9  C25 UNL     1       6.072   5.822  10.816  1.00  0.00     0.052 C 
HETATM   10  C27 UNL     1       4.845   8.201  12.141  1.00  0.00     0.038 C 
HETATM   11  C28 UNL     1       4.134   8.169  13.495  1.00  0.00     0.042 C 
HETATM   12  C29 UNL     1       2.659   8.620  13.429  1.00  0.00     0.065 C 
HETATM   13  C30 UNL     1       2.585  10.152  13.253  1.00  0.00     0.047 C 
ENDROOT
BRANCH   6  14
HETATM   14  C20 UNL     1       1.887   7.605   9.647  1.00  0.00     0.012 C 
BRANCH  14  15
HETATM   15  C21 UNL     1       2.547   8.070   8.335  1.00  0.00     0.027 C 
BRANCH  15  16
HETATM   16  C22 UNL     1       1.948   7.481   7.062  1.00  0.00     0.164 C 
BRANCH  16  17
HETATM   17  O2  UNL     1       2.383   6.141   6.889  1.00  0.00    -0.401 OA
HETATM   18  H34 UNL     1       2.109   5.866   5.996  1.00  0.00     0.209 HD
ENDBRANCH  16  17
ENDBRANCH  15  16
ENDBRANCH  14  15
ENDBRANCH   6  14
BRANCH  12  19
HETATM   19  O4  UNL     1       2.078   8.345  14.712  1.00  0.00    -0.389 OA
HETATM   20  H46 UNL     1       2.529   8.888  15.383  1.00  0.00     0.210 HD
ENDBRANCH  12  19
BRANCH   1  21
HETATM   21  C14 UNL     1      -1.633   6.863  12.632  1.00  0.00     0.011 C 
HETATM   22  C12 UNL     1      -2.433   5.775  12.640  1.00  0.00    -0.063 C 
HETATM   23  C13 UNL     1      -2.216   4.580  11.747  1.00  0.00     0.048 C 
BRANCH  22  24
HETATM   24  C11 UNL     1      -3.583   5.758  13.546  1.00  0.00     0.006 C 
HETATM   25  C10 UNL     1      -3.692   6.416  14.713  1.00  0.00     0.001 C 
BRANCH  25  26
HETATM   26  C9  UNL     1      -4.873   6.324  15.548  1.00  0.00     0.002 C 
HETATM   27  C7  UNL     1      -5.972   7.104  15.496  1.00  0.00    -0.084 C 
HETATM   28  C8  UNL     1      -6.212   8.224  14.519  1.00  0.00     0.043 C 
BRANCH  27  29
HETATM   29  C6  UNL     1      -7.108   6.863  16.477  1.00  0.00     0.037 C 
BRANCH  29  30
HETATM   30  C5  UNL     1      -8.227   6.010  15.871  1.00  0.00     0.031 C 
BRANCH  30  31
HETATM   31  C4  UNL     1      -7.678   4.808  15.150  1.00  0.00    -0.024 C 
HETATM   32  C2  UNL     1      -7.666   4.590  13.820  1.00  0.00    -0.091 C 
HETATM   33  C1  UNL     1      -7.037   3.345  13.250  1.00  0.00     0.042 C 
HETATM   34  C3  UNL     1      -8.263   5.509  12.791  1.00  0.00     0.042 C 
ENDBRANCH  30  31
ENDBRANCH  29  30
ENDBRANCH  27  29
ENDBRANCH  25  26
ENDBRANCH  22  24
ENDBRANCH   1  21
BRANCH   8  35
HETATM   35  C26 UNL     1       3.825   5.151   9.942  1.00  0.00     0.265 C 
HETATM   36  O3  UNL     1       4.148   4.694   8.853  1.00  0.00    -0.302 OA
ENDBRANCH   8  35
TORSDOF 12
ENDMDL
MODEL 4
REMARK minimizedAffinity -7.76830149
REMARK  12 active torsions:
REMARK  status: ('A' for Active; 'I' for Inactive)
REMARK    1  A    between atoms: C4_4  and  C5_5 
REMARK    2  A    between atoms: C5_5  and  C6_6 
REMARK    3  A    between atoms: C6_6  and  C7_7 
REMARK    4  A    between atoms: C9_9  and  C10_10 
REMARK    5  A    between atoms: C11_11  and  C12_12 
REMARK    6  A    between atoms: C14_14  and  C15_15 
REMARK    7  A    between atoms: C19_20  and  C20_21 
REMARK    8  A    between atoms: C20_21  and  C21_22 
REMARK    9  A    between atoms: C21_22  and  C22_23 
REMARK   10  A    between atoms: C22_23  and  O2_24 
REMARK   11  A    between atoms: C24_26  and  C26_28 
REMARK   12  A    between atoms: C29_32  and  O4_34 
ROOT
HETATM    1  C15 UNL     1      -4.654   5.298  13.864  1.00  0.00     0.145 C 
HETATM    2  C16 UNL     1      -5.266   5.821  15.166  1.00  0.00     0.051 C 
HETATM    3  C17 UNL     1      -6.549   6.558  14.746  1.00  0.00     0.022 C 
HETATM    4  C18 UNL     1      -6.100   7.035  13.356  1.00  0.00     0.181 C 
HETATM    5  O1  UNL     1      -5.347   5.956  12.787  1.00  0.00    -0.381 OA
HETATM    6  C19 UNL     1      -7.825   5.619  14.663  1.00  0.00     0.029 C 
HETATM    7  C23 UNL     1      -9.022   6.448  14.142  1.00  0.00    -0.066 C 
HETATM    8  C24 UNL     1      -9.687   6.377  12.960  1.00  0.00    -0.021 C 
HETATM    9  C25 UNL     1     -10.945   7.153  12.651  1.00  0.00     0.052 C 
HETATM   10  C27 UNL     1      -9.374   7.523  15.164  1.00  0.00     0.038 C 
HETATM   11  C28 UNL     1      -8.185   8.474  15.313  1.00  0.00     0.042 C 
HETATM   12  C29 UNL     1      -6.872   7.765  15.708  1.00  0.00     0.065 C 
HETATM   13  C30 UNL     1      -6.924   7.354  17.195  1.00  0.00     0.047 C 
ENDROOT
BRANCH   6  14
HETATM   14  C20 UNL     1      -7.623   4.178  14.127  1.00  0.00     0.012 C 
BRANCH  14  15
HETATM   15  C21 UNL     1      -7.228   4.054  12.644  1.00  0.00     0.027 C 
BRANCH  15  16
HETATM   16  C22 UNL     1      -6.922   2.638  12.169  1.00  0.00     0.164 C 
BRANCH  16  17
HETATM   17  O2  UNL     1      -7.914   1.737  12.640  1.00  0.00    -0.401 OA
HETATM   18  H34 UNL     1      -7.594   0.837  12.451  1.00  0.00     0.209 HD
ENDBRANCH  16  17
ENDBRANCH  15  16
ENDBRANCH  14  15
ENDBRANCH   6  14
BRANCH  12  19
HETATM   19  O4  UNL     1      -5.823   8.740  15.608  1.00  0.00    -0.389 OA
HETATM   20  H46 UNL     1      -5.990   9.448  16.257  1.00  0.00     0.210 HD
ENDBRANCH  12  19
BRANCH   1  21
HETATM   21  C14 UNL     1      -3.188   5.602  13.735  1.00  0.00     0.011 C 
HETATM   22  C12 UNL     1      -2.295   4.998  12.922  1.00  0.00    -0.063 C 
HETATM   23  C13 UNL     1      -2.650   3.855  12.005  1.00  0.00     0.048 C 
BRANCH  22  24
HETATM   24  C11 UNL     1      -0.906   5.458  12.943  1.00  0.00     0.006 C 
HETATM   25  C10 UNL     1      -0.022   5.382  11.933  1.00  0.00     0.001 C 
BRANCH  25  26
HETATM   26  C9  UNL     1       1.342   5.857  12.058  1.00  0.00     0.002 C 
HETATM   27  C7  UNL     1       1.783   7.123  11.905  1.00  0.00    -0.084 C 
HETATM   28  C8  UNL     1       0.925   8.324  11.605  1.00  0.00     0.043 C 
BRANCH  27  29
HETATM   29  C6  UNL     1       3.265   7.423  12.058  1.00  0.00     0.037 C 
BRANCH  29  30
HETATM   30  C5  UNL     1       3.934   7.739  10.716  1.00  0.00     0.031 C 
BRANCH  30  31
HETATM   31  C4  UNL     1       3.503   6.776   9.642  1.00  0.00    -0.024 C 
HETATM   32  C2  UNL     1       2.987   7.078   8.434  1.00  0.00    -0.091 C 
HETATM   33  C1  UNL     1       2.641   5.990   7.451  1.00  0.00     0.042 C 
HETATM   34  C3  UNL     1       2.693   8.470   7.947  1.00  0.00     0.042 C 
ENDBRANCH  30  31
ENDBRANCH  29  30
ENDBRANCH  27  29
ENDBRANCH  25  26
ENDBRANCH  22  24
ENDBRANCH   1  21
BRANCH   8  35
HETATM   35  C26 UNL     1      -9.204   5.570  11.798  1.00  0.00     0.265 C 
HETATM   36  O3  UNL     1      -9.032   6.045  10.682  1.00  0.00    -0.302 OA
ENDBRANCH   8  35
TORSDOF 12
ENDMDL
MODEL 5
REMARK minimizedAffinity -7.68625355
REMARK  12 active torsions:
REMARK  status: ('A' for Active; 'I' for Inactive)
REMARK    1  A    between atoms: C4_4  and  C5_5 
REMARK    2  A    between atoms: C5_5  and  C6_6 
REMARK    3  A    between atoms: C6_6  and  C7_7 
REMARK    4  A    between atoms: C9_9  and  C10_10 
REMARK    5  A    between atoms: C11_11  and  C12_12 
REMARK    6  A    between atoms: C14_14  and  C15_15 
REMARK    7  A    between atoms: C19_20  and  C20_21 
REMARK    8  A    between atoms: C20_21  and  C21_22 
REMARK    9  A    between atoms: C21_22  and  C22_23 
REMARK   10  A    between atoms: C22_23  and  O2_24 
REMARK   11  A    between atoms: C24_26  and  C26_28 
REMARK   12  A    between atoms: C29_32  and  O4_34 
ROOT
HETATM    1  C15 UNL     1      -1.294   9.504  15.402  1.00  0.00     0.145 C 
HETATM    2  C16 UNL     1      -0.371   9.143  14.235  1.00  0.00     0.051 C 
HETATM    3  C17 UNL     1      -0.687   7.675  13.904  1.00  0.00     0.022 C 
HETATM    4  C18 UNL     1      -1.084   7.198  15.310  1.00  0.00     0.181 C 
HETATM    5  O1  UNL     1      -1.840   8.266  15.896  1.00  0.00    -0.381 OA
HETATM    6  C19 UNL     1      -1.873   7.496  12.866  1.00  0.00     0.029 C 
HETATM    7  C23 UNL     1      -2.159   5.987  12.688  1.00  0.00    -0.066 C 
HETATM    8  C24 UNL     1      -3.234   5.250  13.066  1.00  0.00    -0.021 C 
HETATM    9  C25 UNL     1      -3.443   3.804  12.685  1.00  0.00     0.052 C 
HETATM   10  C27 UNL     1      -0.950   5.318  12.044  1.00  0.00     0.038 C 
HETATM   11  C28 UNL     1       0.250   5.452  12.982  1.00  0.00     0.042 C 
HETATM   12  C29 UNL     1       0.581   6.913  13.358  1.00  0.00     0.065 C 
HETATM   13  C30 UNL     1       1.245   7.626  12.161  1.00  0.00     0.047 C 
ENDROOT
BRANCH   6  14
HETATM   14  C20 UNL     1      -3.069   8.478  12.967  1.00  0.00     0.012 C 
BRANCH  14  15
HETATM   15  C21 UNL     1      -4.188   8.086  13.950  1.00  0.00     0.027 C 
BRANCH  15  16
HETATM   16  C22 UNL     1      -4.798   9.243  14.734  1.00  0.00     0.164 C 
BRANCH  16  17
HETATM   17  O2  UNL     1      -4.829   8.934  16.120  1.00  0.00    -0.401 OA
HETATM   18  H34 UNL     1      -5.364   9.623  16.553  1.00  0.00     0.209 HD
ENDBRANCH  16  17
ENDBRANCH  15  16
ENDBRANCH  14  15
ENDBRANCH   6  14
BRANCH  12  19
HETATM   19  O4  UNL     1       1.580   6.865  14.388  1.00  0.00    -0.389 OA
HETATM   20  H46 UNL     1       2.387   6.458  14.023  1.00  0.00     0.210 HD
ENDBRANCH  12  19
BRANCH   1  21
HETATM   21  C14 UNL     1      -0.579  10.186  16.534  1.00  0.00     0.011 C 
HETATM   22  C12 UNL     1      -1.130  10.892  17.544  1.00  0.00    -0.063 C 
HETATM   23  C13 UNL     1      -2.612  11.136  17.672  1.00  0.00     0.048 C 
BRANCH  22  24
HETATM   24  C11 UNL     1      -0.247  11.470  18.558  1.00  0.00     0.006 C 
HETATM   25  C10 UNL     1       0.579  10.796  19.378  1.00  0.00     0.001 C 
BRANCH  25  26
HETATM   26  C9  UNL     1       1.408  11.462  20.362  1.00  0.00     0.002 C 
HETATM   27  C7  UNL     1       2.165  10.884  21.317  1.00  0.00    -0.084 C 
HETATM   28  C8  UNL     1       2.332   9.403  21.533  1.00  0.00     0.043 C 
BRANCH  27  29
HETATM   29  C6  UNL     1       2.956  11.758  22.277  1.00  0.00     0.037 C 
BRANCH  29  30
HETATM   30  C5  UNL     1       3.769  10.933  23.280  1.00  0.00     0.031 C 
BRANCH  30  31
HETATM   31  C4  UNL     1       5.249  11.084  23.051  1.00  0.00    -0.024 C 
HETATM   32  C2  UNL     1       5.952  12.233  22.996  1.00  0.00    -0.091 C 
HETATM   33  C1  UNL     1       7.446  12.212  22.798  1.00  0.00     0.042 C 
HETATM   34  C3  UNL     1       5.361  13.611  23.105  1.00  0.00     0.042 C 
ENDBRANCH  30  31
ENDBRANCH  29  30
ENDBRANCH  27  29
ENDBRANCH  25  26
ENDBRANCH  22  24
ENDBRANCH   1  21
BRANCH   8  35
HETATM   35  C26 UNL     1      -4.304   5.770  13.971  1.00  0.00     0.265 C 
HETATM   36  O3  UNL     1      -5.394   5.225  14.097  1.00  0.00    -0.302 OA
ENDBRANCH   8  35
TORSDOF 12
ENDMDL
MODEL 6
REMARK minimizedAffinity -7.60862446
REMARK  12 active torsions:
REMARK  status: ('A' for Active; 'I' for Inactive)
REMARK    1  A    between atoms: C4_4  and  C5_5 
REMARK    2  A    between atoms: C5_5  and  C6_6 
REMARK    3  A    between atoms: C6_6  and  C7_7 
REMARK    4  A    between atoms: C9_9  and  C10_10 
REMARK    5  A    between atoms: C11_11  and  C12_12 
REMARK    6  A    between atoms: C14_14  and  C15_15 
REMARK    7  A    between atoms: C19_20  and  C20_21 
REMARK    8  A    between atoms: C20_21  and  C21_22 
REMARK    9  A    between atoms: C21_22  and  C22_23 
REMARK   10  A    between atoms: C22_23  and  O2_24 
REMARK   11  A    between atoms: C24_26  and  C26_28 
REMARK   12  A    between atoms: C29_32  and  O4_34 
ROOT
HETATM    1  C15 UNL     1     -10.860   7.051  14.258  1.00  0.00     0.145 C 
HETATM    2  C16 UNL     1     -11.127   8.326  15.062  1.00  0.00     0.051 C 
HETATM    3  C17 UNL     1     -12.217   9.080  14.282  1.00  0.00     0.022 C 
HETATM    4  C18 UNL     1     -11.855   8.611  12.863  1.00  0.00     0.181 C 
HETATM    5  O1  UNL     1     -11.498   7.228  12.978  1.00  0.00    -0.381 OA
HETATM    6  C19 UNL     1     -13.693   8.660  14.682  1.00  0.00     0.029 C 
HETATM    7  C23 UNL     1     -14.691   9.410  13.769  1.00  0.00    -0.066 C 
HETATM    8  C24 UNL     1     -15.508   8.939  12.793  1.00  0.00    -0.021 C 
HETATM    9  C25 UNL     1     -16.548   9.775  12.086  1.00  0.00     0.052 C 
HETATM   10  C27 UNL     1     -14.603  10.906  14.049  1.00  0.00     0.038 C 
HETATM   11  C28 UNL     1     -13.197  11.396  13.696  1.00  0.00     0.042 C 
HETATM   12  C29 UNL     1     -12.075  10.643  14.441  1.00  0.00     0.065 C 
HETATM   13  C30 UNL     1     -12.027  11.097  15.916  1.00  0.00     0.047 C 
ENDROOT
BRANCH   6  14
HETATM   14  C20 UNL     1     -13.952   7.166  15.005  1.00  0.00     0.012 C 
BRANCH  14  15
HETATM   15  C21 UNL     1     -15.117   6.873  15.970  1.00  0.00     0.027 C 
BRANCH  15  16
HETATM   16  C22 UNL     1     -15.930   5.623  15.646  1.00  0.00     0.164 C 
BRANCH  16  17
HETATM   17  O2  UNL     1     -15.243   4.825  14.693  1.00  0.00    -0.401 OA
HETATM   18  H34 UNL     1     -15.863   4.133  14.403  1.00  0.00     0.209 HD
ENDBRANCH  16  17
ENDBRANCH  15  16
ENDBRANCH  14  15
ENDBRANCH   6  14
BRANCH  12  19
HETATM   19  O4  UNL     1     -10.831  11.063  13.861  1.00  0.00    -0.389 OA
HETATM   20  H46 UNL     1     -10.715  12.016  14.027  1.00  0.00     0.210 HD
ENDBRANCH  12  19
BRANCH   1  21
HETATM   21  C14 UNL     1      -9.398   6.795  14.022  1.00  0.00     0.011 C 
HETATM   22  C12 UNL     1      -8.407   6.805  14.939  1.00  0.00    -0.063 C 
HETATM   23  C13 UNL     1      -8.629   7.120  16.396  1.00  0.00     0.048 C 
BRANCH  22  24
HETATM   24  C11 UNL     1      -7.042   6.515  14.497  1.00  0.00     0.006 C 
HETATM   25  C10 UNL     1      -6.663   5.539  13.655  1.00  0.00     0.001 C 
BRANCH  25  26
HETATM   26  C9  UNL     1      -5.278   5.325  13.287  1.00  0.00     0.002 C 
HETATM   27  C7  UNL     1      -4.785   4.354  12.491  1.00  0.00    -0.084 C 
HETATM   28  C8  UNL     1      -5.594   3.300  11.782  1.00  0.00     0.043 C 
BRANCH  27  29
HETATM   29  C6  UNL     1      -3.288   4.281  12.237  1.00  0.00     0.037 C 
BRANCH  29  30
HETATM   30  C5  UNL     1      -2.961   3.969  10.773  1.00  0.00     0.031 C 
BRANCH  30  31
HETATM   31  C4  UNL     1      -1.836   2.974  10.658  1.00  0.00    -0.024 C 
HETATM   32  C2  UNL     1      -1.866   1.667  10.986  1.00  0.00    -0.091 C 
HETATM   33  C1  UNL     1      -0.659   0.792  10.770  1.00  0.00     0.042 C 
HETATM   34  C3  UNL     1      -3.046   0.958  11.591  1.00  0.00     0.042 C 
ENDBRANCH  30  31
ENDBRANCH  29  30
ENDBRANCH  27  29
ENDBRANCH  25  26
ENDBRANCH  22  24
ENDBRANCH   1  21
BRANCH   8  35
HETATM   35  C26 UNL     1     -15.420   7.548  12.254  1.00  0.00     0.265 C 
HETATM   36  O3  UNL     1     -15.761   7.249  11.116  1.00  0.00    -0.302 OA
ENDBRANCH   8  35
TORSDOF 12
ENDMDL
MODEL 7
REMARK minimizedAffinity -7.5652833
REMARK  12 active torsions:
REMARK  status: ('A' for Active; 'I' for Inactive)
REMARK    1  A    between atoms: C4_4  and  C5_5 
REMARK    2  A    between atoms: C5_5  and  C6_6 
REMARK    3  A    between atoms: C6_6  and  C7_7 
REMARK    4  A    between atoms: C9_9  and  C10_10 
REMARK    5  A    between atoms: C11_11  and  C12_12 
REMARK    6  A    between atoms: C14_14  and  C15_15 
REMARK    7  A    between atoms: C19_20  and  C20_21 
REMARK    8  A    between atoms: C20_21  and  C21_22 
REMARK    9  A    between atoms: C21_22  and  C22_23 
REMARK   10  A    between atoms: C22_23  and  O2_24 
REMARK   11  A    between atoms: C24_26  and  C26_28 
REMARK   12  A    between atoms: C29_32  and  O4_34 
ROOT
HETATM    1  C15 UNL     1       0.433   6.929  11.630  1.00  0.00     0.145 C 
HETATM    2  C16 UNL     1       0.732   8.224  12.390  1.00  0.00     0.051 C 
HETATM    3  C17 UNL     1       2.176   8.074  12.897  1.00  0.00     0.022 C 
HETATM    4  C18 UNL     1       2.205   6.547  13.072  1.00  0.00     0.181 C 
HETATM    5  O1  UNL     1       1.487   6.003  11.958  1.00  0.00    -0.381 OA
HETATM    6  C19 UNL     1       3.270   8.569  11.861  1.00  0.00     0.029 C 
HETATM    7  C23 UNL     1       4.675   8.281  12.441  1.00  0.00    -0.066 C 
HETATM    8  C24 UNL     1       5.622   7.395  12.040  1.00  0.00    -0.021 C 
HETATM    9  C25 UNL     1       7.017   7.334  12.614  1.00  0.00     0.052 C 
HETATM   10  C27 UNL     1       4.886   9.127  13.691  1.00  0.00     0.038 C 
HETATM   11  C28 UNL     1       3.858   8.717  14.747  1.00  0.00     0.042 C 
HETATM   12  C29 UNL     1       2.397   8.829  14.264  1.00  0.00     0.065 C 
HETATM   13  C30 UNL     1       1.974  10.313  14.208  1.00  0.00     0.047 C 
ENDROOT
BRANCH   6  14
HETATM   14  C20 UNL     1       3.011   8.295  10.357  1.00  0.00     0.012 C 
BRANCH  14  15
HETATM   15  C21 UNL     1       3.315   6.867   9.865  1.00  0.00     0.027 C 
BRANCH  15  16
HETATM   16  C22 UNL     1       2.670   6.486   8.537  1.00  0.00     0.164 C 
BRANCH  16  17
HETATM   17  O2  UNL     1       3.146   5.220   8.105  1.00  0.00    -0.401 OA
HETATM   18  H34 UNL     1       2.834   5.096   7.191  1.00  0.00     0.209 HD
ENDBRANCH  16  17
ENDBRANCH  15  16
ENDBRANCH  14  15
ENDBRANCH   6  14
BRANCH  12  19
HETATM   19  O4  UNL     1       1.574   8.225  15.273  1.00  0.00    -0.389 OA
HETATM   20  H46 UNL     1       1.659   8.740  16.096  1.00  0.00     0.210 HD
ENDBRANCH  12  19
BRANCH   1  21
HETATM   21  C14 UNL     1      -0.878   6.304  12.018  1.00  0.00     0.011 C 
HETATM   22  C12 UNL     1      -2.004   6.939  12.410  1.00  0.00    -0.063 C 
HETATM   23  C13 UNL     1      -2.104   8.436  12.551  1.00  0.00     0.048 C 
BRANCH  22  24
HETATM   24  C11 UNL     1      -3.184   6.136  12.734  1.00  0.00     0.006 C 
HETATM   25  C10 UNL     1      -3.711   5.945  13.955  1.00  0.00     0.001 C 
BRANCH  25  26
HETATM   26  C9  UNL     1      -4.880   5.117  14.175  1.00  0.00     0.002 C 
HETATM   27  C7  UNL     1      -6.172   5.473  14.024  1.00  0.00    -0.084 C 
HETATM   28  C8  UNL     1      -6.667   6.815  13.553  1.00  0.00     0.043 C 
BRANCH  27  29
HETATM   29  C6  UNL     1      -7.267   4.462  14.324  1.00  0.00     0.037 C 
BRANCH  29  30
HETATM   30  C5  UNL     1      -7.230   3.264  13.370  1.00  0.00     0.031 C 
BRANCH  30  31
HETATM   31  C4  UNL     1      -6.484   3.589  12.103  1.00  0.00    -0.024 C 
HETATM   32  C2  UNL     1      -5.936   2.718  11.233  1.00  0.00    -0.091 C 
HETATM   33  C1  UNL     1      -5.254   3.207   9.981  1.00  0.00     0.042 C 
HETATM   34  C3  UNL     1      -5.923   1.224  11.402  1.00  0.00     0.042 C 
ENDBRANCH  30  31
ENDBRANCH  29  30
ENDBRANCH  27  29
ENDBRANCH  25  26
ENDBRANCH  22  24
ENDBRANCH   1  21
BRANCH   8  35
HETATM   35  C26 UNL     1       5.365   6.326  11.028  1.00  0.00     0.265 C 
HETATM   36  O3  UNL     1       6.232   5.553  10.638  1.00  0.00    -0.302 OA
ENDBRANCH   8  35
TORSDOF 12
ENDMDL
MODEL 8
REMARK minimizedAffinity -7.56398869
REMARK  12 active torsions:
REMARK  status: ('A' for Active; 'I' for Inactive)
REMARK    1  A    between atoms: C4_4  and  C5_5 
REMARK    2  A    between atoms: C5_5  and  C6_6 
REMARK    3  A    between atoms: C6_6  and  C7_7 
REMARK    4  A    between atoms: C9_9  and  C10_10 
REMARK    5  A    between atoms: C11_11  and  C12_12 
REMARK    6  A    between atoms: C14_14  and  C15_15 
REMARK    7  A    between atoms: C19_20  and  C20_21 
REMARK    8  A    between atoms: C20_21  and  C21_22 
REMARK    9  A    between atoms: C21_22  and  C22_23 
REMARK   10  A    between atoms: C22_23  and  O2_24 
REMARK   11  A    between atoms: C24_26  and  C26_28 
REMARK   12  A    between atoms: C29_32  and  O4_34 
ROOT
HETATM    1  C15 UNL     1      -0.384   7.026  11.645  1.00  0.00     0.145 C 
HETATM    2  C16 UNL     1       0.431   8.232  12.118  1.00  0.00     0.051 C 
HETATM    3  C17 UNL     1       1.876   7.722  12.247  1.00  0.00     0.022 C 
HETATM    4  C18 UNL     1       1.575   6.259  12.614  1.00  0.00     0.181 C 
HETATM    5  O1  UNL     1       0.456   5.868  11.809  1.00  0.00    -0.381 OA
HETATM    6  C19 UNL     1       2.714   7.831  10.905  1.00  0.00     0.029 C 
HETATM    7  C23 UNL     1       4.109   7.204  11.134  1.00  0.00    -0.066 C 
HETATM    8  C24 UNL     1       4.651   6.068  10.623  1.00  0.00    -0.021 C 
HETATM    9  C25 UNL     1       6.092   5.660  10.818  1.00  0.00     0.052 C 
HETATM   10  C27 UNL     1       4.873   8.033  12.160  1.00  0.00     0.038 C 
HETATM   11  C28 UNL     1       4.123   7.987  13.492  1.00  0.00     0.042 C 
HETATM   12  C29 UNL     1       2.660   8.468  13.395  1.00  0.00     0.065 C 
HETATM   13  C30 UNL     1       2.620  10.005  13.251  1.00  0.00     0.047 C 
ENDROOT
BRANCH   6  14
HETATM   14  C20 UNL     1       1.975   7.548   9.572  1.00  0.00     0.012 C 
BRANCH  14  15
HETATM   15  C21 UNL     1       2.578   8.195   8.311  1.00  0.00     0.027 C 
BRANCH  15  16
HETATM   16  C22 UNL     1       2.121   7.589   6.988  1.00  0.00     0.164 C 
BRANCH  16  17
HETATM   17  O2  UNL     1       2.287   6.179   7.011  1.00  0.00    -0.401 OA
HETATM   18  H34 UNL     1       2.136   5.860   6.103  1.00  0.00     0.209 HD
ENDBRANCH  16  17
ENDBRANCH  15  16
ENDBRANCH  14  15
ENDBRANCH   6  14
BRANCH  12  19
HETATM   19  O4  UNL     1       2.038   8.177  14.656  1.00  0.00    -0.389 OA
HETATM   20  H46 UNL     1       2.480   8.697  15.350  1.00  0.00     0.210 HD
ENDBRANCH  12  19
BRANCH   1  21
HETATM   21  C14 UNL     1      -1.641   6.812  12.441  1.00  0.00     0.011 C 
HETATM   22  C12 UNL     1      -2.469   7.757  12.934  1.00  0.00    -0.063 C 
HETATM   23  C13 UNL     1      -2.224   9.237  12.777  1.00  0.00     0.048 C 
BRANCH  22  24
HETATM   24  C11 UNL     1      -3.655   7.330  13.678  1.00  0.00     0.006 C 
HETATM   25  C10 UNL     1      -4.933   7.431  13.273  1.00  0.00     0.001 C 
BRANCH  25  26
HETATM   26  C9  UNL     1      -6.044   6.988  14.092  1.00  0.00     0.002 C 
HETATM   27  C7  UNL     1      -6.600   5.760  14.118  1.00  0.00    -0.084 C 
HETATM   28  C8  UNL     1      -6.148   4.571  13.312  1.00  0.00     0.043 C 
BRANCH  27  29
HETATM   29  C6  UNL     1      -7.781   5.492  15.037  1.00  0.00     0.037 C 
BRANCH  29  30
HETATM   30  C5  UNL     1      -7.776   6.403  16.270  1.00  0.00     0.031 C 
BRANCH  30  31
HETATM   31  C4  UNL     1      -8.194   7.807  15.921  1.00  0.00    -0.024 C 
HETATM   32  C2  UNL     1      -9.358   8.197  15.364  1.00  0.00    -0.091 C 
HETATM   33  C1  UNL     1      -9.640   9.656  15.115  1.00  0.00     0.042 C 
HETATM   34  C3  UNL     1     -10.459   7.269  14.931  1.00  0.00     0.042 C 
ENDBRANCH  30  31
ENDBRANCH  29  30
ENDBRANCH  27  29
ENDBRANCH  25  26
ENDBRANCH  22  24
ENDBRANCH   1  21
BRANCH   8  35
HETATM   35  C26 UNL     1       3.858   5.052   9.868  1.00  0.00     0.265 C 
HETATM   36  O3  UNL     1       4.189   4.631   8.766  1.00  0.00    -0.302 OA
ENDBRANCH   8  35
TORSDOF 12
ENDMDL
MODEL 9
REMARK minimizedAffinity -7.55310631
REMARK  12 active torsions:
REMARK  status: ('A' for Active; 'I' for Inactive)
REMARK    1  A    between atoms: C4_4  and  C5_5 
REMARK    2  A    between atoms: C5_5  and  C6_6 
REMARK    3  A    between atoms: C6_6  and  C7_7 
REMARK    4  A    between atoms: C9_9  and  C10_10 
REMARK    5  A    between atoms: C11_11  and  C12_12 
REMARK    6  A    between atoms: C14_14  and  C15_15 
REMARK    7  A    between atoms: C19_20  and  C20_21 
REMARK    8  A    between atoms: C20_21  and  C21_22 
REMARK    9  A    between atoms: C21_22  and  C22_23 
REMARK   10  A    between atoms: C22_23  and  O2_24 
REMARK   11  A    between atoms: C24_26  and  C26_28 
REMARK   12  A    between atoms: C29_32  and  O4_34 
ROOT
HETATM    1  C15 UNL     1       0.597   7.142  13.473  1.00  0.00     0.145 C 
HETATM    2  C16 UNL     1       1.388   6.323  12.449  1.00  0.00     0.051 C 
HETATM    3  C17 UNL     1       2.306   7.334  11.741  1.00  0.00     0.022 C 
HETATM    4  C18 UNL     1       1.409   8.578  11.847  1.00  0.00     0.181 C 
HETATM    5  O1  UNL     1       0.808   8.529  13.147  1.00  0.00    -0.381 OA
HETATM    6  C19 UNL     1       3.698   7.550  12.468  1.00  0.00     0.029 C 
HETATM    7  C23 UNL     1       4.488   8.650  11.722  1.00  0.00    -0.066 C 
HETATM    8  C24 UNL     1       4.817   9.908  12.112  1.00  0.00    -0.021 C 
HETATM    9  C25 UNL     1       5.731  10.821  11.332  1.00  0.00     0.052 C 
HETATM   10  C27 UNL     1       4.832   8.159  10.320  1.00  0.00     0.038 C 
HETATM   11  C28 UNL     1       3.535   7.917   9.546  1.00  0.00     0.042 C 
HETATM   12  C29 UNL     1       2.576   6.927  10.241  1.00  0.00     0.065 C 
HETATM   13  C30 UNL     1       3.111   5.487  10.095  1.00  0.00     0.047 C 
ENDROOT
BRANCH   6  14
HETATM   14  C20 UNL     1       3.707   7.543  14.019  1.00  0.00     0.012 C 
BRANCH  14  15
HETATM   15  C21 UNL     1       2.953   8.697  14.707  1.00  0.00     0.027 C 
BRANCH  15  16
HETATM   16  C22 UNL     1       2.656   8.487  16.188  1.00  0.00     0.164 C 
BRANCH  16  17
HETATM   17  O2  UNL     1       1.257   8.557  16.422  1.00  0.00    -0.401 OA
HETATM   18  H34 UNL     1       1.131   8.578  17.387  1.00  0.00     0.209 HD
ENDBRANCH  16  17
ENDBRANCH  15  16
ENDBRANCH  14  15
ENDBRANCH   6  14
BRANCH  12  19
HETATM   19  O4  UNL     1       1.339   6.961   9.514  1.00  0.00    -0.389 OA
HETATM   20  H46 UNL     1       1.499   6.640   8.609  1.00  0.00     0.210 HD
ENDBRANCH  12  19
BRANCH   1  21
HETATM   21  C14 UNL     1      -0.881   6.870  13.434  1.00  0.00     0.011 C 
HETATM   22  C12 UNL     1      -1.494   5.733  13.042  1.00  0.00    -0.063 C 
HETATM   23  C13 UNL     1      -0.752   4.524  12.532  1.00  0.00     0.048 C 
BRANCH  22  24
HETATM   24  C11 UNL     1      -2.956   5.672  13.093  1.00  0.00     0.006 C 
HETATM   25  C10 UNL     1      -3.724   4.609  12.798  1.00  0.00     0.001 C 
BRANCH  25  26
HETATM   26  C9  UNL     1      -5.171   4.654  12.868  1.00  0.00     0.002 C 
HETATM   27  C7  UNL     1      -6.041   3.761  12.353  1.00  0.00    -0.084 C 
HETATM   28  C8  UNL     1      -5.676   2.497  11.621  1.00  0.00     0.043 C 
BRANCH  27  29
HETATM   29  C6  UNL     1      -7.535   3.993  12.513  1.00  0.00     0.037 C 
BRANCH  29  30
HETATM   30  C5  UNL     1      -7.843   5.228  13.367  1.00  0.00     0.031 C 
BRANCH  30  31
HETATM   31  C4  UNL     1      -9.093   5.924  12.901  1.00  0.00    -0.024 C 
HETATM   32  C2  UNL     1      -9.890   6.739  13.620  1.00  0.00    -0.091 C 
HETATM   33  C1  UNL     1     -11.091   7.395  12.990  1.00  0.00     0.042 C 
HETATM   34  C3  UNL     1      -9.696   7.068  15.075  1.00  0.00     0.042 C 
ENDBRANCH  30  31
ENDBRANCH  29  30
ENDBRANCH  27  29
ENDBRANCH  25  26
ENDBRANCH  22  24
ENDBRANCH   1  21
BRANCH   8  35
HETATM   35  C26 UNL     1       4.250  10.559  13.332  1.00  0.00     0.265 C 
HETATM   36  O3  UNL     1       3.306  11.340  13.294  1.00  0.00    -0.302 OA
ENDBRANCH   8  35
TORSDOF 12
ENDMDL
