MODEL 1
REMARK minimizedAffinity -7.73062563
REMARK CNNscore 0.244885489
REMARK CNNaffinity 5.73600149
REMARK  2 active torsions:
REMARK  status: ('A' for Active; 'I' for Inactive)
REMARK    1  A    between atoms: C21_27  and  C22_28 
REMARK    2  A    between atoms: C22_28  and  O7_30 
ROOT
HETATM    1  C1  UNL     1      12.438  -7.784   5.203  1.00  0.00     0.043 C 
HETATM    2  C2  UNL     1      12.930  -6.581   5.964  1.00  0.00    -0.076 C 
HETATM    3  C3  UNL     1      13.413  -6.723   7.217  1.00  0.00     0.084 C 
HETATM    4  C4  UNL     1      13.980  -5.622   8.030  1.00  0.00     0.283 C 
HETATM    5  O1  UNL     1      13.784  -4.434   7.845  1.00  0.00    -0.260 OA
HETATM    6  O2  UNL     1      14.843  -6.161   8.934  1.00  0.00    -0.317 OA
HETATM    7  C5  UNL     1      15.741  -5.220   9.559  1.00  0.00     0.195 C 
HETATM    8  C6  UNL     1      17.217  -5.326   9.001  1.00  0.00     0.053 C 
HETATM    9  C7  UNL     1      17.801  -6.711   9.535  1.00  0.00     0.159 C 
HETATM   10  C8  UNL     1      17.397  -7.943   8.770  1.00  0.00     0.011 C 
HETATM   11  C9  UNL     1      17.021  -7.901   7.479  1.00  0.00    -0.054 C 
HETATM   12  C10 UNL     1      16.648  -9.149   6.730  1.00  0.00     0.046 C 
HETATM   13  C11 UNL     1      17.031  -6.645   6.715  1.00  0.00     0.180 A 
HETATM   14  O3  UNL     1      18.201  -5.824   6.712  1.00  0.00    -0.370 OA
HETATM   15  C12 UNL     1      17.097  -5.330   7.479  1.00  0.00     0.170 A 
HETATM   16  O4  UNL     1      19.229  -6.787   9.670  1.00  0.00    -0.372 OA
HETATM   17  C13 UNL     1      19.879  -5.583  10.086  1.00  0.00     0.162 C 
HETATM   18  C14 UNL     1      20.331  -4.839   8.816  1.00  0.00     0.068 C 
HETATM   19  C15 UNL     1      19.332  -3.676   8.674  1.00  0.00     0.147 C 
HETATM   20  O5  UNL     1      18.944  -3.349   7.343  1.00  0.00    -0.312 OA
HETATM   21  C16 UNL     1      19.894  -2.855   6.521  1.00  0.00     0.283 C 
HETATM   22  O6  UNL     1      21.038  -2.562   6.832  1.00  0.00    -0.260 OA
HETATM   23  C17 UNL     1      19.410  -2.808   5.124  1.00  0.00     0.082 C 
HETATM   24  C18 UNL     1      18.169  -2.585   4.658  1.00  0.00     0.006 C 
HETATM   25  C19 UNL     1      17.005  -2.195   5.421  1.00  0.00    -0.001 C 
HETATM   26  C20 UNL     1      15.728  -2.236   5.008  1.00  0.00     0.007 C 
HETATM   27  C21 UNL     1      15.159  -2.797   3.724  1.00  0.00     0.172 C 
HETATM   28  O8  UNL     1      13.938  -3.486   4.045  1.00  0.00    -0.379 OA
HETATM   29  C24 UNL     1      14.141  -4.786   4.604  1.00  0.00     0.173 C 
HETATM   30  C25 UNL     1      12.819  -5.267   5.211  1.00  0.00     0.060 C 
HETATM   31  C26 UNL     1      18.104  -4.092   9.563  1.00  0.00     0.034 C 
HETATM   32  C27 UNL     1      17.316  -2.816   9.888  1.00  0.00     0.022 C 
HETATM   33  C28 UNL     1      18.881  -4.669  10.721  1.00  0.00     0.119 A 
HETATM   34  C29 UNL     1      18.467  -4.726  12.172  1.00  0.00     0.210 A 
HETATM   35  O9  UNL     1      19.399  -3.743  11.681  1.00  0.00    -0.371 OA
ENDROOT
BRANCH  27  36
HETATM   36  C22 UNL     1      14.831  -1.657   2.720  1.00  0.00     0.146 C 
HETATM   37  C23 UNL     1      13.550  -0.911   3.090  1.00  0.00     0.042 C 
BRANCH  36  38
HETATM   38  O7  UNL     1      14.673  -2.164   1.389  1.00  0.00    -0.393 OA
HETATM   39  H27 UNL     1      13.864  -2.699   1.366  1.00  0.00     0.210 HD
ENDBRANCH  36  38
ENDBRANCH  27  36
TORSDOF 2
ENDMDL
MODEL 2
REMARK minimizedAffinity -6.58737373
REMARK CNNscore 0.239277333
REMARK CNNaffinity 5.96826172
REMARK  2 active torsions:
REMARK  status: ('A' for Active; 'I' for Inactive)
REMARK    1  A    between atoms: C21_27  and  C22_28 
REMARK    2  A    between atoms: C22_28  and  O7_30 
ROOT
HETATM    1  C1  UNL     1     -20.902  -6.007  26.160  1.00  0.00     0.043 C 
HETATM    2  C2  UNL     1     -19.438  -5.657  26.173  1.00  0.00    -0.076 C 
HETATM    3  C3  UNL     1     -18.901  -5.028  27.241  1.00  0.00     0.084 C 
HETATM    4  C4  UNL     1     -17.465  -4.694  27.387  1.00  0.00     0.283 C 
HETATM    5  O1  UNL     1     -16.661  -4.619  26.475  1.00  0.00    -0.260 OA
HETATM    6  O2  UNL     1     -17.182  -4.605  28.716  1.00  0.00    -0.317 OA
HETATM    7  C5  UNL     1     -15.777  -4.640  29.044  1.00  0.00     0.195 C 
HETATM    8  C6  UNL     1     -15.333  -6.025  29.664  1.00  0.00     0.053 C 
HETATM    9  C7  UNL     1     -15.992  -6.100  31.115  1.00  0.00     0.159 C 
HETATM   10  C8  UNL     1     -17.438  -6.513  31.168  1.00  0.00     0.011 C 
HETATM   11  C9  UNL     1     -18.016  -7.247  30.201  1.00  0.00    -0.054 C 
HETATM   12  C10 UNL     1     -19.455  -7.669  30.291  1.00  0.00     0.046 C 
HETATM   13  C11 UNL     1     -17.250  -7.740  29.048  1.00  0.00     0.180 A 
HETATM   14  O3  UNL     1     -16.020  -8.437  29.257  1.00  0.00    -0.370 OA
HETATM   15  C12 UNL     1     -15.900  -7.104  28.746  1.00  0.00     0.170 A 
HETATM   16  O4  UNL     1     -15.316  -6.926  32.077  1.00  0.00    -0.372 OA
HETATM   17  C13 UNL     1     -13.888  -6.939  31.990  1.00  0.00     0.162 C 
HETATM   18  C14 UNL     1     -13.490  -8.140  31.113  1.00  0.00     0.068 C 
HETATM   19  C15 UNL     1     -13.081  -7.516  29.767  1.00  0.00     0.147 C 
HETATM   20  O5  UNL     1     -13.448  -8.252  28.604  1.00  0.00    -0.312 OA
HETATM   21  C16 UNL     1     -12.861  -9.453  28.416  1.00  0.00     0.283 C 
HETATM   22  O6  UNL     1     -11.966  -9.934  29.093  1.00  0.00    -0.260 OA
HETATM   23  C17 UNL     1     -13.523 -10.199  27.322  1.00  0.00     0.082 C 
HETATM   24  C18 UNL     1     -14.099  -9.734  26.201  1.00  0.00     0.006 C 
HETATM   25  C19 UNL     1     -14.094  -8.374  25.713  1.00  0.00    -0.001 C 
HETATM   26  C20 UNL     1     -14.884  -7.865  24.753  1.00  0.00     0.007 C 
HETATM   27  C21 UNL     1     -16.042  -8.516  24.028  1.00  0.00     0.172 C 
HETATM   28  O8  UNL     1     -17.084  -7.535  23.890  1.00  0.00    -0.379 OA
HETATM   29  C24 UNL     1     -17.851  -7.338  25.080  1.00  0.00     0.173 C 
HETATM   30  C25 UNL     1     -18.679  -6.059  24.921  1.00  0.00     0.060 C 
HETATM   31  C26 UNL     1     -13.717  -6.078  29.782  1.00  0.00     0.034 C 
HETATM   32  C27 UNL     1     -12.960  -5.227  28.754  1.00  0.00     0.022 C 
HETATM   33  C28 UNL     1     -13.422  -5.743  31.224  1.00  0.00     0.119 A 
HETATM   34  C29 UNL     1     -13.186  -4.378  31.823  1.00  0.00     0.210 A 
HETATM   35  O9  UNL     1     -12.103  -5.279  31.525  1.00  0.00    -0.371 OA
ENDROOT
BRANCH  27  36
HETATM   36  C22 UNL     1     -15.613  -8.981  22.609  1.00  0.00     0.146 C 
HETATM   37  C23 UNL     1     -14.752 -10.242  22.649  1.00  0.00     0.042 C 
BRANCH  36  38
HETATM   38  O7  UNL     1     -14.867  -7.964  21.930  1.00  0.00    -0.393 OA
HETATM   39  H27 UNL     1     -14.014  -7.865  22.382  1.00  0.00     0.210 HD
ENDBRANCH  36  38
ENDBRANCH  27  36
TORSDOF 2
ENDMDL
MODEL 3
REMARK minimizedAffinity -6.18010139
REMARK CNNscore 0.224272832
REMARK CNNaffinity 5.4407649
REMARK  2 active torsions:
REMARK  status: ('A' for Active; 'I' for Inactive)
REMARK    1  A    between atoms: C21_27  and  C22_28 
REMARK    2  A    between atoms: C22_28  and  O7_30 
ROOT
HETATM    1  C1  UNL     1       0.038  16.738  21.415  1.00  0.00     0.043 C 
HETATM    2  C2  UNL     1       1.221  16.160  20.684  1.00  0.00    -0.076 C 
HETATM    3  C3  UNL     1       2.273  16.946  20.368  1.00  0.00     0.084 C 
HETATM    4  C4  UNL     1       3.511  16.472  19.709  1.00  0.00     0.283 C 
HETATM    5  O1  UNL     1       3.620  15.440  19.071  1.00  0.00    -0.260 OA
HETATM    6  O2  UNL     1       4.523  17.321  20.041  1.00  0.00    -0.317 OA
HETATM    7  C5  UNL     1       5.851  16.819  19.784  1.00  0.00     0.195 C 
HETATM    8  C6  UNL     1       6.601  16.382  21.105  1.00  0.00     0.053 C 
HETATM    9  C7  UNL     1       6.927  17.725  21.902  1.00  0.00     0.159 C 
HETATM   10  C8  UNL     1       5.799  18.311  22.707  1.00  0.00     0.011 C 
HETATM   11  C9  UNL     1       4.775  17.568  23.165  1.00  0.00    -0.054 C 
HETATM   12  C10 UNL     1       3.675  18.173  23.990  1.00  0.00     0.046 C 
HETATM   13  C11 UNL     1       4.722  16.116  22.948  1.00  0.00     0.180 A 
HETATM   14  O3  UNL     1       5.852  15.305  23.281  1.00  0.00    -0.370 OA
HETATM   15  C12 UNL     1       5.621  15.506  21.882  1.00  0.00     0.170 A 
HETATM   16  O4  UNL     1       8.056  17.678  22.789  1.00  0.00    -0.372 OA
HETATM   17  C13 UNL     1       9.157  16.876  22.352  1.00  0.00     0.162 C 
HETATM   18  C14 UNL     1       8.983  15.476  22.970  1.00  0.00     0.068 C 
HETATM   19  C15 UNL     1       8.507  14.596  21.801  1.00  0.00     0.147 C 
HETATM   20  O5  UNL     1       7.538  13.603  22.126  1.00  0.00    -0.312 OA
HETATM   21  C16 UNL     1       7.924  12.601  22.943  1.00  0.00     0.283 C 
HETATM   22  O6  UNL     1       9.054  12.400  23.357  1.00  0.00    -0.260 OA
HETATM   23  C17 UNL     1       6.758  11.805  23.388  1.00  0.00     0.082 C 
HETATM   24  C18 UNL     1       5.622  11.516  22.731  1.00  0.00     0.006 C 
HETATM   25  C19 UNL     1       5.312  11.805  21.349  1.00  0.00    -0.001 C 
HETATM   26  C20 UNL     1       4.099  11.763  20.775  1.00  0.00     0.007 C 
HETATM   27  C21 UNL     1       2.749  11.531  21.417  1.00  0.00     0.172 C 
HETATM   28  O8  UNL     1       1.808  12.429  20.805  1.00  0.00    -0.379 OA
HETATM   29  C24 UNL     1       1.887  13.769  21.298  1.00  0.00     0.173 C 
HETATM   30  C25 UNL     1       1.102  14.683  20.352  1.00  0.00     0.060 C 
HETATM   31  C26 UNL     1       7.975  15.612  20.725  1.00  0.00     0.034 C 
HETATM   32  C27 UNL     1       7.964  14.887  19.372  1.00  0.00     0.022 C 
HETATM   33  C28 UNL     1       9.059  16.651  20.878  1.00  0.00     0.119 A 
HETATM   34  C29 UNL     1       9.577  17.603  19.828  1.00  0.00     0.210 A 
HETATM   35  O9  UNL     1      10.292  16.409  20.195  1.00  0.00    -0.371 OA
ENDROOT
BRANCH  27  36
HETATM   36  C22 UNL     1       2.266  10.074  21.176  1.00  0.00     0.146 C 
HETATM   37  C23 UNL     1       2.789   9.107  22.237  1.00  0.00     0.042 C 
BRANCH  36  38
HETATM   38  O7  UNL     1       2.690   9.589  19.896  1.00  0.00    -0.393 OA
HETATM   39  H27 UNL     1       3.654   9.487  19.919  1.00  0.00     0.210 HD
ENDBRANCH  36  38
ENDBRANCH  27  36
TORSDOF 2
ENDMDL
MODEL 4
REMARK minimizedAffinity -6.4068284
REMARK CNNscore 0.180774033
REMARK CNNaffinity 5.04524565
REMARK  2 active torsions:
REMARK  status: ('A' for Active; 'I' for Inactive)
REMARK    1  A    between atoms: C21_27  and  C22_28 
REMARK    2  A    between atoms: C22_28  and  O7_30 
ROOT
HETATM    1  C1  UNL     1     -23.336  -1.866  11.187  1.00  0.00     0.043 C 
HETATM    2  C2  UNL     1     -21.873  -1.573  10.986  1.00  0.00    -0.076 C 
HETATM    3  C3  UNL     1     -21.337  -0.433  11.472  1.00  0.00     0.084 C 
HETATM    4  C4  UNL     1     -19.903  -0.074  11.387  1.00  0.00     0.283 C 
HETATM    5  O1  UNL     1     -19.100  -0.552  10.606  1.00  0.00    -0.260 OA
HETATM    6  O2  UNL     1     -19.617   0.785  12.406  1.00  0.00    -0.317 OA
HETATM    7  C5  UNL     1     -18.212   0.954  12.687  1.00  0.00     0.195 C 
HETATM    8  C6  UNL     1     -17.762   0.205  14.004  1.00  0.00     0.053 C 
HETATM    9  C7  UNL     1     -18.419   1.001  15.221  1.00  0.00     0.159 C 
HETATM   10  C8  UNL     1     -19.864   0.697  15.512  1.00  0.00     0.011 C 
HETATM   11  C9  UNL     1     -20.440  -0.469  15.169  1.00  0.00    -0.054 C 
HETATM   12  C10 UNL     1     -21.877  -0.759  15.496  1.00  0.00     0.046 C 
HETATM   13  C11 UNL     1     -19.674  -1.547  14.528  1.00  0.00     0.180 A 
HETATM   14  O3  UNL     1     -18.440  -1.982  15.105  1.00  0.00    -0.370 OA
HETATM   15  C12 UNL     1     -18.327  -1.210  13.904  1.00  0.00     0.170 A 
HETATM   16  O4  UNL     1     -17.738   0.906  16.482  1.00  0.00    -0.372 OA
HETATM   17  C13 UNL     1     -16.310   0.847  16.415  1.00  0.00     0.162 C 
HETATM   18  C14 UNL     1     -15.909  -0.640  16.417  1.00  0.00     0.068 C 
HETATM   19  C15 UNL     1     -15.505  -0.932  14.962  1.00  0.00     0.147 C 
HETATM   20  O5  UNL     1     -15.870  -2.214  14.461  1.00  0.00    -0.312 OA
HETATM   21  C16 UNL     1     -15.279  -3.292  15.018  1.00  0.00     0.283 C 
HETATM   22  O6  UNL     1     -14.381  -3.277  15.845  1.00  0.00    -0.260 OA
HETATM   23  C17 UNL     1     -15.939  -4.542  14.579  1.00  0.00     0.082 C 
HETATM   24  C18 UNL     1     -16.519  -4.832  13.402  1.00  0.00     0.006 C 
HETATM   25  C19 UNL     1     -16.520  -4.024  12.204  1.00  0.00    -0.001 C 
HETATM   26  C20 UNL     1     -17.313  -4.183  11.132  1.00  0.00     0.007 C 
HETATM   27  C21 UNL     1     -18.469  -5.139  10.936  1.00  0.00     0.172 C 
HETATM   28  O8  UNL     1     -19.515  -4.432  10.247  1.00  0.00    -0.379 OA
HETATM   29  C24 UNL     1     -20.282  -3.572  11.093  1.00  0.00     0.173 C 
HETATM   30  C25 UNL     1     -21.114  -2.636  10.211  1.00  0.00     0.060 C 
HETATM   31  C26 UNL     1     -16.146   0.235  14.126  1.00  0.00     0.034 C 
HETATM   32  C27 UNL     1     -15.393   0.315  12.791  1.00  0.00     0.022 C 
HETATM   33  C28 UNL     1     -15.850   1.358  15.089  1.00  0.00     0.119 A 
HETATM   34  C29 UNL     1     -15.618   2.814  14.764  1.00  0.00     0.210 A 
HETATM   35  O9  UNL     1     -14.532   1.914  15.053  1.00  0.00    -0.371 OA
ENDROOT
BRANCH  27  36
HETATM   36  C22 UNL     1     -18.041  -6.353  10.065  1.00  0.00     0.146 C 
HETATM   37  C23 UNL     1     -16.961  -5.984   9.050  1.00  0.00     0.042 C 
BRANCH  36  38
HETATM   38  O7  UNL     1     -19.153  -6.896   9.344  1.00  0.00    -0.393 OA
HETATM   39  H27 UNL     1     -19.422  -6.246   8.675  1.00  0.00     0.210 HD
ENDBRANCH  36  38
ENDBRANCH  27  36
TORSDOF 2
ENDMDL
MODEL 5
REMARK minimizedAffinity -5.97596169
REMARK CNNscore 0.169609129
REMARK CNNaffinity 4.79290819
REMARK  2 active torsions:
REMARK  status: ('A' for Active; 'I' for Inactive)
REMARK    1  A    between atoms: C21_27  and  C22_28 
REMARK    2  A    between atoms: C22_28  and  O7_30 
ROOT
HETATM    1  C1  UNL     1     -21.506  -4.298  10.560  1.00  0.00     0.043 C 
HETATM    2  C2  UNL     1     -20.094  -4.196  11.073  1.00  0.00    -0.076 C 
HETATM    3  C3  UNL     1     -19.455  -3.006  11.067  1.00  0.00     0.084 C 
HETATM    4  C4  UNL     1     -18.093  -2.779  11.603  1.00  0.00     0.283 C 
HETATM    5  O1  UNL     1     -17.257  -3.644  11.796  1.00  0.00    -0.260 OA
HETATM    6  O2  UNL     1     -17.987  -1.467  11.953  1.00  0.00    -0.317 OA
HETATM    7  C5  UNL     1     -16.869  -1.152  12.810  1.00  0.00     0.195 C 
HETATM    8  C6  UNL     1     -17.309  -0.884  14.305  1.00  0.00     0.053 C 
HETATM    9  C7  UNL     1     -18.096   0.503  14.301  1.00  0.00     0.159 C 
HETATM   10  C8  UNL     1     -19.535   0.450  13.862  1.00  0.00     0.011 C 
HETATM   11  C9  UNL     1     -20.277  -0.667  13.952  1.00  0.00    -0.054 C 
HETATM   12  C10 UNL     1     -21.720  -0.686  13.532  1.00  0.00     0.046 C 
HETATM   13  C11 UNL     1     -19.739  -1.903  14.538  1.00  0.00     0.180 A 
HETATM   14  O3  UNL     1     -19.101  -1.865  15.816  1.00  0.00    -0.370 OA
HETATM   15  C12 UNL     1     -18.231  -2.038  14.692  1.00  0.00     0.170 A 
HETATM   16  O4  UNL     1     -18.092   1.239  15.535  1.00  0.00    -0.372 OA
HETATM   17  C13 UNL     1     -16.888   1.156  16.304  1.00  0.00     0.162 C 
HETATM   18  C14 UNL     1     -17.069   0.015  17.322  1.00  0.00     0.068 C 
HETATM   19  C15 UNL     1     -16.217  -1.138  16.764  1.00  0.00     0.147 C 
HETATM   20  O5  UNL     1     -16.757  -2.446  16.931  1.00  0.00    -0.312 OA
HETATM   21  C16 UNL     1     -16.871  -2.917  18.192  1.00  0.00     0.283 C 
HETATM   22  O6  UNL     1     -16.463  -2.373  19.206  1.00  0.00    -0.260 OA
HETATM   23  C17 UNL     1     -17.673  -4.160  18.219  1.00  0.00     0.082 C 
HETATM   24  C18 UNL     1     -17.762  -5.138  17.302  1.00  0.00     0.006 C 
HETATM   25  C19 UNL     1     -16.976  -5.282  16.097  1.00  0.00    -0.001 C 
HETATM   26  C20 UNL     1     -17.244  -6.093  15.060  1.00  0.00     0.007 C 
HETATM   27  C21 UNL     1     -18.461  -6.958  14.816  1.00  0.00     0.172 C 
HETATM   28  O8  UNL     1     -18.800  -6.858  13.422  1.00  0.00    -0.379 OA
HETATM   29  C24 UNL     1     -19.501  -5.658  13.085  1.00  0.00     0.173 C 
HETATM   30  C25 UNL     1     -19.501  -5.506  11.561  1.00  0.00     0.060 C 
HETATM   31  C26 UNL     1     -15.996  -0.778  15.250  1.00  0.00     0.034 C 
HETATM   32  C27 UNL     1     -14.775  -1.567  14.761  1.00  0.00     0.022 C 
HETATM   33  C28 UNL     1     -15.765   0.703  15.428  1.00  0.00     0.119 A 
HETATM   34  C29 UNL     1     -14.929   1.615  14.564  1.00  0.00     0.210 A 
HETATM   35  O9  UNL     1     -14.454   1.112  15.827  1.00  0.00    -0.371 OA
ENDROOT
BRANCH  27  36
HETATM   36  C22 UNL     1     -18.155  -8.446  15.142  1.00  0.00     0.146 C 
HETATM   37  C23 UNL     1     -18.658  -8.850  16.527  1.00  0.00     0.042 C 
BRANCH  36  38
HETATM   38  O7  UNL     1     -16.748  -8.713  15.093  1.00  0.00    -0.393 OA
HETATM   39  H27 UNL     1     -16.329  -8.247  15.834  1.00  0.00     0.210 HD
ENDBRANCH  36  38
ENDBRANCH  27  36
TORSDOF 2
ENDMDL
MODEL 6
REMARK minimizedAffinity -5.85762024
REMARK CNNscore 0.149708346
REMARK CNNaffinity 5.12645721
REMARK  2 active torsions:
REMARK  status: ('A' for Active; 'I' for Inactive)
REMARK    1  A    between atoms: C21_27  and  C22_28 
REMARK    2  A    between atoms: C22_28  and  O7_30 
ROOT
HETATM    1  C1  UNL     1     -11.562  16.367  -5.536  1.00  0.00     0.043 C 
HETATM    2  C2  UNL     1     -11.299  15.610  -4.262  1.00  0.00    -0.076 C 
HETATM    3  C3  UNL     1     -10.982  16.276  -3.130  1.00  0.00     0.084 C 
HETATM    4  C4  UNL     1     -10.765  15.639  -1.811  1.00  0.00     0.283 C 
HETATM    5  O1  UNL     1     -10.507  14.463  -1.629  1.00  0.00    -0.260 OA
HETATM    6  O2  UNL     1     -11.024  16.563  -0.845  1.00  0.00    -0.317 OA
HETATM    7  C5  UNL     1     -11.208  16.025   0.482  1.00  0.00     0.195 C 
HETATM    8  C6  UNL     1     -12.724  16.026   0.931  1.00  0.00     0.053 C 
HETATM    9  C7  UNL     1     -13.124  17.553   1.159  1.00  0.00     0.159 C 
HETATM   10  C8  UNL     1     -13.466  18.343  -0.077  1.00  0.00     0.011 C 
HETATM   11  C9  UNL     1     -13.907  17.762  -1.206  1.00  0.00    -0.054 C 
HETATM   12  C10 UNL     1     -14.267  18.575  -2.417  1.00  0.00     0.046 C 
HETATM   13  C11 UNL     1     -14.136  16.312  -1.288  1.00  0.00     0.180 A 
HETATM   14  O3  UNL     1     -14.922  15.659  -0.289  1.00  0.00    -0.370 OA
HETATM   15  C12 UNL     1     -13.512  15.417  -0.226  1.00  0.00     0.170 A 
HETATM   16  O4  UNL     1     -14.196  17.797   2.085  1.00  0.00    -0.372 OA
HETATM   17  C13 UNL     1     -14.257  16.915   3.210  1.00  0.00     0.162 C 
HETATM   18  C14 UNL     1     -15.221  15.771   2.846  1.00  0.00     0.068 C 
HETATM   19  C15 UNL     1     -14.303  14.567   2.569  1.00  0.00     0.147 C 
HETATM   20  O5  UNL     1     -14.709  13.708   1.507  1.00  0.00    -0.312 OA
HETATM   21  C16 UNL     1     -15.853  13.011   1.672  1.00  0.00     0.283 C 
HETATM   22  O6  UNL     1     -16.530  12.963   2.686  1.00  0.00    -0.260 OA
HETATM   23  C17 UNL     1     -16.269  12.374   0.403  1.00  0.00     0.082 C 
HETATM   24  C18 UNL     1     -15.513  11.882  -0.593  1.00  0.00     0.006 C 
HETATM   25  C19 UNL     1     -14.076  11.728  -0.606  1.00  0.00    -0.001 C 
HETATM   26  C20 UNL     1     -13.307  11.494  -1.682  1.00  0.00     0.007 C 
HETATM   27  C21 UNL     1     -13.698  11.451  -3.143  1.00  0.00     0.172 C 
HETATM   28  O8  UNL     1     -12.664  12.105  -3.897  1.00  0.00    -0.379 OA
HETATM   29  C24 UNL     1     -12.732  13.532  -3.851  1.00  0.00     0.173 C 
HETATM   30  C25 UNL     1     -11.414  14.101  -4.386  1.00  0.00     0.060 C 
HETATM   31  C26 UNL     1     -12.885  15.195   2.314  1.00  0.00     0.034 C 
HETATM   32  C27 UNL     1     -11.843  14.090   2.535  1.00  0.00     0.022 C 
HETATM   33  C28 UNL     1     -12.934  16.247   3.395  1.00  0.00     0.119 A 
HETATM   34  C29 UNL     1     -11.773  16.838   4.159  1.00  0.00     0.210 A 
HETATM   35  O9  UNL     1     -12.624  15.824   4.726  1.00  0.00    -0.371 OA
ENDROOT
BRANCH  27  36
HETATM   36  C22 UNL     1     -13.817   9.984  -3.640  1.00  0.00     0.146 C 
HETATM   37  C23 UNL     1     -15.073   9.294  -3.111  1.00  0.00     0.042 C 
BRANCH  36  38
HETATM   38  O7  UNL     1     -12.686   9.203  -3.236  1.00  0.00    -0.393 OA
HETATM   39  H27 UNL     1     -12.722   9.099  -2.272  1.00  0.00     0.210 HD
ENDBRANCH  36  38
ENDBRANCH  27  36
TORSDOF 2
ENDMDL
MODEL 7
REMARK minimizedAffinity -5.80078602
REMARK CNNscore 0.14782396
REMARK CNNaffinity 4.7383647
REMARK  2 active torsions:
REMARK  status: ('A' for Active; 'I' for Inactive)
REMARK    1  A    between atoms: C21_27  and  C22_28 
REMARK    2  A    between atoms: C22_28  and  O7_30 
ROOT
HETATM    1  C1  UNL     1       3.042  17.184  19.408  1.00  0.00     0.043 C 
HETATM    2  C2  UNL     1       1.878  16.353  19.880  1.00  0.00    -0.076 C 
HETATM    3  C3  UNL     1       0.615  16.802  19.716  1.00  0.00     0.084 C 
HETATM    4  C4  UNL     1      -0.603  16.044  20.083  1.00  0.00     0.283 C 
HETATM    5  O1  UNL     1      -0.644  15.110  20.864  1.00  0.00    -0.260 OA
HETATM    6  O2  UNL     1      -1.632  16.490  19.311  1.00  0.00    -0.317 OA
HETATM    7  C5  UNL     1      -2.791  15.631  19.282  1.00  0.00     0.195 C 
HETATM    8  C6  UNL     1      -2.921  14.833  17.923  1.00  0.00     0.053 C 
HETATM    9  C7  UNL     1      -3.304  15.906  16.806  1.00  0.00     0.159 C 
HETATM   10  C8  UNL     1      -2.166  16.719  16.248  1.00  0.00     0.011 C 
HETATM   11  C9  UNL     1      -0.893  16.286  16.262  1.00  0.00    -0.054 C 
HETATM   12  C10 UNL     1       0.220  17.105  15.673  1.00  0.00     0.046 C 
HETATM   13  C11 UNL     1      -0.538  14.957  16.781  1.00  0.00     0.180 A 
HETATM   14  O3  UNL     1      -1.242  13.802  16.319  1.00  0.00    -0.370 OA
HETATM   15  C12 UNL     1      -1.548  14.224  17.653  1.00  0.00     0.170 A 
HETATM   16  O4  UNL     1      -4.022  15.407  15.666  1.00  0.00    -0.372 OA
HETATM   17  C13 UNL     1      -4.957  14.357  15.932  1.00  0.00     0.162 C 
HETATM   18  C14 UNL     1      -4.230  13.021  15.693  1.00  0.00     0.068 C 
HETATM   19  C15 UNL     1      -3.955  12.474  17.105  1.00  0.00     0.147 C 
HETATM   20  O5  UNL     1      -2.710  11.803  17.279  1.00  0.00    -0.312 OA
HETATM   21  C16 UNL     1      -2.529  10.643  16.612  1.00  0.00     0.283 C 
HETATM   22  O6  UNL     1      -3.366  10.053  15.948  1.00  0.00    -0.260 OA
HETATM   23  C17 UNL     1      -1.117  10.206  16.690  1.00  0.00     0.082 C 
HETATM   24  C18 UNL     1      -0.229  10.364  17.685  1.00  0.00     0.006 C 
HETATM   25  C19 UNL     1      -0.480  10.892  19.007  1.00  0.00    -0.001 C 
HETATM   26  C20 UNL     1       0.443  11.297  19.895  1.00  0.00     0.007 C 
HETATM   27  C21 UNL     1       1.940  11.426  19.722  1.00  0.00     0.172 C 
HETATM   28  O8  UNL     1       2.357  12.637  20.374  1.00  0.00    -0.379 OA
HETATM   29  C24 UNL     1       2.099  13.820  19.613  1.00  0.00     0.173 C 
HETATM   30  C25 UNL     1       2.261  15.036  20.530  1.00  0.00     0.060 C 
HETATM   31  C26 UNL     1      -4.093  13.721  18.052  1.00  0.00     0.034 C 
HETATM   32  C27 UNL     1      -4.341  13.196  19.473  1.00  0.00     0.022 C 
HETATM   33  C28 UNL     1      -5.296  14.345  17.387  1.00  0.00     0.119 A 
HETATM   34  C29 UNL     1      -6.361  15.201  18.028  1.00  0.00     0.210 A 
HETATM   35  O9  UNL     1      -6.578  13.809  17.729  1.00  0.00    -0.371 OA
ENDROOT
BRANCH  27  36
HETATM   36  C22 UNL     1       2.678  10.231  20.386  1.00  0.00     0.146 C 
HETATM   37  C23 UNL     1       2.382  10.127  21.881  1.00  0.00     0.042 C 
BRANCH  36  38
HETATM   38  O7  UNL     1       4.097  10.341  20.227  1.00  0.00    -0.393 OA
HETATM   39  H27 UNL     1       4.401  11.093  20.760  1.00  0.00     0.210 HD
ENDBRANCH  36  38
ENDBRANCH  27  36
TORSDOF 2
ENDMDL
MODEL 8
REMARK minimizedAffinity -6.21336365
REMARK CNNscore 0.143492639
REMARK CNNaffinity 5.41098785
REMARK  2 active torsions:
REMARK  status: ('A' for Active; 'I' for Inactive)
REMARK    1  A    between atoms: C21_27  and  C22_28 
REMARK    2  A    between atoms: C22_28  and  O7_30 
ROOT
HETATM    1  C1  UNL     1       7.181  16.764  -0.296  1.00  0.00     0.043 C 
HETATM    2  C2  UNL     1       6.115  15.759   0.051  1.00  0.00    -0.076 C 
HETATM    3  C3  UNL     1       5.621  15.702   1.307  1.00  0.00     0.084 C 
HETATM    4  C4  UNL     1       4.531  14.799   1.743  1.00  0.00     0.283 C 
HETATM    5  O1  UNL     1       4.179  13.786   1.164  1.00  0.00    -0.260 OA
HETATM    6  O2  UNL     1       3.920  15.359   2.824  1.00  0.00    -0.317 OA
HETATM    7  C5  UNL     1       2.630  14.802   3.153  1.00  0.00     0.195 C 
HETATM    8  C6  UNL     1       1.436  15.756   2.750  1.00  0.00     0.053 C 
HETATM    9  C7  UNL     1       1.499  17.001   3.745  1.00  0.00     0.159 C 
HETATM   10  C8  UNL     1       2.501  18.072   3.407  1.00  0.00     0.011 C 
HETATM   11  C9  UNL     1       2.950  18.273   2.156  1.00  0.00    -0.054 C 
HETATM   12  C10 UNL     1       3.929  19.368   1.841  1.00  0.00     0.046 C 
HETATM   13  C11 UNL     1       2.446  17.486   1.022  1.00  0.00     0.180 A 
HETATM   14  O3  UNL     1       1.037  17.355   0.816  1.00  0.00    -0.370 OA
HETATM   15  C12 UNL     1       1.704  16.188   1.310  1.00  0.00     0.170 A 
HETATM   16  O4  UNL     1       0.259  17.687   3.981  1.00  0.00    -0.372 OA
HETATM   17  C13 UNL     1      -0.910  16.864   4.014  1.00  0.00     0.162 C 
HETATM   18  C14 UNL     1      -1.516  16.866   2.597  1.00  0.00     0.068 C 
HETATM   19  C15 UNL     1      -1.152  15.486   2.021  1.00  0.00     0.147 C 
HETATM   20  O5  UNL     1      -0.819  15.459   0.636  1.00  0.00    -0.312 OA
HETATM   21  C16 UNL     1      -1.798  15.756  -0.245  1.00  0.00     0.283 C 
HETATM   22  O6  UNL     1      -2.974  15.949   0.018  1.00  0.00    -0.260 OA
HETATM   23  C17 UNL     1      -1.244  15.937  -1.606  1.00  0.00     0.082 C 
HETATM   24  C18 UNL     1      -0.202  15.322  -2.191  1.00  0.00     0.006 C 
HETATM   25  C19 UNL     1       0.566  14.214  -1.670  1.00  0.00    -0.001 C 
HETATM   26  C20 UNL     1       1.756  13.783  -2.120  1.00  0.00     0.007 C 
HETATM   27  C21 UNL     1       2.651  14.390  -3.178  1.00  0.00     0.172 C 
HETATM   28  O8  UNL     1       4.009  14.286  -2.720  1.00  0.00    -0.379 OA
HETATM   29  C24 UNL     1       4.368  15.276  -1.752  1.00  0.00     0.173 C 
HETATM   30  C25 UNL     1       5.690  14.863  -1.098  1.00  0.00     0.060 C 
HETATM   31  C26 UNL     1       0.028  14.973   2.924  1.00  0.00     0.034 C 
HETATM   32  C27 UNL     1       0.105  13.449   2.761  1.00  0.00     0.022 C 
HETATM   33  C28 UNL     1      -0.516  15.442   4.251  1.00  0.00     0.119 A 
HETATM   34  C29 UNL     1      -0.278  14.834   5.612  1.00  0.00     0.210 A 
HETATM   35  O9  UNL     1      -1.498  14.614   4.880  1.00  0.00    -0.371 OA
ENDROOT
BRANCH  27  36
HETATM   36  C22 UNL     1       2.524  13.616  -4.519  1.00  0.00     0.146 C 
HETATM   37  C23 UNL     1       1.362  14.123  -5.372  1.00  0.00     0.042 C 
BRANCH  36  38
HETATM   38  O7  UNL     1       2.324  12.215  -4.296  1.00  0.00    -0.393 OA
HETATM   39  H27 UNL     1       1.445  12.097  -3.904  1.00  0.00     0.210 HD
ENDBRANCH  36  38
ENDBRANCH  27  36
TORSDOF 2
ENDMDL
MODEL 9
REMARK minimizedAffinity -6.64271212
REMARK CNNscore 0.141061008
REMARK CNNaffinity 5.23329306
REMARK  2 active torsions:
REMARK  status: ('A' for Active; 'I' for Inactive)
REMARK    1  A    between atoms: C21_27  and  C22_28 
REMARK    2  A    between atoms: C22_28  and  O7_30 
ROOT
HETATM    1  C1  UNL     1      -4.994  19.931   6.842  1.00  0.00     0.043 C 
HETATM    2  C2  UNL     1      -4.074  19.704   5.671  1.00  0.00    -0.076 C 
HETATM    3  C3  UNL     1      -2.749  19.933   5.796  1.00  0.00     0.084 C 
HETATM    4  C4  UNL     1      -1.748  19.684   4.734  1.00  0.00     0.283 C 
HETATM    5  O1  UNL     1      -1.991  19.579   3.545  1.00  0.00    -0.260 OA
HETATM    6  O2  UNL     1      -0.540  19.476   5.327  1.00  0.00    -0.317 OA
HETATM    7  C5  UNL     1       0.461  18.874   4.480  1.00  0.00     0.195 C 
HETATM    8  C6  UNL     1       0.713  17.352   4.825  1.00  0.00     0.053 C 
HETATM    9  C7  UNL     1       1.451  17.327   6.239  1.00  0.00     0.159 C 
HETATM   10  C8  UNL     1       0.570  17.481   7.451  1.00  0.00     0.011 C 
HETATM   11  C9  UNL     1      -0.735  17.157   7.441  1.00  0.00    -0.054 C 
HETATM   12  C10 UNL     1      -1.586  17.295   8.672  1.00  0.00     0.046 C 
HETATM   13  C11 UNL     1      -1.376  16.579   6.252  1.00  0.00     0.180 A 
HETATM   14  O3  UNL     1      -0.784  15.452   5.602  1.00  0.00    -0.370 OA
HETATM   15  C12 UNL     1      -0.665  16.701   4.911  1.00  0.00     0.170 A 
HETATM   16  O4  UNL     1       2.280  16.184   6.503  1.00  0.00    -0.372 OA
HETATM   17  C13 UNL     1       2.980  15.651   5.375  1.00  0.00     0.162 C 
HETATM   18  C14 UNL     1       2.115  14.522   4.786  1.00  0.00     0.068 C 
HETATM   19  C15 UNL     1       1.508  15.129   3.508  1.00  0.00     0.147 C 
HETATM   20  O5  UNL     1       0.165  14.752   3.218  1.00  0.00    -0.312 OA
HETATM   21  C16 UNL     1      -0.066  13.457   2.914  1.00  0.00     0.283 C 
HETATM   22  O6  UNL     1       0.779  12.588   2.762  1.00  0.00    -0.260 OA
HETATM   23  C17 UNL     1      -1.518  13.172   2.892  1.00  0.00     0.082 C 
HETATM   24  C18 UNL     1      -2.538  13.969   2.531  1.00  0.00     0.006 C 
HETATM   25  C19 UNL     1      -2.454  15.282   1.934  1.00  0.00    -0.001 C 
HETATM   26  C20 UNL     1      -3.450  16.177   1.826  1.00  0.00     0.007 C 
HETATM   27  C21 UNL     1      -4.854  16.113   2.386  1.00  0.00     0.172 C 
HETATM   28  O8  UNL     1      -5.194  17.420   2.876  1.00  0.00    -0.379 OA
HETATM   29  C24 UNL     1      -4.625  17.722   4.153  1.00  0.00     0.173 C 
HETATM   30  C25 UNL     1      -4.765  19.226   4.406  1.00  0.00     0.060 C 
HETATM   31  C26 UNL     1       1.660  16.683   3.691  1.00  0.00     0.034 C 
HETATM   32  C27 UNL     1       1.563  17.324   2.300  1.00  0.00     0.022 C 
HETATM   33  C28 UNL     1       3.044  16.680   4.293  1.00  0.00     0.119 A 
HETATM   34  C29 UNL     1       4.092  17.762   4.197  1.00  0.00     0.210 A 
HETATM   35  O9  UNL     1       4.145  16.572   3.387  1.00  0.00    -0.371 OA
ENDROOT
BRANCH  27  36
HETATM   36  C22 UNL     1      -5.872  15.722   1.279  1.00  0.00     0.146 C 
HETATM   37  C23 UNL     1      -7.299  15.619   1.816  1.00  0.00     0.042 C 
BRANCH  36  38
HETATM   38  O7  UNL     1      -5.537  14.463   0.682  1.00  0.00    -0.393 OA
HETATM   39  H27 UNL     1      -5.677  13.770   1.347  1.00  0.00     0.210 HD
ENDBRANCH  36  38
ENDBRANCH  27  36
TORSDOF 2
ENDMDL
