MODEL 1
REMARK minimizedAffinity -9.36903763
REMARK CNNscore 0.777411819
REMARK CNNaffinity 6.81872225
REMARK  12 active torsions:
REMARK  status: ('A' for Active; 'I' for Inactive)
REMARK    1  A    between atoms: N1_6  and  O1_8 
REMARK    2  A    between atoms: O1_8  and  C6_9 
REMARK    3  A    between atoms: C6_9  and  C7_10 
REMARK       I    between atoms: C7_10  and  N2_12 
REMARK    4  A    between atoms: N2_12  and  C8_13 
REMARK    5  A    between atoms: C8_13  and  C9_14 
REMARK    6  A    between atoms: C12_17  and  C13_18 
REMARK    7  A    between atoms: C13_18  and  O4_20 
REMARK    8  A    between atoms: C22_29  and  O5_30 
REMARK    9  A    between atoms: C29_37  and  O6_38 
REMARK   10  A    between atoms: C29_37  and  C30_39 
REMARK   11  A    between atoms: C30_39  and  C31_41 
REMARK   12  A    between atoms: C31_41  and  O8_42 
ROOT
HETATM    1  C1  UNL     1      -2.239   6.355  14.584  1.00  0.00     0.020 C 
HETATM    2  C2  UNL     1      -1.575   7.749  14.564  1.00  0.00    -0.014 C 
HETATM    3  C3  UNL     1      -1.137   8.119  16.012  1.00  0.00     0.020 C 
HETATM    4  C4  UNL     1      -2.288   8.519  16.925  1.00  0.00     0.060 C 
HETATM    5  C5  UNL     1      -3.059   9.666  16.308  1.00  0.00     0.032 C 
HETATM    6  N1  UNL     1      -3.594  10.650  16.971  1.00  0.00    -0.271 N 
ATOM      7  H1  UNL     1      -4.144  11.394  16.541  1.00  0.00     0.194 HD
HETATM    8  C16 UNL     1      -3.262   9.635  14.838  1.00  0.00     0.030 C 
HETATM    9  C17 UNL     1      -2.627   8.747  14.055  1.00  0.00    -0.069 C 
HETATM   10  C18 UNL     1      -2.942   8.687  12.580  1.00  0.00     0.035 C 
HETATM   11  C19 UNL     1      -1.681   8.822  11.739  1.00  0.00     0.010 C 
HETATM   12  C20 UNL     1      -0.631   7.763  12.112  1.00  0.00    -0.002 C 
HETATM   13  C21 UNL     1      -0.296   7.833  13.636  1.00  0.00     0.031 C 
HETATM   14  C22 UNL     1       0.872   6.876  14.021  1.00  0.00     0.124 C 
HETATM   15  C23 UNL     1       2.101   7.015  13.096  1.00  0.00     0.045 C 
HETATM   16  C24 UNL     1       1.760   6.922  11.589  1.00  0.00     0.001 C 
HETATM   17  C25 UNL     1       1.312   5.486  11.208  1.00  0.00     0.019 C 
HETATM   18  C26 UNL     1       0.668   7.987  11.318  1.00  0.00     0.002 C 
HETATM   19  C27 UNL     1       0.591   8.046   9.799  1.00  0.00     0.009 C 
HETATM   20  C28 UNL     1       2.046   7.846   9.340  1.00  0.00     0.047 C 
HETATM   21  C29 UNL     1       2.864   7.403  10.590  1.00  0.00     0.128 C 
ENDROOT
BRANCH   6  22
HETATM   22  O1  UNL     1      -3.326  10.570  18.345  1.00  0.00    -0.271 OA
BRANCH  22  23
HETATM   23  C6  UNL     1      -3.097  11.881  18.861  1.00  0.00     0.303 C 
BRANCH  23  24
HETATM   24  C7  UNL     1      -4.353  12.740  18.757  1.00  0.00     0.244 C 
HETATM   25  O2  UNL     1      -4.866  13.021  17.677  1.00  0.00    -0.271 OA
HETATM   26  N2  UNL     1      -4.868  13.133  19.975  1.00  0.00    -0.355 N 
HETATM   27  H10 UNL     1      -4.279  12.957  20.783  1.00  0.00     0.162 HD
BRANCH  26  28
HETATM   28  C8  UNL     1      -5.938  14.095  20.081  1.00  0.00     0.161 C 
BRANCH  28  29
HETATM   29  C9  UNL     1      -7.002  13.607  21.033  1.00  0.00    -0.040 A 
HETATM   30  C10 UNL     1      -6.700  13.428  22.393  1.00  0.00     0.010 A 
HETATM   31  C11 UNL     1      -7.666  12.943  23.280  1.00  0.00     0.019 A 
HETATM   32  C12 UNL     1      -8.948  12.627  22.814  1.00  0.00     0.037 A 
HETATM   33  C14 UNL     1      -9.255  12.800  21.458  1.00  0.00     0.019 A 
HETATM   34  C15 UNL     1      -8.287  13.282  20.572  1.00  0.00     0.010 A 
BRANCH  32  35
HETATM   35  C13 UNL     1     -10.006  12.104  23.713  1.00  0.00     0.176 C 
HETATM   36  O3  UNL     1     -11.143  11.818  23.385  1.00  0.00    -0.646 OA
BRANCH  35  37
HETATM   37  O4  UNL     1      -9.589  11.963  24.982  1.00  0.00    -0.773 OA
HETATM   38  H15 UNL     1     -10.378  11.619  25.450  1.00  0.00     0.167 HD
ENDBRANCH  35  37
ENDBRANCH  32  35
ENDBRANCH  28  29
ENDBRANCH  26  28
ENDBRANCH  23  24
ENDBRANCH  22  23
ENDBRANCH   6  22
BRANCH  14  39
HETATM   39  O5  UNL     1       0.450   5.520  14.028  1.00  0.00    -0.395 OA
HETATM   40  H26 UNL     1       1.159   4.989  14.425  1.00  0.00     0.210 HD
ENDBRANCH  14  39
BRANCH  21  41
HETATM   41  O6  UNL     1       3.513   8.585  11.085  1.00  0.00    -0.381 OA
HETATM   42  H37 UNL     1       4.104   8.308  11.817  1.00  0.00     0.211 HD
ENDBRANCH  21  41
BRANCH  21  43
HETATM   43  C30 UNL     1       3.942   6.347  10.218  1.00  0.00     0.184 C 
HETATM   44  O7  UNL     1       3.835   5.577   9.262  1.00  0.00    -0.292 OA
BRANCH  43  45
HETATM   45  C31 UNL     1       5.176   6.269  11.110  1.00  0.00     0.245 C 
BRANCH  45  46
HETATM   46  O8  UNL     1       6.070   5.237  10.726  1.00  0.00    -0.393 OA
HETATM   47  H40 UNL     1       5.680   4.402  11.053  1.00  0.00     0.209 HD
ENDBRANCH  45  46
ENDBRANCH  43  45
ENDBRANCH  21  43
TORSDOF 12
ENDMDL
MODEL 2
REMARK minimizedAffinity -8.37927914
REMARK CNNscore 0.705766022
REMARK CNNaffinity 6.69161558
REMARK  12 active torsions:
REMARK  status: ('A' for Active; 'I' for Inactive)
REMARK    1  A    between atoms: N1_6  and  O1_8 
REMARK    2  A    between atoms: O1_8  and  C6_9 
REMARK    3  A    between atoms: C6_9  and  C7_10 
REMARK       I    between atoms: C7_10  and  N2_12 
REMARK    4  A    between atoms: N2_12  and  C8_13 
REMARK    5  A    between atoms: C8_13  and  C9_14 
REMARK    6  A    between atoms: C12_17  and  C13_18 
REMARK    7  A    between atoms: C13_18  and  O4_20 
REMARK    8  A    between atoms: C22_29  and  O5_30 
REMARK    9  A    between atoms: C29_37  and  O6_38 
REMARK   10  A    between atoms: C29_37  and  C30_39 
REMARK   11  A    between atoms: C30_39  and  C31_41 
REMARK   12  A    between atoms: C31_41  and  O8_42 
ROOT
HETATM    1  C1  UNL     1      -0.972   7.524  15.357  1.00  0.00     0.020 C 
HETATM    2  C2  UNL     1      -0.355   8.813  14.772  1.00  0.00    -0.014 C 
HETATM    3  C3  UNL     1       0.461   9.531  15.887  1.00  0.00     0.020 C 
HETATM    4  C4  UNL     1      -0.398  10.240  16.925  1.00  0.00     0.060 C 
HETATM    5  C5  UNL     1      -1.322  11.226  16.243  1.00  0.00     0.032 C 
HETATM    6  N1  UNL     1      -1.664  12.386  16.723  1.00  0.00    -0.271 N 
ATOM      7  H1  UNL     1      -2.319  13.020  16.267  1.00  0.00     0.194 HD
HETATM    8  C16 UNL     1      -1.922  10.811  14.950  1.00  0.00     0.030 C 
HETATM    9  C17 UNL     1      -1.517   9.703  14.306  1.00  0.00    -0.069 C 
HETATM   10  C18 UNL     1      -2.226   9.267  13.047  1.00  0.00     0.035 C 
HETATM   11  C19 UNL     1      -1.247   9.084  11.896  1.00  0.00     0.010 C 
HETATM   12  C20 UNL     1      -0.123   8.099  12.254  1.00  0.00    -0.002 C 
HETATM   13  C21 UNL     1       0.618   8.557  13.550  1.00  0.00     0.031 C 
HETATM   14  C22 UNL     1       1.857   7.664  13.859  1.00  0.00     0.124 C 
HETATM   15  C23 UNL     1       2.782   7.465  12.639  1.00  0.00     0.045 C 
HETATM   16  C24 UNL     1       2.039   6.990  11.366  1.00  0.00     0.001 C 
HETATM   17  C25 UNL     1       1.520   5.538  11.535  1.00  0.00     0.019 C 
HETATM   18  C26 UNL     1       0.904   8.013  11.112  1.00  0.00     0.002 C 
HETATM   19  C27 UNL     1       0.410   7.663   9.715  1.00  0.00     0.009 C 
HETATM   20  C28 UNL     1       1.685   7.248   8.957  1.00  0.00     0.047 C 
HETATM   21  C29 UNL     1       2.821   7.107  10.015  1.00  0.00     0.128 C 
ENDROOT
BRANCH   6  22
HETATM   22  O1  UNL     1      -1.026  12.664  17.941  1.00  0.00    -0.271 OA
BRANCH  22  23
HETATM   23  C6  UNL     1      -0.243  13.849  17.806  1.00  0.00     0.303 C 
BRANCH  23  24
HETATM   24  C7  UNL     1       1.243  13.549  17.975  1.00  0.00     0.244 C 
HETATM   25  O2  UNL     1       1.907  13.013  17.090  1.00  0.00    -0.271 OA
HETATM   26  N2  UNL     1       1.769  13.963  19.181  1.00  0.00    -0.355 N 
HETATM   27  H10 UNL     1       1.094  14.263  19.879  1.00  0.00     0.162 HD
BRANCH  26  28
HETATM   28  C8  UNL     1       3.102  13.608  19.600  1.00  0.00     0.161 C 
BRANCH  28  29
HETATM   29  C9  UNL     1       3.063  12.525  20.649  1.00  0.00    -0.040 A 
HETATM   30  C10 UNL     1       2.834  11.191  20.273  1.00  0.00     0.010 A 
HETATM   31  C11 UNL     1       2.759  10.182  21.239  1.00  0.00     0.019 A 
HETATM   32  C12 UNL     1       2.909  10.497  22.593  1.00  0.00     0.037 A 
HETATM   33  C14 UNL     1       3.135  11.826  22.976  1.00  0.00     0.019 A 
HETATM   34  C15 UNL     1       3.206  12.834  22.010  1.00  0.00     0.010 A 
BRANCH  32  35
HETATM   35  C13 UNL     1       2.834   9.464  23.656  1.00  0.00     0.176 C 
HETATM   36  O3  UNL     1       2.693   9.674  24.847  1.00  0.00    -0.646 OA
BRANCH  35  37
HETATM   37  O4  UNL     1       2.936   8.213  23.175  1.00  0.00    -0.773 OA
HETATM   38  H15 UNL     1       2.873   7.650  23.975  1.00  0.00     0.167 HD
ENDBRANCH  35  37
ENDBRANCH  32  35
ENDBRANCH  28  29
ENDBRANCH  26  28
ENDBRANCH  23  24
ENDBRANCH  22  23
ENDBRANCH   6  22
BRANCH  14  39
HETATM   39  O5  UNL     1       1.468   6.392  14.357  1.00  0.00    -0.395 OA
HETATM   40  H26 UNL     1       2.266   5.943  14.682  1.00  0.00     0.210 HD
ENDBRANCH  14  39
BRANCH  21  41
HETATM   41  O6  UNL     1       3.567   8.334   9.968  1.00  0.00    -0.381 OA
HETATM   42  H37 UNL     1       4.340   8.226  10.562  1.00  0.00     0.211 HD
ENDBRANCH  21  41
BRANCH  21  43
HETATM   43  C30 UNL     1       3.765   5.921   9.677  1.00  0.00     0.184 C 
HETATM   44  O7  UNL     1       3.599   5.175   8.710  1.00  0.00    -0.292 OA
BRANCH  43  45
HETATM   45  C31 UNL     1       4.939   5.677  10.619  1.00  0.00     0.245 C 
BRANCH  45  46
HETATM   46  O8  UNL     1       5.886   4.761  10.096  1.00  0.00    -0.393 OA
HETATM   47  H40 UNL     1       5.500   3.871  10.215  1.00  0.00     0.209 HD
ENDBRANCH  45  46
ENDBRANCH  43  45
ENDBRANCH  21  43
TORSDOF 12
ENDMDL
MODEL 3
REMARK minimizedAffinity -10.9592428
REMARK CNNscore 0.657158017
REMARK CNNaffinity 7.37303209
REMARK  12 active torsions:
REMARK  status: ('A' for Active; 'I' for Inactive)
REMARK    1  A    between atoms: N1_6  and  O1_8 
REMARK    2  A    between atoms: O1_8  and  C6_9 
REMARK    3  A    between atoms: C6_9  and  C7_10 
REMARK       I    between atoms: C7_10  and  N2_12 
REMARK    4  A    between atoms: N2_12  and  C8_13 
REMARK    5  A    between atoms: C8_13  and  C9_14 
REMARK    6  A    between atoms: C12_17  and  C13_18 
REMARK    7  A    between atoms: C13_18  and  O4_20 
REMARK    8  A    between atoms: C22_29  and  O5_30 
REMARK    9  A    between atoms: C29_37  and  O6_38 
REMARK   10  A    between atoms: C29_37  and  C30_39 
REMARK   11  A    between atoms: C30_39  and  C31_41 
REMARK   12  A    between atoms: C31_41  and  O8_42 
ROOT
HETATM    1  C1  UNL     1      -2.506   9.305  14.869  1.00  0.00     0.020 C 
HETATM    2  C2  UNL     1      -2.960   8.143  13.958  1.00  0.00    -0.014 C 
HETATM    3  C3  UNL     1      -4.281   8.553  13.241  1.00  0.00     0.020 C 
HETATM    4  C4  UNL     1      -5.509   8.521  14.139  1.00  0.00     0.060 C 
HETATM    5  C5  UNL     1      -5.660   7.148  14.757  1.00  0.00     0.032 C 
HETATM    6  N1  UNL     1      -6.793   6.549  14.983  1.00  0.00    -0.271 N 
ATOM      7  H1  UNL     1      -6.876   5.639  15.437  1.00  0.00     0.194 HD
HETATM    8  C16 UNL     1      -4.418   6.455  15.184  1.00  0.00     0.030 C 
HETATM    9  C17 UNL     1      -3.201   6.924  14.860  1.00  0.00    -0.069 C 
HETATM   10  C18 UNL     1      -1.967   6.244  15.402  1.00  0.00     0.035 C 
HETATM   11  C19 UNL     1      -1.014   5.853  14.282  1.00  0.00     0.010 C 
HETATM   12  C20 UNL     1      -0.628   7.062  13.413  1.00  0.00    -0.002 C 
HETATM   13  C21 UNL     1      -1.904   7.758  12.843  1.00  0.00     0.031 C 
HETATM   14  C22 UNL     1      -1.548   8.895  11.839  1.00  0.00     0.124 C 
HETATM   15  C23 UNL     1      -0.532   8.458  10.762  1.00  0.00     0.045 C 
HETATM   16  C24 UNL     1       0.738   7.789  11.341  1.00  0.00     0.001 C 
HETATM   17  C25 UNL     1       1.607   8.818  12.112  1.00  0.00     0.019 C 
HETATM   18  C26 UNL     1       0.252   6.619  12.232  1.00  0.00     0.002 C 
HETATM   19  C27 UNL     1       1.525   5.838  12.527  1.00  0.00     0.009 C 
HETATM   20  C28 UNL     1       2.341   5.941  11.226  1.00  0.00     0.047 C 
HETATM   21  C29 UNL     1       1.639   7.005  10.329  1.00  0.00     0.128 C 
ENDROOT
BRANCH   6  22
HETATM   22  O1  UNL     1      -7.887   7.299  14.529  1.00  0.00    -0.271 OA
BRANCH  22  23
HETATM   23  C6  UNL     1      -8.958   6.418  14.190  1.00  0.00     0.303 C 
BRANCH  23  24
HETATM   24  C7  UNL     1      -8.523   5.404  13.136  1.00  0.00     0.244 C 
HETATM   25  O2  UNL     1      -8.542   5.661  11.934  1.00  0.00    -0.271 OA
HETATM   26  N2  UNL     1      -8.080   4.206  13.656  1.00  0.00    -0.355 N 
HETATM   27  H10 UNL     1      -8.245   4.066  14.649  1.00  0.00     0.162 HD
BRANCH  26  28
HETATM   28  C8  UNL     1      -7.802   3.062  12.822  1.00  0.00     0.161 C 
BRANCH  28  29
HETATM   29  C9  UNL     1      -6.361   3.066  12.374  1.00  0.00    -0.040 A 
HETATM   30  C10 UNL     1      -5.914   2.117  11.440  1.00  0.00     0.010 A 
HETATM   31  C11 UNL     1      -4.573   2.086  11.042  1.00  0.00     0.019 A 
HETATM   32  C12 UNL     1      -3.663   3.004  11.577  1.00  0.00     0.037 A 
HETATM   33  C14 UNL     1      -4.102   3.952  12.511  1.00  0.00     0.019 A 
HETATM   34  C15 UNL     1      -5.442   3.979  12.911  1.00  0.00     0.010 A 
BRANCH  32  35
HETATM   35  C13 UNL     1      -2.230   3.009  11.192  1.00  0.00     0.176 C 
HETATM   36  O3  UNL     1      -1.318   3.485  11.842  1.00  0.00    -0.646 OA
BRANCH  35  37
HETATM   37  O4  UNL     1      -2.007   2.415  10.007  1.00  0.00    -0.773 OA
HETATM   38  H15 UNL     1      -1.038   2.495   9.885  1.00  0.00     0.167 HD
ENDBRANCH  35  37
ENDBRANCH  32  35
ENDBRANCH  28  29
ENDBRANCH  26  28
ENDBRANCH  23  24
ENDBRANCH  22  23
ENDBRANCH   6  22
BRANCH  14  39
HETATM   39  O5  UNL     1      -1.046  10.041  12.511  1.00  0.00    -0.395 OA
HETATM   40  H26 UNL     1      -0.994  10.766  11.866  1.00  0.00     0.210 HD
ENDBRANCH  14  39
BRANCH  21  41
HETATM   41  O6  UNL     1       0.831   6.272   9.395  1.00  0.00    -0.381 OA
HETATM   42  H37 UNL     1       0.453   6.922   8.765  1.00  0.00     0.211 HD
ENDBRANCH  21  41
BRANCH  21  43
HETATM   43  C30 UNL     1       2.675   7.859   9.547  1.00  0.00     0.184 C 
HETATM   44  O7  UNL     1       3.789   8.148   9.989  1.00  0.00    -0.292 OA
BRANCH  43  45
HETATM   45  C31 UNL     1       2.258   8.371   8.172  1.00  0.00     0.245 C 
BRANCH  45  46
HETATM   46  O8  UNL     1       3.256   9.166   7.553  1.00  0.00    -0.393 OA
HETATM   47  H40 UNL     1       3.212  10.043   7.983  1.00  0.00     0.209 HD
ENDBRANCH  45  46
ENDBRANCH  43  45
ENDBRANCH  21  43
TORSDOF 12
ENDMDL
MODEL 4
REMARK minimizedAffinity -9.24452686
REMARK CNNscore 0.633836746
REMARK CNNaffinity 6.57852983
REMARK  12 active torsions:
REMARK  status: ('A' for Active; 'I' for Inactive)
REMARK    1  A    between atoms: N1_6  and  O1_8 
REMARK    2  A    between atoms: O1_8  and  C6_9 
REMARK    3  A    between atoms: C6_9  and  C7_10 
REMARK       I    between atoms: C7_10  and  N2_12 
REMARK    4  A    between atoms: N2_12  and  C8_13 
REMARK    5  A    between atoms: C8_13  and  C9_14 
REMARK    6  A    between atoms: C12_17  and  C13_18 
REMARK    7  A    between atoms: C13_18  and  O4_20 
REMARK    8  A    between atoms: C22_29  and  O5_30 
REMARK    9  A    between atoms: C29_37  and  O6_38 
REMARK   10  A    between atoms: C29_37  and  C30_39 
REMARK   11  A    between atoms: C30_39  and  C31_41 
REMARK   12  A    between atoms: C31_41  and  O8_42 
ROOT
HETATM    1  C1  UNL     1       0.122   7.415  15.764  1.00  0.00     0.020 C 
HETATM    2  C2  UNL     1       0.652   8.714  15.120  1.00  0.00    -0.014 C 
HETATM    3  C3  UNL     1       1.768   9.308  16.030  1.00  0.00     0.020 C 
HETATM    4  C4  UNL     1       1.247   9.975  17.295  1.00  0.00     0.060 C 
HETATM    5  C5  UNL     1       0.246  11.052  16.934  1.00  0.00     0.032 C 
HETATM    6  N1  UNL     1       0.112  12.187  17.556  1.00  0.00    -0.271 N 
ATOM      7  H1  UNL     1      -0.596  12.884  17.322  1.00  0.00     0.194 HD
HETATM    8  C16 UNL     1      -0.686  10.764  15.815  1.00  0.00     0.030 C 
HETATM    9  C17 UNL     1      -0.529   9.690  15.023  1.00  0.00    -0.069 C 
HETATM   10  C18 UNL     1      -1.560   9.383  13.963  1.00  0.00     0.035 C 
HETATM   11  C19 UNL     1      -0.917   9.243  12.591  1.00  0.00     0.010 C 
HETATM   12  C20 UNL     1       0.195   8.181  12.588  1.00  0.00    -0.002 C 
HETATM   13  C21 UNL     1       1.267   8.505  13.676  1.00  0.00     0.031 C 
HETATM   14  C22 UNL     1       2.484   7.536  13.602  1.00  0.00     0.124 C 
HETATM   15  C23 UNL     1       3.056   7.386  12.176  1.00  0.00     0.045 C 
HETATM   16  C24 UNL     1       1.987   7.043  11.110  1.00  0.00     0.001 C 
HETATM   17  C25 UNL     1       1.435   5.608  11.318  1.00  0.00     0.019 C 
HETATM   18  C26 UNL     1       0.892   8.134  11.218  1.00  0.00     0.002 C 
HETATM   19  C27 UNL     1       0.040   7.913   9.975  1.00  0.00     0.009 C 
HETATM   20  C28 UNL     1       1.053   7.498   8.893  1.00  0.00     0.047 C 
HETATM   21  C29 UNL     1       2.407   7.225   9.613  1.00  0.00     0.128 C 
ENDROOT
BRANCH   6  22
HETATM   22  O1  UNL     1       1.052  12.342  18.584  1.00  0.00    -0.271 OA
BRANCH  22  23
HETATM   23  C6  UNL     1       0.418  12.124  19.843  1.00  0.00     0.303 C 
BRANCH  23  24
HETATM   24  C7  UNL     1       1.278  11.249  20.749  1.00  0.00     0.244 C 
HETATM   25  O2  UNL     1       1.181  10.024  20.758  1.00  0.00    -0.271 OA
HETATM   26  N2  UNL     1       2.185  11.950  21.515  1.00  0.00    -0.355 N 
HETATM   27  H10 UNL     1       2.072  12.960  21.522  1.00  0.00     0.162 HD
BRANCH  26  28
HETATM   28  C8  UNL     1       2.956  11.323  22.561  1.00  0.00     0.161 C 
BRANCH  28  29
HETATM   29  C9  UNL     1       4.264  12.044  22.767  1.00  0.00    -0.040 A 
HETATM   30  C10 UNL     1       4.297  13.449  22.780  1.00  0.00     0.010 A 
HETATM   31  C11 UNL     1       5.509  14.131  22.935  1.00  0.00     0.019 A 
HETATM   32  C12 UNL     1       6.702  13.415  23.075  1.00  0.00     0.037 A 
HETATM   33  C14 UNL     1       6.677  12.014  23.060  1.00  0.00     0.019 A 
HETATM   34  C15 UNL     1       5.466  11.333  22.902  1.00  0.00     0.010 A 
BRANCH  32  35
HETATM   35  C13 UNL     1       8.013  14.091  23.237  1.00  0.00     0.176 C 
HETATM   36  O3  UNL     1       8.984  13.637  23.814  1.00  0.00    -0.646 OA
BRANCH  35  37
HETATM   37  O4  UNL     1       8.046  15.307  22.666  1.00  0.00    -0.773 OA
HETATM   38  H15 UNL     1       8.954  15.627  22.851  1.00  0.00     0.167 HD
ENDBRANCH  35  37
ENDBRANCH  32  35
ENDBRANCH  28  29
ENDBRANCH  26  28
ENDBRANCH  23  24
ENDBRANCH  22  23
ENDBRANCH   6  22
BRANCH  14  39
HETATM   39  O5  UNL     1       2.152   6.249  14.105  1.00  0.00    -0.395 OA
HETATM   40  H26 UNL     1       2.975   5.740  14.186  1.00  0.00     0.210 HD
ENDBRANCH  14  39
BRANCH  21  41
HETATM   41  O6  UNL     1       3.195   8.415   9.451  1.00  0.00    -0.381 OA
HETATM   42  H37 UNL     1       4.085   8.228   9.820  1.00  0.00     0.211 HD
ENDBRANCH  21  41
BRANCH  21  43
HETATM   43  C30 UNL     1       3.158   6.025   8.973  1.00  0.00     0.184 C 
HETATM   44  O7  UNL     1       4.061   5.409   9.541  1.00  0.00    -0.292 OA
BRANCH  43  45
HETATM   45  C31 UNL     1       2.750   5.624   7.560  1.00  0.00     0.245 C 
BRANCH  45  46
HETATM   46  O8  UNL     1       3.229   4.341   7.190  1.00  0.00    -0.393 OA
HETATM   47  H40 UNL     1       4.176   4.456   6.972  1.00  0.00     0.209 HD
ENDBRANCH  45  46
ENDBRANCH  43  45
ENDBRANCH  21  43
TORSDOF 12
ENDMDL
MODEL 5
REMARK minimizedAffinity -10.1012936
REMARK CNNscore 0.577727735
REMARK CNNaffinity 7.14177847
REMARK  12 active torsions:
REMARK  status: ('A' for Active; 'I' for Inactive)
REMARK    1  A    between atoms: N1_6  and  O1_8 
REMARK    2  A    between atoms: O1_8  and  C6_9 
REMARK    3  A    between atoms: C6_9  and  C7_10 
REMARK       I    between atoms: C7_10  and  N2_12 
REMARK    4  A    between atoms: N2_12  and  C8_13 
REMARK    5  A    between atoms: C8_13  and  C9_14 
REMARK    6  A    between atoms: C12_17  and  C13_18 
REMARK    7  A    between atoms: C13_18  and  O4_20 
REMARK    8  A    between atoms: C22_29  and  O5_30 
REMARK    9  A    between atoms: C29_37  and  O6_38 
REMARK   10  A    between atoms: C29_37  and  C30_39 
REMARK   11  A    between atoms: C30_39  and  C31_41 
REMARK   12  A    between atoms: C31_41  and  O8_42 
ROOT
HETATM    1  C1  UNL     1      -3.099   4.837  14.857  1.00  0.00     0.020 C 
HETATM    2  C2  UNL     1      -3.458   5.460  13.490  1.00  0.00    -0.014 C 
HETATM    3  C3  UNL     1      -4.625   6.472  13.690  1.00  0.00     0.020 C 
HETATM    4  C4  UNL     1      -5.982   5.818  13.913  1.00  0.00     0.060 C 
HETATM    5  C5  UNL     1      -6.297   4.884  12.764  1.00  0.00     0.032 C 
HETATM    6  N1  UNL     1      -7.480   4.697  12.255  1.00  0.00    -0.271 N 
ATOM      7  H1  UNL     1      -7.679   4.033  11.507  1.00  0.00     0.194 HD
HETATM    8  C16 UNL     1      -5.175   4.083  12.212  1.00  0.00     0.030 C 
HETATM    9  C17 UNL     1      -3.900   4.314  12.569  1.00  0.00    -0.069 C 
HETATM   10  C18 UNL     1      -2.804   3.409  12.060  1.00  0.00     0.035 C 
HETATM   11  C19 UNL     1      -1.705   4.204  11.372  1.00  0.00     0.010 C 
HETATM   12  C20 UNL     1      -1.126   5.292  12.291  1.00  0.00    -0.002 C 
HETATM   13  C21 UNL     1      -2.258   6.235  12.808  1.00  0.00     0.031 C 
HETATM   14  C22 UNL     1      -1.690   7.436  13.621  1.00  0.00     0.124 C 
HETATM   15  C23 UNL     1      -0.538   8.168  12.900  1.00  0.00     0.045 C 
HETATM   16  C24 UNL     1       0.588   7.225  12.412  1.00  0.00     0.001 C 
HETATM   17  C25 UNL     1       1.373   6.629  13.611  1.00  0.00     0.019 C 
HETATM   18  C26 UNL     1      -0.091   6.143  11.536  1.00  0.00     0.002 C 
HETATM   19  C27 UNL     1       1.078   5.438  10.862  1.00  0.00     0.009 C 
HETATM   20  C28 UNL     1       2.095   6.563  10.599  1.00  0.00     0.047 C 
HETATM   21  C29 UNL     1       1.600   7.820  11.376  1.00  0.00     0.128 C 
ENDROOT
BRANCH   6  22
HETATM   22  O1  UNL     1      -8.449   5.514  12.854  1.00  0.00    -0.271 OA
BRANCH  22  23
HETATM   23  C6  UNL     1      -7.879   6.174  13.984  1.00  0.00     0.303 C 
BRANCH  23  24
HETATM   24  C7  UNL     1      -8.962   6.664  14.939  1.00  0.00     0.244 C 
HETATM   25  O2  UNL     1      -9.064   6.237  16.087  1.00  0.00    -0.271 OA
HETATM   26  N2  UNL     1      -9.779   7.642  14.412  1.00  0.00    -0.355 N 
HETATM   27  H10 UNL     1      -9.684   7.808  13.414  1.00  0.00     0.162 HD
BRANCH  26  28
HETATM   28  C8  UNL     1     -10.967   8.099  15.090  1.00  0.00     0.161 C 
BRANCH  28  29
HETATM   29  C9  UNL     1     -12.189   7.882  14.233  1.00  0.00    -0.040 A 
HETATM   30  C10 UNL     1     -12.677   8.925  13.429  1.00  0.00     0.010 A 
HETATM   31  C11 UNL     1     -13.830   8.749  12.656  1.00  0.00     0.019 A 
HETATM   32  C12 UNL     1     -14.509   7.527  12.682  1.00  0.00     0.037 A 
HETATM   33  C14 UNL     1     -14.029   6.483  13.484  1.00  0.00     0.019 A 
HETATM   34  C15 UNL     1     -12.879   6.661  14.258  1.00  0.00     0.010 A 
BRANCH  32  35
HETATM   35  C13 UNL     1     -15.738   7.291  11.884  1.00  0.00     0.176 C 
HETATM   36  O3  UNL     1     -16.508   6.358  12.018  1.00  0.00    -0.646 OA
BRANCH  35  37
HETATM   37  O4  UNL     1     -15.946   8.239  10.955  1.00  0.00    -0.773 OA
HETATM   38  H15 UNL     1     -16.775   7.956  10.514  1.00  0.00     0.167 HD
ENDBRANCH  35  37
ENDBRANCH  32  35
ENDBRANCH  28  29
ENDBRANCH  26  28
ENDBRANCH  23  24
ENDBRANCH  22  23
ENDBRANCH   6  22
BRANCH  14  39
HETATM   39  O5  UNL     1      -1.246   7.027  14.907  1.00  0.00    -0.395 OA
HETATM   40  H26 UNL     1      -1.055   7.827  15.424  1.00  0.00     0.210 HD
ENDBRANCH  14  39
BRANCH  21  41
HETATM   41  O6  UNL     1       0.915   8.640  10.416  1.00  0.00    -0.381 OA
HETATM   42  H37 UNL     1       0.676   9.478  10.868  1.00  0.00     0.211 HD
ENDBRANCH  21  41
BRANCH  21  43
HETATM   43  C30 UNL     1       2.788   8.620  11.976  1.00  0.00     0.184 C 
HETATM   44  O7  UNL     1       2.648   9.660  12.622  1.00  0.00    -0.292 OA
BRANCH  43  45
HETATM   45  C31 UNL     1       4.191   8.079  11.720  1.00  0.00     0.245 C 
BRANCH  45  46
HETATM   46  O8  UNL     1       4.685   7.296  12.794  1.00  0.00    -0.393 OA
HETATM   47  H40 UNL     1       4.966   7.927  13.486  1.00  0.00     0.209 HD
ENDBRANCH  45  46
ENDBRANCH  43  45
ENDBRANCH  21  43
TORSDOF 12
ENDMDL
MODEL 6
REMARK minimizedAffinity -8.54964066
REMARK CNNscore 0.549475253
REMARK CNNaffinity 6.98992205
REMARK  12 active torsions:
REMARK  status: ('A' for Active; 'I' for Inactive)
REMARK    1  A    between atoms: N1_6  and  O1_8 
REMARK    2  A    between atoms: O1_8  and  C6_9 
REMARK    3  A    between atoms: C6_9  and  C7_10 
REMARK       I    between atoms: C7_10  and  N2_12 
REMARK    4  A    between atoms: N2_12  and  C8_13 
REMARK    5  A    between atoms: C8_13  and  C9_14 
REMARK    6  A    between atoms: C12_17  and  C13_18 
REMARK    7  A    between atoms: C13_18  and  O4_20 
REMARK    8  A    between atoms: C22_29  and  O5_30 
REMARK    9  A    between atoms: C29_37  and  O6_38 
REMARK   10  A    between atoms: C29_37  and  C30_39 
REMARK   11  A    between atoms: C30_39  and  C31_41 
REMARK   12  A    between atoms: C31_41  and  O8_42 
ROOT
HETATM    1  C1  UNL     1      -1.946   8.520  12.427  1.00  0.00     0.020 C 
HETATM    2  C2  UNL     1      -1.774   7.545  13.612  1.00  0.00    -0.014 C 
HETATM    3  C3  UNL     1      -0.942   8.249  14.725  1.00  0.00     0.020 C 
HETATM    4  C4  UNL     1       0.543   8.360  14.412  1.00  0.00     0.060 C 
HETATM    5  C5  UNL     1       1.114   6.988  14.129  1.00  0.00     0.032 C 
HETATM    6  N1  UNL     1       2.304   6.586  14.474  1.00  0.00    -0.271 N 
ATOM      7  H1  UNL     1       2.685   5.670  14.239  1.00  0.00     0.194 HD
HETATM    8  C16 UNL     1       0.267   6.047  13.354  1.00  0.00     0.030 C 
HETATM    9  C17 UNL     1      -1.022   6.315  13.084  1.00  0.00    -0.069 C 
HETATM   10  C18 UNL     1      -1.815   5.377  12.206  1.00  0.00     0.035 C 
HETATM   11  C19 UNL     1      -3.093   4.921  12.896  1.00  0.00     0.010 C 
HETATM   12  C20 UNL     1      -3.959   6.112  13.337  1.00  0.00    -0.002 C 
HETATM   13  C21 UNL     1      -3.142   7.076  14.255  1.00  0.00     0.031 C 
HETATM   14  C22 UNL     1      -4.030   8.214  14.841  1.00  0.00     0.124 C 
HETATM   15  C23 UNL     1      -5.340   7.698  15.474  1.00  0.00     0.045 C 
HETATM   16  C24 UNL     1      -6.151   6.761  14.547  1.00  0.00     0.001 C 
HETATM   17  C25 UNL     1      -6.739   7.544  13.342  1.00  0.00     0.019 C 
HETATM   18  C26 UNL     1      -5.191   5.624  14.119  1.00  0.00     0.002 C 
HETATM   19  C27 UNL     1      -6.110   4.602  13.464  1.00  0.00     0.009 C 
HETATM   20  C28 UNL     1      -7.403   4.672  14.295  1.00  0.00     0.047 C 
HETATM   21  C29 UNL     1      -7.287   5.921  15.221  1.00  0.00     0.128 C 
ENDROOT
BRANCH   6  22
HETATM   22  O1  UNL     1       2.999   7.559  15.205  1.00  0.00    -0.271 OA
BRANCH  22  23
HETATM   23  C6  UNL     1       4.169   7.946  14.486  1.00  0.00     0.303 C 
BRANCH  23  24
HETATM   24  C7  UNL     1       5.206   8.569  15.415  1.00  0.00     0.244 C 
HETATM   25  O2  UNL     1       4.941   9.519  16.148  1.00  0.00    -0.271 OA
HETATM   26  N2  UNL     1       6.438   7.949  15.381  1.00  0.00    -0.355 N 
HETATM   27  H10 UNL     1       6.572   7.270  14.637  1.00  0.00     0.162 HD
BRANCH  26  28
HETATM   28  C8  UNL     1       7.594   8.500  16.046  1.00  0.00     0.161 C 
BRANCH  28  29
HETATM   29  C9  UNL     1       8.468   9.246  15.069  1.00  0.00    -0.040 A 
HETATM   30  C10 UNL     1       8.039  10.475  14.539  1.00  0.00     0.010 A 
HETATM   31  C11 UNL     1       8.823  11.160  13.605  1.00  0.00     0.019 A 
HETATM   32  C12 UNL     1      10.045  10.621  13.188  1.00  0.00     0.037 A 
HETATM   33  C14 UNL     1      10.477   9.395  13.711  1.00  0.00     0.019 A 
HETATM   34  C15 UNL     1       9.691   8.709  14.641  1.00  0.00     0.010 A 
BRANCH  32  35
HETATM   35  C13 UNL     1      10.911  11.307  12.197  1.00  0.00     0.176 C 
HETATM   36  O3  UNL     1      11.664  10.763  11.410  1.00  0.00    -0.646 OA
BRANCH  35  37
HETATM   37  O4  UNL     1      10.792  12.645  12.237  1.00  0.00    -0.773 OA
HETATM   38  H15 UNL     1      11.410  12.955  11.544  1.00  0.00     0.167 HD
ENDBRANCH  35  37
ENDBRANCH  32  35
ENDBRANCH  28  29
ENDBRANCH  26  28
ENDBRANCH  23  24
ENDBRANCH  22  23
ENDBRANCH   6  22
BRANCH  14  39
HETATM   39  O5  UNL     1      -4.344   9.186  13.855  1.00  0.00    -0.395 OA
HETATM   40  H26 UNL     1      -4.755   9.944  14.303  1.00  0.00     0.210 HD
ENDBRANCH  14  39
BRANCH  21  41
HETATM   41  O6  UNL     1      -6.860   5.432  16.502  1.00  0.00    -0.381 OA
HETATM   42  H37 UNL     1      -6.870   6.193  17.121  1.00  0.00     0.211 HD
ENDBRANCH  21  41
BRANCH  21  43
HETATM   43  C30 UNL     1      -8.655   6.639  15.378  1.00  0.00     0.184 C 
HETATM   44  O7  UNL     1      -9.584   6.513  14.577  1.00  0.00    -0.292 OA
BRANCH  43  45
HETATM   45  C31 UNL     1      -8.823   7.558  16.583  1.00  0.00     0.245 C 
BRANCH  45  46
HETATM   46  O8  UNL     1     -10.144   8.056  16.717  1.00  0.00    -0.393 OA
HETATM   47  H40 UNL     1     -10.235   8.771  16.056  1.00  0.00     0.209 HD
ENDBRANCH  45  46
ENDBRANCH  43  45
ENDBRANCH  21  43
TORSDOF 12
ENDMDL
MODEL 7
REMARK minimizedAffinity -8.44718838
REMARK CNNscore 0.516562819
REMARK CNNaffinity 6.94191599
REMARK  12 active torsions:
REMARK  status: ('A' for Active; 'I' for Inactive)
REMARK    1  A    between atoms: N1_6  and  O1_8 
REMARK    2  A    between atoms: O1_8  and  C6_9 
REMARK    3  A    between atoms: C6_9  and  C7_10 
REMARK       I    between atoms: C7_10  and  N2_12 
REMARK    4  A    between atoms: N2_12  and  C8_13 
REMARK    5  A    between atoms: C8_13  and  C9_14 
REMARK    6  A    between atoms: C12_17  and  C13_18 
REMARK    7  A    between atoms: C13_18  and  O4_20 
REMARK    8  A    between atoms: C22_29  and  O5_30 
REMARK    9  A    between atoms: C29_37  and  O6_38 
REMARK   10  A    between atoms: C29_37  and  C30_39 
REMARK   11  A    between atoms: C30_39  and  C31_41 
REMARK   12  A    between atoms: C31_41  and  O8_42 
ROOT
HETATM    1  C1  UNL     1      -6.432   5.798  15.962  1.00  0.00     0.020 C 
HETATM    2  C2  UNL     1      -6.525   6.398  14.542  1.00  0.00    -0.014 C 
HETATM    3  C3  UNL     1      -7.372   7.704  14.603  1.00  0.00     0.020 C 
HETATM    4  C4  UNL     1      -8.868   7.466  14.759  1.00  0.00     0.060 C 
HETATM    5  C5  UNL     1      -9.367   6.577  13.640  1.00  0.00     0.032 C 
HETATM    6  N1  UNL     1     -10.525   6.687  13.056  1.00  0.00    -0.271 N 
ATOM      7  H1  UNL     1     -10.859   6.053  12.331  1.00  0.00     0.194 HD
HETATM    8  C16 UNL     1      -8.484   5.461  13.214  1.00  0.00     0.030 C 
HETATM    9  C17 UNL     1      -7.218   5.356  13.652  1.00  0.00    -0.069 C 
HETATM   10  C18 UNL     1      -6.392   4.150  13.273  1.00  0.00     0.035 C 
HETATM   11  C19 UNL     1      -5.077   4.562  12.626  1.00  0.00     0.010 C 
HETATM   12  C20 UNL     1      -4.270   5.510  13.528  1.00  0.00    -0.002 C 
HETATM   13  C21 UNL     1      -5.120   6.763  13.910  1.00  0.00     0.031 C 
HETATM   14  C22 UNL     1      -4.286   7.815  14.700  1.00  0.00     0.124 C 
HETATM   15  C23 UNL     1      -2.936   8.148  14.028  1.00  0.00     0.045 C 
HETATM   16  C24 UNL     1      -2.093   6.900  13.674  1.00  0.00     0.001 C 
HETATM   17  C25 UNL     1      -1.575   6.196  14.957  1.00  0.00     0.019 C 
HETATM   18  C26 UNL     1      -2.997   5.988  12.808  1.00  0.00     0.002 C 
HETATM   19  C27 UNL     1      -2.036   4.943  12.259  1.00  0.00     0.009 C 
HETATM   20  C28 UNL     1      -0.732   5.722  12.013  1.00  0.00     0.047 C 
HETATM   21  C29 UNL     1      -0.899   7.118  12.685  1.00  0.00     0.128 C 
ENDROOT
BRANCH   6  22
HETATM   22  O1  UNL     1     -11.259   7.780  13.539  1.00  0.00    -0.271 OA
BRANCH  22  23
HETATM   23  C6  UNL     1     -12.651   7.544  13.332  1.00  0.00     0.303 C 
BRANCH  23  24
HETATM   24  C7  UNL     1     -13.497   8.338  14.322  1.00  0.00     0.244 C 
HETATM   25  O2  UNL     1     -14.283   9.210  13.959  1.00  0.00    -0.271 OA
HETATM   26  N2  UNL     1     -13.325   7.963  15.639  1.00  0.00    -0.355 N 
HETATM   27  H10 UNL     1     -12.550   7.332  15.822  1.00  0.00     0.162 HD
BRANCH  26  28
HETATM   28  C8  UNL     1     -13.894   8.712  16.732  1.00  0.00     0.161 C 
BRANCH  28  29
HETATM   29  C9  UNL     1     -12.986   9.848  17.132  1.00  0.00    -0.040 A 
HETATM   30  C10 UNL     1     -11.654   9.587  17.495  1.00  0.00     0.010 A 
HETATM   31  C11 UNL     1     -10.811  10.626  17.903  1.00  0.00     0.019 A 
HETATM   32  C12 UNL     1     -11.292  11.938  17.954  1.00  0.00     0.037 A 
HETATM   33  C14 UNL     1     -12.620  12.205  17.596  1.00  0.00     0.019 A 
HETATM   34  C15 UNL     1     -13.463  11.165  17.193  1.00  0.00     0.010 A 
BRANCH  32  35
HETATM   35  C13 UNL     1     -10.439  13.074  18.384  1.00  0.00     0.176 C 
HETATM   36  O3  UNL     1     -10.464  14.200  17.922  1.00  0.00    -0.646 OA
BRANCH  35  37
HETATM   37  O4  UNL     1      -9.594  12.745  19.376  1.00  0.00    -0.773 OA
HETATM   38  H15 UNL     1      -9.105  13.576  19.551  1.00  0.00     0.167 HD
ENDBRANCH  35  37
ENDBRANCH  32  35
ENDBRANCH  28  29
ENDBRANCH  26  28
ENDBRANCH  23  24
ENDBRANCH  22  23
ENDBRANCH   6  22
BRANCH  14  39
HETATM   39  O5  UNL     1      -4.046   7.390  16.034  1.00  0.00    -0.395 OA
HETATM   40  H26 UNL     1      -3.669   8.141  16.522  1.00  0.00     0.210 HD
ENDBRANCH  14  39
BRANCH  21  41
HETATM   41  O6  UNL     1      -1.272   8.026  11.636  1.00  0.00    -0.381 OA
HETATM   42  H37 UNL     1      -1.293   8.927  12.025  1.00  0.00     0.211 HD
ENDBRANCH  21  41
BRANCH  21  43
HETATM   43  C30 UNL     1       0.430   7.600  13.329  1.00  0.00     0.184 C 
HETATM   44  O7  UNL     1       0.590   8.733  13.788  1.00  0.00    -0.292 OA
BRANCH  43  45
HETATM   45  C31 UNL     1       1.586   6.607  13.363  1.00  0.00     0.245 C 
BRANCH  45  46
HETATM   46  O8  UNL     1       1.943   6.221  14.680  1.00  0.00    -0.393 OA
HETATM   47  H40 UNL     1       2.462   6.962  15.051  1.00  0.00     0.209 HD
ENDBRANCH  45  46
ENDBRANCH  43  45
ENDBRANCH  21  43
TORSDOF 12
ENDMDL
MODEL 8
REMARK minimizedAffinity -9.41397667
REMARK CNNscore 0.469973773
REMARK CNNaffinity 7.32004976
REMARK  12 active torsions:
REMARK  status: ('A' for Active; 'I' for Inactive)
REMARK    1  A    between atoms: N1_6  and  O1_8 
REMARK    2  A    between atoms: O1_8  and  C6_9 
REMARK    3  A    between atoms: C6_9  and  C7_10 
REMARK       I    between atoms: C7_10  and  N2_12 
REMARK    4  A    between atoms: N2_12  and  C8_13 
REMARK    5  A    between atoms: C8_13  and  C9_14 
REMARK    6  A    between atoms: C12_17  and  C13_18 
REMARK    7  A    between atoms: C13_18  and  O4_20 
REMARK    8  A    between atoms: C22_29  and  O5_30 
REMARK    9  A    between atoms: C29_37  and  O6_38 
REMARK   10  A    between atoms: C29_37  and  C30_39 
REMARK   11  A    between atoms: C30_39  and  C31_41 
REMARK   12  A    between atoms: C31_41  and  O8_42 
ROOT
HETATM    1  C1  UNL     1      -7.366   5.373  15.854  1.00  0.00     0.020 C 
HETATM    2  C2  UNL     1      -7.346   6.240  14.576  1.00  0.00    -0.014 C 
HETATM    3  C3  UNL     1      -8.058   7.593  14.874  1.00  0.00     0.020 C 
HETATM    4  C4  UNL     1      -9.575   7.489  14.956  1.00  0.00     0.060 C 
HETATM    5  C5  UNL     1     -10.119   6.888  13.678  1.00  0.00     0.032 C 
HETATM    6  N1  UNL     1     -11.238   7.230  13.107  1.00  0.00    -0.271 N 
ATOM      7  H1  UNL     1     -11.607   6.785  12.267  1.00  0.00     0.194 HD
HETATM    8  C16 UNL     1      -9.338   5.787  13.059  1.00  0.00     0.030 C 
HETATM    9  C17 UNL     1      -8.106   5.467  13.489  1.00  0.00    -0.069 C 
HETATM   10  C18 UNL     1      -7.392   4.275  12.898  1.00  0.00     0.035 C 
HETATM   11  C19 UNL     1      -6.020   4.660  12.366  1.00  0.00     0.010 C 
HETATM   12  C20 UNL     1      -5.155   5.327  13.448  1.00  0.00    -0.002 C 
HETATM   13  C21 UNL     1      -5.888   6.567  14.051  1.00  0.00     0.031 C 
HETATM   14  C22 UNL     1      -4.982   7.355  15.043  1.00  0.00     0.124 C 
HETATM   15  C23 UNL     1      -3.582   7.665  14.472  1.00  0.00     0.045 C 
HETATM   16  C24 UNL     1      -2.856   6.425  13.897  1.00  0.00     0.001 C 
HETATM   17  C25 UNL     1      -2.459   5.439  15.028  1.00  0.00     0.019 C 
HETATM   18  C26 UNL     1      -3.815   5.796  12.856  1.00  0.00     0.002 C 
HETATM   19  C27 UNL     1      -2.944   4.779  12.131  1.00  0.00     0.009 C 
HETATM   20  C28 UNL     1      -1.560   5.448  12.063  1.00  0.00     0.047 C 
HETATM   21  C29 UNL     1      -1.610   6.700  12.990  1.00  0.00     0.128 C 
ENDROOT
BRANCH   6  22
HETATM   22  O1  UNL     1     -11.875   8.282  13.780  1.00  0.00    -0.271 OA
BRANCH  22  23
HETATM   23  C6  UNL     1     -12.704   7.750  14.812  1.00  0.00     0.303 C 
BRANCH  23  24
HETATM   24  C7  UNL     1     -13.371   8.865  15.612  1.00  0.00     0.244 C 
HETATM   25  O2  UNL     1     -14.312   9.517  15.166  1.00  0.00    -0.271 OA
HETATM   26  N2  UNL     1     -12.848   9.042  16.876  1.00  0.00    -0.355 N 
HETATM   27  H10 UNL     1     -11.987   8.540  17.074  1.00  0.00     0.162 HD
BRANCH  26  28
HETATM   28  C8  UNL     1     -13.219  10.158  17.712  1.00  0.00     0.161 C 
BRANCH  28  29
HETATM   29  C9  UNL     1     -12.623  10.015  19.090  1.00  0.00    -0.040 A 
HETATM   30  C10 UNL     1     -11.574  10.857  19.493  1.00  0.00     0.010 A 
HETATM   31  C11 UNL     1     -10.989  10.711  20.755  1.00  0.00     0.019 A 
HETATM   32  C12 UNL     1     -11.446   9.719  21.628  1.00  0.00     0.037 A 
HETATM   33  C14 UNL     1     -12.491   8.873  21.232  1.00  0.00     0.019 A 
HETATM   34  C15 UNL     1     -13.072   9.017  19.968  1.00  0.00     0.010 A 
BRANCH  32  35
HETATM   35  C13 UNL     1     -10.856   9.521  22.975  1.00  0.00     0.176 C 
HETATM   36  O3  UNL     1     -10.757   8.459  23.562  1.00  0.00    -0.646 OA
BRANCH  35  37
HETATM   37  O4  UNL     1     -10.415  10.665  23.524  1.00  0.00    -0.773 OA
HETATM   38  H15 UNL     1     -10.061  10.386  24.394  1.00  0.00     0.167 HD
ENDBRANCH  35  37
ENDBRANCH  32  35
ENDBRANCH  28  29
ENDBRANCH  26  28
ENDBRANCH  23  24
ENDBRANCH  22  23
ENDBRANCH   6  22
BRANCH  14  39
HETATM   39  O5  UNL     1      -4.836   6.661  16.274  1.00  0.00    -0.395 OA
HETATM   40  H26 UNL     1      -4.404   7.261  16.904  1.00  0.00     0.210 HD
ENDBRANCH  14  39
BRANCH  21  41
HETATM   41  O6  UNL     1      -1.851   7.826  12.131  1.00  0.00    -0.381 OA
HETATM   42  H37 UNL     1      -1.795   8.633  12.686  1.00  0.00     0.211 HD
ENDBRANCH  21  41
BRANCH  21  43
HETATM   43  C30 UNL     1      -0.264   6.907  13.737  1.00  0.00     0.184 C 
HETATM   44  O7  UNL     1      -0.045   7.857  14.491  1.00  0.00    -0.292 OA
BRANCH  43  45
HETATM   45  C31 UNL     1       0.832   5.876  13.492  1.00  0.00     0.245 C 
BRANCH  45  46
HETATM   46  O8  UNL     1       1.997   6.115  14.265  1.00  0.00    -0.393 OA
HETATM   47  H40 UNL     1       2.473   6.846  13.824  1.00  0.00     0.209 HD
ENDBRANCH  45  46
ENDBRANCH  43  45
ENDBRANCH  21  43
TORSDOF 12
ENDMDL
MODEL 9
REMARK minimizedAffinity -9.04979134
REMARK CNNscore 0.423905671
REMARK CNNaffinity 6.70578814
REMARK  12 active torsions:
REMARK  status: ('A' for Active; 'I' for Inactive)
REMARK    1  A    between atoms: N1_6  and  O1_8 
REMARK    2  A    between atoms: O1_8  and  C6_9 
REMARK    3  A    between atoms: C6_9  and  C7_10 
REMARK       I    between atoms: C7_10  and  N2_12 
REMARK    4  A    between atoms: N2_12  and  C8_13 
REMARK    5  A    between atoms: C8_13  and  C9_14 
REMARK    6  A    between atoms: C12_17  and  C13_18 
REMARK    7  A    between atoms: C13_18  and  O4_20 
REMARK    8  A    between atoms: C22_29  and  O5_30 
REMARK    9  A    between atoms: C29_37  and  O6_38 
REMARK   10  A    between atoms: C29_37  and  C30_39 
REMARK   11  A    between atoms: C30_39  and  C31_41 
REMARK   12  A    between atoms: C31_41  and  O8_42 
ROOT
HETATM    1  C1  UNL     1      -3.533   5.966  15.525  1.00  0.00     0.020 C 
HETATM    2  C2  UNL     1      -3.934   6.345  14.082  1.00  0.00    -0.014 C 
HETATM    3  C3  UNL     1      -4.845   7.607  14.128  1.00  0.00     0.020 C 
HETATM    4  C4  UNL     1      -6.264   7.331  14.606  1.00  0.00     0.060 C 
HETATM    5  C5  UNL     1      -6.900   6.265  13.740  1.00  0.00     0.032 C 
HETATM    6  N1  UNL     1      -8.152   6.237  13.384  1.00  0.00    -0.271 N 
ATOM      7  H1  UNL     1      -8.571   5.489  12.833  1.00  0.00     0.194 HD
HETATM    8  C16 UNL     1      -6.036   5.138  13.306  1.00  0.00     0.030 C 
HETATM    9  C17 UNL     1      -4.706   5.153  13.497  1.00  0.00    -0.069 C 
HETATM   10  C18 UNL     1      -3.882   3.942  13.132  1.00  0.00     0.035 C 
HETATM   11  C19 UNL     1      -2.745   4.309  12.190  1.00  0.00     0.010 C 
HETATM   12  C20 UNL     1      -1.853   5.414  12.778  1.00  0.00    -0.002 C 
HETATM   13  C21 UNL     1      -2.703   6.672  13.143  1.00  0.00     0.031 C 
HETATM   14  C22 UNL     1      -1.812   7.865  13.602  1.00  0.00     0.124 C 
HETATM   15  C23 UNL     1      -0.639   8.152  12.639  1.00  0.00     0.045 C 
HETATM   16  C24 UNL     1       0.209   6.903  12.301  1.00  0.00     0.001 C 
HETATM   17  C25 UNL     1       1.008   6.420  13.542  1.00  0.00     0.019 C 
HETATM   18  C26 UNL     1      -0.775   5.834  11.763  1.00  0.00     0.002 C 
HETATM   19  C27 UNL     1       0.138   4.762  11.185  1.00  0.00     0.009 C 
HETATM   20  C28 UNL     1       1.314   5.552  10.583  1.00  0.00     0.047 C 
HETATM   21  C29 UNL     1       1.177   7.024  11.077  1.00  0.00     0.128 C 
ENDROOT
BRANCH   6  22
HETATM   22  O1  UNL     1      -8.858   7.357  13.848  1.00  0.00    -0.271 OA
BRANCH  22  23
HETATM   23  C6  UNL     1      -9.727   6.963  14.909  1.00  0.00     0.303 C 
BRANCH  23  24
HETATM   24  C7  UNL     1     -10.806   8.013  15.155  1.00  0.00     0.244 C 
HETATM   25  O2  UNL     1     -11.677   8.263  14.325  1.00  0.00    -0.271 OA
HETATM   26  N2  UNL     1     -10.733   8.617  16.392  1.00  0.00    -0.355 N 
HETATM   27  H10 UNL     1      -9.891   8.428  16.929  1.00  0.00     0.162 HD
BRANCH  26  28
HETATM   28  C8  UNL     1     -11.546   9.757  16.740  1.00  0.00     0.161 C 
BRANCH  28  29
HETATM   29  C9  UNL     1     -11.332  10.145  18.182  1.00  0.00    -0.040 A 
HETATM   30  C10 UNL     1     -10.852  11.426  18.501  1.00  0.00     0.010 A 
HETATM   31  C11 UNL     1     -10.615  11.788  19.831  1.00  0.00     0.019 A 
HETATM   32  C12 UNL     1     -10.855  10.869  20.859  1.00  0.00     0.037 A 
HETATM   33  C14 UNL     1     -11.331   9.589  20.548  1.00  0.00     0.019 A 
HETATM   34  C15 UNL     1     -11.563   9.227  19.218  1.00  0.00     0.010 A 
BRANCH  32  35
HETATM   35  C13 UNL     1     -10.615  11.202  22.285  1.00  0.00     0.176 C 
HETATM   36  O3  UNL     1      -9.686  11.857  22.719  1.00  0.00    -0.646 OA
BRANCH  35  37
HETATM   37  O4  UNL     1     -11.556  10.699  23.102  1.00  0.00    -0.773 OA
HETATM   38  H15 UNL     1     -11.272  10.992  23.993  1.00  0.00     0.167 HD
ENDBRANCH  35  37
ENDBRANCH  32  35
ENDBRANCH  28  29
ENDBRANCH  26  28
ENDBRANCH  23  24
ENDBRANCH  22  23
ENDBRANCH   6  22
BRANCH  14  39
HETATM   39  O5  UNL     1      -1.296   7.654  14.908  1.00  0.00    -0.395 OA
HETATM   40  H26 UNL     1      -0.888   8.484  15.205  1.00  0.00     0.210 HD
ENDBRANCH  14  39
BRANCH  21  41
HETATM   41  O6  UNL     1       0.550   7.748  10.007  1.00  0.00    -0.381 OA
HETATM   42  H37 UNL     1       0.539   8.695  10.265  1.00  0.00     0.211 HD
ENDBRANCH  21  41
BRANCH  21  43
HETATM   43  C30 UNL     1       2.566   7.652  11.375  1.00  0.00     0.184 C 
HETATM   44  O7  UNL     1       2.716   8.813  11.761  1.00  0.00    -0.292 OA
BRANCH  43  45
HETATM   45  C31 UNL     1       3.790   6.772  11.151  1.00  0.00     0.245 C 
BRANCH  45  46
HETATM   46  O8  UNL     1       4.399   6.984   9.888  1.00  0.00    -0.393 OA
HETATM   47  H40 UNL     1       3.842   6.517   9.234  1.00  0.00     0.209 HD
ENDBRANCH  45  46
ENDBRANCH  43  45
ENDBRANCH  21  43
TORSDOF 12
ENDMDL
