MODEL 1
REMARK minimizedAffinity -9.40474033
REMARK  11 active torsions:
REMARK  status: ('A' for Active; 'I' for Inactive)
REMARK    1  A    between atoms: C2_2  and  C3_3 
REMARK    2  A    between atoms: C2_2  and  C4_5 
REMARK    3  A    between atoms: C3_3  and  O1_4 
REMARK    4  A    between atoms: C13_14  and  C14_15 
REMARK    5  A    between atoms: C14_15  and  C16_17 
REMARK    6  A    between atoms: C16_17  and  C17_18 
REMARK    7  A    between atoms: C17_18  and  C18_19 
REMARK    8  A    between atoms: C27_28  and  C28_29 
REMARK    9  A    between atoms: C28_29  and  C29_30 
REMARK   10  A    between atoms: C29_30  and  C30_31 
REMARK   11  A    between atoms: C30_31  and  O3_33 
ROOT
HETATM    1  C4  UNL     1       0.113  51.151 -25.426  1.00  0.00     0.025 C 
HETATM    2  C5  UNL     1      -1.036  50.634 -26.335  1.00  0.00     0.010 C 
HETATM    3  C6  UNL     1      -2.220  49.968 -25.629  1.00  0.00     0.007 C 
HETATM    4  C7  UNL     1      -2.057  49.881 -24.115  1.00  0.00     0.004 C 
HETATM    5  C8  UNL     1      -1.674  51.239 -23.486  1.00  0.00    -0.027 A 
HETATM    6  C9  UNL     1      -1.968  51.325 -21.990  1.00  0.00     0.011 C 
HETATM    7  C10 UNL     1      -3.426  50.996 -21.608  1.00  0.00     0.011 C 
HETATM    8  C11 UNL     1      -4.206  50.192 -22.668  1.00  0.00    -0.032 C 
HETATM    9  C12 UNL     1      -4.863  51.192 -23.665  1.00  0.00     0.016 C 
HETATM   10  C13 UNL     1      -5.324  49.237 -22.124  1.00  0.00    -0.002 C 
HETATM   11  C22 UNL     1      -5.459  48.188 -23.271  1.00  0.00     0.006 C 
HETATM   12  C23 UNL     1      -4.213  48.316 -24.169  1.00  0.00     0.011 C 
HETATM   13  C24 UNL     1      -3.227  49.170 -23.352  1.00  0.00    -0.032 C 
HETATM   14  C25 UNL     1      -2.556  48.168 -22.343  1.00  0.00     0.016 C 
HETATM   15  C26 UNL     1      -1.698  52.587 -24.196  1.00  0.00     0.022 A 
HETATM   16  C27 UNL     1      -0.386  51.850 -24.125  1.00  0.00    -0.024 A 
ENDROOT
BRANCH  10  17
HETATM   17  C14 UNL     1      -6.709  49.811 -21.688  1.00  0.00    -0.014 C 
HETATM   18  C15 UNL     1      -6.743  50.158 -20.196  1.00  0.00     0.010 C 
BRANCH  17  19
HETATM   19  C16 UNL     1      -7.835  48.793 -22.024  1.00  0.00     0.008 C 
BRANCH  19  20
HETATM   20  C17 UNL     1      -8.109  47.770 -20.916  1.00  0.00     0.028 C 
BRANCH  20  21
HETATM   21  C18 UNL     1      -9.580  47.675 -20.613  1.00  0.00    -0.025 C 
HETATM   22  C19 UNL     1     -10.218  48.111 -19.508  1.00  0.00    -0.091 C 
HETATM   23  C20 UNL     1     -11.709  47.954 -19.370  1.00  0.00     0.042 C 
HETATM   24  C21 UNL     1      -9.548  48.753 -18.326  1.00  0.00     0.042 C 
ENDBRANCH  20  21
ENDBRANCH  19  20
ENDBRANCH  17  19
ENDBRANCH  10  17
BRANCH  16  25
HETATM   25  C28 UNL     1       0.710  52.228 -23.112  1.00  0.00     0.021 C 
BRANCH  25  26
HETATM   26  C29 UNL     1       0.331  52.989 -21.845  1.00  0.00     0.111 C 
BRANCH  26  27
HETATM   27  C30 UNL     1       1.288  54.083 -21.453  1.00  0.00     0.139 C 
HETATM   28  O2  UNL     1       2.010  54.751 -22.169  1.00  0.00    -0.650 OA
BRANCH  27  29
HETATM   29  O3  UNL     1       1.310  54.267 -20.116  1.00  0.00    -0.776 OA
HETATM   30  H48 UNL     1       1.978  54.972 -19.985  1.00  0.00     0.167 HD
ENDBRANCH  27  29
ENDBRANCH  26  27
ENDBRANCH  25  26
ENDBRANCH  16  25
BRANCH   1  31
HETATM   31  C2  UNL     1       1.070  51.956 -26.307  1.00  0.00    -0.061 C 
HETATM   32  C1  UNL     1       0.635  53.063 -26.943  1.00  0.00     0.017 C 
BRANCH  31  33
HETATM   33  C3  UNL     1       2.491  51.450 -26.414  1.00  0.00     0.198 C 
BRANCH  33  34
HETATM   34  O1  UNL     1       3.217  52.151 -27.419  1.00  0.00    -0.397 OA
HETATM   35  H5  UNL     1       4.077  51.708 -27.484  1.00  0.00     0.209 HD
ENDBRANCH  33  34
ENDBRANCH  31  33
ENDBRANCH   1  31
TORSDOF 11
ENDMDL
MODEL 2
REMARK minimizedAffinity -9.2804842
REMARK  11 active torsions:
REMARK  status: ('A' for Active; 'I' for Inactive)
REMARK    1  A    between atoms: C2_2  and  C3_3 
REMARK    2  A    between atoms: C2_2  and  C4_5 
REMARK    3  A    between atoms: C3_3  and  O1_4 
REMARK    4  A    between atoms: C13_14  and  C14_15 
REMARK    5  A    between atoms: C14_15  and  C16_17 
REMARK    6  A    between atoms: C16_17  and  C17_18 
REMARK    7  A    between atoms: C17_18  and  C18_19 
REMARK    8  A    between atoms: C27_28  and  C28_29 
REMARK    9  A    between atoms: C28_29  and  C29_30 
REMARK   10  A    between atoms: C29_30  and  C30_31 
REMARK   11  A    between atoms: C30_31  and  O3_33 
ROOT
HETATM    1  C4  UNL     1       0.162  51.344 -25.661  1.00  0.00     0.025 C 
HETATM    2  C5  UNL     1      -0.940  50.591 -26.455  1.00  0.00     0.010 C 
HETATM    3  C6  UNL     1      -2.040  49.919 -25.629  1.00  0.00     0.007 C 
HETATM    4  C7  UNL     1      -1.848  50.067 -24.123  1.00  0.00     0.004 C 
HETATM    5  C8  UNL     1      -1.598  51.533 -23.704  1.00  0.00    -0.027 A 
HETATM    6  C9  UNL     1      -1.879  51.803 -22.227  1.00  0.00     0.011 C 
HETATM    7  C10 UNL     1      -3.290  51.388 -21.762  1.00  0.00     0.011 C 
HETATM    8  C11 UNL     1      -3.998  50.368 -22.675  1.00  0.00    -0.032 C 
HETATM    9  C12 UNL     1      -4.767  51.144 -23.785  1.00  0.00     0.016 C 
HETATM   10  C13 UNL     1      -5.005  49.394 -21.971  1.00  0.00    -0.002 C 
HETATM   11  C22 UNL     1      -5.048  48.183 -22.953  1.00  0.00     0.006 C 
HETATM   12  C23 UNL     1      -3.834  48.304 -23.895  1.00  0.00     0.011 C 
HETATM   13  C24 UNL     1      -2.929  49.360 -23.235  1.00  0.00    -0.032 C 
HETATM   14  C25 UNL     1      -2.145  48.585 -22.114  1.00  0.00     0.016 C 
HETATM   15  C26 UNL     1      -1.770  52.755 -24.597  1.00  0.00     0.022 A 
HETATM   16  C27 UNL     1      -0.388  52.170 -24.458  1.00  0.00    -0.024 A 
ENDROOT
BRANCH  10  17
HETATM   17  C14 UNL     1      -6.435  49.884 -21.581  1.00  0.00    -0.014 C 
HETATM   18  C15 UNL     1      -6.622  49.963 -20.062  1.00  0.00     0.010 C 
BRANCH  17  19
HETATM   19  C16 UNL     1      -7.506  48.942 -22.201  1.00  0.00     0.008 C 
BRANCH  19  20
HETATM   20  C17 UNL     1      -7.945  49.335 -23.616  1.00  0.00     0.028 C 
BRANCH  20  21
HETATM   21  C18 UNL     1      -8.646  48.194 -24.304  1.00  0.00    -0.025 C 
HETATM   22  C19 UNL     1      -8.190  47.458 -25.338  1.00  0.00    -0.091 C 
HETATM   23  C20 UNL     1      -9.015  46.333 -25.902  1.00  0.00     0.042 C 
HETATM   24  C21 UNL     1      -6.876  47.677 -26.035  1.00  0.00     0.042 C 
ENDBRANCH  20  21
ENDBRANCH  19  20
ENDBRANCH  17  19
ENDBRANCH  10  17
BRANCH  16  25
HETATM   25  C28 UNL     1       0.677  52.797 -23.541  1.00  0.00     0.021 C 
BRANCH  25  26
HETATM   26  C29 UNL     1       0.341  53.070 -22.078  1.00  0.00     0.111 C 
BRANCH  26  27
HETATM   27  C30 UNL     1       1.248  54.056 -21.392  1.00  0.00     0.139 C 
HETATM   28  O2  UNL     1       1.484  54.170 -20.203  1.00  0.00    -0.650 OA
BRANCH  27  29
HETATM   29  O3  UNL     1       1.814  54.906 -22.274  1.00  0.00    -0.776 OA
HETATM   30  H48 UNL     1       2.350  55.505 -21.714  1.00  0.00     0.167 HD
ENDBRANCH  27  29
ENDBRANCH  26  27
ENDBRANCH  25  26
ENDBRANCH  16  25
BRANCH   1  31
HETATM   31  C2  UNL     1       1.020  52.106 -26.674  1.00  0.00    -0.061 C 
HETATM   32  C1  UNL     1       2.285  51.712 -26.920  1.00  0.00     0.017 C 
BRANCH  31  33
HETATM   33  C3  UNL     1       0.377  53.290 -27.362  1.00  0.00     0.198 C 
BRANCH  33  34
HETATM   34  O1  UNL     1       0.065  52.994 -28.720  1.00  0.00    -0.397 OA
HETATM   35  H5  UNL     1      -0.253  53.823 -29.107  1.00  0.00     0.209 HD
ENDBRANCH  33  34
ENDBRANCH  31  33
ENDBRANCH   1  31
TORSDOF 11
ENDMDL
MODEL 3
REMARK minimizedAffinity -9.07153988
REMARK  11 active torsions:
REMARK  status: ('A' for Active; 'I' for Inactive)
REMARK    1  A    between atoms: C2_2  and  C3_3 
REMARK    2  A    between atoms: C2_2  and  C4_5 
REMARK    3  A    between atoms: C3_3  and  O1_4 
REMARK    4  A    between atoms: C13_14  and  C14_15 
REMARK    5  A    between atoms: C14_15  and  C16_17 
REMARK    6  A    between atoms: C16_17  and  C17_18 
REMARK    7  A    between atoms: C17_18  and  C18_19 
REMARK    8  A    between atoms: C27_28  and  C28_29 
REMARK    9  A    between atoms: C28_29  and  C29_30 
REMARK   10  A    between atoms: C29_30  and  C30_31 
REMARK   11  A    between atoms: C30_31  and  O3_33 
ROOT
HETATM    1  C4  UNL     1      -3.271  48.849 -26.036  1.00  0.00     0.025 C 
HETATM    2  C5  UNL     1      -4.532  48.429 -25.232  1.00  0.00     0.010 C 
HETATM    3  C6  UNL     1      -4.363  48.295 -23.716  1.00  0.00     0.007 C 
HETATM    4  C7  UNL     1      -2.940  48.562 -23.235  1.00  0.00     0.004 C 
HETATM    5  C8  UNL     1      -2.374  49.891 -23.783  1.00  0.00    -0.027 A 
HETATM    6  C9  UNL     1      -1.195  50.432 -22.977  1.00  0.00     0.011 C 
HETATM    7  C10 UNL     1      -1.478  50.598 -21.470  1.00  0.00     0.011 C 
HETATM    8  C11 UNL     1      -2.671  49.777 -20.941  1.00  0.00    -0.032 C 
HETATM    9  C12 UNL     1      -3.969  50.620 -21.113  1.00  0.00     0.016 C 
HETATM   10  C13 UNL     1      -2.582  49.315 -19.445  1.00  0.00    -0.002 C 
HETATM   11  C22 UNL     1      -3.531  48.078 -19.417  1.00  0.00     0.006 C 
HETATM   12  C23 UNL     1      -3.776  47.645 -20.876  1.00  0.00     0.011 C 
HETATM   13  C24 UNL     1      -2.711  48.397 -21.693  1.00  0.00    -0.032 C 
HETATM   14  C25 UNL     1      -1.395  47.551 -21.528  1.00  0.00     0.016 C 
HETATM   15  C26 UNL     1      -3.175  50.970 -24.502  1.00  0.00     0.022 A 
HETATM   16  C27 UNL     1      -2.430  49.964 -25.342  1.00  0.00    -0.024 A 
ENDROOT
BRANCH  10  17
HETATM   17  C14 UNL     1      -2.891  50.318 -18.290  1.00  0.00    -0.014 C 
HETATM   18  C15 UNL     1      -2.455  51.746 -18.635  1.00  0.00     0.010 C 
BRANCH  17  19
HETATM   19  C16 UNL     1      -2.194  49.850 -16.981  1.00  0.00     0.008 C 
BRANCH  19  20
HETATM   20  C17 UNL     1      -0.752  49.369 -17.173  1.00  0.00     0.028 C 
BRANCH  20  21
HETATM   21  C18 UNL     1       0.199  50.530 -17.290  1.00  0.00    -0.025 C 
HETATM   22  C19 UNL     1       1.022  51.012 -16.338  1.00  0.00    -0.091 C 
HETATM   23  C20 UNL     1       1.930  52.178 -16.626  1.00  0.00     0.042 C 
HETATM   24  C21 UNL     1       1.112  50.486 -14.933  1.00  0.00     0.042 C 
ENDBRANCH  20  21
ENDBRANCH  19  20
ENDBRANCH  17  19
ENDBRANCH  10  17
BRANCH  16  25
HETATM   25  C28 UNL     1      -1.085  50.295 -26.013  1.00  0.00     0.021 C 
BRANCH  25  26
HETATM   26  C29 UNL     1      -0.731  51.751 -26.308  1.00  0.00     0.111 C 
BRANCH  26  27
HETATM   27  C30 UNL     1       0.584  51.953 -27.010  1.00  0.00     0.139 C 
HETATM   28  O2  UNL     1       1.619  52.414 -26.564  1.00  0.00    -0.650 OA
BRANCH  27  29
HETATM   29  O3  UNL     1       0.519  51.578 -28.304  1.00  0.00    -0.776 OA
HETATM   30  H48 UNL     1       1.412  51.780 -28.655  1.00  0.00     0.167 HD
ENDBRANCH  27  29
ENDBRANCH  26  27
ENDBRANCH  25  26
ENDBRANCH  16  25
BRANCH   1  31
HETATM   31  C2  UNL     1      -3.713  49.126 -27.474  1.00  0.00    -0.061 C 
HETATM   32  C1  UNL     1      -4.459  48.220 -28.139  1.00  0.00     0.017 C 
BRANCH  31  33
HETATM   33  C3  UNL     1      -3.277  50.440 -28.083  1.00  0.00     0.198 C 
BRANCH  33  34
HETATM   34  O1  UNL     1      -3.688  50.543 -29.443  1.00  0.00    -0.397 OA
HETATM   35  H5  UNL     1      -3.294  51.363 -29.779  1.00  0.00     0.209 HD
ENDBRANCH  33  34
ENDBRANCH  31  33
ENDBRANCH   1  31
TORSDOF 11
ENDMDL
MODEL 4
REMARK minimizedAffinity -9.02885437
REMARK  11 active torsions:
REMARK  status: ('A' for Active; 'I' for Inactive)
REMARK    1  A    between atoms: C2_2  and  C3_3 
REMARK    2  A    between atoms: C2_2  and  C4_5 
REMARK    3  A    between atoms: C3_3  and  O1_4 
REMARK    4  A    between atoms: C13_14  and  C14_15 
REMARK    5  A    between atoms: C14_15  and  C16_17 
REMARK    6  A    between atoms: C16_17  and  C17_18 
REMARK    7  A    between atoms: C17_18  and  C18_19 
REMARK    8  A    between atoms: C27_28  and  C28_29 
REMARK    9  A    between atoms: C28_29  and  C29_30 
REMARK   10  A    between atoms: C29_30  and  C30_31 
REMARK   11  A    between atoms: C30_31  and  O3_33 
ROOT
HETATM    1  C4  UNL     1       0.084  51.209 -25.326  1.00  0.00     0.025 C 
HETATM    2  C5  UNL     1      -1.044  50.751 -26.290  1.00  0.00     0.010 C 
HETATM    3  C6  UNL     1      -2.251  50.059 -25.651  1.00  0.00     0.007 C 
HETATM    4  C7  UNL     1      -2.127  49.889 -24.140  1.00  0.00     0.004 C 
HETATM    5  C8  UNL     1      -1.751  51.209 -23.430  1.00  0.00    -0.027 A 
HETATM    6  C9  UNL     1      -2.084  51.217 -21.939  1.00  0.00     0.011 C 
HETATM    7  C10 UNL     1      -3.554  50.880 -21.613  1.00  0.00     0.011 C 
HETATM    8  C11 UNL     1      -4.311  50.140 -22.734  1.00  0.00    -0.032 C 
HETATM    9  C12 UNL     1      -4.935  51.198 -23.692  1.00  0.00     0.016 C 
HETATM   10  C13 UNL     1      -5.450  49.167 -22.271  1.00  0.00    -0.002 C 
HETATM   11  C22 UNL     1      -5.562  48.182 -23.475  1.00  0.00     0.006 C 
HETATM   12  C23 UNL     1      -4.292  48.347 -24.333  1.00  0.00     0.011 C 
HETATM   13  C24 UNL     1      -3.322  49.148 -23.447  1.00  0.00    -0.032 C 
HETATM   14  C25 UNL     1      -2.684  48.088 -22.476  1.00  0.00     0.016 C 
HETATM   15  C26 UNL     1      -1.748  52.593 -24.067  1.00  0.00     0.022 A 
HETATM   16  C27 UNL     1      -0.443  51.842 -24.002  1.00  0.00    -0.024 A 
ENDROOT
BRANCH  10  17
HETATM   17  C14 UNL     1      -6.841  49.727 -21.840  1.00  0.00    -0.014 C 
HETATM   18  C15 UNL     1      -6.932  49.938 -20.325  1.00  0.00     0.010 C 
BRANCH  17  19
HETATM   19  C16 UNL     1      -7.970  48.769 -22.313  1.00  0.00     0.008 C 
BRANCH  19  20
HETATM   20  C17 UNL     1      -8.509  47.843 -21.218  1.00  0.00     0.028 C 
BRANCH  20  21
HETATM   21  C18 UNL     1      -7.703  46.575 -21.131  1.00  0.00    -0.025 C 
HETATM   22  C19 UNL     1      -7.661  45.569 -22.028  1.00  0.00    -0.091 C 
HETATM   23  C20 UNL     1      -6.782  44.370 -21.797  1.00  0.00     0.042 C 
HETATM   24  C21 UNL     1      -8.466  45.514 -23.297  1.00  0.00     0.042 C 
ENDBRANCH  20  21
ENDBRANCH  19  20
ENDBRANCH  17  19
ENDBRANCH  10  17
BRANCH  16  25
HETATM   25  C28 UNL     1       0.629  52.157 -22.943  1.00  0.00     0.021 C 
BRANCH  25  26
HETATM   26  C29 UNL     1       0.264  53.021 -21.740  1.00  0.00     0.111 C 
BRANCH  26  27
HETATM   27  C30 UNL     1       1.292  54.055 -21.368  1.00  0.00     0.139 C 
HETATM   28  O2  UNL     1       1.972  54.747 -22.103  1.00  0.00    -0.650 OA
BRANCH  27  29
HETATM   29  O3  UNL     1       1.441  54.149 -20.030  1.00  0.00    -0.776 OA
HETATM   30  H48 UNL     1       2.144  54.822 -19.916  1.00  0.00     0.167 HD
ENDBRANCH  27  29
ENDBRANCH  26  27
ENDBRANCH  25  26
ENDBRANCH  16  25
BRANCH   1  31
HETATM   31  C2  UNL     1       1.069  52.053 -26.138  1.00  0.00    -0.061 C 
HETATM   32  C1  UNL     1       0.662  53.203 -26.711  1.00  0.00     0.017 C 
BRANCH  31  33
HETATM   33  C3  UNL     1       2.485  51.532 -26.250  1.00  0.00     0.198 C 
BRANCH  33  34
HETATM   34  O1  UNL     1       3.159  52.100 -27.368  1.00  0.00    -0.397 OA
HETATM   35  H5  UNL     1       4.016  51.650 -27.420  1.00  0.00     0.209 HD
ENDBRANCH  33  34
ENDBRANCH  31  33
ENDBRANCH   1  31
TORSDOF 11
ENDMDL
MODEL 5
REMARK minimizedAffinity -8.65959549
REMARK  11 active torsions:
REMARK  status: ('A' for Active; 'I' for Inactive)
REMARK    1  A    between atoms: C2_2  and  C3_3 
REMARK    2  A    between atoms: C2_2  and  C4_5 
REMARK    3  A    between atoms: C3_3  and  O1_4 
REMARK    4  A    between atoms: C13_14  and  C14_15 
REMARK    5  A    between atoms: C14_15  and  C16_17 
REMARK    6  A    between atoms: C16_17  and  C17_18 
REMARK    7  A    between atoms: C17_18  and  C18_19 
REMARK    8  A    between atoms: C27_28  and  C28_29 
REMARK    9  A    between atoms: C28_29  and  C29_30 
REMARK   10  A    between atoms: C29_30  and  C30_31 
REMARK   11  A    between atoms: C30_31  and  O3_33 
ROOT
HETATM    1  C4  UNL     1      -2.538  50.534 -18.134  1.00  0.00     0.025 C 
HETATM    2  C5  UNL     1      -3.766  49.664 -18.518  1.00  0.00     0.010 C 
HETATM    3  C6  UNL     1      -4.277  49.799 -19.955  1.00  0.00     0.007 C 
HETATM    4  C7  UNL     1      -3.505  50.822 -20.783  1.00  0.00     0.004 C 
HETATM    5  C8  UNL     1      -1.977  50.604 -20.711  1.00  0.00    -0.027 A 
HETATM    6  C9  UNL     1      -1.212  51.258 -21.860  1.00  0.00     0.011 C 
HETATM    7  C10 UNL     1      -1.705  50.852 -23.265  1.00  0.00     0.011 C 
HETATM    8  C11 UNL     1      -3.132  50.270 -23.306  1.00  0.00    -0.032 C 
HETATM    9  C12 UNL     1      -3.048  48.733 -23.068  1.00  0.00     0.016 C 
HETATM   10  C13 UNL     1      -3.940  50.518 -24.627  1.00  0.00    -0.002 C 
HETATM   11  C22 UNL     1      -5.419  50.393 -24.146  1.00  0.00     0.006 C 
HETATM   12  C23 UNL     1      -5.420  50.497 -22.608  1.00  0.00     0.011 C 
HETATM   13  C24 UNL     1      -4.019  51.025 -22.250  1.00  0.00    -0.032 C 
HETATM   14  C25 UNL     1      -4.094  52.578 -22.484  1.00  0.00     0.016 C 
HETATM   15  C26 UNL     1      -1.279  49.385 -20.121  1.00  0.00     0.022 A 
HETATM   16  C27 UNL     1      -1.445  50.599 -19.243  1.00  0.00    -0.024 A 
ENDROOT
BRANCH  10  17
HETATM   17  C14 UNL     1      -3.661  49.656 -25.897  1.00  0.00    -0.014 C 
HETATM   18  C15 UNL     1      -4.334  48.281 -25.818  1.00  0.00     0.010 C 
BRANCH  17  19
HETATM   19  C16 UNL     1      -2.129  49.487 -26.098  1.00  0.00     0.008 C 
BRANCH  19  20
HETATM   20  C17 UNL     1      -1.452  50.674 -26.793  1.00  0.00     0.028 C 
BRANCH  20  21
HETATM   21  C18 UNL     1      -0.029  50.836 -26.330  1.00  0.00    -0.025 C 
HETATM   22  C19 UNL     1       1.009  51.332 -27.033  1.00  0.00    -0.091 C 
HETATM   23  C20 UNL     1       2.375  51.445 -26.411  1.00  0.00     0.042 C 
HETATM   24  C21 UNL     1       0.938  51.789 -28.464  1.00  0.00     0.042 C 
ENDBRANCH  20  21
ENDBRANCH  19  20
ENDBRANCH  17  19
ENDBRANCH  10  17
BRANCH  16  25
HETATM   25  C28 UNL     1      -0.289  51.581 -18.980  1.00  0.00     0.021 C 
BRANCH  25  26
HETATM   26  C29 UNL     1      -0.142  52.819 -19.861  1.00  0.00     0.111 C 
BRANCH  26  27
HETATM   27  C30 UNL     1       1.154  53.565 -19.693  1.00  0.00     0.139 C 
HETATM   28  O2  UNL     1       1.717  54.295 -20.488  1.00  0.00    -0.650 OA
BRANCH  27  29
HETATM   29  O3  UNL     1       1.716  53.320 -18.491  1.00  0.00    -0.776 OA
HETATM   30  H48 UNL     1       2.553  53.831 -18.513  1.00  0.00     0.167 HD
ENDBRANCH  27  29
ENDBRANCH  26  27
ENDBRANCH  25  26
ENDBRANCH  16  25
BRANCH   1  31
HETATM   31  C2  UNL     1      -2.074  50.088 -16.746  1.00  0.00    -0.061 C 
HETATM   32  C1  UNL     1      -2.584  50.671 -15.642  1.00  0.00     0.017 C 
BRANCH  31  33
HETATM   33  C3  UNL     1      -1.042  48.983 -16.692  1.00  0.00     0.198 C 
BRANCH  33  34
HETATM   34  O1  UNL     1      -1.656  47.706 -16.550  1.00  0.00    -0.397 OA
HETATM   35  H5  UNL     1      -0.932  47.074 -16.432  1.00  0.00     0.209 HD
ENDBRANCH  33  34
ENDBRANCH  31  33
ENDBRANCH   1  31
TORSDOF 11
ENDMDL
MODEL 6
REMARK minimizedAffinity -8.60627747
REMARK  11 active torsions:
REMARK  status: ('A' for Active; 'I' for Inactive)
REMARK    1  A    between atoms: C2_2  and  C3_3 
REMARK    2  A    between atoms: C2_2  and  C4_5 
REMARK    3  A    between atoms: C3_3  and  O1_4 
REMARK    4  A    between atoms: C13_14  and  C14_15 
REMARK    5  A    between atoms: C14_15  and  C16_17 
REMARK    6  A    between atoms: C16_17  and  C17_18 
REMARK    7  A    between atoms: C17_18  and  C18_19 
REMARK    8  A    between atoms: C27_28  and  C28_29 
REMARK    9  A    between atoms: C28_29  and  C29_30 
REMARK   10  A    between atoms: C29_30  and  C30_31 
REMARK   11  A    between atoms: C30_31  and  O3_33 
ROOT
HETATM    1  C4  UNL     1      -3.845  48.393 -24.825  1.00  0.00     0.025 C 
HETATM    2  C5  UNL     1      -4.722  48.205 -23.557  1.00  0.00     0.010 C 
HETATM    3  C6  UNL     1      -4.035  48.441 -22.209  1.00  0.00     0.007 C 
HETATM    4  C7  UNL     1      -2.554  48.789 -22.332  1.00  0.00     0.004 C 
HETATM    5  C8  UNL     1      -2.302  49.933 -23.339  1.00  0.00    -0.027 A 
HETATM    6  C9  UNL     1      -0.957  50.631 -23.146  1.00  0.00     0.011 C 
HETATM    7  C10 UNL     1      -0.715  51.164 -21.719  1.00  0.00     0.011 C 
HETATM    8  C11 UNL     1      -1.596  50.519 -20.630  1.00  0.00    -0.032 C 
HETATM    9  C12 UNL     1      -2.927  51.320 -20.530  1.00  0.00     0.016 C 
HETATM   10  C13 UNL     1      -0.967  50.433 -19.196  1.00  0.00    -0.002 C 
HETATM   11  C22 UNL     1      -1.763  49.257 -18.549  1.00  0.00     0.006 C 
HETATM   12  C23 UNL     1      -2.465  48.488 -19.685  1.00  0.00     0.011 C 
HETATM   13  C24 UNL     1      -1.798  48.999 -20.975  1.00  0.00    -0.032 C 
HETATM   14  C25 UNL     1      -0.452  48.193 -21.087  1.00  0.00     0.016 C 
HETATM   15  C26 UNL     1      -3.371  50.820 -23.964  1.00  0.00     0.022 A 
HETATM   16  C27 UNL     1      -2.894  49.627 -24.751  1.00  0.00    -0.024 A 
ENDROOT
BRANCH  10  17
HETATM   17  C14 UNL     1      -0.927  51.691 -18.274  1.00  0.00    -0.014 C 
HETATM   18  C15 UNL     1       0.124  52.708 -18.734  1.00  0.00     0.010 C 
BRANCH  17  19
HETATM   19  C16 UNL     1      -0.648  51.265 -16.806  1.00  0.00     0.008 C 
BRANCH  19  20
HETATM   20  C17 UNL     1       0.749  50.681 -16.575  1.00  0.00     0.028 C 
BRANCH  20  21
HETATM   21  C18 UNL     1       1.804  51.753 -16.634  1.00  0.00    -0.025 C 
HETATM   22  C19 UNL     1       2.835  51.933 -15.784  1.00  0.00    -0.091 C 
HETATM   23  C20 UNL     1       3.820  53.052 -15.997  1.00  0.00     0.042 C 
HETATM   24  C21 UNL     1       3.102  51.094 -14.565  1.00  0.00     0.042 C 
ENDBRANCH  20  21
ENDBRANCH  19  20
ENDBRANCH  17  19
ENDBRANCH  10  17
BRANCH  16  25
HETATM   25  C28 UNL     1      -1.887  49.759 -25.907  1.00  0.00     0.021 C 
BRANCH  25  26
HETATM   26  C29 UNL     1      -1.317  51.132 -26.252  1.00  0.00     0.111 C 
BRANCH  26  27
HETATM   27  C30 UNL     1      -2.123  51.921 -27.248  1.00  0.00     0.139 C 
HETATM   28  O2  UNL     1      -2.298  53.125 -27.299  1.00  0.00    -0.650 OA
BRANCH  27  29
HETATM   29  O3  UNL     1      -2.721  51.117 -28.151  1.00  0.00    -0.776 OA
HETATM   30  H48 UNL     1      -3.230  51.734 -28.718  1.00  0.00     0.167 HD
ENDBRANCH  27  29
ENDBRANCH  26  27
ENDBRANCH  25  26
ENDBRANCH  16  25
BRANCH   1  31
HETATM   31  C2  UNL     1      -4.772  48.321 -26.040  1.00  0.00    -0.061 C 
HETATM   32  C1  UNL     1      -4.264  48.420 -27.285  1.00  0.00     0.017 C 
BRANCH  31  33
HETATM   33  C3  UNL     1      -6.248  48.134 -25.765  1.00  0.00     0.198 C 
BRANCH  33  34
HETATM   34  O1  UNL     1      -6.995  48.053 -26.975  1.00  0.00    -0.397 OA
HETATM   35  H5  UNL     1      -7.927  48.027 -26.711  1.00  0.00     0.209 HD
ENDBRANCH  33  34
ENDBRANCH  31  33
ENDBRANCH   1  31
TORSDOF 11
ENDMDL
MODEL 7
REMARK minimizedAffinity -8.53189373
REMARK  11 active torsions:
REMARK  status: ('A' for Active; 'I' for Inactive)
REMARK    1  A    between atoms: C2_2  and  C3_3 
REMARK    2  A    between atoms: C2_2  and  C4_5 
REMARK    3  A    between atoms: C3_3  and  O1_4 
REMARK    4  A    between atoms: C13_14  and  C14_15 
REMARK    5  A    between atoms: C14_15  and  C16_17 
REMARK    6  A    between atoms: C16_17  and  C17_18 
REMARK    7  A    between atoms: C17_18  and  C18_19 
REMARK    8  A    between atoms: C27_28  and  C28_29 
REMARK    9  A    between atoms: C28_29  and  C29_30 
REMARK   10  A    between atoms: C29_30  and  C30_31 
REMARK   11  A    between atoms: C30_31  and  O3_33 
ROOT
HETATM    1  C4  UNL     1      -1.073  51.496 -19.212  1.00  0.00     0.025 C 
HETATM    2  C5  UNL     1      -2.034  50.309 -18.931  1.00  0.00     0.010 C 
HETATM    3  C6  UNL     1      -3.041  49.969 -20.033  1.00  0.00     0.007 C 
HETATM    4  C7  UNL     1      -2.964  50.901 -21.239  1.00  0.00     0.004 C 
HETATM    5  C8  UNL     1      -1.522  51.050 -21.774  1.00  0.00    -0.027 A 
HETATM    6  C9  UNL     1      -1.454  51.552 -23.215  1.00  0.00     0.011 C 
HETATM    7  C10 UNL     1      -2.271  50.714 -24.220  1.00  0.00     0.011 C 
HETATM    8  C11 UNL     1      -3.372  49.840 -23.587  1.00  0.00    -0.032 C 
HETATM    9  C12 UNL     1      -2.751  48.467 -23.195  1.00  0.00     0.016 C 
HETATM   10  C13 UNL     1      -4.634  49.569 -24.478  1.00  0.00    -0.002 C 
HETATM   11  C22 UNL     1      -5.731  49.243 -23.418  1.00  0.00     0.006 C 
HETATM   12  C23 UNL     1      -5.212  49.721 -22.047  1.00  0.00     0.011 C 
HETATM   13  C24 UNL     1      -4.004  50.616 -22.376  1.00  0.00    -0.032 C 
HETATM   14  C25 UNL     1      -4.622  52.008 -22.771  1.00  0.00     0.016 C 
HETATM   15  C26 UNL     1      -0.327  50.200 -21.361  1.00  0.00     0.022 A 
HETATM   16  C27 UNL     1      -0.523  51.525 -20.671  1.00  0.00    -0.024 A 
ENDROOT
BRANCH  10  17
HETATM   17  C14 UNL     1      -4.584  48.503 -25.617  1.00  0.00    -0.014 C 
HETATM   18  C15 UNL     1      -3.918  49.048 -26.885  1.00  0.00     0.010 C 
BRANCH  17  19
HETATM   19  C16 UNL     1      -6.020  48.005 -25.942  1.00  0.00     0.008 C 
BRANCH  19  20
HETATM   20  C17 UNL     1      -6.159  47.340 -27.315  1.00  0.00     0.028 C 
BRANCH  20  21
HETATM   21  C18 UNL     1      -7.399  47.811 -28.026  1.00  0.00    -0.025 C 
HETATM   22  C19 UNL     1      -7.512  48.176 -29.319  1.00  0.00    -0.091 C 
HETATM   23  C20 UNL     1      -8.840  48.609 -29.881  1.00  0.00     0.042 C 
HETATM   24  C21 UNL     1      -6.377  48.217 -30.304  1.00  0.00     0.042 C 
ENDBRANCH  20  21
ENDBRANCH  19  20
ENDBRANCH  17  19
ENDBRANCH  10  17
BRANCH  16  25
HETATM   25  C28 UNL     1       0.296  52.772 -21.048  1.00  0.00     0.021 C 
BRANCH  25  26
HETATM   26  C29 UNL     1       1.082  52.787 -22.356  1.00  0.00     0.111 C 
BRANCH  26  27
HETATM   27  C30 UNL     1       1.412  54.158 -22.881  1.00  0.00     0.139 C 
HETATM   28  O2  UNL     1       1.329  54.573 -24.022  1.00  0.00    -0.650 OA
BRANCH  27  29
HETATM   29  O3  UNL     1       1.879  54.965 -21.905  1.00  0.00    -0.776 OA
HETATM   30  H48 UNL     1       2.081  55.805 -22.368  1.00  0.00     0.167 HD
ENDBRANCH  27  29
ENDBRANCH  26  27
ENDBRANCH  25  26
ENDBRANCH  16  25
BRANCH   1  31
HETATM   31  C2  UNL     1      -0.031  51.520 -18.092  1.00  0.00    -0.061 C 
HETATM   32  C1  UNL     1       0.157  50.431 -17.320  1.00  0.00     0.017 C 
BRANCH  31  33
HETATM   33  C3  UNL     1       0.753  52.801 -17.913  1.00  0.00     0.198 C 
BRANCH  33  34
HETATM   34  O1  UNL     1       1.134  52.991 -16.554  1.00  0.00    -0.397 OA
HETATM   35  H5  UNL     1       1.545  53.868 -16.513  1.00  0.00     0.209 HD
ENDBRANCH  33  34
ENDBRANCH  31  33
ENDBRANCH   1  31
TORSDOF 11
ENDMDL
MODEL 8
REMARK minimizedAffinity -8.44459057
REMARK  11 active torsions:
REMARK  status: ('A' for Active; 'I' for Inactive)
REMARK    1  A    between atoms: C2_2  and  C3_3 
REMARK    2  A    between atoms: C2_2  and  C4_5 
REMARK    3  A    between atoms: C3_3  and  O1_4 
REMARK    4  A    between atoms: C13_14  and  C14_15 
REMARK    5  A    between atoms: C14_15  and  C16_17 
REMARK    6  A    between atoms: C16_17  and  C17_18 
REMARK    7  A    between atoms: C17_18  and  C18_19 
REMARK    8  A    between atoms: C27_28  and  C28_29 
REMARK    9  A    between atoms: C28_29  and  C29_30 
REMARK   10  A    between atoms: C29_30  and  C30_31 
REMARK   11  A    between atoms: C30_31  and  O3_33 
ROOT
HETATM    1  C4  UNL     1      -0.235  51.277 -25.857  1.00  0.00     0.025 C 
HETATM    2  C5  UNL     1      -1.434  50.823 -26.735  1.00  0.00     0.010 C 
HETATM    3  C6  UNL     1      -2.576  50.103 -26.012  1.00  0.00     0.007 C 
HETATM    4  C7  UNL     1      -2.327  49.908 -24.520  1.00  0.00     0.004 C 
HETATM    5  C8  UNL     1      -1.908  51.219 -23.818  1.00  0.00    -0.027 A 
HETATM    6  C9  UNL     1      -2.117  51.196 -22.305  1.00  0.00     0.011 C 
HETATM    7  C10 UNL     1      -3.552  50.834 -21.866  1.00  0.00     0.011 C 
HETATM    8  C11 UNL     1      -4.390  50.106 -22.935  1.00  0.00    -0.032 C 
HETATM    9  C12 UNL     1      -5.102  51.172 -23.819  1.00  0.00     0.016 C 
HETATM   10  C13 UNL     1      -5.476  49.110 -22.399  1.00  0.00    -0.002 C 
HETATM   11  C22 UNL     1      -5.676  48.146 -23.609  1.00  0.00     0.006 C 
HETATM   12  C23 UNL     1      -4.483  48.343 -24.565  1.00  0.00     0.011 C 
HETATM   13  C24 UNL     1      -3.452  49.139 -23.746  1.00  0.00    -0.032 C 
HETATM   14  C25 UNL     1      -2.725  48.070 -22.851  1.00  0.00     0.016 C 
HETATM   15  C26 UNL     1      -1.973  52.614 -24.426  1.00  0.00     0.022 A 
HETATM   16  C27 UNL     1      -0.659  51.879 -24.483  1.00  0.00    -0.024 A 
ENDROOT
BRANCH  10  17
HETATM   17  C14 UNL     1      -6.834  49.645 -21.845  1.00  0.00    -0.014 C 
HETATM   18  C15 UNL     1      -6.669  50.333 -20.486  1.00  0.00     0.010 C 
BRANCH  17  19
HETATM   19  C16 UNL     1      -7.857  48.480 -21.732  1.00  0.00     0.008 C 
BRANCH  19  20
HETATM   20  C17 UNL     1      -7.247  47.149 -21.279  1.00  0.00     0.028 C 
BRANCH  20  21
HETATM   21  C18 UNL     1      -7.303  47.006 -19.782  1.00  0.00    -0.025 C 
HETATM   22  C19 UNL     1      -6.265  47.003 -18.921  1.00  0.00    -0.091 C 
HETATM   23  C20 UNL     1      -6.496  46.867 -17.440  1.00  0.00     0.042 C 
HETATM   24  C21 UNL     1      -4.819  47.107 -19.318  1.00  0.00     0.042 C 
ENDBRANCH  20  21
ENDBRANCH  19  20
ENDBRANCH  17  19
ENDBRANCH  10  17
BRANCH  16  25
HETATM   25  C28 UNL     1       0.493  52.188 -23.509  1.00  0.00     0.021 C 
BRANCH  25  26
HETATM   26  C29 UNL     1       0.919  53.636 -23.286  1.00  0.00     0.111 C 
BRANCH  26  27
HETATM   27  C30 UNL     1       1.207  53.997 -21.854  1.00  0.00     0.139 C 
HETATM   28  O2  UNL     1       0.728  53.523 -20.840  1.00  0.00    -0.650 OA
BRANCH  27  29
HETATM   29  O3  UNL     1       2.102  55.003 -21.766  1.00  0.00    -0.776 OA
HETATM   30  H48 UNL     1       2.185  55.163 -20.802  1.00  0.00     0.167 HD
ENDBRANCH  27  29
ENDBRANCH  26  27
ENDBRANCH  25  26
ENDBRANCH  16  25
BRANCH   1  31
HETATM   31  C2  UNL     1       0.671  52.148 -26.731  1.00  0.00    -0.061 C 
HETATM   32  C1  UNL     1       1.974  51.834 -26.876  1.00  0.00     0.017 C 
BRANCH  31  33
HETATM   33  C3  UNL     1       0.031  53.343 -27.402  1.00  0.00     0.198 C 
BRANCH  33  34
HETATM   34  O1  UNL     1       0.148  54.513 -26.599  1.00  0.00    -0.397 OA
HETATM   35  H5  UNL     1      -0.362  55.200 -27.054  1.00  0.00     0.209 HD
ENDBRANCH  33  34
ENDBRANCH  31  33
ENDBRANCH   1  31
TORSDOF 11
ENDMDL
MODEL 9
REMARK minimizedAffinity -8.42931938
REMARK  11 active torsions:
REMARK  status: ('A' for Active; 'I' for Inactive)
REMARK    1  A    between atoms: C2_2  and  C3_3 
REMARK    2  A    between atoms: C2_2  and  C4_5 
REMARK    3  A    between atoms: C3_3  and  O1_4 
REMARK    4  A    between atoms: C13_14  and  C14_15 
REMARK    5  A    between atoms: C14_15  and  C16_17 
REMARK    6  A    between atoms: C16_17  and  C17_18 
REMARK    7  A    between atoms: C17_18  and  C18_19 
REMARK    8  A    between atoms: C27_28  and  C28_29 
REMARK    9  A    between atoms: C28_29  and  C29_30 
REMARK   10  A    between atoms: C29_30  and  C30_31 
REMARK   11  A    between atoms: C30_31  and  O3_33 
ROOT
HETATM    1  C4  UNL     1      -5.748  47.824 -24.603  1.00  0.00     0.025 C 
HETATM    2  C5  UNL     1      -6.408  47.714 -23.202  1.00  0.00     0.010 C 
HETATM    3  C6  UNL     1      -5.474  47.837 -21.994  1.00  0.00     0.007 C 
HETATM    4  C7  UNL     1      -4.007  48.009 -22.374  1.00  0.00     0.004 C 
HETATM    5  C8  UNL     1      -3.796  49.137 -23.408  1.00  0.00    -0.027 A 
HETATM    6  C9  UNL     1      -2.363  49.665 -23.453  1.00  0.00     0.011 C 
HETATM    7  C10 UNL     1      -1.815  50.134 -22.089  1.00  0.00     0.011 C 
HETATM    8  C11 UNL     1      -2.566  49.575 -20.864  1.00  0.00    -0.032 C 
HETATM    9  C12 UNL     1      -3.753  50.527 -20.533  1.00  0.00     0.016 C 
HETATM   10  C13 UNL     1      -1.714  49.383 -19.562  1.00  0.00    -0.002 C 
HETATM   11  C22 UNL     1      -2.522  48.298 -18.787  1.00  0.00     0.006 C 
HETATM   12  C23 UNL     1      -3.498  47.642 -19.784  1.00  0.00     0.011 C 
HETATM   13  C24 UNL     1      -3.007  48.098 -21.170  1.00  0.00    -0.032 C 
HETATM   14  C25 UNL     1      -1.809  47.140 -21.515  1.00  0.00     0.016 C 
HETATM   15  C26 UNL     1      -4.842  50.158 -23.837  1.00  0.00     0.022 A 
HETATM   16  C27 UNL     1      -4.656  48.934 -24.696  1.00  0.00    -0.024 A 
ENDROOT
BRANCH  10  17
HETATM   17  C14 UNL     1      -1.363  50.608 -18.660  1.00  0.00    -0.014 C 
HETATM   18  C15 UNL     1      -2.476  50.920 -17.655  1.00  0.00     0.010 C 
BRANCH  17  19
HETATM   19  C16 UNL     1      -1.080  51.855 -19.545  1.00  0.00     0.008 C 
BRANCH  19  20
HETATM   20  C17 UNL     1      -0.019  52.803 -18.975  1.00  0.00     0.028 C 
BRANCH  20  21
HETATM   21  C18 UNL     1       0.464  53.771 -20.021  1.00  0.00    -0.025 C 
HETATM   22  C19 UNL     1       1.006  53.477 -21.220  1.00  0.00    -0.091 C 
HETATM   23  C20 UNL     1       1.424  54.573 -22.164  1.00  0.00     0.042 C 
HETATM   24  C21 UNL     1       1.269  52.086 -21.727  1.00  0.00     0.042 C 
ENDBRANCH  20  21
ENDBRANCH  19  20
ENDBRANCH  17  19
ENDBRANCH  10  17
BRANCH  16  25
HETATM   25  C28 UNL     1      -3.856  48.970 -26.010  1.00  0.00     0.021 C 
BRANCH  25  26
HETATM   26  C29 UNL     1      -3.302  50.300 -26.514  1.00  0.00     0.111 C 
BRANCH  26  27
HETATM   27  C30 UNL     1      -3.371  50.490 -28.005  1.00  0.00     0.139 C 
HETATM   28  O2  UNL     1      -3.653  49.673 -28.862  1.00  0.00    -0.650 OA
BRANCH  27  29
HETATM   29  O3  UNL     1      -3.036  51.748 -28.361  1.00  0.00    -0.776 OA
HETATM   30  H48 UNL     1      -3.091  51.740 -29.340  1.00  0.00     0.167 HD
ENDBRANCH  27  29
ENDBRANCH  26  27
ENDBRANCH  25  26
ENDBRANCH  16  25
BRANCH   1  31
HETATM   31  C2  UNL     1      -6.873  47.889 -25.638  1.00  0.00    -0.061 C 
HETATM   32  C1  UNL     1      -6.624  47.586 -26.928  1.00  0.00     0.017 C 
BRANCH  31  33
HETATM   33  C3  UNL     1      -8.241  48.299 -25.138  1.00  0.00     0.198 C 
BRANCH  33  34
HETATM   34  O1  UNL     1      -8.369  49.716 -25.083  1.00  0.00    -0.397 OA
HETATM   35  H5  UNL     1      -9.229  49.890 -24.670  1.00  0.00     0.209 HD
ENDBRANCH  33  34
ENDBRANCH  31  33
ENDBRANCH   1  31
TORSDOF 11
ENDMDL
