MODEL 1
REMARK minimizedAffinity -7.37067986
REMARK CNNscore 0.679316938
REMARK CNNaffinity 6.45263529
REMARK  9 active torsions:
REMARK  status: ('A' for Active; 'I' for Inactive)
REMARK    1  A    between atoms: C2_2  and  C32_37 
REMARK    2  A    between atoms: C3_3  and  C4_4 
REMARK    3  A    between atoms: C4_4  and  O1_5 
REMARK    4  A    between atoms: C4_4  and  C5_6 
REMARK    5  A    between atoms: C5_6  and  C6_7 
REMARK    6  A    between atoms: C6_7  and  C8_9 
REMARK    7  A    between atoms: C29_32  and  O4_33 
REMARK    8  A    between atoms: C30_34  and  O5_35 
REMARK    9  A    between atoms: C32_37  and  O7_39 
ROOT
HETATM    1  C8  UNL     1      -2.521   9.411  15.732  1.00  0.00    -0.026 C 
HETATM    2  C9  UNL     1      -2.559   8.035  16.504  1.00  0.00     0.011 C 
HETATM    3  C10 UNL     1      -2.544   6.797  15.626  1.00  0.00     0.002 C 
HETATM    4  C11 UNL     1      -1.555   6.918  14.484  1.00  0.00     0.017 C 
HETATM    5  C12 UNL     1      -1.520   8.328  13.815  1.00  0.00     0.021 C 
HETATM    6  C13 UNL     1      -0.408   8.249  12.769  1.00  0.00    -0.029 C 
HETATM    7  C14 UNL     1       0.888   8.528  13.067  1.00  0.00     0.002 C 
HETATM    8  C15 UNL     1       1.230   8.888  14.505  1.00  0.00     0.157 C 
HETATM    9  O2  UNL     1       2.395   8.878  14.904  1.00  0.00    -0.293 OA
HETATM   10  C16 UNL     1       0.126   9.210  15.508  1.00  0.00     0.094 C 
HETATM   11  C17 UNL     1      -1.215   9.489  14.830  1.00  0.00    -0.015 C 
HETATM   12  C18 UNL     1      -1.081  10.861  14.069  1.00  0.00     0.018 C 
HETATM   13  C19 UNL     1       2.034   8.317  12.036  1.00  0.00    -0.008 C 
HETATM   14  C20 UNL     1       3.150   9.385  12.216  1.00  0.00     0.021 C 
HETATM   15  C21 UNL     1       2.598   6.914  12.374  1.00  0.00     0.022 C 
HETATM   16  C22 UNL     1       3.582   6.380  11.367  1.00  0.00     0.080 C 
HETATM   17  C23 UNL     1       2.876   6.224  10.052  1.00  0.00     0.135 C 
HETATM   18  O3  UNL     1       2.936   5.153   9.450  1.00  0.00    -0.297 OA
HETATM   19  C24 UNL     1       2.249   7.481   9.439  1.00  0.00     0.018 C 
HETATM   20  C25 UNL     1       1.314   7.028   8.295  1.00  0.00     0.023 C 
HETATM   21  C26 UNL     1       3.422   8.224   8.750  1.00  0.00     0.023 C 
HETATM   22  C27 UNL     1       1.554   8.440  10.507  1.00  0.00     0.016 C 
HETATM   23  C28 UNL     1       0.019   8.609  10.379  1.00  0.00     0.043 C 
HETATM   24  C29 UNL     1      -0.782   7.803  11.383  1.00  0.00     0.149 C 
HETATM   25  C30 UNL     1      -2.950   8.758  13.358  1.00  0.00     0.132 C 
HETATM   26  C31 UNL     1      -3.624   9.362  14.620  1.00  0.00     0.043 C 
ENDROOT
BRANCH   1  27
HETATM   27  C6  UNL     1      -2.797  10.501  16.859  1.00  0.00    -0.006 C 
HETATM   28  C7  UNL     1      -2.627   9.904  18.273  1.00  0.00     0.011 C 
BRANCH  27  29
HETATM   29  C5  UNL     1      -4.102  11.325  16.766  1.00  0.00     0.040 C 
BRANCH  29  30
HETATM   30  C4  UNL     1      -3.909  12.847  16.597  1.00  0.00     0.142 C 
BRANCH  30  31
HETATM   31  C3  UNL     1      -4.992  13.616  17.309  1.00  0.00     0.018 C 
HETATM   32  C2  UNL     1      -5.303  13.643  18.624  1.00  0.00     0.010 C 
HETATM   33  C1  UNL     1      -4.648  12.819  19.694  1.00  0.00     0.055 C 
BRANCH  32  34
HETATM   34  C32 UNL     1      -6.397  14.520  19.122  1.00  0.00     0.171 C 
HETATM   35  O6  UNL     1      -7.454  14.723  18.553  1.00  0.00    -0.646 OA
BRANCH  34  36
HETATM   36  O7  UNL     1      -6.121  15.132  20.288  1.00  0.00    -0.773 OA
HETATM   37  H46 UNL     1      -6.919  15.675  20.456  1.00  0.00     0.167 HD
ENDBRANCH  34  36
ENDBRANCH  32  34
ENDBRANCH  30  31
BRANCH  30  38
HETATM   38  O1  UNL     1      -2.636  13.246  17.077  1.00  0.00    -0.392 OA
HETATM   39  H6  UNL     1      -2.495  14.154  16.750  1.00  0.00     0.210 HD
ENDBRANCH  30  38
ENDBRANCH  29  30
ENDBRANCH  27  29
ENDBRANCH   1  27
BRANCH  25  40
HETATM   40  O5  UNL     1      -3.710   7.681  12.833  1.00  0.00    -0.394 OA
HETATM   41  H43 UNL     1      -4.582   8.038  12.581  1.00  0.00     0.210 HD
ENDBRANCH  25  40
BRANCH  24  42
HETATM   42  O4  UNL     1      -0.490   6.427  11.235  1.00  0.00    -0.391 OA
HETATM   43  H41 UNL     1      -1.209   5.936  11.672  1.00  0.00     0.210 HD
ENDBRANCH  24  42
TORSDOF 9
ENDMDL
MODEL 2
REMARK minimizedAffinity -7.68947411
REMARK CNNscore 0.638234615
REMARK CNNaffinity 5.73736048
REMARK  9 active torsions:
REMARK  status: ('A' for Active; 'I' for Inactive)
REMARK    1  A    between atoms: C2_2  and  C32_37 
REMARK    2  A    between atoms: C3_3  and  C4_4 
REMARK    3  A    between atoms: C4_4  and  O1_5 
REMARK    4  A    between atoms: C4_4  and  C5_6 
REMARK    5  A    between atoms: C5_6  and  C6_7 
REMARK    6  A    between atoms: C6_7  and  C8_9 
REMARK    7  A    between atoms: C29_32  and  O4_33 
REMARK    8  A    between atoms: C30_34  and  O5_35 
REMARK    9  A    between atoms: C32_37  and  O7_39 
ROOT
HETATM    1  C8  UNL     1     -17.734   1.520  13.981  1.00  0.00    -0.026 C 
HETATM    2  C9  UNL     1     -16.549   2.389  14.554  1.00  0.00     0.011 C 
HETATM    3  C10 UNL     1     -15.816   1.788  15.740  1.00  0.00     0.002 C 
HETATM    4  C11 UNL     1     -15.557   0.306  15.559  1.00  0.00     0.017 C 
HETATM    5  C12 UNL     1     -16.746  -0.478  14.920  1.00  0.00     0.021 C 
HETATM    6  C13 UNL     1     -16.238  -1.910  14.750  1.00  0.00    -0.029 C 
HETATM    7  C14 UNL     1     -15.572  -2.316  13.637  1.00  0.00     0.002 C 
HETATM    8  C15 UNL     1     -15.296  -1.285  12.553  1.00  0.00     0.157 C 
HETATM    9  O2  UNL     1     -14.472  -1.502  11.664  1.00  0.00    -0.293 OA
HETATM   10  C16 UNL     1     -15.991   0.073  12.578  1.00  0.00     0.094 C 
HETATM   11  C17 UNL     1     -17.190   0.098  13.526  1.00  0.00    -0.015 C 
HETATM   12  C18 UNL     1     -18.310  -0.809  12.890  1.00  0.00     0.018 C 
HETATM   13  C19 UNL     1     -14.941  -3.734  13.526  1.00  0.00    -0.008 C 
HETATM   14  C20 UNL     1     -15.006  -4.260  12.063  1.00  0.00     0.021 C 
HETATM   15  C21 UNL     1     -13.462  -3.527  13.939  1.00  0.00     0.022 C 
HETATM   16  C22 UNL     1     -12.684  -4.802  14.126  1.00  0.00     0.080 C 
HETATM   17  C23 UNL     1     -13.311  -5.578  15.248  1.00  0.00     0.135 C 
HETATM   18  O3  UNL     1     -12.611  -5.985  16.175  1.00  0.00    -0.297 OA
HETATM   19  C24 UNL     1     -14.783  -5.973  15.091  1.00  0.00     0.018 C 
HETATM   20  C25 UNL     1     -15.290  -6.451  16.471  1.00  0.00     0.023 C 
HETATM   21  C26 UNL     1     -14.770  -7.235  14.191  1.00  0.00     0.023 C 
HETATM   22  C27 UNL     1     -15.686  -4.841  14.422  1.00  0.00     0.016 C 
HETATM   23  C28 UNL     1     -16.795  -4.233  15.316  1.00  0.00     0.043 C 
HETATM   24  C29 UNL     1     -16.457  -2.870  15.886  1.00  0.00     0.149 C 
HETATM   25  C30 UNL     1     -18.062  -0.240  15.725  1.00  0.00     0.132 C 
HETATM   26  C31 UNL     1     -18.641   1.096  15.187  1.00  0.00     0.043 C 
ENDROOT
BRANCH   1  27
HETATM   27  C6  UNL     1     -18.461   2.482  12.941  1.00  0.00    -0.006 C 
HETATM   28  C7  UNL     1     -19.075   1.684  11.770  1.00  0.00     0.011 C 
BRANCH  27  29
HETATM   29  C5  UNL     1     -17.676   3.706  12.416  1.00  0.00     0.040 C 
BRANCH  29  30
HETATM   30  C4  UNL     1     -18.092   5.064  13.021  1.00  0.00     0.142 C 
BRANCH  30  31
HETATM   31  C3  UNL     1     -17.254   6.187  12.467  1.00  0.00     0.018 C 
HETATM   32  C2  UNL     1     -16.018   6.596  12.831  1.00  0.00     0.010 C 
HETATM   33  C1  UNL     1     -15.211   6.036  13.966  1.00  0.00     0.055 C 
BRANCH  32  34
HETATM   34  C32 UNL     1     -15.350   7.713  12.108  1.00  0.00     0.171 C 
HETATM   35  O6  UNL     1     -14.306   8.245  12.441  1.00  0.00    -0.646 OA
BRANCH  34  36
HETATM   36  O7  UNL     1     -16.020   8.143  11.023  1.00  0.00    -0.773 OA
HETATM   37  H46 UNL     1     -15.465   8.878  10.689  1.00  0.00     0.167 HD
ENDBRANCH  34  36
ENDBRANCH  32  34
ENDBRANCH  30  31
BRANCH  30  38
HETATM   38  O1  UNL     1     -19.466   5.319  12.778  1.00  0.00    -0.392 OA
HETATM   39  H6  UNL     1     -19.710   6.066  13.358  1.00  0.00     0.210 HD
ENDBRANCH  30  38
ENDBRANCH  29  30
ENDBRANCH  27  29
ENDBRANCH   1  27
BRANCH  25  40
HETATM   40  O5  UNL     1     -17.849  -0.183  17.127  1.00  0.00    -0.394 OA
HETATM   41  H43 UNL     1     -18.717  -0.028  17.545  1.00  0.00     0.210 HD
ENDBRANCH  25  40
BRANCH  24  42
HETATM   42  O4  UNL     1     -15.280  -2.955  16.666  1.00  0.00    -0.391 OA
HETATM   43  H41 UNL     1     -15.259  -2.164  17.235  1.00  0.00     0.210 HD
ENDBRANCH  24  42
TORSDOF 9
ENDMDL
MODEL 3
REMARK minimizedAffinity -7.55603647
REMARK CNNscore 0.606395304
REMARK CNNaffinity 6.32608461
REMARK  9 active torsions:
REMARK  status: ('A' for Active; 'I' for Inactive)
REMARK    1  A    between atoms: C2_2  and  C32_37 
REMARK    2  A    between atoms: C3_3  and  C4_4 
REMARK    3  A    between atoms: C4_4  and  O1_5 
REMARK    4  A    between atoms: C4_4  and  C5_6 
REMARK    5  A    between atoms: C5_6  and  C6_7 
REMARK    6  A    between atoms: C6_7  and  C8_9 
REMARK    7  A    between atoms: C29_32  and  O4_33 
REMARK    8  A    between atoms: C30_34  and  O5_35 
REMARK    9  A    between atoms: C32_37  and  O7_39 
ROOT
HETATM    1  C8  UNL     1      -0.683   7.853  13.943  1.00  0.00    -0.026 C 
HETATM    2  C9  UNL     1      -1.882   7.556  12.961  1.00  0.00     0.011 C 
HETATM    3  C10 UNL     1      -3.262   7.588  13.591  1.00  0.00     0.002 C 
HETATM    4  C11 UNL     1      -3.428   8.754  14.544  1.00  0.00     0.017 C 
HETATM    5  C12 UNL     1      -2.176   9.035  15.434  1.00  0.00     0.021 C 
HETATM    6  C13 UNL     1      -2.528  10.287  16.238  1.00  0.00    -0.029 C 
HETATM    7  C14 UNL     1      -2.287  11.540  15.770  1.00  0.00     0.002 C 
HETATM    8  C15 UNL     1      -1.684  11.682  14.380  1.00  0.00     0.157 C 
HETATM    9  O2  UNL     1      -1.698  12.760  13.788  1.00  0.00    -0.293 OA
HETATM   10  C16 UNL     1      -1.103  10.469  13.660  1.00  0.00     0.094 C 
HETATM   11  C17 UNL     1      -0.867   9.288  14.601  1.00  0.00    -0.015 C 
HETATM   12  C18 UNL     1       0.323   9.678  15.556  1.00  0.00     0.018 C 
HETATM   13  C19 UNL     1      -2.767  12.810  16.531  1.00  0.00    -0.008 C 
HETATM   14  C20 UNL     1      -1.763  13.983  16.348  1.00  0.00     0.021 C 
HETATM   15  C21 UNL     1      -4.115  13.170  15.858  1.00  0.00     0.022 C 
HETATM   16  C22 UNL     1      -4.897  14.245  16.566  1.00  0.00     0.080 C 
HETATM   17  C23 UNL     1      -5.251  13.746  17.937  1.00  0.00     0.135 C 
HETATM   18  O3  UNL     1      -6.419  13.795  18.321  1.00  0.00    -0.297 OA
HETATM   19  C24 UNL     1      -4.094  13.353  18.861  1.00  0.00     0.018 C 
HETATM   20  C25 UNL     1      -4.692  12.574  20.054  1.00  0.00     0.023 C 
HETATM   21  C26 UNL     1      -3.577  14.690  19.453  1.00  0.00     0.023 C 
HETATM   22  C27 UNL     1      -2.905  12.595  18.118  1.00  0.00     0.016 C 
HETATM   23  C28 UNL     1      -2.659  11.125  18.541  1.00  0.00     0.043 C 
HETATM   24  C29 UNL     1      -3.203  10.098  17.568  1.00  0.00     0.149 C 
HETATM   25  C30 UNL     1      -1.744   7.747  16.203  1.00  0.00     0.132 C 
HETATM   26  C31 UNL     1      -0.867   6.944  15.206  1.00  0.00     0.043 C 
ENDROOT
BRANCH   1  27
HETATM   27  C6  UNL     1       0.618   7.510  13.092  1.00  0.00    -0.006 C 
HETATM   28  C7  UNL     1       0.434   6.206  12.284  1.00  0.00     0.011 C 
BRANCH  27  29
HETATM   29  C5  UNL     1       1.982   7.515  13.819  1.00  0.00     0.040 C 
BRANCH  29  30
HETATM   30  C4  UNL     1       3.028   8.497  13.249  1.00  0.00     0.142 C 
BRANCH  30  31
HETATM   31  C3  UNL     1       3.983   7.795  12.319  1.00  0.00     0.018 C 
HETATM   32  C2  UNL     1       5.287   7.487  12.499  1.00  0.00     0.010 C 
HETATM   33  C1  UNL     1       6.117   7.863  13.693  1.00  0.00     0.055 C 
BRANCH  32  34
HETATM   34  C32 UNL     1       6.038   6.741  11.453  1.00  0.00     0.171 C 
HETATM   35  O6  UNL     1       6.596   7.240  10.493  1.00  0.00    -0.646 OA
BRANCH  34  36
HETATM   36  O7  UNL     1       6.037   5.406  11.626  1.00  0.00    -0.773 OA
HETATM   37  H46 UNL     1       6.544   5.076  10.855  1.00  0.00     0.167 HD
ENDBRANCH  34  36
ENDBRANCH  32  34
ENDBRANCH  30  31
BRANCH  30  38
HETATM   38  O1  UNL     1       2.391   9.568  12.572  1.00  0.00    -0.392 OA
HETATM   39  H6  UNL     1       3.079  10.246  12.430  1.00  0.00     0.210 HD
ENDBRANCH  30  38
ENDBRANCH  29  30
ENDBRANCH  27  29
ENDBRANCH   1  27
BRANCH  25  40
HETATM   40  O5  UNL     1      -2.847   6.978  16.656  1.00  0.00    -0.394 OA
HETATM   41  H43 UNL     1      -2.486   6.197  17.117  1.00  0.00     0.210 HD
ENDBRANCH  25  40
BRANCH  24  42
HETATM   42  O4  UNL     1      -4.599  10.271  17.418  1.00  0.00    -0.391 OA
HETATM   43  H41 UNL     1      -4.947   9.446  17.035  1.00  0.00     0.210 HD
ENDBRANCH  24  42
TORSDOF 9
ENDMDL
MODEL 4
REMARK minimizedAffinity -9.85504436
REMARK CNNscore 0.489606649
REMARK CNNaffinity 6.82877302
REMARK  9 active torsions:
REMARK  status: ('A' for Active; 'I' for Inactive)
REMARK    1  A    between atoms: C2_2  and  C32_37 
REMARK    2  A    between atoms: C3_3  and  C4_4 
REMARK    3  A    between atoms: C4_4  and  O1_5 
REMARK    4  A    between atoms: C4_4  and  C5_6 
REMARK    5  A    between atoms: C5_6  and  C6_7 
REMARK    6  A    between atoms: C6_7  and  C8_9 
REMARK    7  A    between atoms: C29_32  and  O4_33 
REMARK    8  A    between atoms: C30_34  and  O5_35 
REMARK    9  A    between atoms: C32_37  and  O7_39 
ROOT
HETATM    1  C8  UNL     1      -2.537   6.760  13.710  1.00  0.00    -0.026 C 
HETATM    2  C9  UNL     1      -3.251   7.896  12.880  1.00  0.00     0.011 C 
HETATM    3  C10 UNL     1      -2.499   9.212  12.798  1.00  0.00     0.002 C 
HETATM    4  C11 UNL     1      -1.018   9.008  12.551  1.00  0.00     0.017 C 
HETATM    5  C12 UNL     1      -0.393   7.821  13.351  1.00  0.00     0.021 C 
HETATM    6  C13 UNL     1       1.061   7.745  12.887  1.00  0.00    -0.029 C 
HETATM    7  C14 UNL     1       1.439   7.015  11.805  1.00  0.00     0.002 C 
HETATM    8  C15 UNL     1       0.358   6.289  11.017  1.00  0.00     0.157 C 
HETATM    9  O2  UNL     1       0.579   5.848   9.890  1.00  0.00    -0.293 OA
HETATM   10  C16 UNL     1      -1.051   6.145  11.586  1.00  0.00     0.094 C 
HETATM   11  C17 UNL     1      -1.111   6.448  13.083  1.00  0.00    -0.015 C 
HETATM   12  C18 UNL     1      -0.358   5.283  13.829  1.00  0.00     0.018 C 
HETATM   13  C19 UNL     1       2.895   7.046  11.257  1.00  0.00    -0.008 C 
HETATM   14  C20 UNL     1       3.301   5.665  10.670  1.00  0.00     0.021 C 
HETATM   15  C21 UNL     1       2.852   8.101  10.122  1.00  0.00     0.022 C 
HETATM   16  C22 UNL     1       4.203   8.480   9.574  1.00  0.00     0.080 C 
HETATM   17  C23 UNL     1       5.002   9.108  10.677  1.00  0.00     0.135 C 
HETATM   18  O3  UNL     1       5.539  10.200  10.497  1.00  0.00    -0.297 OA
HETATM   19  C24 UNL     1       5.251   8.264  11.931  1.00  0.00     0.018 C 
HETATM   20  C25 UNL     1       5.785   9.207  13.033  1.00  0.00     0.023 C 
HETATM   21  C26 UNL     1       6.438   7.335  11.565  1.00  0.00     0.023 C 
HETATM   22  C27 UNL     1       3.996   7.387  12.377  1.00  0.00     0.016 C 
HETATM   23  C28 UNL     1       3.361   7.745  13.744  1.00  0.00     0.043 C 
HETATM   24  C29 UNL     1       2.081   8.550  13.643  1.00  0.00     0.149 C 
HETATM   25  C30 UNL     1      -0.686   7.968  14.877  1.00  0.00     0.132 C 
HETATM   26  C31 UNL     1      -2.106   7.375  15.086  1.00  0.00     0.043 C 
ENDROOT
BRANCH   1  27
HETATM   27  C6  UNL     1      -3.636   5.615  13.838  1.00  0.00    -0.006 C 
HETATM   28  C7  UNL     1      -3.154   4.298  13.193  1.00  0.00     0.011 C 
BRANCH  27  29
HETATM   29  C5  UNL     1      -5.080   5.945  13.395  1.00  0.00     0.040 C 
BRANCH  29  30
HETATM   30  C4  UNL     1      -6.172   5.017  13.969  1.00  0.00     0.142 C 
BRANCH  30  31
HETATM   31  C3  UNL     1      -7.399   5.799  14.364  1.00  0.00     0.018 C 
HETATM   32  C2  UNL     1      -8.502   6.089  13.639  1.00  0.00     0.010 C 
HETATM   33  C1  UNL     1      -8.717   5.737  12.195  1.00  0.00     0.055 C 
BRANCH  32  34
HETATM   34  C32 UNL     1      -9.629   6.846  14.250  1.00  0.00     0.171 C 
HETATM   35  O6  UNL     1     -10.287   7.705  13.691  1.00  0.00    -0.646 OA
BRANCH  34  36
HETATM   36  O7  UNL     1      -9.870   6.528  15.535  1.00  0.00    -0.773 OA
HETATM   37  H46 UNL     1     -10.610   7.121  15.782  1.00  0.00     0.167 HD
ENDBRANCH  34  36
ENDBRANCH  32  34
ENDBRANCH  30  31
BRANCH  30  38
HETATM   38  O1  UNL     1      -6.519   4.013  13.029  1.00  0.00    -0.392 OA
HETATM   39  H6  UNL     1      -7.039   3.350  13.521  1.00  0.00     0.210 HD
ENDBRANCH  30  38
ENDBRANCH  29  30
ENDBRANCH  27  29
ENDBRANCH   1  27
BRANCH  25  40
HETATM   40  O5  UNL     1      -0.618   9.313  15.326  1.00  0.00    -0.394 OA
HETATM   41  H43 UNL     1      -0.817   9.310  16.280  1.00  0.00     0.210 HD
ENDBRANCH  25  40
BRANCH  24  42
HETATM   42  O4  UNL     1       2.329   9.762  12.957  1.00  0.00    -0.391 OA
HETATM   43  H41 UNL     1       1.588  10.361  13.162  1.00  0.00     0.210 HD
ENDBRANCH  24  42
TORSDOF 9
ENDMDL
MODEL 5
REMARK minimizedAffinity -7.18903971
REMARK CNNscore 0.443301439
REMARK CNNaffinity 5.94116163
REMARK  9 active torsions:
REMARK  status: ('A' for Active; 'I' for Inactive)
REMARK    1  A    between atoms: C2_2  and  C32_37 
REMARK    2  A    between atoms: C3_3  and  C4_4 
REMARK    3  A    between atoms: C4_4  and  O1_5 
REMARK    4  A    between atoms: C4_4  and  C5_6 
REMARK    5  A    between atoms: C5_6  and  C6_7 
REMARK    6  A    between atoms: C6_7  and  C8_9 
REMARK    7  A    between atoms: C29_32  and  O4_33 
REMARK    8  A    between atoms: C30_34  and  O5_35 
REMARK    9  A    between atoms: C32_37  and  O7_39 
ROOT
HETATM    1  C8  UNL     1      -2.922   9.569  15.801  1.00  0.00    -0.026 C 
HETATM    2  C9  UNL     1      -2.128   9.628  14.439  1.00  0.00     0.011 C 
HETATM    3  C10 UNL     1      -1.693  11.014  13.999  1.00  0.00     0.002 C 
HETATM    4  C11 UNL     1      -1.146  11.833  15.150  1.00  0.00     0.017 C 
HETATM    5  C12 UNL     1      -1.939  11.671  16.485  1.00  0.00     0.021 C 
HETATM    6  C13 UNL     1      -1.170  12.501  17.513  1.00  0.00    -0.029 C 
HETATM    7  C14 UNL     1      -0.143  11.985  18.238  1.00  0.00     0.002 C 
HETATM    8  C15 UNL     1       0.268  10.544  17.974  1.00  0.00     0.157 C 
HETATM    9  O2  UNL     1       1.344  10.104  18.380  1.00  0.00    -0.293 OA
HETATM   10  C16 UNL     1      -0.622   9.624  17.143  1.00  0.00     0.094 C 
HETATM   11  C17 UNL     1      -2.036  10.178  16.970  1.00  0.00    -0.015 C 
HETATM   12  C18 UNL     1      -2.745  10.105  18.375  1.00  0.00     0.018 C 
HETATM   13  C19 UNL     1       0.722  12.868  19.184  1.00  0.00    -0.008 C 
HETATM   14  C20 UNL     1       1.188  12.061  20.429  1.00  0.00     0.021 C 
HETATM   15  C21 UNL     1       1.952  13.255  18.325  1.00  0.00     0.022 C 
HETATM   16  C22 UNL     1       2.841  14.299  18.947  1.00  0.00     0.080 C 
HETATM   17  C23 UNL     1       2.048  15.562  19.106  1.00  0.00     0.135 C 
HETATM   18  O3  UNL     1       2.496  16.623  18.674  1.00  0.00    -0.297 OA
HETATM   19  C24 UNL     1       0.779  15.491  19.962  1.00  0.00     0.018 C 
HETATM   20  C25 UNL     1      -0.029  16.784  19.710  1.00  0.00     0.023 C 
HETATM   21  C26 UNL     1       1.273  15.587  21.428  1.00  0.00     0.023 C 
HETATM   22  C27 UNL     1      -0.059  14.149  19.760  1.00  0.00     0.016 C 
HETATM   23  C28 UNL     1      -1.471  14.310  19.144  1.00  0.00     0.043 C 
HETATM   24  C29 UNL     1      -1.554  13.945  17.675  1.00  0.00     0.149 C 
HETATM   25  C30 UNL     1      -3.456  11.966  16.266  1.00  0.00     0.132 C 
HETATM   26  C31 UNL     1      -4.064  10.641  15.732  1.00  0.00     0.043 C 
ENDROOT
BRANCH   1  27
HETATM   27  C6  UNL     1      -3.456   8.071  15.881  1.00  0.00    -0.006 C 
HETATM   28  C7  UNL     1      -2.414   7.073  15.331  1.00  0.00     0.011 C 
BRANCH  27  29
HETATM   29  C5  UNL     1      -4.859   7.770  15.305  1.00  0.00     0.040 C 
BRANCH  29  30
HETATM   30  C4  UNL     1      -4.883   6.803  14.103  1.00  0.00     0.142 C 
BRANCH  30  31
HETATM   31  C3  UNL     1      -6.271   6.266  13.864  1.00  0.00     0.018 C 
HETATM   32  C2  UNL     1      -6.654   5.079  13.342  1.00  0.00     0.010 C 
HETATM   33  C1  UNL     1      -5.733   4.024  12.799  1.00  0.00     0.055 C 
BRANCH  32  34
HETATM   34  C32 UNL     1      -8.097   4.732  13.237  1.00  0.00     0.171 C 
HETATM   35  O6  UNL     1      -9.002   5.524  13.046  1.00  0.00    -0.646 OA
BRANCH  34  36
HETATM   36  O7  UNL     1      -8.359   3.422  13.406  1.00  0.00    -0.773 OA
HETATM   37  H46 UNL     1      -9.335   3.374  13.331  1.00  0.00     0.167 HD
ENDBRANCH  34  36
ENDBRANCH  32  34
ENDBRANCH  30  31
BRANCH  30  38
HETATM   38  O1  UNL     1      -4.404   7.447  12.934  1.00  0.00    -0.392 OA
HETATM   39  H6  UNL     1      -4.243   6.740  12.281  1.00  0.00     0.210 HD
ENDBRANCH  30  38
ENDBRANCH  29  30
ENDBRANCH  27  29
ENDBRANCH   1  27
BRANCH  25  40
HETATM   40  O5  UNL     1      -3.686  13.039  15.366  1.00  0.00    -0.394 OA
HETATM   41  H43 UNL     1      -4.652  13.148  15.287  1.00  0.00     0.210 HD
ENDBRANCH  25  40
BRANCH  24  42
HETATM   42  O4  UNL     1      -0.668  14.756  16.928  1.00  0.00    -0.391 OA
HETATM   43  H41 UNL     1      -0.952  14.704  15.997  1.00  0.00     0.210 HD
ENDBRANCH  24  42
TORSDOF 9
ENDMDL
MODEL 6
REMARK minimizedAffinity -7.19903231
REMARK CNNscore 0.433614552
REMARK CNNaffinity 6.19836092
REMARK  9 active torsions:
REMARK  status: ('A' for Active; 'I' for Inactive)
REMARK    1  A    between atoms: C2_2  and  C32_37 
REMARK    2  A    between atoms: C3_3  and  C4_4 
REMARK    3  A    between atoms: C4_4  and  O1_5 
REMARK    4  A    between atoms: C4_4  and  C5_6 
REMARK    5  A    between atoms: C5_6  and  C6_7 
REMARK    6  A    between atoms: C6_7  and  C8_9 
REMARK    7  A    between atoms: C29_32  and  O4_33 
REMARK    8  A    between atoms: C30_34  and  O5_35 
REMARK    9  A    between atoms: C32_37  and  O7_39 
ROOT
HETATM    1  C8  UNL     1       7.053   9.070  14.237  1.00  0.00    -0.026 C 
HETATM    2  C9  UNL     1       6.169  10.331  13.898  1.00  0.00     0.011 C 
HETATM    3  C10 UNL     1       6.141  11.411  14.965  1.00  0.00     0.002 C 
HETATM    4  C11 UNL     1       7.514  11.671  15.550  1.00  0.00     0.017 C 
HETATM    5  C12 UNL     1       8.361  10.383  15.791  1.00  0.00     0.021 C 
HETATM    6  C13 UNL     1       9.718  10.881  16.291  1.00  0.00    -0.029 C 
HETATM    7  C14 UNL     1      10.729  11.202  15.441  1.00  0.00     0.002 C 
HETATM    8  C15 UNL     1      10.469  11.095  13.946  1.00  0.00     0.157 C 
HETATM    9  O2  UNL     1      11.223  11.625  13.129  1.00  0.00    -0.293 OA
HETATM   10  C16 UNL     1       9.227  10.378  13.424  1.00  0.00     0.094 C 
HETATM   11  C17 UNL     1       8.556   9.517  14.494  1.00  0.00    -0.015 C 
HETATM   12  C18 UNL     1       9.514   8.301  14.786  1.00  0.00     0.018 C 
HETATM   13  C19 UNL     1      12.058  11.834  15.945  1.00  0.00    -0.008 C 
HETATM   14  C20 UNL     1      13.263  11.361  15.083  1.00  0.00     0.021 C 
HETATM   15  C21 UNL     1      11.851  13.358  15.755  1.00  0.00     0.022 C 
HETATM   16  C22 UNL     1      12.922  14.214  16.380  1.00  0.00     0.080 C 
HETATM   17  C23 UNL     1      12.904  13.987  17.863  1.00  0.00     0.135 C 
HETATM   18  O3  UNL     1      12.845  14.949  18.627  1.00  0.00    -0.297 OA
HETATM   19  C24 UNL     1      13.134  12.554  18.356  1.00  0.00     0.018 C 
HETATM   20  C25 UNL     1      12.745  12.505  19.851  1.00  0.00     0.023 C 
HETATM   21  C26 UNL     1      14.672  12.355  18.318  1.00  0.00     0.023 C 
HETATM   22  C27 UNL     1      12.423  11.443  17.460  1.00  0.00     0.016 C 
HETATM   23  C28 UNL     1      11.302  10.624  18.148  1.00  0.00     0.043 C 
HETATM   24  C29 UNL     1       9.897  11.055  17.773  1.00  0.00     0.149 C 
HETATM   25  C30 UNL     1       7.572   9.357  16.665  1.00  0.00     0.132 C 
HETATM   26  C31 UNL     1       6.660   8.585  15.674  1.00  0.00     0.043 C 
ENDROOT
BRANCH   1  27
HETATM   27  C6  UNL     1       6.702   8.023  13.090  1.00  0.00    -0.006 C 
HETATM   28  C7  UNL     1       7.965   7.281  12.599  1.00  0.00     0.011 C 
BRANCH  27  29
HETATM   29  C5  UNL     1       5.858   8.516  11.893  1.00  0.00     0.040 C 
BRANCH  29  30
HETATM   30  C4  UNL     1       4.670   7.609  11.507  1.00  0.00     0.142 C 
BRANCH  30  31
HETATM   31  C3  UNL     1       4.196   7.899  10.106  1.00  0.00     0.018 C 
HETATM   32  C2  UNL     1       3.095   7.450   9.462  1.00  0.00     0.010 C 
HETATM   33  C1  UNL     1       2.103   6.464  10.009  1.00  0.00     0.055 C 
BRANCH  32  34
HETATM   34  C32 UNL     1       2.793   7.906   8.078  1.00  0.00     0.171 C 
HETATM   35  O6  UNL     1       3.146   8.964   7.590  1.00  0.00    -0.646 OA
BRANCH  34  36
HETATM   36  O7  UNL     1       2.039   7.045   7.370  1.00  0.00    -0.773 OA
HETATM   37  H46 UNL     1       1.918   7.501   6.510  1.00  0.00     0.167 HD
ENDBRANCH  34  36
ENDBRANCH  32  34
ENDBRANCH  30  31
BRANCH  30  38
HETATM   38  O1  UNL     1       5.026   6.242  11.625  1.00  0.00    -0.392 OA
HETATM   39  H6  UNL     1       4.190   5.739  11.580  1.00  0.00     0.210 HD
ENDBRANCH  30  38
ENDBRANCH  29  30
ENDBRANCH  27  29
ENDBRANCH   1  27
BRANCH  25  40
HETATM   40  O5  UNL     1       6.811   9.976  17.691  1.00  0.00    -0.394 OA
HETATM   41  H43 UNL     1       6.352   9.267  18.178  1.00  0.00     0.210 HD
ENDBRANCH  25  40
BRANCH  24  42
HETATM   42  O4  UNL     1       9.705  12.414  18.115  1.00  0.00    -0.391 OA
HETATM   43  H41 UNL     1       8.743  12.568  18.135  1.00  0.00     0.210 HD
ENDBRANCH  24  42
TORSDOF 9
ENDMDL
MODEL 7
REMARK minimizedAffinity -10.1246462
REMARK CNNscore 0.421938509
REMARK CNNaffinity 6.7356286
REMARK  9 active torsions:
REMARK  status: ('A' for Active; 'I' for Inactive)
REMARK    1  A    between atoms: C2_2  and  C32_37 
REMARK    2  A    between atoms: C3_3  and  C4_4 
REMARK    3  A    between atoms: C4_4  and  O1_5 
REMARK    4  A    between atoms: C4_4  and  C5_6 
REMARK    5  A    between atoms: C5_6  and  C6_7 
REMARK    6  A    between atoms: C6_7  and  C8_9 
REMARK    7  A    between atoms: C29_32  and  O4_33 
REMARK    8  A    between atoms: C30_34  and  O5_35 
REMARK    9  A    between atoms: C32_37  and  O7_39 
ROOT
HETATM    1  C8  UNL     1      -2.276   6.964  13.824  1.00  0.00    -0.026 C 
HETATM    2  C9  UNL     1      -3.012   8.071  12.974  1.00  0.00     0.011 C 
HETATM    3  C10 UNL     1      -2.252   9.374  12.807  1.00  0.00     0.002 C 
HETATM    4  C11 UNL     1      -0.784   9.146  12.513  1.00  0.00     0.017 C 
HETATM    5  C12 UNL     1      -0.139   7.988  13.338  1.00  0.00     0.021 C 
HETATM    6  C13 UNL     1       1.296   7.877  12.822  1.00  0.00    -0.029 C 
HETATM    7  C14 UNL     1       1.626   7.098  11.759  1.00  0.00     0.002 C 
HETATM    8  C15 UNL     1       0.509   6.350  11.046  1.00  0.00     0.157 C 
HETATM    9  O2  UNL     1       0.682   5.859   9.930  1.00  0.00    -0.293 OA
HETATM   10  C16 UNL     1      -0.878   6.245  11.673  1.00  0.00     0.094 C 
HETATM   11  C17 UNL     1      -0.878   6.612  13.157  1.00  0.00    -0.015 C 
HETATM   12  C18 UNL     1      -0.106   5.472  13.922  1.00  0.00     0.018 C 
HETATM   13  C19 UNL     1       3.060   7.091  11.155  1.00  0.00    -0.008 C 
HETATM   14  C20 UNL     1       3.431   5.682  10.613  1.00  0.00     0.021 C 
HETATM   15  C21 UNL     1       2.982   8.097   9.979  1.00  0.00     0.022 C 
HETATM   16  C22 UNL     1       4.314   8.438   9.364  1.00  0.00     0.080 C 
HETATM   17  C23 UNL     1       5.160   9.105  10.408  1.00  0.00     0.135 C 
HETATM   18  O3  UNL     1       5.699  10.183  10.160  1.00  0.00    -0.297 OA
HETATM   19  C24 UNL     1       5.450   8.312  11.687  1.00  0.00     0.018 C 
HETATM   20  C25 UNL     1       6.034   9.296  12.726  1.00  0.00     0.023 C 
HETATM   21  C26 UNL     1       6.615   7.357  11.316  1.00  0.00     0.023 C 
HETATM   22  C27 UNL     1       4.206   7.468  12.217  1.00  0.00     0.016 C 
HETATM   23  C28 UNL     1       3.627   7.890  13.591  1.00  0.00     0.043 C 
HETATM   24  C29 UNL     1       2.351   8.703  13.504  1.00  0.00     0.149 C 
HETATM   25  C30 UNL     1      -0.372   8.202  14.867  1.00  0.00     0.132 C 
HETATM   26  C31 UNL     1      -1.787   7.633  15.154  1.00  0.00     0.043 C 
ENDROOT
BRANCH   1  27
HETATM   27  C6  UNL     1      -3.379   5.837  14.043  1.00  0.00    -0.006 C 
HETATM   28  C7  UNL     1      -3.974   5.901  15.467  1.00  0.00     0.011 C 
BRANCH  27  29
HETATM   29  C5  UNL     1      -3.014   4.383  13.668  1.00  0.00     0.040 C 
BRANCH  29  30
HETATM   30  C4  UNL     1      -3.878   3.753  12.555  1.00  0.00     0.142 C 
BRANCH  30  31
HETATM   31  C3  UNL     1      -5.312   4.207  12.657  1.00  0.00     0.018 C 
HETATM   32  C2  UNL     1      -6.450   3.520  12.412  1.00  0.00     0.010 C 
HETATM   33  C1  UNL     1      -6.526   2.113  11.892  1.00  0.00     0.055 C 
BRANCH  32  34
HETATM   34  C32 UNL     1      -7.777   4.158  12.624  1.00  0.00     0.171 C 
HETATM   35  O6  UNL     1      -8.107   5.256  12.213  1.00  0.00    -0.646 OA
BRANCH  34  36
HETATM   36  O7  UNL     1      -8.628   3.421  13.362  1.00  0.00    -0.773 OA
HETATM   37  H46 UNL     1      -9.426   3.986  13.422  1.00  0.00     0.167 HD
ENDBRANCH  34  36
ENDBRANCH  32  34
ENDBRANCH  30  31
BRANCH  30  38
HETATM   38  O1  UNL     1      -3.358   4.075  11.276  1.00  0.00    -0.392 OA
HETATM   39  H6  UNL     1      -3.809   3.484  10.643  1.00  0.00     0.210 HD
ENDBRANCH  30  38
ENDBRANCH  29  30
ENDBRANCH  27  29
ENDBRANCH   1  27
BRANCH  25  40
HETATM   40  O5  UNL     1      -0.274   9.564  15.254  1.00  0.00    -0.394 OA
HETATM   41  H43 UNL     1      -0.437   9.604  16.215  1.00  0.00     0.210 HD
ENDBRANCH  25  40
BRANCH  24  42
HETATM   42  O4  UNL     1       2.583   9.882  12.758  1.00  0.00    -0.391 OA
HETATM   43  H41 UNL     1       1.855  10.497  12.965  1.00  0.00     0.210 HD
ENDBRANCH  24  42
TORSDOF 9
ENDMDL
MODEL 8
REMARK minimizedAffinity -7.66561604
REMARK CNNscore 0.411159217
REMARK CNNaffinity 6.10459661
REMARK  9 active torsions:
REMARK  status: ('A' for Active; 'I' for Inactive)
REMARK    1  A    between atoms: C2_2  and  C32_37 
REMARK    2  A    between atoms: C3_3  and  C4_4 
REMARK    3  A    between atoms: C4_4  and  O1_5 
REMARK    4  A    between atoms: C4_4  and  C5_6 
REMARK    5  A    between atoms: C5_6  and  C6_7 
REMARK    6  A    between atoms: C6_7  and  C8_9 
REMARK    7  A    between atoms: C29_32  and  O4_33 
REMARK    8  A    between atoms: C30_34  and  O5_35 
REMARK    9  A    between atoms: C32_37  and  O7_39 
ROOT
HETATM    1  C8  UNL     1     -17.713   0.731  13.038  1.00  0.00    -0.026 C 
HETATM    2  C9  UNL     1     -16.709   1.801  13.618  1.00  0.00     0.011 C 
HETATM    3  C10 UNL     1     -16.023   1.413  14.915  1.00  0.00     0.002 C 
HETATM    4  C11 UNL     1     -15.562  -0.031  14.908  1.00  0.00     0.017 C 
HETATM    5  C12 UNL     1     -16.574  -1.022  14.254  1.00  0.00     0.021 C 
HETATM    6  C13 UNL     1     -15.876  -2.382  14.273  1.00  0.00    -0.029 C 
HETATM    7  C14 UNL     1     -15.060  -2.791  13.266  1.00  0.00     0.002 C 
HETATM    8  C15 UNL     1     -14.814  -1.834  12.110  1.00  0.00     0.157 C 
HETATM    9  O2  UNL     1     -13.888  -2.015  11.319  1.00  0.00    -0.293 OA
HETATM   10  C16 UNL     1     -15.675  -0.586  11.940  1.00  0.00     0.094 C 
HETATM   11  C17 UNL     1     -16.952  -0.639  12.777  1.00  0.00    -0.015 C 
HETATM   12  C18 UNL     1     -17.882  -1.742  12.145  1.00  0.00     0.018 C 
HETATM   13  C19 UNL     1     -14.246  -4.115  13.352  1.00  0.00    -0.008 C 
HETATM   14  C20 UNL     1     -14.103  -4.774  11.950  1.00  0.00     0.021 C 
HETATM   15  C21 UNL     1     -12.852  -3.674  13.863  1.00  0.00     0.022 C 
HETATM   16  C22 UNL     1     -11.940  -4.810  14.243  1.00  0.00     0.080 C 
HETATM   17  C23 UNL     1     -12.568  -5.560  15.382  1.00  0.00     0.135 C 
HETATM   18  O3  UNL     1     -11.914  -5.784  16.400  1.00  0.00    -0.297 OA
HETATM   19  C24 UNL     1     -13.956  -6.163  15.144  1.00  0.00     0.018 C 
HETATM   20  C25 UNL     1     -14.528  -6.580  16.518  1.00  0.00     0.023 C 
HETATM   21  C26 UNL     1     -13.697  -7.488  14.380  1.00  0.00     0.023 C 
HETATM   22  C27 UNL     1     -14.927  -5.228  14.291  1.00  0.00     0.016 C 
HETATM   23  C28 UNL     1     -16.185  -4.699  15.023  1.00  0.00     0.043 C 
HETATM   24  C29 UNL     1     -16.079  -3.257  15.479  1.00  0.00     0.149 C 
HETATM   25  C30 UNL     1     -17.981  -0.894  14.918  1.00  0.00     0.132 C 
HETATM   26  C31 UNL     1     -18.670   0.298  14.201  1.00  0.00     0.043 C 
ENDROOT
BRANCH   1  27
HETATM   27  C6  UNL     1     -18.454   1.490  11.850  1.00  0.00    -0.006 C 
HETATM   28  C7  UNL     1     -18.626   2.992  12.163  1.00  0.00     0.011 C 
BRANCH  27  29
HETATM   29  C5  UNL     1     -19.773   0.887  11.317  1.00  0.00     0.040 C 
BRANCH  29  30
HETATM   30  C4  UNL     1     -20.711   1.884  10.604  1.00  0.00     0.142 C 
BRANCH  30  31
HETATM   31  C3  UNL     1     -20.957   1.474   9.174  1.00  0.00     0.018 C 
HETATM   32  C2  UNL     1     -21.359   2.223   8.123  1.00  0.00     0.010 C 
HETATM   33  C1  UNL     1     -21.731   3.677   8.177  1.00  0.00     0.055 C 
BRANCH  32  34
HETATM   34  C32 UNL     1     -21.496   1.614   6.772  1.00  0.00     0.171 C 
HETATM   35  O6  UNL     1     -20.749   1.811   5.830  1.00  0.00    -0.646 OA
BRANCH  34  36
HETATM   36  O7  UNL     1     -22.570   0.814   6.637  1.00  0.00    -0.773 OA
HETATM   37  H46 UNL     1     -22.521   0.523   5.702  1.00  0.00     0.167 HD
ENDBRANCH  34  36
ENDBRANCH  32  34
ENDBRANCH  30  31
BRANCH  30  38
HETATM   38  O1  UNL     1     -21.944   1.993  11.296  1.00  0.00    -0.392 OA
HETATM   39  H6  UNL     1     -22.393   2.778  10.928  1.00  0.00     0.210 HD
ENDBRANCH  30  38
ENDBRANCH  29  30
ENDBRANCH  27  29
ENDBRANCH   1  27
BRANCH  25  40
HETATM   40  O5  UNL     1     -17.913  -0.683  16.320  1.00  0.00    -0.394 OA
HETATM   41  H43 UNL     1     -18.829  -0.610  16.647  1.00  0.00     0.210 HD
ENDBRANCH  25  40
BRANCH  24  42
HETATM   42  O4  UNL     1     -14.981  -3.111  16.358  1.00  0.00    -0.391 OA
HETATM   43  H41 UNL     1     -15.115  -2.277  16.843  1.00  0.00     0.210 HD
ENDBRANCH  24  42
TORSDOF 9
ENDMDL
MODEL 9
REMARK minimizedAffinity -8.2514534
REMARK CNNscore 0.368223578
REMARK CNNaffinity 6.4226079
REMARK  9 active torsions:
REMARK  status: ('A' for Active; 'I' for Inactive)
REMARK    1  A    between atoms: C2_2  and  C32_37 
REMARK    2  A    between atoms: C3_3  and  C4_4 
REMARK    3  A    between atoms: C4_4  and  O1_5 
REMARK    4  A    between atoms: C4_4  and  C5_6 
REMARK    5  A    between atoms: C5_6  and  C6_7 
REMARK    6  A    between atoms: C6_7  and  C8_9 
REMARK    7  A    between atoms: C29_32  and  O4_33 
REMARK    8  A    between atoms: C30_34  and  O5_35 
REMARK    9  A    between atoms: C32_37  and  O7_39 
ROOT
HETATM    1  C8  UNL     1       0.258   7.163  13.499  1.00  0.00    -0.026 C 
HETATM    2  C9  UNL     1      -1.058   6.535  14.102  1.00  0.00     0.011 C 
HETATM    3  C10 UNL     1      -1.215   6.674  15.605  1.00  0.00     0.002 C 
HETATM    4  C11 UNL     1      -0.824   8.054  16.095  1.00  0.00     0.017 C 
HETATM    5  C12 UNL     1       0.445   8.643  15.403  1.00  0.00     0.021 C 
HETATM    6  C13 UNL     1       0.598  10.052  15.975  1.00  0.00    -0.029 C 
HETATM    7  C14 UNL     1      -0.016  11.130  15.420  1.00  0.00     0.002 C 
HETATM    8  C15 UNL     1      -0.916  10.899  14.215  1.00  0.00     0.157 C 
HETATM    9  O2  UNL     1      -1.710  11.761  13.839  1.00  0.00    -0.293 OA
HETATM   10  C16 UNL     1      -0.898   9.563  13.478  1.00  0.00     0.094 C 
HETATM   11  C17 UNL     1       0.321   8.714  13.837  1.00  0.00    -0.015 C 
HETATM   12  C18 UNL     1       1.585   9.422  13.219  1.00  0.00     0.018 C 
HETATM   13  C19 UNL     1       0.033  12.537  16.082  1.00  0.00    -0.008 C 
HETATM   14  C20 UNL     1       0.047  13.660  15.006  1.00  0.00     0.021 C 
HETATM   15  C21 UNL     1      -1.280  12.619  16.901  1.00  0.00     0.022 C 
HETATM   16  C22 UNL     1      -1.367  13.810  17.819  1.00  0.00     0.080 C 
HETATM   17  C23 UNL     1      -0.265  13.706  18.833  1.00  0.00     0.135 C 
HETATM   18  O3  UNL     1      -0.528  13.802  20.032  1.00  0.00    -0.297 OA
HETATM   19  C24 UNL     1       1.172  13.655  18.305  1.00  0.00     0.018 C 
HETATM   20  C25 UNL     1       2.085  13.219  19.473  1.00  0.00     0.023 C 
HETATM   21  C26 UNL     1       1.548  15.130  18.009  1.00  0.00     0.023 C 
HETATM   22  C27 UNL     1       1.341  12.778  16.983  1.00  0.00     0.016 C 
HETATM   23  C28 UNL     1       2.216  11.506  17.113  1.00  0.00     0.043 C 
HETATM   24  C29 UNL     1       1.425  10.216  17.219  1.00  0.00     0.149 C 
HETATM   25  C30 UNL     1       1.647   7.653  15.518  1.00  0.00     0.132 C 
HETATM   26  C31 UNL     1       1.467   6.644  14.352  1.00  0.00     0.043 C 
ENDROOT
BRANCH   1  27
HETATM   27  C6  UNL     1       0.278   6.659  11.989  1.00  0.00    -0.006 C 
HETATM   28  C7  UNL     1       1.636   6.015  11.629  1.00  0.00     0.011 C 
BRANCH  27  29
HETATM   29  C5  UNL     1      -0.166   7.650  10.888  1.00  0.00     0.040 C 
BRANCH  29  30
HETATM   30  C4  UNL     1       0.949   8.103   9.922  1.00  0.00     0.142 C 
BRANCH  30  31
HETATM   31  C3  UNL     1       1.706   6.922   9.371  1.00  0.00     0.018 C 
HETATM   32  C2  UNL     1       2.138   6.691   8.111  1.00  0.00     0.010 C 
HETATM   33  C1  UNL     1       1.880   7.572   6.923  1.00  0.00     0.055 C 
BRANCH  32  34
HETATM   34  C32 UNL     1       2.917   5.463   7.794  1.00  0.00     0.171 C 
HETATM   35  O6  UNL     1       2.864   4.845   6.746  1.00  0.00    -0.646 OA
BRANCH  34  36
HETATM   36  O7  UNL     1       3.702   5.037   8.800  1.00  0.00    -0.773 OA
HETATM   37  H46 UNL     1       4.115   4.225   8.438  1.00  0.00     0.167 HD
ENDBRANCH  34  36
ENDBRANCH  32  34
ENDBRANCH  30  31
BRANCH  30  38
HETATM   38  O1  UNL     1       0.409   8.871   8.859  1.00  0.00    -0.392 OA
HETATM   39  H6  UNL     1       1.168   9.297   8.419  1.00  0.00     0.210 HD
ENDBRANCH  30  38
ENDBRANCH  29  30
ENDBRANCH  27  29
ENDBRANCH   1  27
BRANCH  25  40
HETATM   40  O5  UNL     1       1.698   6.989  16.771  1.00  0.00    -0.394 OA
HETATM   41  H43 UNL     1       2.469   6.392  16.752  1.00  0.00     0.210 HD
ENDBRANCH  25  40
BRANCH  24  42
HETATM   42  O4  UNL     1       0.575  10.267  18.349  1.00  0.00    -0.391 OA
HETATM   43  H41 UNL     1       0.314   9.349  18.548  1.00  0.00     0.210 HD
ENDBRANCH  24  42
TORSDOF 9
ENDMDL
