MODEL 1
REMARK minimizedAffinity -9.38095093
REMARK  6 active torsions:
REMARK  status: ('A' for Active; 'I' for Inactive)
REMARK    1  A    between atoms: C2_2  and  C30_31 
REMARK    2  A    between atoms: C3_3  and  C4_4 
REMARK    3  A    between atoms: C4_4  and  C5_5 
REMARK    4  A    between atoms: C5_5  and  C6_6 
REMARK    5  A    between atoms: C6_6  and  C8_8 
REMARK    6  A    between atoms: C30_31  and  O3_33 
ROOT
HETATM    1  C8  UNL     1      -4.019   7.518  15.385  1.00  0.00    -0.002 C 
HETATM    2  C9  UNL     1      -3.757   9.014  15.747  1.00  0.00     0.007 C 
HETATM    3  C10 UNL     1      -2.494   9.462  14.976  1.00  0.00     0.015 C 
HETATM    4  C11 UNL     1      -1.873   8.153  14.461  1.00  0.00    -0.013 C 
HETATM    5  C12 UNL     1      -1.064   7.548  15.664  1.00  0.00     0.021 C 
HETATM    6  C13 UNL     1      -0.881   8.210  13.291  1.00  0.00    -0.070 C 
HETATM    7  C14 UNL     1       0.129   9.094  13.303  1.00  0.00    -0.022 C 
HETATM    8  C15 UNL     1       1.329   8.998  12.424  1.00  0.00     0.034 C 
HETATM    9  C16 UNL     1       1.572   7.568  11.870  1.00  0.00     0.013 C 
HETATM   10  C17 UNL     1       2.829   7.504  10.917  1.00  0.00     0.018 C 
HETATM   11  C18 UNL     1       3.606   6.188  11.159  1.00  0.00     0.023 C 
HETATM   12  C19 UNL     1       3.845   8.646  11.122  1.00  0.00     0.023 C 
HETATM   13  C20 UNL     1       2.390   7.579   9.449  1.00  0.00     0.135 C 
HETATM   14  O1  UNL     1       3.075   7.111   8.537  1.00  0.00    -0.297 OA
HETATM   15  C21 UNL     1       1.125   8.342   9.137  1.00  0.00     0.080 C 
HETATM   16  C22 UNL     1      -0.075   7.918   9.982  1.00  0.00     0.017 C 
HETATM   17  C23 UNL     1       0.252   7.019  11.221  1.00  0.00    -0.031 C 
HETATM   18  C24 UNL     1       0.397   5.567  10.701  1.00  0.00     0.016 C 
HETATM   19  C25 UNL     1      -0.978   7.098  12.237  1.00  0.00     0.024 C 
HETATM   20  C26 UNL     1      -1.411   5.785  12.934  1.00  0.00     0.010 C 
HETATM   21  C27 UNL     1      -2.737   5.895  13.739  1.00  0.00     0.011 C 
HETATM   22  C28 UNL     1      -3.163   7.341  14.086  1.00  0.00    -0.029 C 
HETATM   23  C29 UNL     1      -3.975   7.966  12.903  1.00  0.00     0.016 C 
ENDROOT
BRANCH   1  24
HETATM   24  C6  UNL     1      -5.533   7.162  15.362  1.00  0.00    -0.014 C 
HETATM   25  C7  UNL     1      -6.373   8.223  14.644  1.00  0.00     0.010 C 
BRANCH  24  26
HETATM   26  C5  UNL     1      -5.817   5.761  14.759  1.00  0.00     0.008 C 
BRANCH  26  27
HETATM   27  C4  UNL     1      -6.686   5.753  13.495  1.00  0.00     0.028 C 
BRANCH  27  28
HETATM   28  C3  UNL     1      -7.010   4.341  13.083  1.00  0.00    -0.013 C 
HETATM   29  C2  UNL     1      -6.234   3.476  12.398  1.00  0.00     0.008 C 
HETATM   30  C1  UNL     1      -4.846   3.734  11.890  1.00  0.00     0.055 C 
BRANCH  29  31
HETATM   31  C30 UNL     1      -6.820   2.135  12.133  1.00  0.00     0.171 C 
HETATM   32  O2  UNL     1      -6.316   1.233  11.486  1.00  0.00    -0.646 OA
BRANCH  31  33
HETATM   33  O3  UNL     1      -8.029   1.984  12.696  1.00  0.00    -0.773 OA
HETATM   34  H46 UNL     1      -8.285   1.074  12.441  1.00  0.00     0.167 HD
ENDBRANCH  31  33
ENDBRANCH  29  31
ENDBRANCH  27  28
ENDBRANCH  26  27
ENDBRANCH  24  26
ENDBRANCH   1  24
TORSDOF 6
ENDMDL
MODEL 2
REMARK minimizedAffinity -9.20047665
REMARK  6 active torsions:
REMARK  status: ('A' for Active; 'I' for Inactive)
REMARK    1  A    between atoms: C2_2  and  C30_31 
REMARK    2  A    between atoms: C3_3  and  C4_4 
REMARK    3  A    between atoms: C4_4  and  C5_5 
REMARK    4  A    between atoms: C5_5  and  C6_6 
REMARK    5  A    between atoms: C6_6  and  C8_8 
REMARK    6  A    between atoms: C30_31  and  O3_33 
ROOT
HETATM    1  C8  UNL     1      -1.910   6.663  12.598  1.00  0.00    -0.002 C 
HETATM    2  C9  UNL     1      -1.590   5.210  12.123  1.00  0.00     0.007 C 
HETATM    3  C10 UNL     1      -0.065   5.128  11.884  1.00  0.00     0.015 C 
HETATM    4  C11 UNL     1       0.407   6.592  11.900  1.00  0.00    -0.013 C 
HETATM    5  C12 UNL     1       0.098   7.167  10.471  1.00  0.00     0.021 C 
HETATM    6  C13 UNL     1       1.891   6.892  12.147  1.00  0.00    -0.070 C 
HETATM    7  C14 UNL     1       2.838   6.228  11.467  1.00  0.00    -0.022 C 
HETATM    8  C15 UNL     1       4.256   6.676  11.360  1.00  0.00     0.034 C 
HETATM    9  C16 UNL     1       4.446   8.189  11.653  1.00  0.00     0.013 C 
HETATM   10  C17 UNL     1       5.959   8.629  11.566  1.00  0.00     0.018 C 
HETATM   11  C18 UNL     1       6.065  10.023  10.903  1.00  0.00     0.023 C 
HETATM   12  C19 UNL     1       6.850   7.688  10.730  1.00  0.00     0.023 C 
HETATM   13  C20 UNL     1       6.582   8.677  12.967  1.00  0.00     0.135 C 
HETATM   14  O1  UNL     1       7.552   9.392  13.227  1.00  0.00    -0.297 OA
HETATM   15  C21 UNL     1       6.029   7.735  14.009  1.00  0.00     0.080 C 
HETATM   16  C22 UNL     1       4.509   7.796  14.150  1.00  0.00     0.017 C 
HETATM   17  C23 UNL     1       3.752   8.558  13.012  1.00  0.00    -0.031 C 
HETATM   18  C24 UNL     1       3.842  10.069  13.343  1.00  0.00     0.016 C 
HETATM   19  C25 UNL     1       2.222   8.101  13.033  1.00  0.00     0.024 C 
HETATM   20  C26 UNL     1       1.149   9.195  12.809  1.00  0.00     0.010 C 
HETATM   21  C27 UNL     1      -0.311   8.718  13.052  1.00  0.00     0.011 C 
HETATM   22  C28 UNL     1      -0.501   7.183  13.036  1.00  0.00    -0.029 C 
HETATM   23  C29 UNL     1      -0.202   6.585  14.451  1.00  0.00     0.016 C 
ENDROOT
BRANCH   1  24
HETATM   24  C6  UNL     1      -3.097   6.719  13.602  1.00  0.00    -0.014 C 
HETATM   25  C7  UNL     1      -4.146   7.765  13.211  1.00  0.00     0.010 C 
BRANCH  24  26
HETATM   26  C5  UNL     1      -3.775   5.340  13.816  1.00  0.00     0.008 C 
BRANCH  26  27
HETATM   27  C4  UNL     1      -4.337   4.680  12.551  1.00  0.00     0.028 C 
BRANCH  27  28
HETATM   28  C3  UNL     1      -5.677   4.052  12.832  1.00  0.00    -0.013 C 
HETATM   29  C2  UNL     1      -6.294   3.068  12.147  1.00  0.00     0.008 C 
HETATM   30  C1  UNL     1      -5.767   2.363  10.932  1.00  0.00     0.055 C 
BRANCH  29  31
HETATM   31  C30 UNL     1      -7.624   2.643  12.661  1.00  0.00     0.171 C 
HETATM   32  O2  UNL     1      -8.548   3.368  12.985  1.00  0.00    -0.646 OA
BRANCH  31  33
HETATM   33  O3  UNL     1      -7.736   1.307  12.747  1.00  0.00    -0.773 OA
HETATM   34  H46 UNL     1      -8.643   1.179  13.093  1.00  0.00     0.167 HD
ENDBRANCH  31  33
ENDBRANCH  29  31
ENDBRANCH  27  28
ENDBRANCH  26  27
ENDBRANCH  24  26
ENDBRANCH   1  24
TORSDOF 6
ENDMDL
MODEL 3
REMARK minimizedAffinity -8.97276306
REMARK  6 active torsions:
REMARK  status: ('A' for Active; 'I' for Inactive)
REMARK    1  A    between atoms: C2_2  and  C30_31 
REMARK    2  A    between atoms: C3_3  and  C4_4 
REMARK    3  A    between atoms: C4_4  and  C5_5 
REMARK    4  A    between atoms: C5_5  and  C6_6 
REMARK    5  A    between atoms: C6_6  and  C8_8 
REMARK    6  A    between atoms: C30_31  and  O3_33 
ROOT
HETATM    1  C8  UNL     1      -1.125   5.867  11.616  1.00  0.00    -0.002 C 
HETATM    2  C9  UNL     1       0.389   6.242  11.690  1.00  0.00     0.007 C 
HETATM    3  C10 UNL     1       0.523   7.435  12.664  1.00  0.00     0.015 C 
HETATM    4  C11 UNL     1      -0.920   7.930  12.867  1.00  0.00    -0.013 C 
HETATM    5  C12 UNL     1      -1.252   8.833  11.625  1.00  0.00     0.021 C 
HETATM    6  C13 UNL     1      -1.245   8.791  14.095  1.00  0.00    -0.070 C 
HETATM    7  C14 UNL     1      -0.469   9.840  14.410  1.00  0.00    -0.022 C 
HETATM    8  C15 UNL     1      -0.881  10.932  15.337  1.00  0.00     0.034 C 
HETATM    9  C16 UNL     1      -2.421  11.041  15.511  1.00  0.00     0.013 C 
HETATM   10  C17 UNL     1      -2.827  12.183  16.523  1.00  0.00     0.018 C 
HETATM   11  C18 UNL     1      -4.090  12.914  16.011  1.00  0.00     0.023 C 
HETATM   12  C19 UNL     1      -1.753  13.271  16.722  1.00  0.00     0.023 C 
HETATM   13  C20 UNL     1      -3.102  11.592  17.912  1.00  0.00     0.135 C 
HETATM   14  O1  UNL     1      -3.841  12.150  18.724  1.00  0.00    -0.297 OA
HETATM   15  C21 UNL     1      -2.350  10.341  18.299  1.00  0.00     0.080 C 
HETATM   16  C22 UNL     1      -2.446   9.220  17.265  1.00  0.00     0.017 C 
HETATM   17  C23 UNL     1      -3.016   9.632  15.867  1.00  0.00    -0.031 C 
HETATM   18  C24 UNL     1      -4.559   9.647  15.994  1.00  0.00     0.016 C 
HETATM   19  C25 UNL     1      -2.581   8.525  14.801  1.00  0.00     0.024 C 
HETATM   20  C26 UNL     1      -3.631   8.104  13.744  1.00  0.00     0.010 C 
HETATM   21  C27 UNL     1      -3.214   6.880  12.881  1.00  0.00     0.011 C 
HETATM   22  C28 UNL     1      -1.699   6.568  12.893  1.00  0.00    -0.029 C 
HETATM   23  C29 UNL     1      -1.341   5.665  14.121  1.00  0.00     0.016 C 
ENDROOT
BRANCH   1  24
HETATM   24  C6  UNL     1      -1.357   4.343  11.405  1.00  0.00    -0.014 C 
HETATM   25  C7  UNL     1      -0.161   3.501  11.862  1.00  0.00     0.010 C 
BRANCH  24  26
HETATM   26  C5  UNL     1      -2.657   3.829  12.078  1.00  0.00     0.008 C 
BRANCH  26  27
HETATM   27  C4  UNL     1      -3.872   3.703  11.151  1.00  0.00     0.028 C 
BRANCH  27  28
HETATM   28  C3  UNL     1      -5.144   3.615  11.953  1.00  0.00    -0.013 C 
HETATM   29  C2  UNL     1      -6.044   2.611  11.976  1.00  0.00     0.008 C 
HETATM   30  C1  UNL     1      -5.972   1.331  11.195  1.00  0.00     0.055 C 
BRANCH  29  31
HETATM   31  C30 UNL     1      -7.216   2.798  12.873  1.00  0.00     0.171 C 
HETATM   32  O2  UNL     1      -7.328   3.619  13.766  1.00  0.00    -0.646 OA
BRANCH  31  33
HETATM   33  O3  UNL     1      -8.208   1.934  12.606  1.00  0.00    -0.773 OA
HETATM   34  H46 UNL     1      -8.897   2.170  13.261  1.00  0.00     0.167 HD
ENDBRANCH  31  33
ENDBRANCH  29  31
ENDBRANCH  27  28
ENDBRANCH  26  27
ENDBRANCH  24  26
ENDBRANCH   1  24
TORSDOF 6
ENDMDL
MODEL 4
REMARK minimizedAffinity -8.89966488
REMARK  6 active torsions:
REMARK  status: ('A' for Active; 'I' for Inactive)
REMARK    1  A    between atoms: C2_2  and  C30_31 
REMARK    2  A    between atoms: C3_3  and  C4_4 
REMARK    3  A    between atoms: C4_4  and  C5_5 
REMARK    4  A    between atoms: C5_5  and  C6_6 
REMARK    5  A    between atoms: C6_6  and  C8_8 
REMARK    6  A    between atoms: C30_31  and  O3_33 
ROOT
HETATM    1  C8  UNL     1      -4.046   7.322  14.526  1.00  0.00    -0.002 C 
HETATM    2  C9  UNL     1      -3.814   5.961  15.257  1.00  0.00     0.007 C 
HETATM    3  C10 UNL     1      -2.501   5.360  14.705  1.00  0.00     0.015 C 
HETATM    4  C11 UNL     1      -2.187   6.200  13.455  1.00  0.00    -0.013 C 
HETATM    5  C12 UNL     1      -3.075   5.615  12.299  1.00  0.00     0.021 C 
HETATM    6  C13 UNL     1      -0.755   6.207  12.904  1.00  0.00    -0.070 C 
HETATM    7  C14 UNL     1      -0.094   5.053  12.723  1.00  0.00    -0.022 C 
HETATM    8  C15 UNL     1       1.127   4.915  11.878  1.00  0.00     0.034 C 
HETATM    9  C16 UNL     1       1.285   6.057  10.838  1.00  0.00     0.013 C 
HETATM   10  C17 UNL     1       2.602   5.905   9.980  1.00  0.00     0.018 C 
HETATM   11  C18 UNL     1       2.322   6.300   8.511  1.00  0.00     0.023 C 
HETATM   12  C19 UNL     1       3.174   4.474   9.938  1.00  0.00     0.023 C 
HETATM   13  C20 UNL     1       3.715   6.795  10.549  1.00  0.00     0.135 C 
HETATM   14  O1  UNL     1       4.644   7.205   9.852  1.00  0.00    -0.297 OA
HETATM   15  C21 UNL     1       3.694   7.075  12.033  1.00  0.00     0.080 C 
HETATM   16  C22 UNL     1       2.349   7.592  12.543  1.00  0.00     0.017 C 
HETATM   17  C23 UNL     1       1.146   7.449  11.552  1.00  0.00    -0.031 C 
HETATM   18  C24 UNL     1       1.229   8.641  10.566  1.00  0.00     0.016 C 
HETATM   19  C25 UNL     1      -0.210   7.546  12.390  1.00  0.00     0.024 C 
HETATM   20  C26 UNL     1      -1.375   8.355  11.768  1.00  0.00     0.010 C 
HETATM   21  C27 UNL     1      -2.578   8.583  12.725  1.00  0.00     0.011 C 
HETATM   22  C28 UNL     1      -2.627   7.626  13.940  1.00  0.00    -0.029 C 
HETATM   23  C29 UNL     1      -1.751   8.189  15.109  1.00  0.00     0.016 C 
ENDROOT
BRANCH   1  24
HETATM   24  C6  UNL     1      -4.748   8.377  15.429  1.00  0.00    -0.014 C 
HETATM   25  C7  UNL     1      -4.162   9.781  15.252  1.00  0.00     0.010 C 
BRANCH  24  26
HETATM   26  C5  UNL     1      -6.287   8.414  15.233  1.00  0.00     0.008 C 
BRANCH  26  27
HETATM   27  C4  UNL     1      -7.046   7.186  15.754  1.00  0.00     0.028 C 
BRANCH  27  28
HETATM   28  C3  UNL     1      -7.403   6.264  14.618  1.00  0.00    -0.013 C 
HETATM   29  C2  UNL     1      -8.564   6.197  13.935  1.00  0.00     0.008 C 
HETATM   30  C1  UNL     1      -9.779   7.051  14.157  1.00  0.00     0.055 C 
BRANCH  29  31
HETATM   31  C30 UNL     1      -8.633   5.179  12.852  1.00  0.00     0.171 C 
HETATM   32  O2  UNL     1      -8.629   5.388  11.652  1.00  0.00    -0.646 OA
BRANCH  31  33
HETATM   33  O3  UNL     1      -8.709   3.927  13.332  1.00  0.00    -0.773 OA
HETATM   34  H46 UNL     1      -8.749   3.377  12.522  1.00  0.00     0.167 HD
ENDBRANCH  31  33
ENDBRANCH  29  31
ENDBRANCH  27  28
ENDBRANCH  26  27
ENDBRANCH  24  26
ENDBRANCH   1  24
TORSDOF 6
ENDMDL
MODEL 5
REMARK minimizedAffinity -8.8957653
REMARK  6 active torsions:
REMARK  status: ('A' for Active; 'I' for Inactive)
REMARK    1  A    between atoms: C2_2  and  C30_31 
REMARK    2  A    between atoms: C3_3  and  C4_4 
REMARK    3  A    between atoms: C4_4  and  C5_5 
REMARK    4  A    between atoms: C5_5  and  C6_6 
REMARK    5  A    between atoms: C6_6  and  C8_8 
REMARK    6  A    between atoms: C30_31  and  O3_33 
ROOT
HETATM    1  C8  UNL     1      -2.493   5.452  13.190  1.00  0.00    -0.002 C 
HETATM    2  C9  UNL     1      -3.878   6.110  12.889  1.00  0.00     0.007 C 
HETATM    3  C10 UNL     1      -3.927   7.453  13.653  1.00  0.00     0.015 C 
HETATM    4  C11 UNL     1      -2.737   7.387  14.625  1.00  0.00    -0.013 C 
HETATM    5  C12 UNL     1      -3.222   6.538  15.855  1.00  0.00     0.021 C 
HETATM    6  C13 UNL     1      -2.190   8.691  15.222  1.00  0.00    -0.070 C 
HETATM    7  C14 UNL     1      -3.028   9.593  15.756  1.00  0.00    -0.022 C 
HETATM    8  C15 UNL     1      -2.597  10.695  16.664  1.00  0.00     0.034 C 
HETATM    9  C16 UNL     1      -1.225  10.430  17.342  1.00  0.00     0.013 C 
HETATM   10  C17 UNL     1      -0.778  11.625  18.271  1.00  0.00     0.018 C 
HETATM   11  C18 UNL     1      -0.107  11.075  19.551  1.00  0.00     0.023 C 
HETATM   12  C19 UNL     1      -1.932  12.530  18.747  1.00  0.00     0.023 C 
HETATM   13  C20 UNL     1       0.205  12.540  17.527  1.00  0.00     0.135 C 
HETATM   14  O1  UNL     1       1.023  13.242  18.124  1.00  0.00    -0.297 OA
HETATM   15  C21 UNL     1       0.071  12.633  16.026  1.00  0.00     0.080 C 
HETATM   16  C22 UNL     1       0.044  11.276  15.325  1.00  0.00     0.017 C 
HETATM   17  C23 UNL     1      -0.163  10.034  16.255  1.00  0.00    -0.031 C 
HETATM   18  C24 UNL     1       1.220   9.690  16.864  1.00  0.00     0.016 C 
HETATM   19  C25 UNL     1      -0.667   8.813  15.359  1.00  0.00     0.024 C 
HETATM   20  C26 UNL     1      -0.079   7.413  15.667  1.00  0.00     0.010 C 
HETATM   21  C27 UNL     1      -0.451   6.320  14.627  1.00  0.00     0.011 C 
HETATM   22  C28 UNL     1      -1.666   6.665  13.734  1.00  0.00    -0.029 C 
HETATM   23  C29 UNL     1      -1.208   7.509  12.498  1.00  0.00     0.016 C 
ENDROOT
BRANCH   1  24
HETATM   24  C6  UNL     1      -1.948   4.625  11.991  1.00  0.00    -0.014 C 
HETATM   25  C7  UNL     1      -0.469   4.261  12.156  1.00  0.00     0.010 C 
BRANCH  24  26
HETATM   26  C5  UNL     1      -2.782   3.348  11.707  1.00  0.00     0.008 C 
BRANCH  26  27
HETATM   27  C4  UNL     1      -3.997   3.545  10.793  1.00  0.00     0.028 C 
BRANCH  27  28
HETATM   28  C3  UNL     1      -5.273   3.502  11.591  1.00  0.00    -0.013 C 
HETATM   29  C2  UNL     1      -6.111   2.459  11.764  1.00  0.00     0.008 C 
HETATM   30  C1  UNL     1      -5.948   1.081  11.192  1.00  0.00     0.055 C 
BRANCH  29  31
HETATM   31  C30 UNL     1      -7.306   2.708  12.614  1.00  0.00     0.171 C 
HETATM   32  O2  UNL     1      -7.550   3.717  13.253  1.00  0.00    -0.646 OA
BRANCH  31  33
HETATM   33  O3  UNL     1      -8.152   1.666  12.626  1.00  0.00    -0.773 OA
HETATM   34  H46 UNL     1      -8.874   1.968  13.214  1.00  0.00     0.167 HD
ENDBRANCH  31  33
ENDBRANCH  29  31
ENDBRANCH  27  28
ENDBRANCH  26  27
ENDBRANCH  24  26
ENDBRANCH   1  24
TORSDOF 6
ENDMDL
MODEL 6
REMARK minimizedAffinity -8.86255646
REMARK  6 active torsions:
REMARK  status: ('A' for Active; 'I' for Inactive)
REMARK    1  A    between atoms: C2_2  and  C30_31 
REMARK    2  A    between atoms: C3_3  and  C4_4 
REMARK    3  A    between atoms: C4_4  and  C5_5 
REMARK    4  A    between atoms: C5_5  and  C6_6 
REMARK    5  A    between atoms: C6_6  and  C8_8 
REMARK    6  A    between atoms: C30_31  and  O3_33 
ROOT
HETATM    1  C8  UNL     1      -4.969   6.651  15.480  1.00  0.00    -0.002 C 
HETATM    2  C9  UNL     1      -5.333   8.170  15.483  1.00  0.00     0.007 C 
HETATM    3  C10 UNL     1      -4.110   8.939  14.931  1.00  0.00     0.015 C 
HETATM    4  C11 UNL     1      -2.970   7.905  14.938  1.00  0.00    -0.013 C 
HETATM    5  C12 UNL     1      -2.424   7.864  16.410  1.00  0.00     0.021 C 
HETATM    6  C13 UNL     1      -1.740   8.150  14.054  1.00  0.00    -0.070 C 
HETATM    7  C14 UNL     1      -1.128   9.345  14.063  1.00  0.00    -0.022 C 
HETATM    8  C15 UNL     1       0.249   9.579  13.541  1.00  0.00     0.034 C 
HETATM    9  C16 UNL     1       1.102   8.284  13.455  1.00  0.00     0.013 C 
HETATM   10  C17 UNL     1       2.542   8.556  12.868  1.00  0.00     0.018 C 
HETATM   11  C18 UNL     1       3.588   7.701  13.621  1.00  0.00     0.023 C 
HETATM   12  C19 UNL     1       3.015  10.019  12.990  1.00  0.00     0.023 C 
HETATM   13  C20 UNL     1       2.581   8.217  11.372  1.00  0.00     0.135 C 
HETATM   14  O1  UNL     1       3.627   7.908  10.799  1.00  0.00    -0.297 OA
HETATM   15  C21 UNL     1       1.299   8.371  10.588  1.00  0.00     0.080 C 
HETATM   16  C22 UNL     1       0.103   7.660  11.218  1.00  0.00     0.017 C 
HETATM   17  C23 UNL     1       0.301   7.170  12.691  1.00  0.00    -0.031 C 
HETATM   18  C24 UNL     1       1.063   5.823  12.621  1.00  0.00     0.016 C 
HETATM   19  C25 UNL     1      -1.138   6.932  13.340  1.00  0.00     0.024 C 
HETATM   20  C26 UNL     1      -1.316   5.685  14.241  1.00  0.00     0.010 C 
HETATM   21  C27 UNL     1      -2.786   5.405  14.662  1.00  0.00     0.011 C 
HETATM   22  C28 UNL     1      -3.744   6.610  14.507  1.00  0.00    -0.029 C 
HETATM   23  C29 UNL     1      -4.305   6.672  13.047  1.00  0.00     0.016 C 
ENDROOT
BRANCH   1  24
HETATM   24  C6  UNL     1      -6.200   5.739  15.206  1.00  0.00    -0.014 C 
HETATM   25  C7  UNL     1      -7.403   6.104  16.081  1.00  0.00     0.010 C 
BRANCH  24  26
HETATM   26  C5  UNL     1      -6.616   5.716  13.711  1.00  0.00     0.008 C 
BRANCH  26  27
HETATM   27  C4  UNL     1      -6.719   4.323  13.079  1.00  0.00     0.028 C 
BRANCH  27  28
HETATM   28  C3  UNL     1      -5.406   3.924  12.458  1.00  0.00    -0.013 C 
HETATM   29  C2  UNL     1      -5.127   2.815  11.742  1.00  0.00     0.008 C 
HETATM   30  C1  UNL     1      -6.087   1.715  11.394  1.00  0.00     0.055 C 
BRANCH  29  31
HETATM   31  C30 UNL     1      -3.730   2.685  11.248  1.00  0.00     0.171 C 
HETATM   32  O2  UNL     1      -2.791   2.181  11.839  1.00  0.00    -0.646 OA
BRANCH  31  33
HETATM   33  O3  UNL     1      -3.572   3.202  10.019  1.00  0.00    -0.773 OA
HETATM   34  H46 UNL     1      -2.623   3.048   9.830  1.00  0.00     0.167 HD
ENDBRANCH  31  33
ENDBRANCH  29  31
ENDBRANCH  27  28
ENDBRANCH  26  27
ENDBRANCH  24  26
ENDBRANCH   1  24
TORSDOF 6
ENDMDL
MODEL 7
REMARK minimizedAffinity -8.8423357
REMARK  6 active torsions:
REMARK  status: ('A' for Active; 'I' for Inactive)
REMARK    1  A    between atoms: C2_2  and  C30_31 
REMARK    2  A    between atoms: C3_3  and  C4_4 
REMARK    3  A    between atoms: C4_4  and  C5_5 
REMARK    4  A    between atoms: C5_5  and  C6_6 
REMARK    5  A    between atoms: C6_6  and  C8_8 
REMARK    6  A    between atoms: C30_31  and  O3_33 
ROOT
HETATM    1  C8  UNL     1       0.706   6.619  12.740  1.00  0.00    -0.002 C 
HETATM    2  C9  UNL     1       0.613   5.805  11.411  1.00  0.00     0.007 C 
HETATM    3  C10 UNL     1      -0.844   5.307  11.275  1.00  0.00     0.015 C 
HETATM    4  C11 UNL     1      -1.465   5.551  12.661  1.00  0.00    -0.013 C 
HETATM    5  C12 UNL     1      -1.016   4.345  13.561  1.00  0.00     0.021 C 
HETATM    6  C13 UNL     1      -2.994   5.608  12.791  1.00  0.00    -0.070 C 
HETATM    7  C14 UNL     1      -3.756   4.658  12.229  1.00  0.00    -0.022 C 
HETATM    8  C15 UNL     1      -5.184   4.416  12.587  1.00  0.00     0.034 C 
HETATM    9  C16 UNL     1      -5.572   4.984  13.979  1.00  0.00     0.013 C 
HETATM   10  C17 UNL     1      -7.095   4.744  14.317  1.00  0.00     0.018 C 
HETATM   11  C18 UNL     1      -7.251   4.380  15.812  1.00  0.00     0.023 C 
HETATM   12  C19 UNL     1      -7.751   3.595  13.525  1.00  0.00     0.023 C 
HETATM   13  C20 UNL     1      -7.916   6.002  14.006  1.00  0.00     0.135 C 
HETATM   14  O1  UNL     1      -8.984   6.243  14.573  1.00  0.00    -0.297 OA
HETATM   15  C21 UNL     1      -7.423   6.900  12.896  1.00  0.00     0.080 C 
HETATM   16  C22 UNL     1      -5.954   7.299  13.034  1.00  0.00     0.017 C 
HETATM   17  C23 UNL     1      -5.125   6.486  14.083  1.00  0.00    -0.031 C 
HETATM   18  C24 UNL     1      -5.422   7.106  15.471  1.00  0.00     0.016 C 
HETATM   19  C25 UNL     1      -3.575   6.662  13.744  1.00  0.00     0.024 C 
HETATM   20  C26 UNL     1      -2.602   6.851  14.934  1.00  0.00     0.010 C 
HETATM   21  C27 UNL     1      -1.151   7.225  14.522  1.00  0.00     0.011 C 
HETATM   22  C28 UNL     1      -0.800   6.919  13.046  1.00  0.00    -0.029 C 
HETATM   23  C29 UNL     1      -1.235   8.108  12.127  1.00  0.00     0.016 C 
ENDROOT
BRANCH   1  24
HETATM   24  C6  UNL     1       1.722   7.794  12.655  1.00  0.00    -0.014 C 
HETATM   25  C7  UNL     1       1.737   8.648  13.927  1.00  0.00     0.010 C 
BRANCH  24  26
HETATM   26  C5  UNL     1       3.161   7.327  12.311  1.00  0.00     0.008 C 
BRANCH  26  27
HETATM   27  C4  UNL     1       3.549   7.429  10.831  1.00  0.00     0.028 C 
BRANCH  27  28
HETATM   28  C3  UNL     1       3.778   6.060  10.248  1.00  0.00    -0.013 C 
HETATM   29  C2  UNL     1       3.342   5.575   9.067  1.00  0.00     0.008 C 
HETATM   30  C1  UNL     1       2.521   6.312   8.050  1.00  0.00     0.055 C 
BRANCH  29  31
HETATM   31  C30 UNL     1       3.726   4.173   8.749  1.00  0.00     0.171 C 
HETATM   32  O2  UNL     1       4.271   3.778   7.733  1.00  0.00    -0.646 OA
BRANCH  31  33
HETATM   33  O3  UNL     1       3.402   3.318   9.732  1.00  0.00    -0.773 OA
HETATM   34  H46 UNL     1       3.707   2.453   9.388  1.00  0.00     0.167 HD
ENDBRANCH  31  33
ENDBRANCH  29  31
ENDBRANCH  27  28
ENDBRANCH  26  27
ENDBRANCH  24  26
ENDBRANCH   1  24
TORSDOF 6
ENDMDL
MODEL 8
REMARK minimizedAffinity -8.81186485
REMARK  6 active torsions:
REMARK  status: ('A' for Active; 'I' for Inactive)
REMARK    1  A    between atoms: C2_2  and  C30_31 
REMARK    2  A    between atoms: C3_3  and  C4_4 
REMARK    3  A    between atoms: C4_4  and  C5_5 
REMARK    4  A    between atoms: C5_5  and  C6_6 
REMARK    5  A    between atoms: C6_6  and  C8_8 
REMARK    6  A    between atoms: C30_31  and  O3_33 
ROOT
HETATM    1  C8  UNL     1      -3.736   7.215  15.381  1.00  0.00    -0.002 C 
HETATM    2  C9  UNL     1      -3.525   8.714  15.766  1.00  0.00     0.007 C 
HETATM    3  C10 UNL     1      -2.282   9.217  14.997  1.00  0.00     0.015 C 
HETATM    4  C11 UNL     1      -1.618   7.938  14.459  1.00  0.00    -0.013 C 
HETATM    5  C12 UNL     1      -0.783   7.344  15.649  1.00  0.00     0.021 C 
HETATM    6  C13 UNL     1      -0.634   8.048  13.286  1.00  0.00    -0.070 C 
HETATM    7  C14 UNL     1       0.345   8.966  13.308  1.00  0.00    -0.022 C 
HETATM    8  C15 UNL     1       1.544   8.927  12.423  1.00  0.00     0.034 C 
HETATM    9  C16 UNL     1       1.835   7.515  11.846  1.00  0.00     0.013 C 
HETATM   10  C17 UNL     1       3.088   7.508  10.887  1.00  0.00     0.018 C 
HETATM   11  C18 UNL     1       3.912   6.218  11.106  1.00  0.00     0.023 C 
HETATM   12  C19 UNL     1       4.064   8.682  11.106  1.00  0.00     0.023 C 
HETATM   13  C20 UNL     1       2.641   7.590   9.422  1.00  0.00     0.135 C 
HETATM   14  O1  UNL     1       3.337   7.161   8.501  1.00  0.00    -0.297 OA
HETATM   15  C21 UNL     1       1.348   8.314   9.127  1.00  0.00     0.080 C 
HETATM   16  C22 UNL     1       0.168   7.835   9.971  1.00  0.00     0.017 C 
HETATM   17  C23 UNL     1       0.531   6.929  11.194  1.00  0.00    -0.031 C 
HETATM   18  C24 UNL     1       0.724   5.491  10.651  1.00  0.00     0.016 C 
HETATM   19  C25 UNL     1      -0.696   6.950  12.216  1.00  0.00     0.024 C 
HETATM   20  C26 UNL     1      -1.081   5.611  12.894  1.00  0.00     0.010 C 
HETATM   21  C27 UNL     1      -2.405   5.663  13.705  1.00  0.00     0.011 C 
HETATM   22  C28 UNL     1      -2.880   7.088  14.077  1.00  0.00    -0.029 C 
HETATM   23  C29 UNL     1      -3.719   7.702  12.907  1.00  0.00     0.016 C 
ENDROOT
BRANCH   1  24
HETATM   24  C6  UNL     1      -5.237   6.806  15.359  1.00  0.00    -0.014 C 
HETATM   25  C7  UNL     1      -6.173   8.009  15.519  1.00  0.00     0.010 C 
BRANCH  24  26
HETATM   26  C5  UNL     1      -5.626   5.995  14.095  1.00  0.00     0.008 C 
BRANCH  26  27
HETATM   27  C4  UNL     1      -6.739   4.959  14.295  1.00  0.00     0.028 C 
BRANCH  27  28
HETATM   28  C3  UNL     1      -8.083   5.634  14.370  1.00  0.00    -0.013 C 
HETATM   29  C2  UNL     1      -8.908   5.959  13.353  1.00  0.00     0.008 C 
HETATM   30  C1  UNL     1      -8.666   5.708  11.894  1.00  0.00     0.055 C 
BRANCH  29  31
HETATM   31  C30 UNL     1     -10.185   6.625  13.729  1.00  0.00     0.171 C 
HETATM   32  O2  UNL     1     -10.998   7.124  12.971  1.00  0.00    -0.646 OA
BRANCH  31  33
HETATM   33  O3  UNL     1     -10.384   6.637  15.057  1.00  0.00    -0.773 OA
HETATM   34  H46 UNL     1     -11.243   7.098  15.152  1.00  0.00     0.167 HD
ENDBRANCH  31  33
ENDBRANCH  29  31
ENDBRANCH  27  28
ENDBRANCH  26  27
ENDBRANCH  24  26
ENDBRANCH   1  24
TORSDOF 6
ENDMDL
MODEL 9
REMARK minimizedAffinity -8.80734158
REMARK  6 active torsions:
REMARK  status: ('A' for Active; 'I' for Inactive)
REMARK    1  A    between atoms: C2_2  and  C30_31 
REMARK    2  A    between atoms: C3_3  and  C4_4 
REMARK    3  A    between atoms: C4_4  and  C5_5 
REMARK    4  A    between atoms: C5_5  and  C6_6 
REMARK    5  A    between atoms: C6_6  and  C8_8 
REMARK    6  A    between atoms: C30_31  and  O3_33 
ROOT
HETATM    1  C8  UNL     1      -1.373   5.794  11.921  1.00  0.00    -0.002 C 
HETATM    2  C9  UNL     1      -0.607   4.561  11.346  1.00  0.00     0.007 C 
HETATM    3  C10 UNL     1       0.902   4.897  11.382  1.00  0.00     0.015 C 
HETATM    4  C11 UNL     1       0.953   6.410  11.655  1.00  0.00    -0.013 C 
HETATM    5  C12 UNL     1       0.712   7.114  10.271  1.00  0.00     0.021 C 
HETATM    6  C13 UNL     1       2.248   7.024  12.204  1.00  0.00    -0.070 C 
HETATM    7  C14 UNL     1       3.428   6.732  11.635  1.00  0.00    -0.022 C 
HETATM    8  C15 UNL     1       4.672   7.528  11.844  1.00  0.00     0.034 C 
HETATM    9  C16 UNL     1       4.401   8.974  12.341  1.00  0.00     0.013 C 
HETATM   10  C17 UNL     1       5.735   9.781  12.585  1.00  0.00     0.018 C 
HETATM   11  C18 UNL     1       5.555  11.246  12.120  1.00  0.00     0.023 C 
HETATM   12  C19 UNL     1       6.959   9.236  11.822  1.00  0.00     0.023 C 
HETATM   13  C20 UNL     1       6.110   9.755  14.072  1.00  0.00     0.135 C 
HETATM   14  O1  UNL     1       6.802  10.636  14.587  1.00  0.00    -0.297 OA
HETATM   15  C21 UNL     1       5.686   8.550  14.878  1.00  0.00     0.080 C 
HETATM   16  C22 UNL     1       4.202   8.211  14.744  1.00  0.00     0.017 C 
HETATM   17  C23 UNL     1       3.442   8.936  13.584  1.00  0.00    -0.031 C 
HETATM   18  C24 UNL     1       3.071  10.348  14.100  1.00  0.00     0.016 C 
HETATM   19  C25 UNL     1       2.106   8.118  13.271  1.00  0.00     0.024 C 
HETATM   20  C26 UNL     1       0.822   8.934  12.983  1.00  0.00     0.010 C 
HETATM   21  C27 UNL     1      -0.473   8.080  12.898  1.00  0.00     0.011 C 
HETATM   22  C28 UNL     1      -0.236   6.568  12.667  1.00  0.00    -0.029 C 
HETATM   23  C29 UNL     1       0.003   5.843  14.033  1.00  0.00     0.016 C 
ENDROOT
BRANCH   1  24
HETATM   24  C6  UNL     1      -2.664   5.393  12.691  1.00  0.00    -0.014 C 
HETATM   25  C7  UNL     1      -3.519   6.606  13.071  1.00  0.00     0.010 C 
BRANCH  24  26
HETATM   26  C5  UNL     1      -3.526   4.353  11.927  1.00  0.00     0.008 C 
BRANCH  26  27
HETATM   27  C4  UNL     1      -4.568   3.612  12.775  1.00  0.00     0.028 C 
BRANCH  27  28
HETATM   28  C3  UNL     1      -5.864   4.378  12.809  1.00  0.00    -0.013 C 
HETATM   29  C2  UNL     1      -7.121   3.888  12.788  1.00  0.00     0.008 C 
HETATM   30  C1  UNL     1      -7.511   2.440  12.731  1.00  0.00     0.055 C 
BRANCH  29  31
HETATM   31  C30 UNL     1      -8.219   4.890  12.833  1.00  0.00     0.171 C 
HETATM   32  O2  UNL     1      -8.781   5.401  11.880  1.00  0.00    -0.646 OA
BRANCH  31  33
HETATM   33  O3  UNL     1      -8.566   5.213  14.090  1.00  0.00    -0.773 OA
HETATM   34  H46 UNL     1      -9.283   5.868  13.965  1.00  0.00     0.167 HD
ENDBRANCH  31  33
ENDBRANCH  29  31
ENDBRANCH  27  28
ENDBRANCH  26  27
ENDBRANCH  24  26
ENDBRANCH   1  24
TORSDOF 6
ENDMDL
