MODEL 1
REMARK minimizedAffinity -9.40915012
REMARK  5 active torsions:
REMARK  status: ('A' for Active; 'I' for Inactive)
REMARK    1  A    between atoms: C2_2  and  C3_3 
REMARK    2  A    between atoms: C4_5  and  C5_6 
REMARK    3  A    between atoms: C5_6  and  C6_7 
REMARK    4  A    between atoms: C6_7  and  C7_8 
REMARK    5  A    between atoms: C7_8  and  C9_10 
ROOT
HETATM    1  C9  UNL     1      -0.682  50.041 -20.798  1.00  0.00    -0.002 C 
HETATM    2  C10 UNL     1      -1.065  49.343 -19.462  1.00  0.00     0.007 C 
HETATM    3  C11 UNL     1      -2.352  48.536 -19.714  1.00  0.00     0.015 C 
HETATM    4  C12 UNL     1      -2.508  48.496 -21.246  1.00  0.00    -0.005 C 
HETATM    5  C13 UNL     1      -1.612  47.330 -21.768  1.00  0.00     0.021 C 
HETATM    6  C14 UNL     1      -3.875  48.249 -21.868  1.00  0.00    -0.000 C 
HETATM    7  C15 UNL     1      -4.206  48.766 -23.080  1.00  0.00    -0.060 C 
HETATM    8  C16 UNL     1      -3.213  49.661 -23.837  1.00  0.00     0.036 C 
HETATM    9  C17 UNL     1      -1.883  50.017 -23.139  1.00  0.00     0.015 C 
HETATM   10  C18 UNL     1      -2.007  49.948 -21.612  1.00  0.00    -0.028 C 
HETATM   11  C19 UNL     1      -2.982  51.075 -21.140  1.00  0.00     0.016 C 
HETATM   12  C20 UNL     1      -5.580  48.530 -23.766  1.00  0.00    -0.014 C 
HETATM   13  C21 UNL     1      -6.407  49.824 -23.598  1.00  0.00     0.020 C 
HETATM   14  C22 UNL     1      -5.384  48.218 -25.272  1.00  0.00     0.021 C 
HETATM   15  C23 UNL     1      -6.610  47.698 -26.015  1.00  0.00     0.080 C 
HETATM   16  C24 UNL     1      -7.847  47.489 -25.177  1.00  0.00     0.135 C 
HETATM   17  O2  UNL     1      -8.956  47.672 -25.684  1.00  0.00    -0.297 OA
HETATM   18  C25 UNL     1      -7.698  46.950 -23.750  1.00  0.00     0.018 C 
HETATM   19  C26 UNL     1      -8.861  47.511 -22.900  1.00  0.00     0.023 C 
HETATM   20  C27 UNL     1      -7.879  45.422 -23.839  1.00  0.00     0.023 C 
HETATM   21  C28 UNL     1      -6.284  47.274 -23.157  1.00  0.00     0.020 C 
HETATM   22  C29 UNL     1      -6.261  47.324 -21.629  1.00  0.00     0.090 C 
HETATM   23  C30 UNL     1      -4.840  47.371 -21.138  1.00  0.00     0.157 C 
HETATM   24  O3  UNL     1      -4.500  46.717 -20.157  1.00  0.00    -0.293 OA
ENDROOT
BRANCH   1  25
HETATM   25  C7  UNL     1      -0.012  51.423 -20.561  1.00  0.00    -0.014 C 
HETATM   26  C8  UNL     1      -0.450  52.079 -19.247  1.00  0.00     0.010 C 
BRANCH  25  27
HETATM   27  C6  UNL     1      -0.238  52.413 -21.736  1.00  0.00     0.008 C 
BRANCH  27  28
HETATM   28  C5  UNL     1       0.776  52.309 -22.883  1.00  0.00     0.028 C 
BRANCH  28  29
HETATM   29  C4  UNL     1       0.258  52.991 -24.118  1.00  0.00    -0.017 C 
HETATM   30  C2  UNL     1       0.615  52.755 -25.394  1.00  0.00    -0.028 C 
HETATM   31  C1  UNL     1       1.591  51.737 -25.893  1.00  0.00     0.051 C 
BRANCH  30  32
HETATM   32  C3  UNL     1      -0.038  53.575 -26.461  1.00  0.00     0.265 C 
HETATM   33  O1  UNL     1       0.134  54.779 -26.603  1.00  0.00    -0.302 OA
ENDBRANCH  30  32
ENDBRANCH  28  29
ENDBRANCH  27  28
ENDBRANCH  25  27
ENDBRANCH   1  25
TORSDOF 5
ENDMDL
MODEL 2
REMARK minimizedAffinity -9.29355145
REMARK  5 active torsions:
REMARK  status: ('A' for Active; 'I' for Inactive)
REMARK    1  A    between atoms: C2_2  and  C3_3 
REMARK    2  A    between atoms: C4_5  and  C5_6 
REMARK    3  A    between atoms: C5_6  and  C6_7 
REMARK    4  A    between atoms: C6_7  and  C7_8 
REMARK    5  A    between atoms: C7_8  and  C9_10 
ROOT
HETATM    1  C9  UNL     1      -3.879  50.424 -24.777  1.00  0.00    -0.002 C 
HETATM    2  C10 UNL     1      -5.349  50.094 -24.391  1.00  0.00     0.007 C 
HETATM    3  C11 UNL     1      -5.418  50.015 -22.855  1.00  0.00     0.015 C 
HETATM    4  C12 UNL     1      -4.094  50.628 -22.361  1.00  0.00    -0.005 C 
HETATM    5  C13 UNL     1      -4.283  52.176 -22.344  1.00  0.00     0.021 C 
HETATM    6  C14 UNL     1      -3.561  50.282 -20.978  1.00  0.00    -0.000 C 
HETATM    7  C15 UNL     1      -2.229  50.269 -20.714  1.00  0.00    -0.060 C 
HETATM    8  C16 UNL     1      -1.216  50.562 -21.832  1.00  0.00     0.036 C 
HETATM    9  C17 UNL     1      -1.758  50.778 -23.261  1.00  0.00     0.015 C 
HETATM   10  C18 UNL     1      -3.108  50.081 -23.467  1.00  0.00    -0.028 C 
HETATM   11  C19 UNL     1      -2.888  48.535 -23.389  1.00  0.00     0.016 C 
HETATM   12  C20 UNL     1      -1.635  49.939 -19.316  1.00  0.00    -0.014 C 
HETATM   13  C21 UNL     1      -1.081  48.498 -19.380  1.00  0.00     0.020 C 
HETATM   14  C22 UNL     1      -0.495  50.930 -18.968  1.00  0.00     0.021 C 
HETATM   15  C23 UNL     1      -0.002  50.906 -17.526  1.00  0.00     0.080 C 
HETATM   16  C24 UNL     1      -0.730  49.965 -16.598  1.00  0.00     0.135 C 
HETATM   17  O2  UNL     1      -0.109  49.422 -15.681  1.00  0.00    -0.297 OA
HETATM   18  C25 UNL     1      -2.246  49.793 -16.750  1.00  0.00     0.018 C 
HETATM   19  C26 UNL     1      -2.615  48.361 -16.299  1.00  0.00     0.023 C 
HETATM   20  C27 UNL     1      -2.899  50.777 -15.760  1.00  0.00     0.023 C 
HETATM   21  C28 UNL     1      -2.719  50.126 -18.206  1.00  0.00     0.020 C 
HETATM   22  C29 UNL     1      -4.024  49.432 -18.596  1.00  0.00     0.090 C 
HETATM   23  C30 UNL     1      -4.545  50.004 -19.886  1.00  0.00     0.157 C 
HETATM   24  O3  UNL     1      -5.744  50.218 -20.032  1.00  0.00    -0.293 OA
ENDROOT
BRANCH   1  25
HETATM   25  C7  UNL     1      -3.466  49.758 -26.118  1.00  0.00    -0.014 C 
HETATM   26  C8  UNL     1      -4.034  48.343 -26.280  1.00  0.00     0.010 C 
BRANCH  25  27
HETATM   27  C6  UNL     1      -1.927  49.727 -26.328  1.00  0.00     0.008 C 
BRANCH  27  28
HETATM   28  C5  UNL     1      -1.340  50.951 -27.042  1.00  0.00     0.028 C 
BRANCH  28  29
HETATM   29  C4  UNL     1       0.162  50.923 -27.001  1.00  0.00    -0.017 C 
HETATM   30  C2  UNL     1       0.971  51.621 -26.182  1.00  0.00    -0.028 C 
HETATM   31  C1  UNL     1       0.570  52.568 -25.096  1.00  0.00     0.051 C 
BRANCH  30  32
HETATM   32  C3  UNL     1       2.447  51.432 -26.338  1.00  0.00     0.265 C 
HETATM   33  O1  UNL     1       3.019  51.357 -27.418  1.00  0.00    -0.302 OA
ENDBRANCH  30  32
ENDBRANCH  28  29
ENDBRANCH  27  28
ENDBRANCH  25  27
ENDBRANCH   1  25
TORSDOF 5
ENDMDL
MODEL 3
REMARK minimizedAffinity -9.06923103
REMARK  5 active torsions:
REMARK  status: ('A' for Active; 'I' for Inactive)
REMARK    1  A    between atoms: C2_2  and  C3_3 
REMARK    2  A    between atoms: C4_5  and  C5_6 
REMARK    3  A    between atoms: C5_6  and  C6_7 
REMARK    4  A    between atoms: C6_7  and  C7_8 
REMARK    5  A    between atoms: C7_8  and  C9_10 
ROOT
HETATM    1  C9  UNL     1      -0.403  50.482 -21.646  1.00  0.00    -0.002 C 
HETATM    2  C10 UNL     1      -0.447  50.137 -20.130  1.00  0.00     0.007 C 
HETATM    3  C11 UNL     1      -1.745  49.349 -19.872  1.00  0.00     0.015 C 
HETATM    4  C12 UNL     1      -2.258  48.953 -21.269  1.00  0.00    -0.005 C 
HETATM    5  C13 UNL     1      -1.494  47.661 -21.691  1.00  0.00     0.021 C 
HETATM    6  C14 UNL     1      -3.730  48.624 -21.476  1.00  0.00    -0.000 C 
HETATM    7  C15 UNL     1      -4.348  48.853 -22.664  1.00  0.00    -0.060 C 
HETATM    8  C16 UNL     1      -3.576  49.501 -23.825  1.00  0.00     0.036 C 
HETATM    9  C17 UNL     1      -2.124  49.955 -23.564  1.00  0.00     0.015 C 
HETATM   10  C18 UNL     1      -1.882  50.255 -22.080  1.00  0.00    -0.028 C 
HETATM   11  C19 UNL     1      -2.733  51.502 -21.678  1.00  0.00     0.016 C 
HETATM   12  C20 UNL     1      -5.842  48.520 -22.932  1.00  0.00    -0.014 C 
HETATM   13  C21 UNL     1      -6.625  49.852 -22.891  1.00  0.00     0.020 C 
HETATM   14  C22 UNL     1      -6.004  47.852 -24.322  1.00  0.00     0.021 C 
HETATM   15  C23 UNL     1      -7.363  47.224 -24.610  1.00  0.00     0.080 C 
HETATM   16  C24 UNL     1      -8.362  47.272 -23.481  1.00  0.00     0.135 C 
HETATM   17  O2  UNL     1      -9.563  47.376 -23.743  1.00  0.00    -0.297 OA
HETATM   18  C25 UNL     1      -7.870  47.080 -22.042  1.00  0.00     0.018 C 
HETATM   19  C26 UNL     1      -8.807  47.875 -21.104  1.00  0.00     0.023 C 
HETATM   20  C27 UNL     1      -8.044  45.584 -21.716  1.00  0.00     0.023 C 
HETATM   21  C28 UNL     1      -6.361  47.475 -21.893  1.00  0.00     0.020 C 
HETATM   22  C29 UNL     1      -5.977  47.884 -20.470  1.00  0.00     0.090 C 
HETATM   23  C30 UNL     1      -4.481  47.987 -20.351  1.00  0.00     0.157 C 
HETATM   24  O3  UNL     1      -3.907  47.570 -19.350  1.00  0.00    -0.293 OA
ENDROOT
BRANCH   1  25
HETATM   25  C7  UNL     1       0.283  51.850 -21.911  1.00  0.00    -0.014 C 
HETATM   26  C8  UNL     1       0.158  52.819 -20.729  1.00  0.00     0.010 C 
BRANCH  25  27
HETATM   27  C6  UNL     1      -0.229  52.542 -23.205  1.00  0.00     0.008 C 
BRANCH  27  28
HETATM   28  C5  UNL     1       0.642  52.326 -24.449  1.00  0.00     0.028 C 
BRANCH  28  29
HETATM   29  C4  UNL     1       0.164  53.180 -25.590  1.00  0.00    -0.017 C 
HETATM   30  C2  UNL     1      -0.009  52.810 -26.873  1.00  0.00    -0.028 C 
HETATM   31  C1  UNL     1       0.204  51.453 -27.466  1.00  0.00     0.051 C 
BRANCH  30  32
HETATM   32  C3  UNL     1      -0.489  53.849 -27.836  1.00  0.00     0.265 C 
HETATM   33  O1  UNL     1      -1.669  54.102 -28.040  1.00  0.00    -0.302 OA
ENDBRANCH  30  32
ENDBRANCH  28  29
ENDBRANCH  27  28
ENDBRANCH  25  27
ENDBRANCH   1  25
TORSDOF 5
ENDMDL
MODEL 4
REMARK minimizedAffinity -8.99787521
REMARK  5 active torsions:
REMARK  status: ('A' for Active; 'I' for Inactive)
REMARK    1  A    between atoms: C2_2  and  C3_3 
REMARK    2  A    between atoms: C4_5  and  C5_6 
REMARK    3  A    between atoms: C5_6  and  C6_7 
REMARK    4  A    between atoms: C6_7  and  C7_8 
REMARK    5  A    between atoms: C7_8  and  C9_10 
ROOT
HETATM    1  C9  UNL     1      -4.601  48.243 -20.325  1.00  0.00    -0.002 C 
HETATM    2  C10 UNL     1      -5.294  47.407 -21.438  1.00  0.00     0.007 C 
HETATM    3  C11 UNL     1      -4.661  47.813 -22.783  1.00  0.00     0.015 C 
HETATM    4  C12 UNL     1      -3.397  48.609 -22.408  1.00  0.00    -0.005 C 
HETATM    5  C13 UNL     1      -2.267  47.571 -22.128  1.00  0.00     0.021 C 
HETATM    6  C14 UNL     1      -2.792  49.592 -23.400  1.00  0.00    -0.000 C 
HETATM    7  C15 UNL     1      -2.118  50.695 -22.984  1.00  0.00    -0.060 C 
HETATM    8  C16 UNL     1      -1.990  51.005 -21.483  1.00  0.00     0.036 C 
HETATM    9  C17 UNL     1      -2.723  50.077 -20.490  1.00  0.00     0.015 C 
HETATM   10  C18 UNL     1      -3.927  49.387 -21.140  1.00  0.00    -0.028 C 
HETATM   11  C19 UNL     1      -4.998  50.473 -21.483  1.00  0.00     0.016 C 
HETATM   12  C20 UNL     1      -1.467  51.720 -23.954  1.00  0.00    -0.014 C 
HETATM   13  C21 UNL     1      -2.383  52.964 -23.993  1.00  0.00     0.020 C 
HETATM   14  C22 UNL     1      -0.055  52.116 -23.452  1.00  0.00     0.021 C 
HETATM   15  C23 UNL     1       0.812  52.898 -24.433  1.00  0.00     0.080 C 
HETATM   16  C24 UNL     1       0.212  53.132 -25.798  1.00  0.00     0.135 C 
HETATM   17  O2  UNL     1       0.483  54.171 -26.404  1.00  0.00    -0.297 OA
HETATM   18  C25 UNL     1      -0.630  52.025 -26.442  1.00  0.00     0.018 C 
HETATM   19  C26 UNL     1      -1.684  52.692 -27.355  1.00  0.00     0.023 C 
HETATM   20  C27 UNL     1       0.325  51.218 -27.343  1.00  0.00     0.023 C 
HETATM   21  C28 UNL     1      -1.255  51.076 -25.363  1.00  0.00     0.020 C 
HETATM   22  C29 UNL     1      -2.525  50.369 -25.836  1.00  0.00     0.090 C 
HETATM   23  C30 UNL     1      -2.907  49.290 -24.860  1.00  0.00     0.157 C 
HETATM   24  O3  UNL     1      -3.313  48.204 -25.261  1.00  0.00    -0.293 OA
ENDROOT
BRANCH   1  25
HETATM   25  C7  UNL     1      -5.575  48.586 -19.164  1.00  0.00    -0.014 C 
HETATM   26  C8  UNL     1      -5.198  47.895 -17.848  1.00  0.00     0.010 C 
BRANCH  25  27
HETATM   27  C6  UNL     1      -7.058  48.274 -19.507  1.00  0.00     0.008 C 
BRANCH  27  28
HETATM   28  C5  UNL     1      -8.086  49.233 -18.893  1.00  0.00     0.028 C 
BRANCH  28  29
HETATM   29  C4  UNL     1      -8.975  48.510 -17.920  1.00  0.00    -0.017 C 
HETATM   30  C2  UNL     1     -10.193  47.989 -18.157  1.00  0.00    -0.028 C 
HETATM   31  C1  UNL     1     -10.943  47.977 -19.451  1.00  0.00     0.051 C 
BRANCH  30  32
HETATM   32  C3  UNL     1     -10.895  47.319 -17.018  1.00  0.00     0.265 C 
HETATM   33  O1  UNL     1     -10.607  47.487 -15.840  1.00  0.00    -0.302 OA
ENDBRANCH  30  32
ENDBRANCH  28  29
ENDBRANCH  27  28
ENDBRANCH  25  27
ENDBRANCH   1  25
TORSDOF 5
ENDMDL
MODEL 5
REMARK minimizedAffinity -8.83963203
REMARK  5 active torsions:
REMARK  status: ('A' for Active; 'I' for Inactive)
REMARK    1  A    between atoms: C2_2  and  C3_3 
REMARK    2  A    between atoms: C4_5  and  C5_6 
REMARK    3  A    between atoms: C5_6  and  C6_7 
REMARK    4  A    between atoms: C6_7  and  C7_8 
REMARK    5  A    between atoms: C7_8  and  C9_10 
ROOT
HETATM    1  C9  UNL     1      -0.466  51.644 -17.130  1.00  0.00    -0.002 C 
HETATM    2  C10 UNL     1       1.049  51.969 -17.258  1.00  0.00     0.007 C 
HETATM    3  C11 UNL     1       1.334  52.270 -18.741  1.00  0.00     0.015 C 
HETATM    4  C12 UNL     1      -0.052  52.453 -19.388  1.00  0.00    -0.005 C 
HETATM    5  C13 UNL     1      -0.494  53.924 -19.118  1.00  0.00     0.021 C 
HETATM    6  C14 UNL     1      -0.226  52.258 -20.887  1.00  0.00    -0.000 C 
HETATM    7  C15 UNL     1      -1.399  51.820 -21.414  1.00  0.00    -0.060 C 
HETATM    8  C16 UNL     1      -2.576  51.462 -20.492  1.00  0.00     0.036 C 
HETATM    9  C17 UNL     1      -2.346  51.533 -18.966  1.00  0.00     0.015 C 
HETATM   10  C18 UNL     1      -0.868  51.349 -18.606  1.00  0.00    -0.028 C 
HETATM   11  C19 UNL     1      -0.443  49.890 -18.973  1.00  0.00     0.016 C 
HETATM   12  C20 UNL     1      -1.635  51.621 -22.937  1.00  0.00    -0.014 C 
HETATM   13  C21 UNL     1      -1.572  50.103 -23.218  1.00  0.00     0.020 C 
HETATM   14  C22 UNL     1      -3.022  52.179 -23.345  1.00  0.00     0.021 C 
HETATM   15  C23 UNL     1      -3.281  52.304 -24.842  1.00  0.00     0.080 C 
HETATM   16  C24 UNL     1      -2.129  51.929 -25.743  1.00  0.00     0.135 C 
HETATM   17  O2  UNL     1      -2.364  51.420 -26.841  1.00  0.00    -0.297 OA
HETATM   18  C25 UNL     1      -0.702  52.293 -25.316  1.00  0.00     0.018 C 
HETATM   19  C26 UNL     1       0.259  51.235 -25.907  1.00  0.00     0.023 C 
HETATM   20  C27 UNL     1      -0.377  53.644 -25.983  1.00  0.00     0.023 C 
HETATM   21  C28 UNL     1      -0.586  52.437 -23.761  1.00  0.00     0.020 C 
HETATM   22  C29 UNL     1       0.828  52.198 -23.231  1.00  0.00     0.090 C 
HETATM   23  C30 UNL     1       0.914  52.613 -21.787  1.00  0.00     0.157 C 
HETATM   24  O3  UNL     1       1.900  53.211 -21.370  1.00  0.00    -0.293 OA
ENDROOT
BRANCH   1  25
HETATM   25  C7  UNL     1      -0.743  50.589 -16.024  1.00  0.00    -0.014 C 
HETATM   26  C8  UNL     1      -0.436  49.157 -16.477  1.00  0.00     0.010 C 
BRANCH  25  27
HETATM   27  C6  UNL     1      -2.194  50.658 -15.473  1.00  0.00     0.008 C 
BRANCH  27  28
HETATM   28  C5  UNL     1      -2.324  50.493 -13.954  1.00  0.00     0.028 C 
BRANCH  28  29
HETATM   29  C4  UNL     1      -2.824  51.761 -13.320  1.00  0.00    -0.017 C 
HETATM   30  C2  UNL     1      -3.491  51.887 -12.157  1.00  0.00    -0.028 C 
HETATM   31  C1  UNL     1      -3.871  50.799 -11.203  1.00  0.00     0.051 C 
BRANCH  30  32
HETATM   32  C3  UNL     1      -3.896  53.263 -11.734  1.00  0.00     0.265 C 
HETATM   33  O1  UNL     1      -4.254  53.555 -10.601  1.00  0.00    -0.302 OA
ENDBRANCH  30  32
ENDBRANCH  28  29
ENDBRANCH  27  28
ENDBRANCH  25  27
ENDBRANCH   1  25
TORSDOF 5
ENDMDL
MODEL 6
REMARK minimizedAffinity -8.767313
REMARK  5 active torsions:
REMARK  status: ('A' for Active; 'I' for Inactive)
REMARK    1  A    between atoms: C2_2  and  C3_3 
REMARK    2  A    between atoms: C4_5  and  C5_6 
REMARK    3  A    between atoms: C5_6  and  C6_7 
REMARK    4  A    between atoms: C6_7  and  C7_8 
REMARK    5  A    between atoms: C7_8  and  C9_10 
ROOT
HETATM    1  C9  UNL     1      -1.643  51.509 -23.228  1.00  0.00    -0.002 C 
HETATM    2  C10 UNL     1      -1.617  50.691 -24.550  1.00  0.00     0.007 C 
HETATM    3  C11 UNL     1      -2.836  49.750 -24.536  1.00  0.00     0.015 C 
HETATM    4  C12 UNL     1      -3.729  50.267 -23.392  1.00  0.00    -0.005 C 
HETATM    5  C13 UNL     1      -4.576  51.445 -23.968  1.00  0.00     0.021 C 
HETATM    6  C14 UNL     1      -4.741  49.340 -22.736  1.00  0.00    -0.000 C 
HETATM    7  C15 UNL     1      -5.101  49.489 -21.435  1.00  0.00    -0.060 C 
HETATM    8  C16 UNL     1      -4.450  50.584 -20.573  1.00  0.00     0.036 C 
HETATM    9  C17 UNL     1      -3.327  51.432 -21.208  1.00  0.00     0.015 C 
HETATM   10  C18 UNL     1      -2.623  50.681 -22.344  1.00  0.00    -0.028 C 
HETATM   11  C19 UNL     1      -1.860  49.460 -21.736  1.00  0.00     0.016 C 
HETATM   12  C20 UNL     1      -6.141  48.581 -20.722  1.00  0.00    -0.014 C 
HETATM   13  C21 UNL     1      -5.355  47.599 -19.823  1.00  0.00     0.020 C 
HETATM   14  C22 UNL     1      -7.102  49.437 -19.858  1.00  0.00     0.021 C 
HETATM   15  C23 UNL     1      -8.336  48.723 -19.319  1.00  0.00     0.080 C 
HETATM   16  C24 UNL     1      -8.504  47.286 -19.748  1.00  0.00     0.135 C 
HETATM   17  O2  UNL     1      -9.032  46.484 -18.974  1.00  0.00    -0.297 OA
HETATM   18  C25 UNL     1      -8.115  46.884 -21.175  1.00  0.00     0.018 C 
HETATM   19  C26 UNL     1      -7.658  45.408 -21.150  1.00  0.00     0.023 C 
HETATM   20  C27 UNL     1      -9.403  46.961 -22.017  1.00  0.00     0.023 C 
HETATM   21  C28 UNL     1      -7.042  47.857 -21.773  1.00  0.00     0.020 C 
HETATM   22  C29 UNL     1      -6.192  47.222 -22.874  1.00  0.00     0.090 C 
HETATM   23  C30 UNL     1      -5.382  48.279 -23.573  1.00  0.00     0.157 C 
HETATM   24  O3  UNL     1      -5.246  48.254 -24.792  1.00  0.00    -0.293 OA
ENDROOT
BRANCH   1  25
HETATM   25  C7  UNL     1      -0.213  51.828 -22.712  1.00  0.00    -0.014 C 
HETATM   26  C8  UNL     1      -0.181  52.169 -21.217  1.00  0.00     0.010 C 
BRANCH  25  27
HETATM   27  C6  UNL     1       0.481  52.961 -23.517  1.00  0.00     0.008 C 
BRANCH  27  28
HETATM   28  C5  UNL     1       0.997  52.556 -24.903  1.00  0.00     0.028 C 
BRANCH  28  29
HETATM   29  C4  UNL     1       0.356  53.391 -25.977  1.00  0.00    -0.017 C 
HETATM   30  C2  UNL     1       0.011  53.002 -27.219  1.00  0.00    -0.028 C 
HETATM   31  C1  UNL     1       0.156  51.640 -27.820  1.00  0.00     0.051 C 
BRANCH  30  32
HETATM   32  C3  UNL     1      -0.609  54.023 -28.118  1.00  0.00     0.265 C 
HETATM   33  O1  UNL     1      -1.813  54.234 -28.190  1.00  0.00    -0.302 OA
ENDBRANCH  30  32
ENDBRANCH  28  29
ENDBRANCH  27  28
ENDBRANCH  25  27
ENDBRANCH   1  25
TORSDOF 5
ENDMDL
MODEL 7
REMARK minimizedAffinity -8.72245216
REMARK  5 active torsions:
REMARK  status: ('A' for Active; 'I' for Inactive)
REMARK    1  A    between atoms: C2_2  and  C3_3 
REMARK    2  A    between atoms: C4_5  and  C5_6 
REMARK    3  A    between atoms: C5_6  and  C6_7 
REMARK    4  A    between atoms: C6_7  and  C7_8 
REMARK    5  A    between atoms: C7_8  and  C9_10 
ROOT
HETATM    1  C9  UNL     1      -0.612  51.363 -17.129  1.00  0.00    -0.002 C 
HETATM    2  C10 UNL     1       0.913  51.660 -17.197  1.00  0.00     0.007 C 
HETATM    3  C11 UNL     1       1.250  52.019 -18.657  1.00  0.00     0.015 C 
HETATM    4  C12 UNL     1      -0.112  52.260 -19.335  1.00  0.00    -0.005 C 
HETATM    5  C13 UNL     1      -0.531  53.728 -19.014  1.00  0.00     0.021 C 
HETATM    6  C14 UNL     1      -0.244  52.135 -20.846  1.00  0.00    -0.000 C 
HETATM    7  C15 UNL     1      -1.409  51.747 -21.426  1.00  0.00    -0.060 C 
HETATM    8  C16 UNL     1      -2.621  51.376 -20.556  1.00  0.00     0.036 C 
HETATM    9  C17 UNL     1      -2.437  51.374 -19.023  1.00  0.00     0.015 C 
HETATM   10  C18 UNL     1      -0.974  51.142 -18.628  1.00  0.00    -0.028 C 
HETATM   11  C19 UNL     1      -0.569  49.692 -19.046  1.00  0.00     0.016 C 
HETATM   12  C20 UNL     1      -1.602  51.620 -22.963  1.00  0.00    -0.014 C 
HETATM   13  C21 UNL     1      -1.562  50.114 -23.309  1.00  0.00     0.020 C 
HETATM   14  C22 UNL     1      -2.964  52.226 -23.387  1.00  0.00     0.021 C 
HETATM   15  C23 UNL     1      -3.174  52.421 -24.885  1.00  0.00     0.080 C 
HETATM   16  C24 UNL     1      -2.003  52.060 -25.766  1.00  0.00     0.135 C 
HETATM   17  O2  UNL     1      -2.215  51.604 -26.892  1.00  0.00    -0.297 OA
HETATM   18  C25 UNL     1      -0.583  52.373 -25.282  1.00  0.00     0.018 C 
HETATM   19  C26 UNL     1       0.374  51.321 -25.889  1.00  0.00     0.023 C 
HETATM   20  C27 UNL     1      -0.209  53.744 -25.878  1.00  0.00     0.023 C 
HETATM   21  C28 UNL     1      -0.512  52.447 -23.718  1.00  0.00     0.020 C 
HETATM   22  C29 UNL     1       0.881  52.154 -23.158  1.00  0.00     0.090 C 
HETATM   23  C30 UNL     1       0.930  52.503 -21.696  1.00  0.00     0.157 C 
HETATM   24  O3  UNL     1       1.916  53.060 -21.223  1.00  0.00    -0.293 OA
ENDROOT
BRANCH   1  25
HETATM   25  C7  UNL     1      -0.945  50.268 -16.079  1.00  0.00    -0.014 C 
HETATM   26  C8  UNL     1      -1.552  50.841 -14.793  1.00  0.00     0.010 C 
BRANCH  25  27
HETATM   27  C6  UNL     1       0.279  49.379 -15.724  1.00  0.00     0.008 C 
BRANCH  27  28
HETATM   28  C5  UNL     1       0.439  49.053 -14.234  1.00  0.00     0.028 C 
BRANCH  28  29
HETATM   29  C4  UNL     1       1.886  49.094 -13.831  1.00  0.00    -0.017 C 
HETATM   30  C2  UNL     1       2.639  50.184 -13.591  1.00  0.00    -0.028 C 
HETATM   31  C1  UNL     1       2.208  51.616 -13.640  1.00  0.00     0.051 C 
BRANCH  30  32
HETATM   32  C3  UNL     1       4.069  49.971 -13.211  1.00  0.00     0.265 C 
HETATM   33  O1  UNL     1       4.922  49.527 -13.969  1.00  0.00    -0.302 OA
ENDBRANCH  30  32
ENDBRANCH  28  29
ENDBRANCH  27  28
ENDBRANCH  25  27
ENDBRANCH   1  25
TORSDOF 5
ENDMDL
MODEL 8
REMARK minimizedAffinity -8.66087532
REMARK  5 active torsions:
REMARK  status: ('A' for Active; 'I' for Inactive)
REMARK    1  A    between atoms: C2_2  and  C3_3 
REMARK    2  A    between atoms: C4_5  and  C5_6 
REMARK    3  A    between atoms: C5_6  and  C6_7 
REMARK    4  A    between atoms: C6_7  and  C7_8 
REMARK    5  A    between atoms: C7_8  and  C9_10 
ROOT
HETATM    1  C9  UNL     1      -2.670  50.422 -21.929  1.00  0.00    -0.002 C 
HETATM    2  C10 UNL     1      -2.094  51.823 -22.284  1.00  0.00     0.007 C 
HETATM    3  C11 UNL     1      -1.120  52.221 -21.160  1.00  0.00     0.015 C 
HETATM    4  C12 UNL     1      -0.881  50.927 -20.358  1.00  0.00    -0.005 C 
HETATM    5  C13 UNL     1       0.226  50.122 -21.106  1.00  0.00     0.021 C 
HETATM    6  C14 UNL     1      -0.405  51.001 -18.914  1.00  0.00    -0.000 C 
HETATM    7  C15 UNL     1      -0.734  50.042 -18.010  1.00  0.00    -0.060 C 
HETATM    8  C16 UNL     1      -1.642  48.871 -18.418  1.00  0.00     0.036 C 
HETATM    9  C17 UNL     1      -2.230  48.877 -19.846  1.00  0.00     0.015 C 
HETATM   10  C18 UNL     1      -2.328  50.297 -20.414  1.00  0.00    -0.028 C 
HETATM   11  C19 UNL     1      -3.382  51.095 -19.581  1.00  0.00     0.016 C 
HETATM   12  C20 UNL     1      -0.260  50.061 -16.530  1.00  0.00    -0.014 C 
HETATM   13  C21 UNL     1      -1.461  50.513 -15.669  1.00  0.00     0.020 C 
HETATM   14  C22 UNL     1       0.202  48.647 -16.094  1.00  0.00     0.021 C 
HETATM   15  C23 UNL     1       0.945  48.564 -14.765  1.00  0.00     0.080 C 
HETATM   16  C24 UNL     1       1.195  49.879 -14.068  1.00  0.00     0.135 C 
HETATM   17  O2  UNL     1       1.204  49.916 -12.835  1.00  0.00    -0.297 OA
HETATM   18  C25 UNL     1       1.541  51.114 -14.909  1.00  0.00     0.018 C 
HETATM   19  C26 UNL     1       1.022  52.364 -14.163  1.00  0.00     0.023 C 
HETATM   20  C27 UNL     1       3.080  51.198 -14.949  1.00  0.00     0.023 C 
HETATM   21  C28 UNL     1       0.988  50.988 -16.369  1.00  0.00     0.020 C 
HETATM   22  C29 UNL     1       0.755  52.337 -17.050  1.00  0.00     0.090 C 
HETATM   23  C30 UNL     1       0.486  52.134 -18.516  1.00  0.00     0.157 C 
HETATM   24  O3  UNL     1       0.975  52.890 -19.349  1.00  0.00    -0.293 OA
ENDROOT
BRANCH   1  25
HETATM   25  C7  UNL     1      -4.137  50.257 -22.410  1.00  0.00    -0.014 C 
HETATM   26  C8  UNL     1      -5.149  50.292 -21.258  1.00  0.00     0.010 C 
BRANCH  25  27
HETATM   27  C6  UNL     1      -4.356  48.971 -23.253  1.00  0.00     0.008 C 
BRANCH  27  28
HETATM   28  C5  UNL     1      -3.129  48.488 -24.038  1.00  0.00     0.028 C 
BRANCH  28  29
HETATM   29  C4  UNL     1      -2.880  49.366 -25.232  1.00  0.00    -0.017 C 
HETATM   30  C2  UNL     1      -3.417  49.249 -26.460  1.00  0.00    -0.028 C 
HETATM   31  C1  UNL     1      -4.414  48.235 -26.925  1.00  0.00     0.051 C 
BRANCH  30  32
HETATM   32  C3  UNL     1      -3.005  50.246 -27.496  1.00  0.00     0.265 C 
HETATM   33  O1  UNL     1      -3.416  50.248 -28.649  1.00  0.00    -0.302 OA
ENDBRANCH  30  32
ENDBRANCH  28  29
ENDBRANCH  27  28
ENDBRANCH  25  27
ENDBRANCH   1  25
TORSDOF 5
ENDMDL
MODEL 9
REMARK minimizedAffinity -8.6285162
REMARK  5 active torsions:
REMARK  status: ('A' for Active; 'I' for Inactive)
REMARK    1  A    between atoms: C2_2  and  C3_3 
REMARK    2  A    between atoms: C4_5  and  C5_6 
REMARK    3  A    between atoms: C5_6  and  C6_7 
REMARK    4  A    between atoms: C6_7  and  C7_8 
REMARK    5  A    between atoms: C7_8  and  C9_10 
ROOT
HETATM    1  C9  UNL     1      -5.391  48.417 -20.660  1.00  0.00    -0.002 C 
HETATM    2  C10 UNL     1      -5.926  47.555 -21.838  1.00  0.00     0.007 C 
HETATM    3  C11 UNL     1      -5.079  47.891 -23.080  1.00  0.00     0.015 C 
HETATM    4  C12 UNL     1      -3.865  48.670 -22.539  1.00  0.00    -0.005 C 
HETATM    5  C13 UNL     1      -2.825  47.616 -22.049  1.00  0.00     0.021 C 
HETATM    6  C14 UNL     1      -3.082  49.597 -23.458  1.00  0.00    -0.000 C 
HETATM    7  C15 UNL     1      -2.448  50.699 -22.980  1.00  0.00    -0.060 C 
HETATM    8  C16 UNL     1      -2.547  51.064 -21.490  1.00  0.00     0.036 C 
HETATM    9  C17 UNL     1      -3.454  50.196 -20.592  1.00  0.00     0.015 C 
HETATM   10  C18 UNL     1      -4.563  49.511 -21.399  1.00  0.00    -0.028 C 
HETATM   11  C19 UNL     1      -5.532  50.608 -21.945  1.00  0.00     0.016 C 
HETATM   12  C20 UNL     1      -1.621  51.667 -23.872  1.00  0.00    -0.014 C 
HETATM   13  C21 UNL     1      -2.482  52.931 -24.098  1.00  0.00     0.020 C 
HETATM   14  C22 UNL     1      -0.294  52.048 -23.167  1.00  0.00     0.021 C 
HETATM   15  C23 UNL     1       0.739  52.768 -24.027  1.00  0.00     0.080 C 
HETATM   16  C24 UNL     1       0.367  52.963 -25.477  1.00  0.00     0.135 C 
HETATM   17  O2  UNL     1       0.762  53.970 -26.069  1.00  0.00    -0.297 OA
HETATM   18  C25 UNL     1      -0.397  51.852 -26.206  1.00  0.00     0.018 C 
HETATM   19  C26 UNL     1      -1.275  52.509 -27.296  1.00  0.00     0.023 C 
HETATM   20  C27 UNL     1       0.662  50.987 -26.916  1.00  0.00     0.023 C 
HETATM   21  C28 UNL     1      -1.212  50.963 -25.205  1.00  0.00     0.020 C 
HETATM   22  C29 UNL     1      -2.414  50.270 -25.847  1.00  0.00     0.090 C 
HETATM   23  C30 UNL     1      -2.976  49.240 -24.906  1.00  0.00     0.157 C 
HETATM   24  O3  UNL     1      -3.348  48.149 -25.328  1.00  0.00    -0.293 OA
ENDROOT
BRANCH   1  25
HETATM   25  C7  UNL     1      -6.523  48.830 -19.680  1.00  0.00    -0.014 C 
HETATM   26  C8  UNL     1      -6.354  48.218 -18.284  1.00  0.00     0.010 C 
BRANCH  25  27
HETATM   27  C6  UNL     1      -7.941  48.501 -20.222  1.00  0.00     0.008 C 
BRANCH  27  28
HETATM   28  C5  UNL     1      -8.816  47.651 -19.291  1.00  0.00     0.028 C 
BRANCH  28  29
HETATM   29  C4  UNL     1     -10.273  47.838 -19.610  1.00  0.00    -0.017 C 
HETATM   30  C2  UNL     1     -11.315  47.729 -18.765  1.00  0.00    -0.028 C 
HETATM   31  C1  UNL     1     -11.273  47.425 -17.301  1.00  0.00     0.051 C 
BRANCH  30  32
HETATM   32  C3  UNL     1     -12.685  47.953 -19.321  1.00  0.00     0.265 C 
HETATM   33  O1  UNL     1     -12.963  47.883 -20.511  1.00  0.00    -0.302 OA
ENDBRANCH  30  32
ENDBRANCH  28  29
ENDBRANCH  27  28
ENDBRANCH  25  27
ENDBRANCH   1  25
TORSDOF 5
ENDMDL
