MODEL 1
REMARK minimizedAffinity -10.2308865
REMARK  6 active torsions:
REMARK  status: ('A' for Active; 'I' for Inactive)
REMARK    1  A    between atoms: C2_2  and  C30_31 
REMARK    2  A    between atoms: C3_3  and  C4_4 
REMARK    3  A    between atoms: C4_4  and  C5_5 
REMARK    4  A    between atoms: C5_5  and  C6_6 
REMARK    5  A    between atoms: C6_6  and  C8_8 
REMARK    6  A    between atoms: C30_31  and  O2_32 
ROOT
HETATM    1  C8  UNL     1      -3.386   6.932  14.382  1.00  0.00    -0.002 C 
HETATM    2  C9  UNL     1      -3.960   8.231  13.738  1.00  0.00     0.007 C 
HETATM    3  C10 UNL     1      -2.975   8.682  12.642  1.00  0.00     0.015 C 
HETATM    4  C11 UNL     1      -1.704   7.850  12.895  1.00  0.00    -0.013 C 
HETATM    5  C12 UNL     1      -0.915   8.597  14.016  1.00  0.00     0.021 C 
HETATM    6  C13 UNL     1      -0.728   7.664  11.737  1.00  0.00    -0.070 C 
HETATM    7  C14 UNL     1      -0.546   8.594  10.780  1.00  0.00    -0.022 C 
HETATM    8  C15 UNL     1       0.462   8.490   9.671  1.00  0.00     0.034 C 
HETATM    9  C16 UNL     1       1.158   7.112   9.579  1.00  0.00     0.013 C 
HETATM   10  C17 UNL     1       2.285   7.046   8.491  1.00  0.00     0.018 C 
HETATM   11  C18 UNL     1       3.343   8.158   8.555  1.00  0.00     0.023 C 
HETATM   12  C19 UNL     1       1.634   7.134   7.087  1.00  0.00     0.023 C 
HETATM   13  C20 UNL     1       3.017   5.699   8.587  1.00  0.00     0.135 C 
HETATM   14  O1  UNL     1       3.354   5.056   7.591  1.00  0.00    -0.297 OA
HETATM   15  C21 UNL     1       3.409   5.219   9.960  1.00  0.00     0.080 C 
HETATM   16  C22 UNL     1       2.192   5.180  10.869  1.00  0.00     0.017 C 
HETATM   17  C23 UNL     1       1.493   6.554  11.014  1.00  0.00    -0.031 C 
HETATM   18  C24 UNL     1       2.400   7.490  11.852  1.00  0.00     0.016 C 
HETATM   19  C25 UNL     1       0.094   6.368  11.736  1.00  0.00     0.024 C 
HETATM   20  C26 UNL     1       0.155   5.697  13.127  1.00  0.00     0.010 C 
HETATM   21  C27 UNL     1      -1.205   5.549  13.848  1.00  0.00     0.011 C 
HETATM   22  C28 UNL     1      -2.327   6.473  13.324  1.00  0.00    -0.029 C 
HETATM   23  C29 UNL     1      -3.081   5.752  12.161  1.00  0.00     0.016 C 
ENDROOT
BRANCH   1  24
HETATM   24  C6  UNL     1      -4.512   5.951  14.835  1.00  0.00    -0.014 C 
HETATM   25  C7  UNL     1      -5.842   6.679  15.062  1.00  0.00     0.010 C 
BRANCH  24  26
HETATM   26  C5  UNL     1      -4.698   4.823  13.779  1.00  0.00     0.008 C 
BRANCH  26  27
HETATM   27  C4  UNL     1      -6.125   4.713  13.227  1.00  0.00     0.028 C 
BRANCH  27  28
HETATM   28  C3  UNL     1      -6.440   3.306  12.791  1.00  0.00    -0.022 C 
HETATM   29  C2  UNL     1      -5.949   2.663  11.712  1.00  0.00    -0.064 C 
HETATM   30  C1  UNL     1      -6.303   1.224  11.446  1.00  0.00     0.045 C 
BRANCH  29  31
HETATM   31  C30 UNL     1      -5.017   3.288  10.708  1.00  0.00     0.197 C 
BRANCH  31  32
HETATM   32  O2  UNL     1      -5.464   3.013   9.386  1.00  0.00    -0.397 OA
HETATM   33  H48 UNL     1      -6.339   2.594   9.455  1.00  0.00     0.209 HD
ENDBRANCH  31  32
ENDBRANCH  29  31
ENDBRANCH  27  28
ENDBRANCH  26  27
ENDBRANCH  24  26
ENDBRANCH   1  24
TORSDOF 6
ENDMDL
MODEL 2
REMARK minimizedAffinity -10.1115761
REMARK  6 active torsions:
REMARK  status: ('A' for Active; 'I' for Inactive)
REMARK    1  A    between atoms: C2_2  and  C30_31 
REMARK    2  A    between atoms: C3_3  and  C4_4 
REMARK    3  A    between atoms: C4_4  and  C5_5 
REMARK    4  A    between atoms: C5_5  and  C6_6 
REMARK    5  A    between atoms: C6_6  and  C8_8 
REMARK    6  A    between atoms: C30_31  and  O2_32 
ROOT
HETATM    1  C8  UNL     1      -3.492   6.852  14.402  1.00  0.00    -0.002 C 
HETATM    2  C9  UNL     1      -4.060   8.155  13.762  1.00  0.00     0.007 C 
HETATM    3  C10 UNL     1      -3.063   8.617  12.682  1.00  0.00     0.015 C 
HETATM    4  C11 UNL     1      -1.794   7.786  12.944  1.00  0.00    -0.013 C 
HETATM    5  C12 UNL     1      -1.020   8.525  14.080  1.00  0.00     0.021 C 
HETATM    6  C13 UNL     1      -0.803   7.612  11.797  1.00  0.00    -0.070 C 
HETATM    7  C14 UNL     1      -0.612   8.549  10.849  1.00  0.00    -0.022 C 
HETATM    8  C15 UNL     1       0.410   8.457   9.751  1.00  0.00     0.034 C 
HETATM    9  C16 UNL     1       1.111   7.082   9.657  1.00  0.00     0.013 C 
HETATM   10  C17 UNL     1       2.251   7.027   8.582  1.00  0.00     0.018 C 
HETATM   11  C18 UNL     1       3.305   8.142   8.668  1.00  0.00     0.023 C 
HETATM   12  C19 UNL     1       1.616   7.125   7.171  1.00  0.00     0.023 C 
HETATM   13  C20 UNL     1       2.984   5.682   8.677  1.00  0.00     0.135 C 
HETATM   14  O1  UNL     1       3.335   5.047   7.679  1.00  0.00    -0.297 OA
HETATM   15  C21 UNL     1       3.361   5.192  10.050  1.00  0.00     0.080 C 
HETATM   16  C22 UNL     1       2.133   5.142  10.944  1.00  0.00     0.017 C 
HETATM   17  C23 UNL     1       1.429   6.513  11.092  1.00  0.00    -0.031 C 
HETATM   18  C24 UNL     1       2.323   7.444  11.948  1.00  0.00     0.016 C 
HETATM   19  C25 UNL     1       0.022   6.318  11.795  1.00  0.00     0.024 C 
HETATM   20  C26 UNL     1       0.068   5.636  13.181  1.00  0.00     0.010 C 
HETATM   21  C27 UNL     1      -1.301   5.478  13.884  1.00  0.00     0.011 C 
HETATM   22  C28 UNL     1      -2.419   6.404  13.354  1.00  0.00    -0.029 C 
HETATM   23  C29 UNL     1      -3.157   5.690  12.176  1.00  0.00     0.016 C 
ENDROOT
BRANCH   1  24
HETATM   24  C6  UNL     1      -4.620   5.865  14.833  1.00  0.00    -0.014 C 
HETATM   25  C7  UNL     1      -5.759   6.587  15.562  1.00  0.00     0.010 C 
BRANCH  24  26
HETATM   26  C5  UNL     1      -5.178   5.111  13.592  1.00  0.00     0.008 C 
BRANCH  26  27
HETATM   27  C4  UNL     1      -6.613   4.597  13.765  1.00  0.00     0.028 C 
BRANCH  27  28
HETATM   28  C3  UNL     1      -7.467   4.932  12.571  1.00  0.00    -0.022 C 
HETATM   29  C2  UNL     1      -8.539   5.750  12.545  1.00  0.00    -0.064 C 
HETATM   30  C1  UNL     1      -9.251   6.047  11.252  1.00  0.00     0.045 C 
BRANCH  29  31
HETATM   31  C30 UNL     1      -9.105   6.440  13.759  1.00  0.00     0.197 C 
BRANCH  31  32
HETATM   32  O2  UNL     1     -10.520   6.300  13.786  1.00  0.00    -0.397 OA
HETATM   33  H48 UNL     1     -10.766   5.681  13.078  1.00  0.00     0.209 HD
ENDBRANCH  31  32
ENDBRANCH  29  31
ENDBRANCH  27  28
ENDBRANCH  26  27
ENDBRANCH  24  26
ENDBRANCH   1  24
TORSDOF 6
ENDMDL
MODEL 3
REMARK minimizedAffinity -9.29897976
REMARK  6 active torsions:
REMARK  status: ('A' for Active; 'I' for Inactive)
REMARK    1  A    between atoms: C2_2  and  C30_31 
REMARK    2  A    between atoms: C3_3  and  C4_4 
REMARK    3  A    between atoms: C4_4  and  C5_5 
REMARK    4  A    between atoms: C5_5  and  C6_6 
REMARK    5  A    between atoms: C6_6  and  C8_8 
REMARK    6  A    between atoms: C30_31  and  O2_32 
ROOT
HETATM    1  C8  UNL     1       1.011   7.062  12.182  1.00  0.00    -0.002 C 
HETATM    2  C9  UNL     1       0.882   5.764  11.329  1.00  0.00     0.007 C 
HETATM    3  C10 UNL     1      -0.513   5.166  11.598  1.00  0.00     0.015 C 
HETATM    4  C11 UNL     1      -1.028   5.923  12.836  1.00  0.00    -0.013 C 
HETATM    5  C12 UNL     1      -0.400   5.205  14.072  1.00  0.00     0.021 C 
HETATM    6  C13 UNL     1      -2.533   5.955  13.081  1.00  0.00    -0.070 C 
HETATM    7  C14 UNL     1      -3.353   4.948  12.722  1.00  0.00    -0.022 C 
HETATM    8  C15 UNL     1      -4.825   4.900  13.017  1.00  0.00     0.034 C 
HETATM    9  C16 UNL     1      -5.395   6.215  13.599  1.00  0.00     0.013 C 
HETATM   10  C17 UNL     1      -6.906   6.123  14.005  1.00  0.00     0.018 C 
HETATM   11  C18 UNL     1      -7.282   4.946  14.919  1.00  0.00     0.023 C 
HETATM   12  C19 UNL     1      -7.764   5.979  12.722  1.00  0.00     0.023 C 
HETATM   13  C20 UNL     1      -7.329   7.418  14.714  1.00  0.00     0.135 C 
HETATM   14  O1  UNL     1      -8.416   7.962  14.504  1.00  0.00    -0.297 OA
HETATM   15  C21 UNL     1      -6.404   7.967  15.768  1.00  0.00     0.080 C 
HETATM   16  C22 UNL     1      -5.010   8.158  15.194  1.00  0.00     0.017 C 
HETATM   17  C23 UNL     1      -4.394   6.851  14.638  1.00  0.00    -0.031 C 
HETATM   18  C24 UNL     1      -4.050   5.916  15.824  1.00  0.00     0.016 C 
HETATM   19  C25 UNL     1      -3.082   7.186  13.815  1.00  0.00     0.024 C 
HETATM   20  C26 UNL     1      -1.991   7.950  14.599  1.00  0.00     0.010 C 
HETATM   21  C27 UNL     1      -0.695   8.246  13.808  1.00  0.00     0.011 C 
HETATM   22  C28 UNL     1      -0.478   7.367  12.555  1.00  0.00    -0.029 C 
HETATM   23  C29 UNL     1      -1.158   8.054  11.327  1.00  0.00     0.016 C 
ENDROOT
BRANCH   1  24
HETATM   24  C6  UNL     1       1.876   8.150  11.473  1.00  0.00    -0.014 C 
HETATM   25  C7  UNL     1       2.373   9.213  12.461  1.00  0.00     0.010 C 
BRANCH  24  26
HETATM   26  C5  UNL     1       3.086   7.489  10.752  1.00  0.00     0.008 C 
BRANCH  26  27
HETATM   27  C4  UNL     1       3.683   8.340   9.624  1.00  0.00     0.028 C 
BRANCH  27  28
HETATM   28  C3  UNL     1       2.912   8.173   8.341  1.00  0.00    -0.022 C 
HETATM   29  C2  UNL     1       2.560   7.011   7.754  1.00  0.00    -0.064 C 
HETATM   30  C1  UNL     1       1.722   7.003   6.503  1.00  0.00     0.045 C 
BRANCH  29  31
HETATM   31  C30 UNL     1       2.937   5.650   8.277  1.00  0.00     0.197 C 
BRANCH  31  32
HETATM   32  O2  UNL     1       3.261   4.782   7.198  1.00  0.00    -0.397 OA
HETATM   33  H48 UNL     1       3.281   5.319   6.388  1.00  0.00     0.209 HD
ENDBRANCH  31  32
ENDBRANCH  29  31
ENDBRANCH  27  28
ENDBRANCH  26  27
ENDBRANCH  24  26
ENDBRANCH   1  24
TORSDOF 6
ENDMDL
MODEL 4
REMARK minimizedAffinity -8.76396561
REMARK  6 active torsions:
REMARK  status: ('A' for Active; 'I' for Inactive)
REMARK    1  A    between atoms: C2_2  and  C30_31 
REMARK    2  A    between atoms: C3_3  and  C4_4 
REMARK    3  A    between atoms: C4_4  and  C5_5 
REMARK    4  A    between atoms: C5_5  and  C6_6 
REMARK    5  A    between atoms: C6_6  and  C8_8 
REMARK    6  A    between atoms: C30_31  and  O2_32 
ROOT
HETATM    1  C8  UNL     1      -5.932   7.342  15.427  1.00  0.00    -0.002 C 
HETATM    2  C9  UNL     1      -5.975   8.894  15.280  1.00  0.00     0.007 C 
HETATM    3  C10 UNL     1      -4.667   9.333  14.594  1.00  0.00     0.015 C 
HETATM    4  C11 UNL     1      -3.756   8.094  14.664  1.00  0.00    -0.013 C 
HETATM    5  C12 UNL     1      -3.106   8.116  16.084  1.00  0.00     0.021 C 
HETATM    6  C13 UNL     1      -2.603   7.995  13.670  1.00  0.00    -0.070 C 
HETATM    7  C14 UNL     1      -1.958   9.076  13.191  1.00  0.00    -0.022 C 
HETATM    8  C15 UNL     1      -0.766   9.022  12.277  1.00  0.00     0.034 C 
HETATM    9  C16 UNL     1      -0.445   7.608  11.742  1.00  0.00     0.013 C 
HETATM   10  C17 UNL     1       0.861   7.541  10.878  1.00  0.00     0.018 C 
HETATM   11  C18 UNL     1       2.118   8.152  11.517  1.00  0.00     0.023 C 
HETATM   12  C19 UNL     1       0.624   8.305   9.550  1.00  0.00     0.023 C 
HETATM   13  C20 UNL     1       1.176   6.079  10.532  1.00  0.00     0.135 C 
HETATM   14  O1  UNL     1       1.575   5.734   9.417  1.00  0.00    -0.297 OA
HETATM   15  C21 UNL     1       1.079   5.066  11.642  1.00  0.00     0.080 C 
HETATM   16  C22 UNL     1      -0.295   5.129  12.289  1.00  0.00     0.017 C 
HETATM   17  C23 UNL     1      -0.633   6.523  12.871  1.00  0.00    -0.031 C 
HETATM   18  C24 UNL     1       0.245   6.769  14.123  1.00  0.00     0.016 C 
HETATM   19  C25 UNL     1      -2.166   6.580  13.266  1.00  0.00     0.024 C 
HETATM   20  C26 UNL     1      -2.627   5.502  14.273  1.00  0.00     0.010 C 
HETATM   21  C27 UNL     1      -4.115   5.580  14.688  1.00  0.00     0.011 C 
HETATM   22  C28 UNL     1      -4.797   6.942  14.427  1.00  0.00    -0.029 C 
HETATM   23  C29 UNL     1      -5.396   6.944  12.984  1.00  0.00     0.016 C 
ENDROOT
BRANCH   1  24
HETATM   24  C6  UNL     1      -7.347   6.697  15.301  1.00  0.00    -0.014 C 
HETATM   25  C7  UNL     1      -7.374   5.271  15.864  1.00  0.00     0.010 C 
BRANCH  24  26
HETATM   26  C5  UNL     1      -8.405   7.575  16.029  1.00  0.00     0.008 C 
BRANCH  26  27
HETATM   27  C4  UNL     1      -9.279   8.412  15.086  1.00  0.00     0.028 C 
BRANCH  27  28
HETATM   28  C3  UNL     1     -10.448   7.617  14.568  1.00  0.00    -0.022 C 
HETATM   29  C2  UNL     1     -11.425   8.053  13.748  1.00  0.00    -0.064 C 
HETATM   30  C1  UNL     1     -12.494   7.114  13.255  1.00  0.00     0.045 C 
BRANCH  29  31
HETATM   31  C30 UNL     1     -11.536   9.467  13.243  1.00  0.00     0.197 C 
BRANCH  31  32
HETATM   32  O2  UNL     1     -11.927   9.471  11.876  1.00  0.00    -0.397 OA
HETATM   33  H48 UNL     1     -12.152   8.556  11.634  1.00  0.00     0.209 HD
ENDBRANCH  31  32
ENDBRANCH  29  31
ENDBRANCH  27  28
ENDBRANCH  26  27
ENDBRANCH  24  26
ENDBRANCH   1  24
TORSDOF 6
ENDMDL
MODEL 5
REMARK minimizedAffinity -8.69491673
REMARK  6 active torsions:
REMARK  status: ('A' for Active; 'I' for Inactive)
REMARK    1  A    between atoms: C2_2  and  C30_31 
REMARK    2  A    between atoms: C3_3  and  C4_4 
REMARK    3  A    between atoms: C4_4  and  C5_5 
REMARK    4  A    between atoms: C5_5  and  C6_6 
REMARK    5  A    between atoms: C6_6  and  C8_8 
REMARK    6  A    between atoms: C30_31  and  O2_32 
ROOT
HETATM    1  C8  UNL     1      -3.202   7.563  15.204  1.00  0.00    -0.002 C 
HETATM    2  C9  UNL     1      -2.299   7.850  16.442  1.00  0.00     0.007 C 
HETATM    3  C10 UNL     1      -0.832   7.775  15.977  1.00  0.00     0.015 C 
HETATM    4  C11 UNL     1      -0.899   7.122  14.584  1.00  0.00    -0.013 C 
HETATM    5  C12 UNL     1      -0.976   5.582  14.833  1.00  0.00     0.021 C 
HETATM    6  C13 UNL     1       0.274   7.341  13.634  1.00  0.00    -0.070 C 
HETATM    7  C14 UNL     1       1.541   7.500  14.062  1.00  0.00    -0.022 C 
HETATM    8  C15 UNL     1       2.735   7.636  13.161  1.00  0.00     0.034 C 
HETATM    9  C16 UNL     1       2.381   7.789  11.664  1.00  0.00     0.013 C 
HETATM   10  C17 UNL     1       3.632   7.821  10.719  1.00  0.00     0.018 C 
HETATM   11  C18 UNL     1       4.635   6.671  10.899  1.00  0.00     0.023 C 
HETATM   12  C19 UNL     1       4.416   9.135  10.967  1.00  0.00     0.023 C 
HETATM   13  C20 UNL     1       3.172   7.815   9.254  1.00  0.00     0.135 C 
HETATM   14  O1  UNL     1       3.707   8.513   8.390  1.00  0.00    -0.297 OA
HETATM   15  C21 UNL     1       2.091   6.839   8.870  1.00  0.00     0.080 C 
HETATM   16  C22 UNL     1       0.876   7.026   9.762  1.00  0.00     0.017 C 
HETATM   17  C23 UNL     1       1.188   6.839  11.267  1.00  0.00    -0.031 C 
HETATM   18  C24 UNL     1       1.468   5.340  11.537  1.00  0.00     0.016 C 
HETATM   19  C25 UNL     1      -0.048   7.323  12.133  1.00  0.00     0.024 C 
HETATM   20  C26 UNL     1      -1.388   6.621  11.818  1.00  0.00     0.010 C 
HETATM   21  C27 UNL     1      -2.587   7.066  12.688  1.00  0.00     0.011 C 
HETATM   22  C28 UNL     1      -2.210   7.770  14.011  1.00  0.00    -0.029 C 
HETATM   23  C29 UNL     1      -2.073   9.305  13.752  1.00  0.00     0.016 C 
ENDROOT
BRANCH   1  24
HETATM   24  C6  UNL     1      -4.542   8.361  15.251  1.00  0.00    -0.014 C 
HETATM   25  C7  UNL     1      -4.300   9.868  15.399  1.00  0.00     0.010 C 
BRANCH  24  26
HETATM   26  C5  UNL     1      -5.380   8.081  13.971  1.00  0.00     0.008 C 
BRANCH  26  27
HETATM   27  C4  UNL     1      -6.318   6.873  14.090  1.00  0.00     0.028 C 
BRANCH  27  28
HETATM   28  C3  UNL     1      -5.829   5.713  13.264  1.00  0.00    -0.022 C 
HETATM   29  C2  UNL     1      -6.346   4.468  13.230  1.00  0.00    -0.064 C 
HETATM   30  C1  UNL     1      -5.790   3.428  12.294  1.00  0.00     0.045 C 
BRANCH  29  31
HETATM   31  C30 UNL     1      -7.502   4.009  14.080  1.00  0.00     0.197 C 
BRANCH  31  32
HETATM   32  O2  UNL     1      -8.566   3.552  13.254  1.00  0.00    -0.397 OA
HETATM   33  H48 UNL     1      -8.237   3.528  12.340  1.00  0.00     0.209 HD
ENDBRANCH  31  32
ENDBRANCH  29  31
ENDBRANCH  27  28
ENDBRANCH  26  27
ENDBRANCH  24  26
ENDBRANCH   1  24
TORSDOF 6
ENDMDL
MODEL 6
REMARK minimizedAffinity -8.61336327
REMARK  6 active torsions:
REMARK  status: ('A' for Active; 'I' for Inactive)
REMARK    1  A    between atoms: C2_2  and  C30_31 
REMARK    2  A    between atoms: C3_3  and  C4_4 
REMARK    3  A    between atoms: C4_4  and  C5_5 
REMARK    4  A    between atoms: C5_5  and  C6_6 
REMARK    5  A    between atoms: C6_6  and  C8_8 
REMARK    6  A    between atoms: C30_31  and  O2_32 
ROOT
HETATM    1  C8  UNL     1      -2.343   8.890  15.614  1.00  0.00    -0.002 C 
HETATM    2  C9  UNL     1      -1.257   8.346  16.591  1.00  0.00     0.007 C 
HETATM    3  C10 UNL     1      -0.092   7.807  15.740  1.00  0.00     0.015 C 
HETATM    4  C11 UNL     1      -0.657   7.733  14.309  1.00  0.00    -0.013 C 
HETATM    5  C12 UNL     1      -1.441   6.386  14.224  1.00  0.00     0.021 C 
HETATM    6  C13 UNL     1       0.332   7.725  13.148  1.00  0.00    -0.070 C 
HETATM    7  C14 UNL     1       1.560   7.179  13.239  1.00  0.00    -0.022 C 
HETATM    8  C15 UNL     1       2.533   7.074  12.099  1.00  0.00     0.034 C 
HETATM    9  C16 UNL     1       2.100   7.839  10.828  1.00  0.00     0.013 C 
HETATM   10  C17 UNL     1       3.065   7.636   9.609  1.00  0.00     0.018 C 
HETATM   11  C18 UNL     1       3.393   6.178   9.251  1.00  0.00     0.023 C 
HETATM   12  C19 UNL     1       4.416   8.331   9.917  1.00  0.00     0.023 C 
HETATM   13  C20 UNL     1       2.467   8.301   8.361  1.00  0.00     0.135 C 
HETATM   14  O1  UNL     1       3.151   8.941   7.560  1.00  0.00    -0.297 OA
HETATM   15  C21 UNL     1       1.006   8.062   8.080  1.00  0.00     0.080 C 
HETATM   16  C22 UNL     1       0.171   8.451   9.289  1.00  0.00     0.017 C 
HETATM   17  C23 UNL     1       0.553   7.674  10.572  1.00  0.00    -0.031 C 
HETATM   18  C24 UNL     1       0.100   6.202  10.418  1.00  0.00     0.016 C 
HETATM   19  C25 UNL     1      -0.159   8.332  11.827  1.00  0.00     0.024 C 
HETATM   20  C26 UNL     1      -1.699   8.413  11.741  1.00  0.00     0.010 C 
HETATM   21  C27 UNL     1      -2.398   9.020  12.980  1.00  0.00     0.011 C 
HETATM   22  C28 UNL     1      -1.549   9.026  14.272  1.00  0.00    -0.029 C 
HETATM   23  C29 UNL     1      -0.717  10.347  14.330  1.00  0.00     0.016 C 
ENDROOT
BRANCH   1  24
HETATM   24  C6  UNL     1      -3.102  10.121  16.200  1.00  0.00    -0.014 C 
HETATM   25  C7  UNL     1      -2.417  11.441  15.827  1.00  0.00     0.010 C 
BRANCH  24  26
HETATM   26  C5  UNL     1      -4.576  10.129  15.702  1.00  0.00     0.008 C 
BRANCH  26  27
HETATM   27  C4  UNL     1      -5.056   8.783  15.144  1.00  0.00     0.028 C 
BRANCH  27  28
HETATM   28  C3  UNL     1      -6.559   8.693  15.140  1.00  0.00    -0.022 C 
HETATM   29  C2  UNL     1      -7.306   7.594  15.372  1.00  0.00    -0.064 C 
HETATM   30  C1  UNL     1      -8.809   7.677  15.405  1.00  0.00     0.045 C 
BRANCH  29  31
HETATM   31  C30 UNL     1      -6.736   6.224  15.630  1.00  0.00     0.197 C 
BRANCH  31  32
HETATM   32  O2  UNL     1      -6.911   5.870  16.996  1.00  0.00    -0.397 OA
HETATM   33  H48 UNL     1      -7.473   6.551  17.405  1.00  0.00     0.209 HD
ENDBRANCH  31  32
ENDBRANCH  29  31
ENDBRANCH  27  28
ENDBRANCH  26  27
ENDBRANCH  24  26
ENDBRANCH   1  24
TORSDOF 6
ENDMDL
MODEL 7
REMARK minimizedAffinity -8.55657768
REMARK  6 active torsions:
REMARK  status: ('A' for Active; 'I' for Inactive)
REMARK    1  A    between atoms: C2_2  and  C30_31 
REMARK    2  A    between atoms: C3_3  and  C4_4 
REMARK    3  A    between atoms: C4_4  and  C5_5 
REMARK    4  A    between atoms: C5_5  and  C6_6 
REMARK    5  A    between atoms: C6_6  and  C8_8 
REMARK    6  A    between atoms: C30_31  and  O2_32 
ROOT
HETATM    1  C8  UNL     1       0.716   7.566  12.617  1.00  0.00    -0.002 C 
HETATM    2  C9  UNL     1       0.723   6.340  11.653  1.00  0.00     0.007 C 
HETATM    3  C10 UNL     1      -0.637   5.628  11.795  1.00  0.00     0.015 C 
HETATM    4  C11 UNL     1      -1.264   6.238  13.062  1.00  0.00    -0.013 C 
HETATM    5  C12 UNL     1      -0.646   5.461  14.267  1.00  0.00     0.021 C 
HETATM    6  C13 UNL     1      -2.778   6.147  13.227  1.00  0.00    -0.070 C 
HETATM    7  C14 UNL     1      -3.504   5.121  12.742  1.00  0.00    -0.022 C 
HETATM    8  C15 UNL     1      -4.982   4.948  12.951  1.00  0.00     0.034 C 
HETATM    9  C16 UNL     1      -5.672   6.166  13.608  1.00  0.00     0.013 C 
HETATM   10  C17 UNL     1      -7.191   5.936  13.923  1.00  0.00     0.018 C 
HETATM   11  C18 UNL     1      -7.525   4.662  14.714  1.00  0.00     0.023 C 
HETATM   12  C19 UNL     1      -7.973   5.846  12.588  1.00  0.00     0.023 C 
HETATM   13  C20 UNL     1      -7.740   7.134  14.712  1.00  0.00     0.135 C 
HETATM   14  O1  UNL     1      -8.852   7.619  14.490  1.00  0.00    -0.297 OA
HETATM   15  C21 UNL     1      -6.909   7.651  15.857  1.00  0.00     0.080 C 
HETATM   16  C22 UNL     1      -5.507   7.985  15.377  1.00  0.00     0.017 C 
HETATM   17  C23 UNL     1      -4.772   6.776  14.749  1.00  0.00    -0.031 C 
HETATM   18  C24 UNL     1      -4.418   5.768  15.871  1.00  0.00     0.016 C 
HETATM   19  C25 UNL     1      -3.449   7.270  14.030  1.00  0.00     0.024 C 
HETATM   20  C26 UNL     1      -2.455   8.035  14.933  1.00  0.00     0.010 C 
HETATM   21  C27 UNL     1      -1.147   8.485  14.241  1.00  0.00     0.011 C 
HETATM   22  C28 UNL     1      -0.807   7.736  12.933  1.00  0.00    -0.029 C 
HETATM   23  C29 UNL     1      -1.475   8.478  11.730  1.00  0.00     0.016 C 
ENDROOT
BRANCH   1  24
HETATM   24  C6  UNL     1       1.534   8.767  12.049  1.00  0.00    -0.014 C 
HETATM   25  C7  UNL     1       2.124   9.632  13.169  1.00  0.00     0.010 C 
BRANCH  24  26
HETATM   26  C5  UNL     1       2.671   8.252  11.121  1.00  0.00     0.008 C 
BRANCH  26  27
HETATM   27  C4  UNL     1       4.050   8.201  11.791  1.00  0.00     0.028 C 
BRANCH  27  28
HETATM   28  C3  UNL     1       4.910   7.115  11.199  1.00  0.00    -0.022 C 
HETATM   29  C2  UNL     1       6.067   6.636  11.698  1.00  0.00    -0.064 C 
HETATM   30  C1  UNL     1       6.780   5.491  11.027  1.00  0.00     0.045 C 
BRANCH  29  31
HETATM   31  C30 UNL     1       6.734   7.163  12.941  1.00  0.00     0.197 C 
BRANCH  31  32
HETATM   32  O2  UNL     1       6.258   6.466  14.086  1.00  0.00    -0.397 OA
HETATM   33  H48 UNL     1       5.707   5.729  13.771  1.00  0.00     0.209 HD
ENDBRANCH  31  32
ENDBRANCH  29  31
ENDBRANCH  27  28
ENDBRANCH  26  27
ENDBRANCH  24  26
ENDBRANCH   1  24
TORSDOF 6
ENDMDL
MODEL 8
REMARK minimizedAffinity -8.517416
REMARK  6 active torsions:
REMARK  status: ('A' for Active; 'I' for Inactive)
REMARK    1  A    between atoms: C2_2  and  C30_31 
REMARK    2  A    between atoms: C3_3  and  C4_4 
REMARK    3  A    between atoms: C4_4  and  C5_5 
REMARK    4  A    between atoms: C5_5  and  C6_6 
REMARK    5  A    between atoms: C6_6  and  C8_8 
REMARK    6  A    between atoms: C30_31  and  O2_32 
ROOT
HETATM    1  C8  UNL     1      -1.346   6.447  12.217  1.00  0.00    -0.002 C 
HETATM    2  C9  UNL     1      -0.737   5.554  11.093  1.00  0.00     0.007 C 
HETATM    3  C10 UNL     1       0.774   5.850  11.030  1.00  0.00     0.015 C 
HETATM    4  C11 UNL     1       0.954   7.131  11.865  1.00  0.00    -0.013 C 
HETATM    5  C12 UNL     1       0.606   8.319  10.913  1.00  0.00     0.021 C 
HETATM    6  C13 UNL     1       2.340   7.429  12.429  1.00  0.00    -0.070 C 
HETATM    7  C14 UNL     1       3.476   7.063  11.805  1.00  0.00    -0.022 C 
HETATM    8  C15 UNL     1       4.860   7.407  12.280  1.00  0.00     0.034 C 
HETATM    9  C16 UNL     1       4.901   8.054  13.684  1.00  0.00     0.013 C 
HETATM   10  C17 UNL     1       6.334   8.509  14.127  1.00  0.00     0.018 C 
HETATM   11  C18 UNL     1       7.095   9.392  13.126  1.00  0.00     0.023 C 
HETATM   12  C19 UNL     1       7.210   7.252  14.362  1.00  0.00     0.023 C 
HETATM   13  C20 UNL     1       6.244   9.276  15.454  1.00  0.00     0.135 C 
HETATM   14  O1  UNL     1       7.063   9.124  16.364  1.00  0.00    -0.297 OA
HETATM   15  C21 UNL     1       5.163  10.317  15.582  1.00  0.00     0.080 C 
HETATM   16  C22 UNL     1       3.806   9.702  15.281  1.00  0.00     0.017 C 
HETATM   17  C23 UNL     1       3.718   9.079  13.866  1.00  0.00    -0.031 C 
HETATM   18  C24 UNL     1       3.714  10.219  12.818  1.00  0.00     0.016 C 
HETATM   19  C25 UNL     1       2.389   8.224  13.741  1.00  0.00     0.024 C 
HETATM   20  C26 UNL     1       1.081   8.997  14.021  1.00  0.00     0.010 C 
HETATM   21  C27 UNL     1      -0.219   8.172  13.863  1.00  0.00     0.011 C 
HETATM   22  C28 UNL     1      -0.077   6.883  13.023  1.00  0.00    -0.029 C 
HETATM   23  C29 UNL     1       0.330   5.703  13.965  1.00  0.00     0.016 C 
ENDROOT
BRANCH   1  24
HETATM   24  C6  UNL     1      -2.533   5.748  12.949  1.00  0.00    -0.014 C 
HETATM   25  C7  UNL     1      -3.603   6.756  13.386  1.00  0.00     0.010 C 
BRANCH  24  26
HETATM   26  C5  UNL     1      -3.168   4.666  12.029  1.00  0.00     0.008 C 
BRANCH  26  27
HETATM   27  C4  UNL     1      -4.114   3.702  12.758  1.00  0.00     0.028 C 
BRANCH  27  28
HETATM   28  C3  UNL     1      -5.510   4.261  12.844  1.00  0.00    -0.022 C 
HETATM   29  C2  UNL     1      -6.660   3.610  12.578  1.00  0.00    -0.064 C 
HETATM   30  C1  UNL     1      -7.991   4.284  12.781  1.00  0.00     0.045 C 
BRANCH  29  31
HETATM   31  C30 UNL     1      -6.733   2.189  12.085  1.00  0.00     0.197 C 
BRANCH  31  32
HETATM   32  O2  UNL     1      -7.884   1.544  12.616  1.00  0.00    -0.397 OA
HETATM   33  H48 UNL     1      -8.414   2.220  13.070  1.00  0.00     0.209 HD
ENDBRANCH  31  32
ENDBRANCH  29  31
ENDBRANCH  27  28
ENDBRANCH  26  27
ENDBRANCH  24  26
ENDBRANCH   1  24
TORSDOF 6
ENDMDL
MODEL 9
REMARK minimizedAffinity -8.35791016
REMARK  6 active torsions:
REMARK  status: ('A' for Active; 'I' for Inactive)
REMARK    1  A    between atoms: C2_2  and  C30_31 
REMARK    2  A    between atoms: C3_3  and  C4_4 
REMARK    3  A    between atoms: C4_4  and  C5_5 
REMARK    4  A    between atoms: C5_5  and  C6_6 
REMARK    5  A    between atoms: C6_6  and  C8_8 
REMARK    6  A    between atoms: C30_31  and  O2_32 
ROOT
HETATM    1  C8  UNL     1      -1.855   6.243  13.193  1.00  0.00    -0.002 C 
HETATM    2  C9  UNL     1      -1.925   5.702  11.732  1.00  0.00     0.007 C 
HETATM    3  C10 UNL     1      -0.563   5.979  11.066  1.00  0.00     0.015 C 
HETATM    4  C11 UNL     1       0.142   6.962  12.019  1.00  0.00    -0.013 C 
HETATM    5  C12 UNL     1      -0.406   8.379  11.660  1.00  0.00     0.021 C 
HETATM    6  C13 UNL     1       1.663   7.062  11.947  1.00  0.00    -0.070 C 
HETATM    7  C14 UNL     1       2.354   6.873  10.807  1.00  0.00    -0.022 C 
HETATM    8  C15 UNL     1       3.840   7.043  10.672  1.00  0.00     0.034 C 
HETATM    9  C16 UNL     1       4.575   7.257  12.016  1.00  0.00     0.013 C 
HETATM   10  C17 UNL     1       6.109   7.542  11.858  1.00  0.00     0.018 C 
HETATM   11  C18 UNL     1       6.483   8.664  10.878  1.00  0.00     0.023 C 
HETATM   12  C19 UNL     1       6.808   6.257  11.348  1.00  0.00     0.023 C 
HETATM   13  C20 UNL     1       6.710   7.896  13.226  1.00  0.00     0.135 C 
HETATM   14  O1  UNL     1       7.809   7.475  13.595  1.00  0.00    -0.297 OA
HETATM   15  C21 UNL     1       5.952   8.873  14.086  1.00  0.00     0.080 C 
HETATM   16  C22 UNL     1       4.525   8.393  14.290  1.00  0.00     0.017 C 
HETATM   17  C23 UNL     1       3.747   8.206  12.965  1.00  0.00    -0.031 C 
HETATM   18  C24 UNL     1       3.457   9.599  12.354  1.00  0.00     0.016 C 
HETATM   19  C25 UNL     1       2.386   7.445  13.246  1.00  0.00     0.024 C 
HETATM   20  C26 UNL     1       1.452   8.125  14.273  1.00  0.00     0.010 C 
HETATM   21  C27 UNL     1       0.107   7.402  14.520  1.00  0.00     0.011 C 
HETATM   22  C28 UNL     1      -0.314   6.407  13.416  1.00  0.00    -0.029 C 
HETATM   23  C29 UNL     1       0.283   5.000  13.742  1.00  0.00     0.016 C 
ENDROOT
BRANCH   1  24
HETATM   24  C6  UNL     1      -2.699   5.382  14.183  1.00  0.00    -0.014 C 
HETATM   25  C7  UNL     1      -3.677   6.242  14.992  1.00  0.00     0.010 C 
BRANCH  24  26
HETATM   26  C5  UNL     1      -3.478   4.281  13.407  1.00  0.00     0.008 C 
BRANCH  26  27
HETATM   27  C4  UNL     1      -4.912   4.677  13.030  1.00  0.00     0.028 C 
BRANCH  27  28
HETATM   28  C3  UNL     1      -5.676   3.508  12.466  1.00  0.00    -0.022 C 
HETATM   29  C2  UNL     1      -5.190   2.526  11.679  1.00  0.00    -0.064 C 
HETATM   30  C1  UNL     1      -6.065   1.378  11.252  1.00  0.00     0.045 C 
BRANCH  29  31
HETATM   31  C30 UNL     1      -3.771   2.468  11.179  1.00  0.00     0.197 C 
BRANCH  31  32
HETATM   32  O2  UNL     1      -3.214   1.184  11.431  1.00  0.00    -0.397 OA
HETATM   33  H48 UNL     1      -3.932   0.613  11.754  1.00  0.00     0.209 HD
ENDBRANCH  31  32
ENDBRANCH  29  31
ENDBRANCH  27  28
ENDBRANCH  26  27
ENDBRANCH  24  26
ENDBRANCH   1  24
TORSDOF 6
ENDMDL
