MODEL 1
REMARK minimizedAffinity -9.32846069
REMARK CNNscore 0.582102776
REMARK CNNaffinity 7.22739649
REMARK  11 active torsions:
REMARK  status: ('A' for Active; 'I' for Inactive)
REMARK    1  A    between atoms: O1_2  and  C2_3 
REMARK    2  A    between atoms: C4_5  and  O2_6 
REMARK    3  A    between atoms: O2_6  and  C5_7 
REMARK    4  A    between atoms: C8_10  and  C9_11 
REMARK    5  A    between atoms: N1_12  and  C10_14 
REMARK    6  A    between atoms: C10_14  and  C11_15 
REMARK    7  A    between atoms: C11_15  and  O3_16 
REMARK    8  A    between atoms: C17_22  and  C18_23 
REMARK    9  A    between atoms: C24_31  and  O6_32 
REMARK   10  A    between atoms: C28_36  and  O7_37 
REMARK   11  A    between atoms: C32_42  and  O9_43 
ROOT
HETATM    1  C5  UNL     1      -4.200   7.894  14.505  1.00  0.00     0.127 C 
HETATM    2  C6  UNL     1      -3.994   8.320  13.058  1.00  0.00     0.033 C 
HETATM    3  C7  UNL     1      -2.558   8.749  12.754  1.00  0.00     0.021 C 
HETATM    4  C8  UNL     1      -1.463   8.166  13.708  1.00  0.00     0.026 C 
HETATM    5  C12 UNL     1      -0.078   8.167  12.927  1.00  0.00     0.009 C 
HETATM    6  C13 UNL     1       1.016   9.089  13.497  1.00  0.00     0.007 C 
HETATM    7  C14 UNL     1       2.223   9.156  12.562  1.00  0.00     0.013 C 
HETATM    8  C15 UNL     1       2.864   7.774  12.302  1.00  0.00    -0.005 C 
HETATM    9  C16 UNL     1       3.601   7.313  13.575  1.00  0.00     0.019 C 
HETATM   10  C17 UNL     1       3.831   7.797  11.071  1.00  0.00     0.028 C 
HETATM   11  C22 UNL     1       2.892   7.721   9.852  1.00  0.00     0.013 C 
HETATM   12  C23 UNL     1       1.589   7.078  10.342  1.00  0.00     0.040 C 
HETATM   13  C24 UNL     1       1.795   6.743  11.831  1.00  0.00     0.070 C 
HETATM   14  C25 UNL     1       0.500   6.745  12.693  1.00  0.00     0.026 C 
HETATM   15  C26 UNL     1      -0.605   5.841  12.123  1.00  0.00     0.011 C 
HETATM   16  C27 UNL     1      -1.838   5.722  13.029  1.00  0.00     0.039 C 
HETATM   17  C28 UNL     1      -1.898   6.742  14.188  1.00  0.00     0.073 C 
HETATM   18  C29 UNL     1      -3.305   6.698  14.847  1.00  0.00     0.071 C 
ENDROOT
BRANCH   1  19
HETATM   19  O2  UNL     1      -5.587   7.588  14.666  1.00  0.00    -0.356 OA
BRANCH  19  20
HETATM   20  C4  UNL     1      -6.151   6.839  13.590  1.00  0.00     0.263 C 
HETATM   21  C3  UNL     1      -5.436   5.496  13.531  1.00  0.00     0.095 C 
HETATM   22  C2  UNL     1      -6.336   4.446  12.913  1.00  0.00     0.156 C 
HETATM   23  C32 UNL     1      -7.610   4.273  13.768  1.00  0.00     0.175 C 
HETATM   24  C30 UNL     1      -8.055   5.599  14.432  1.00  0.00     0.151 C 
HETATM   25  O8  UNL     1      -7.566   6.739  13.727  1.00  0.00    -0.354 OA
HETATM   26  C31 UNL     1      -7.711   5.667  15.918  1.00  0.00     0.042 C 
BRANCH  22  27
HETATM   27  O1  UNL     1      -5.568   3.231  12.837  1.00  0.00    -0.388 OA
HETATM   28  C1  UNL     1      -4.702   3.181  11.710  1.00  0.00     0.202 C 
ENDBRANCH  22  27
BRANCH  23  29
HETATM   29  O9  UNL     1      -8.649   3.799  12.885  1.00  0.00    -0.390 OA
HETATM   30  H49 UNL     1      -9.455   3.677  13.417  1.00  0.00     0.210 HD
ENDBRANCH  23  29
ENDBRANCH  19  20
ENDBRANCH   1  19
BRANCH  17  31
HETATM   31  O7  UNL     1      -0.976   6.234  15.170  1.00  0.00    -0.389 OA
HETATM   32  H41 UNL     1      -0.908   6.918  15.873  1.00  0.00     0.210 HD
ENDBRANCH  17  31
BRANCH   4  33
HETATM   33  C9  UNL     1      -1.369   9.133  14.905  1.00  0.00     0.068 C 
HETATM   34  N1  UNL     1      -0.998   8.736  16.072  1.00  0.00    -0.399 N 
ATOM     35  H1  UNL     1      -0.771   7.762  16.272  1.00  0.00     0.158 HD
BRANCH  34  36
HETATM   36  C10 UNL     1      -0.926   9.791  17.092  1.00  0.00     0.144 C 
BRANCH  36  37
HETATM   37  C11 UNL     1       0.451  10.451  17.061  1.00  0.00     0.183 C 
BRANCH  37  38
HETATM   38  O3  UNL     1       1.449   9.536  17.488  1.00  0.00    -0.399 OA
HETATM   39  H18 UNL     1       1.531   8.854  16.796  1.00  0.00     0.209 HD
ENDBRANCH  37  38
ENDBRANCH  36  37
ENDBRANCH  34  36
ENDBRANCH   4  33
BRANCH  13  40
HETATM   40  O6  UNL     1       2.394   5.441  11.895  1.00  0.00    -0.389 OA
HETATM   41  H35 UNL     1       1.783   4.793  11.509  1.00  0.00     0.210 HD
ENDBRANCH  13  40
BRANCH  10  42
HETATM   42  C18 UNL     1       4.853   8.902  11.025  1.00  0.00    -0.045 A 
HETATM   43  C19 UNL     1       6.097   8.881  10.546  1.00  0.00     0.087 A 
HETATM   44  C20 UNL     1       6.679  10.196  10.788  1.00  0.00     0.283 A 
HETATM   45  O4  UNL     1       7.803  10.525  10.459  1.00  0.00    -0.260 OA
HETATM   46  O5  UNL     1       5.772  10.973  11.436  1.00  0.00    -0.314 OA
HETATM   47  C21 UNL     1       4.570  10.228  11.625  1.00  0.00     0.213 A 
ENDBRANCH  10  42
TORSDOF 11
ENDMDL
MODEL 2
REMARK minimizedAffinity -7.07679176
REMARK CNNscore 0.453408897
REMARK CNNaffinity 6.40897369
REMARK  11 active torsions:
REMARK  status: ('A' for Active; 'I' for Inactive)
REMARK    1  A    between atoms: O1_2  and  C2_3 
REMARK    2  A    between atoms: C4_5  and  O2_6 
REMARK    3  A    between atoms: O2_6  and  C5_7 
REMARK    4  A    between atoms: C8_10  and  C9_11 
REMARK    5  A    between atoms: N1_12  and  C10_14 
REMARK    6  A    between atoms: C10_14  and  C11_15 
REMARK    7  A    between atoms: C11_15  and  O3_16 
REMARK    8  A    between atoms: C17_22  and  C18_23 
REMARK    9  A    between atoms: C24_31  and  O6_32 
REMARK   10  A    between atoms: C28_36  and  O7_37 
REMARK   11  A    between atoms: C32_42  and  O9_43 
ROOT
HETATM    1  C5  UNL     1      -2.639  11.753  18.043  1.00  0.00     0.127 C 
HETATM    2  C6  UNL     1      -2.445  12.441  16.699  1.00  0.00     0.033 C 
HETATM    3  C7  UNL     1      -1.464  11.708  15.783  1.00  0.00     0.021 C 
HETATM    4  C8  UNL     1      -1.282  10.181  16.073  1.00  0.00     0.026 C 
HETATM    5  C12 UNL     1      -0.784   9.482  14.733  1.00  0.00     0.009 C 
HETATM    6  C13 UNL     1       0.628   8.871  14.778  1.00  0.00     0.007 C 
HETATM    7  C14 UNL     1       1.072   8.404  13.392  1.00  0.00     0.013 C 
HETATM    8  C15 UNL     1       0.125   7.350  12.776  1.00  0.00    -0.005 C 
HETATM    9  C16 UNL     1       0.305   6.013  13.522  1.00  0.00     0.019 C 
HETATM   10  C17 UNL     1       0.364   7.173  11.239  1.00  0.00     0.028 C 
HETATM   11  C22 UNL     1      -0.367   8.371  10.603  1.00  0.00     0.013 C 
HETATM   12  C23 UNL     1      -1.437   8.816  11.606  1.00  0.00     0.040 C 
HETATM   13  C24 UNL     1      -1.352   7.847  12.800  1.00  0.00     0.070 C 
HETATM   14  C25 UNL     1      -1.790   8.444  14.168  1.00  0.00     0.026 C 
HETATM   15  C26 UNL     1      -3.193   9.072  14.129  1.00  0.00     0.011 C 
HETATM   16  C27 UNL     1      -3.699   9.545  15.499  1.00  0.00     0.039 C 
HETATM   17  C28 UNL     1      -2.627   9.591  16.612  1.00  0.00     0.073 C 
HETATM   18  C29 UNL     1      -3.195  10.338  17.850  1.00  0.00     0.071 C 
ENDROOT
BRANCH   1  19
HETATM   19  O2  UNL     1      -3.517  12.573  18.819  1.00  0.00    -0.356 OA
BRANCH  19  20
HETATM   20  C4  UNL     1      -3.983  13.738  18.140  1.00  0.00     0.263 C 
HETATM   21  C3  UNL     1      -5.470  13.558  17.868  1.00  0.00     0.095 C 
HETATM   22  C2  UNL     1      -6.154  14.906  17.765  1.00  0.00     0.156 C 
HETATM   23  C32 UNL     1      -6.000  15.679  19.093  1.00  0.00     0.175 C 
HETATM   24  C30 UNL     1      -4.655  15.375  19.795  1.00  0.00     0.151 C 
HETATM   25  O8  UNL     1      -3.664  14.917  18.876  1.00  0.00    -0.354 OA
HETATM   26  C31 UNL     1      -4.802  14.426  20.983  1.00  0.00     0.042 C 
BRANCH  22  27
HETATM   27  O1  UNL     1      -7.535  14.649  17.447  1.00  0.00    -0.388 OA
HETATM   28  C1  UNL     1      -7.705  13.724  16.379  1.00  0.00     0.202 C 
ENDBRANCH  22  27
BRANCH  23  29
HETATM   29  O9  UNL     1      -6.076  17.085  18.774  1.00  0.00    -0.390 OA
HETATM   30  H49 UNL     1      -5.990  17.581  19.607  1.00  0.00     0.210 HD
ENDBRANCH  23  29
ENDBRANCH  19  20
ENDBRANCH   1  19
BRANCH  17  31
HETATM   31  O7  UNL     1      -2.455   8.219  17.011  1.00  0.00    -0.389 OA
HETATM   32  H41 UNL     1      -1.701   8.201  17.640  1.00  0.00     0.210 HD
ENDBRANCH  17  31
BRANCH   4  33
HETATM   33  C9  UNL     1      -0.177  10.069  17.142  1.00  0.00     0.068 C 
HETATM   34  N1  UNL     1       0.683  11.008  17.330  1.00  0.00    -0.399 N 
ATOM     35  H1  UNL     1       0.696  11.860  16.769  1.00  0.00     0.158 HD
BRANCH  34  36
HETATM   36  C10 UNL     1       1.645  10.759  18.413  1.00  0.00     0.144 C 
BRANCH  36  37
HETATM   37  C11 UNL     1       3.067  11.014  17.915  1.00  0.00     0.183 C 
BRANCH  37  38
HETATM   38  O3  UNL     1       3.466   9.992  17.014  1.00  0.00    -0.399 OA
HETATM   39  H18 UNL     1       2.939  10.100  16.201  1.00  0.00     0.209 HD
ENDBRANCH  37  38
ENDBRANCH  36  37
ENDBRANCH  34  36
ENDBRANCH   4  33
BRANCH  13  40
HETATM   40  O6  UNL     1      -2.189   6.722  12.494  1.00  0.00    -0.389 OA
HETATM   41  H35 UNL     1      -3.106   7.028  12.402  1.00  0.00     0.210 HD
ENDBRANCH  13  40
BRANCH  10  42
HETATM   42  C18 UNL     1       1.786   6.974  10.787  1.00  0.00    -0.045 A 
HETATM   43  C19 UNL     1       2.560   5.892  10.888  1.00  0.00     0.087 A 
HETATM   44  C20 UNL     1       3.866   6.240  10.340  1.00  0.00     0.283 A 
HETATM   45  O4  UNL     1       4.808   5.474  10.263  1.00  0.00    -0.260 OA
HETATM   46  O5  UNL     1       3.853   7.539   9.945  1.00  0.00    -0.314 OA
HETATM   47  C21 UNL     1       2.559   8.089  10.189  1.00  0.00     0.213 A 
ENDBRANCH  10  42
TORSDOF 11
ENDMDL
MODEL 3
REMARK minimizedAffinity -7.49009848
REMARK CNNscore 0.396596581
REMARK CNNaffinity 6.41236544
REMARK  11 active torsions:
REMARK  status: ('A' for Active; 'I' for Inactive)
REMARK    1  A    between atoms: O1_2  and  C2_3 
REMARK    2  A    between atoms: C4_5  and  O2_6 
REMARK    3  A    between atoms: O2_6  and  C5_7 
REMARK    4  A    between atoms: C8_10  and  C9_11 
REMARK    5  A    between atoms: N1_12  and  C10_14 
REMARK    6  A    between atoms: C10_14  and  C11_15 
REMARK    7  A    between atoms: C11_15  and  O3_16 
REMARK    8  A    between atoms: C17_22  and  C18_23 
REMARK    9  A    between atoms: C24_31  and  O6_32 
REMARK   10  A    between atoms: C28_36  and  O7_37 
REMARK   11  A    between atoms: C32_42  and  O9_43 
ROOT
HETATM    1  C5  UNL     1      -0.444  12.065  18.221  1.00  0.00     0.127 C 
HETATM    2  C6  UNL     1      -1.122  10.972  19.036  1.00  0.00     0.033 C 
HETATM    3  C7  UNL     1      -2.378  10.412  18.367  1.00  0.00     0.021 C 
HETATM    4  C8  UNL     1      -2.449  10.582  16.813  1.00  0.00     0.026 C 
HETATM    5  C12 UNL     1      -3.415   9.457  16.239  1.00  0.00     0.009 C 
HETATM    6  C13 UNL     1      -4.712   9.957  15.578  1.00  0.00     0.007 C 
HETATM    7  C14 UNL     1      -5.644   8.793  15.241  1.00  0.00     0.013 C 
HETATM    8  C15 UNL     1      -5.002   7.759  14.289  1.00  0.00    -0.005 C 
HETATM    9  C16 UNL     1      -4.900   8.370  12.878  1.00  0.00     0.019 C 
HETATM   10  C17 UNL     1      -5.798   6.412  14.263  1.00  0.00     0.028 C 
HETATM   11  C22 UNL     1      -5.351   5.683  15.544  1.00  0.00     0.013 C 
HETATM   12  C23 UNL     1      -3.981   6.259  15.921  1.00  0.00     0.040 C 
HETATM   13  C24 UNL     1      -3.620   7.286  14.832  1.00  0.00     0.070 C 
HETATM   14  C25 UNL     1      -2.699   8.449  15.300  1.00  0.00     0.026 C 
HETATM   15  C26 UNL     1      -1.408   7.960  15.977  1.00  0.00     0.011 C 
HETATM   16  C27 UNL     1      -0.425   9.086  16.323  1.00  0.00     0.039 C 
HETATM   17  C28 UNL     1      -1.004  10.515  16.218  1.00  0.00     0.073 C 
HETATM   18  C29 UNL     1      -0.009  11.527  16.853  1.00  0.00     0.071 C 
ENDROOT
BRANCH   1  19
HETATM   19  O2  UNL     1       0.665  12.542  18.986  1.00  0.00    -0.356 OA
BRANCH  19  20
HETATM   20  C4  UNL     1       1.933  12.057  18.544  1.00  0.00     0.263 C 
HETATM   21  C3  UNL     1       2.953  13.171  18.739  1.00  0.00     0.095 C 
HETATM   22  C2  UNL     1       4.340  12.589  18.921  1.00  0.00     0.156 C 
HETATM   23  C32 UNL     1       4.373  11.685  20.172  1.00  0.00     0.175 C 
HETATM   24  C30 UNL     1       3.027  10.958  20.406  1.00  0.00     0.151 C 
HETATM   25  O8  UNL     1       2.269  10.839  19.202  1.00  0.00    -0.354 OA
HETATM   26  C31 UNL     1       2.201  11.577  21.532  1.00  0.00     0.042 C 
BRANCH  22  27
HETATM   27  O1  UNL     1       5.246  13.702  19.035  1.00  0.00    -0.388 OA
HETATM   28  C1  UNL     1       4.599  14.925  19.363  1.00  0.00     0.202 C 
ENDBRANCH  22  27
BRANCH  23  29
HETATM   29  O9  UNL     1       5.420  10.714  19.963  1.00  0.00    -0.390 OA
HETATM   30  H49 UNL     1       5.456  10.144  20.752  1.00  0.00     0.210 HD
ENDBRANCH  23  29
ENDBRANCH  19  20
ENDBRANCH   1  19
BRANCH  17  31
HETATM   31  O7  UNL     1      -1.023  10.799  14.807  1.00  0.00    -0.389 OA
HETATM   32  H41 UNL     1      -1.488  11.658  14.699  1.00  0.00     0.210 HD
ENDBRANCH  17  31
BRANCH   4  33
HETATM   33  C9  UNL     1      -3.075  11.967  16.554  1.00  0.00     0.068 C 
HETATM   34  N1  UNL     1      -2.806  12.646  15.495  1.00  0.00    -0.399 N 
ATOM     35  H1  UNL     1      -2.150  12.319  14.786  1.00  0.00     0.158 HD
BRANCH  34  36
HETATM   36  C10 UNL     1      -3.516  13.929  15.384  1.00  0.00     0.144 C 
BRANCH  36  37
HETATM   37  C11 UNL     1      -2.674  14.922  14.585  1.00  0.00     0.183 C 
BRANCH  37  38
HETATM   38  O3  UNL     1      -3.367  15.332  13.417  1.00  0.00    -0.399 OA
HETATM   39  H18 UNL     1      -4.119  15.883  13.705  1.00  0.00     0.209 HD
ENDBRANCH  37  38
ENDBRANCH  36  37
ENDBRANCH  34  36
ENDBRANCH   4  33
BRANCH  13  40
HETATM   40  O6  UNL     1      -2.964   6.571  13.774  1.00  0.00    -0.389 OA
HETATM   41  H35 UNL     1      -2.146   6.178  14.119  1.00  0.00     0.210 HD
ENDBRANCH  13  40
BRANCH  10  42
HETATM   42  C18 UNL     1      -7.288   6.502  14.063  1.00  0.00    -0.045 A 
HETATM   43  C19 UNL     1      -8.194   7.179  14.769  1.00  0.00     0.087 A 
HETATM   44  C20 UNL     1      -9.501   6.892  14.189  1.00  0.00     0.283 A 
HETATM   45  O4  UNL     1     -10.551   7.363  14.585  1.00  0.00    -0.260 OA
HETATM   46  O5  UNL     1      -9.350   6.021  13.158  1.00  0.00    -0.314 OA
HETATM   47  C21 UNL     1      -7.964   5.720  13.000  1.00  0.00     0.213 A 
ENDBRANCH  10  42
TORSDOF 11
ENDMDL
MODEL 4
REMARK minimizedAffinity -7.09466171
REMARK CNNscore 0.391716659
REMARK CNNaffinity 5.71235132
REMARK  11 active torsions:
REMARK  status: ('A' for Active; 'I' for Inactive)
REMARK    1  A    between atoms: O1_2  and  C2_3 
REMARK    2  A    between atoms: C4_5  and  O2_6 
REMARK    3  A    between atoms: O2_6  and  C5_7 
REMARK    4  A    between atoms: C8_10  and  C9_11 
REMARK    5  A    between atoms: N1_12  and  C10_14 
REMARK    6  A    between atoms: C10_14  and  C11_15 
REMARK    7  A    between atoms: C11_15  and  O3_16 
REMARK    8  A    between atoms: C17_22  and  C18_23 
REMARK    9  A    between atoms: C24_31  and  O6_32 
REMARK   10  A    between atoms: C28_36  and  O7_37 
REMARK   11  A    between atoms: C32_42  and  O9_43 
ROOT
HETATM    1  C5  UNL     1       0.097   8.267  13.936  1.00  0.00     0.127 C 
HETATM    2  C6  UNL     1      -0.512   7.827  15.259  1.00  0.00     0.033 C 
HETATM    3  C7  UNL     1      -0.655   8.969  16.266  1.00  0.00     0.021 C 
HETATM    4  C8  UNL     1      -0.724  10.407  15.652  1.00  0.00     0.026 C 
HETATM    5  C12 UNL     1      -1.478  11.349  16.688  1.00  0.00     0.009 C 
HETATM    6  C13 UNL     1      -0.638  12.487  17.297  1.00  0.00     0.007 C 
HETATM    7  C14 UNL     1      -1.402  13.200  18.413  1.00  0.00     0.013 C 
HETATM    8  C15 UNL     1      -2.740  13.808  17.938  1.00  0.00    -0.005 C 
HETATM    9  C16 UNL     1      -2.450  15.038  17.055  1.00  0.00     0.019 C 
HETATM   10  C17 UNL     1      -3.672  14.185  19.138  1.00  0.00     0.028 C 
HETATM   11  C22 UNL     1      -4.299  12.844  19.565  1.00  0.00     0.013 C 
HETATM   12  C23 UNL     1      -4.231  11.919  18.344  1.00  0.00     0.040 C 
HETATM   13  C24 UNL     1      -3.607  12.742  17.202  1.00  0.00     0.070 C 
HETATM   14  C25 UNL     1      -2.818  11.914  16.146  1.00  0.00     0.026 C 
HETATM   15  C26 UNL     1      -3.643  10.765  15.545  1.00  0.00     0.011 C 
HETATM   16  C27 UNL     1      -2.932  10.022  14.406  1.00  0.00     0.039 C 
HETATM   17  C28 UNL     1      -1.427  10.341  14.256  1.00  0.00     0.073 C 
HETATM   18  C29 UNL     1      -0.778   9.333  13.267  1.00  0.00     0.071 C 
ENDROOT
BRANCH   1  19
HETATM   19  O2  UNL     1       0.236   7.100  13.121  1.00  0.00    -0.356 OA
BRANCH  19  20
HETATM   20  C4  UNL     1       1.533   6.938  12.547  1.00  0.00     0.263 C 
HETATM   21  C3  UNL     1       1.524   5.652  11.731  1.00  0.00     0.095 C 
HETATM   22  C2  UNL     1       2.555   5.725  10.622  1.00  0.00     0.156 C 
HETATM   23  C32 UNL     1       2.226   6.898   9.673  1.00  0.00     0.175 C 
HETATM   24  C30 UNL     1       1.582   8.092  10.417  1.00  0.00     0.151 C 
HETATM   25  O8  UNL     1       1.910   8.095  11.806  1.00  0.00    -0.354 OA
HETATM   26  C31 UNL     1       0.074   8.190  10.196  1.00  0.00     0.042 C 
BRANCH  22  27
HETATM   27  O1  UNL     1       2.526   4.456   9.944  1.00  0.00    -0.388 OA
HETATM   28  C1  UNL     1       3.790   4.066   9.421  1.00  0.00     0.202 C 
ENDBRANCH  22  27
BRANCH  23  29
HETATM   29  O9  UNL     1       3.470   7.314   9.071  1.00  0.00    -0.390 OA
HETATM   30  H49 UNL     1       3.272   8.047   8.462  1.00  0.00     0.210 HD
ENDBRANCH  23  29
ENDBRANCH  19  20
ENDBRANCH   1  19
BRANCH  17  31
HETATM   31  O7  UNL     1      -1.389  11.626  13.607  1.00  0.00    -0.389 OA
HETATM   32  H41 UNL     1      -0.447  11.907  13.597  1.00  0.00     0.210 HD
ENDBRANCH  17  31
BRANCH   4  33
HETATM   33  C9  UNL     1       0.733  10.886  15.500  1.00  0.00     0.068 C 
HETATM   34  N1  UNL     1       1.700  10.331  16.143  1.00  0.00    -0.399 N 
ATOM     35  H1  UNL     1       1.553   9.566  16.801  1.00  0.00     0.158 HD
BRANCH  34  36
HETATM   36  C10 UNL     1       3.032  10.883  15.856  1.00  0.00     0.144 C 
BRANCH  36  37
HETATM   37  C11 UNL     1       3.510  11.727  17.036  1.00  0.00     0.183 C 
BRANCH  37  38
HETATM   38  O3  UNL     1       3.756  10.903  18.166  1.00  0.00    -0.399 OA
HETATM   39  H18 UNL     1       4.543  10.364  17.965  1.00  0.00     0.209 HD
ENDBRANCH  37  38
ENDBRANCH  36  37
ENDBRANCH  34  36
ENDBRANCH   4  33
BRANCH  13  40
HETATM   40  O6  UNL     1      -4.676  13.436  16.544  1.00  0.00    -0.389 OA
HETATM   41  H35 UNL     1      -5.288  12.785  16.164  1.00  0.00     0.210 HD
ENDBRANCH  13  40
BRANCH  10  42
HETATM   42  C18 UNL     1      -3.060  14.991  20.252  1.00  0.00    -0.045 A 
HETATM   43  C19 UNL     1      -1.856  15.563  20.316  1.00  0.00     0.087 A 
HETATM   44  C20 UNL     1      -1.739  16.181  21.632  1.00  0.00     0.283 A 
HETATM   45  O4  UNL     1      -0.768  16.805  22.017  1.00  0.00    -0.260 OA
HETATM   46  O5  UNL     1      -2.872  15.942  22.341  1.00  0.00    -0.314 OA
HETATM   47  C21 UNL     1      -3.778  15.190  21.534  1.00  0.00     0.213 A 
ENDBRANCH  10  42
TORSDOF 11
ENDMDL
MODEL 5
REMARK minimizedAffinity -7.51081228
REMARK CNNscore 0.372155428
REMARK CNNaffinity 6.77881289
REMARK  11 active torsions:
REMARK  status: ('A' for Active; 'I' for Inactive)
REMARK    1  A    between atoms: O1_2  and  C2_3 
REMARK    2  A    between atoms: C4_5  and  O2_6 
REMARK    3  A    between atoms: O2_6  and  C5_7 
REMARK    4  A    between atoms: C8_10  and  C9_11 
REMARK    5  A    between atoms: N1_12  and  C10_14 
REMARK    6  A    between atoms: C10_14  and  C11_15 
REMARK    7  A    between atoms: C11_15  and  O3_16 
REMARK    8  A    between atoms: C17_22  and  C18_23 
REMARK    9  A    between atoms: C24_31  and  O6_32 
REMARK   10  A    between atoms: C28_36  and  O7_37 
REMARK   11  A    between atoms: C32_42  and  O9_43 
ROOT
HETATM    1  C5  UNL     1      -3.979   5.767  13.532  1.00  0.00     0.127 C 
HETATM    2  C6  UNL     1      -3.231   6.703  12.593  1.00  0.00     0.033 C 
HETATM    3  C7  UNL     1      -3.179   8.147  13.096  1.00  0.00     0.021 C 
HETATM    4  C8  UNL     1      -3.346   8.330  14.641  1.00  0.00     0.026 C 
HETATM    5  C12 UNL     1      -2.662   9.706  15.050  1.00  0.00     0.009 C 
HETATM    6  C13 UNL     1      -3.607  10.791  15.598  1.00  0.00     0.007 C 
HETATM    7  C14 UNL     1      -2.877  12.122  15.773  1.00  0.00     0.013 C 
HETATM    8  C15 UNL     1      -1.667  12.028  16.730  1.00  0.00    -0.005 C 
HETATM    9  C16 UNL     1      -2.180  11.871  18.175  1.00  0.00     0.019 C 
HETATM   10  C17 UNL     1      -0.719  13.267  16.601  1.00  0.00     0.028 C 
HETATM   11  C22 UNL     1       0.111  12.977  15.336  1.00  0.00     0.013 C 
HETATM   12  C23 UNL     1       0.090  11.457  15.135  1.00  0.00     0.040 C 
HETATM   13  C24 UNL     1      -0.714  10.869  16.310  1.00  0.00     0.070 C 
HETATM   14  C25 UNL     1      -1.450   9.533  16.003  1.00  0.00     0.026 C 
HETATM   15  C26 UNL     1      -0.517   8.448  15.440  1.00  0.00     0.011 C 
HETATM   16  C27 UNL     1      -1.193   7.082  15.259  1.00  0.00     0.039 C 
HETATM   17  C28 UNL     1      -2.734   7.094  15.380  1.00  0.00     0.073 C 
HETATM   18  C29 UNL     1      -3.303   5.727  14.906  1.00  0.00     0.071 C 
ENDROOT
BRANCH   1  19
HETATM   19  O2  UNL     1      -4.011   4.479  12.913  1.00  0.00    -0.356 OA
BRANCH  19  20
HETATM   20  C4  UNL     1      -3.205   4.372  11.740  1.00  0.00     0.263 C 
HETATM   21  C3  UNL     1      -1.776   4.084  12.181  1.00  0.00     0.095 C 
HETATM   22  C2  UNL     1      -1.028   3.343  11.091  1.00  0.00     0.156 C 
HETATM   23  C32 UNL     1      -1.720   1.994  10.800  1.00  0.00     0.175 C 
HETATM   24  C30 UNL     1      -3.255   2.072  10.980  1.00  0.00     0.151 C 
HETATM   25  O8  UNL     1      -3.742   3.406  10.841  1.00  0.00    -0.354 OA
HETATM   26  C31 UNL     1      -3.737   1.430  12.280  1.00  0.00     0.042 C 
BRANCH  22  27
HETATM   27  O1  UNL     1       0.323   3.168  11.559  1.00  0.00    -0.388 OA
HETATM   28  C1  UNL     1       1.062   4.382  11.616  1.00  0.00     0.202 C 
ENDBRANCH  22  27
BRANCH  23  29
HETATM   29  O9  UNL     1      -1.407   1.646   9.435  1.00  0.00    -0.390 OA
HETATM   30  H49 UNL     1      -1.831   0.790   9.244  1.00  0.00     0.210 HD
ENDBRANCH  23  29
ENDBRANCH  19  20
ENDBRANCH   1  19
BRANCH  17  31
HETATM   31  O7  UNL     1      -2.989   7.171  16.794  1.00  0.00    -0.389 OA
HETATM   32  H41 UNL     1      -3.959   7.291  16.898  1.00  0.00     0.210 HD
ENDBRANCH  17  31
BRANCH   4  33
HETATM   33  C9  UNL     1      -4.862   8.420  14.907  1.00  0.00     0.068 C 
HETATM   34  N1  UNL     1      -5.463   7.599  15.696  1.00  0.00    -0.399 N 
ATOM     35  H1  UNL     1      -4.977   6.836  16.165  1.00  0.00     0.158 HD
BRANCH  34  36
HETATM   36  C10 UNL     1      -6.902   7.847  15.869  1.00  0.00     0.144 C 
BRANCH  36  37
HETATM   37  C11 UNL     1      -7.530   6.716  16.681  1.00  0.00     0.183 C 
BRANCH  37  38
HETATM   38  O3  UNL     1      -8.629   6.154  15.980  1.00  0.00    -0.399 OA
HETATM   39  H18 UNL     1      -8.268   5.679  15.209  1.00  0.00     0.209 HD
ENDBRANCH  37  38
ENDBRANCH  36  37
ENDBRANCH  34  36
ENDBRANCH   4  33
BRANCH  13  40
HETATM   40  O6  UNL     1       0.206  10.656  17.390  1.00  0.00    -0.389 OA
HETATM   41  H35 UNL     1       0.874  10.009  17.112  1.00  0.00     0.210 HD
ENDBRANCH  13  40
BRANCH  10  42
HETATM   42  C18 UNL     1      -1.362  14.628  16.649  1.00  0.00    -0.045 A 
HETATM   43  C19 UNL     1      -1.772  15.403  15.643  1.00  0.00     0.087 A 
HETATM   44  C20 UNL     1      -2.279  16.639  16.227  1.00  0.00     0.283 A 
HETATM   45  O4  UNL     1      -2.747  17.563  15.589  1.00  0.00    -0.260 OA
HETATM   46  O5  UNL     1      -2.134  16.588  17.576  1.00  0.00    -0.314 OA
HETATM   47  C21 UNL     1      -1.560  15.333  17.938  1.00  0.00     0.213 A 
ENDBRANCH  10  42
TORSDOF 11
ENDMDL
MODEL 6
REMARK minimizedAffinity -8.92168999
REMARK CNNscore 0.328943282
REMARK CNNaffinity 6.68359756
REMARK  11 active torsions:
REMARK  status: ('A' for Active; 'I' for Inactive)
REMARK    1  A    between atoms: O1_2  and  C2_3 
REMARK    2  A    between atoms: C4_5  and  O2_6 
REMARK    3  A    between atoms: O2_6  and  C5_7 
REMARK    4  A    between atoms: C8_10  and  C9_11 
REMARK    5  A    between atoms: N1_12  and  C10_14 
REMARK    6  A    between atoms: C10_14  and  C11_15 
REMARK    7  A    between atoms: C11_15  and  O3_16 
REMARK    8  A    between atoms: C17_22  and  C18_23 
REMARK    9  A    between atoms: C24_31  and  O6_32 
REMARK   10  A    between atoms: C28_36  and  O7_37 
REMARK   11  A    between atoms: C32_42  and  O9_43 
ROOT
HETATM    1  C5  UNL     1       2.611   7.658  12.200  1.00  0.00     0.127 C 
HETATM    2  C6  UNL     1       1.563   8.392  11.376  1.00  0.00     0.033 C 
HETATM    3  C7  UNL     1       0.168   7.776  11.487  1.00  0.00     0.021 C 
HETATM    4  C8  UNL     1      -0.098   6.936  12.780  1.00  0.00     0.026 C 
HETATM    5  C12 UNL     1      -1.667   6.919  13.042  1.00  0.00     0.009 C 
HETATM    6  C13 UNL     1      -2.352   5.545  12.939  1.00  0.00     0.007 C 
HETATM    7  C14 UNL     1      -3.872   5.679  13.016  1.00  0.00     0.013 C 
HETATM    8  C15 UNL     1      -4.356   6.346  14.323  1.00  0.00    -0.005 C 
HETATM    9  C16 UNL     1      -4.166   5.359  15.492  1.00  0.00     0.019 C 
HETATM   10  C17 UNL     1      -5.844   6.821  14.224  1.00  0.00     0.028 C 
HETATM   11  C22 UNL     1      -5.767   8.145  13.440  1.00  0.00     0.013 C 
HETATM   12  C23 UNL     1      -4.346   8.687  13.632  1.00  0.00     0.040 C 
HETATM   13  C24 UNL     1      -3.619   7.698  14.564  1.00  0.00     0.070 C 
HETATM   14  C25 UNL     1      -2.078   7.616  14.367  1.00  0.00     0.026 C 
HETATM   15  C26 UNL     1      -1.387   8.986  14.451  1.00  0.00     0.011 C 
HETATM   16  C27 UNL     1       0.145   8.912  14.396  1.00  0.00     0.039 C 
HETATM   17  C28 UNL     1       0.718   7.542  13.969  1.00  0.00     0.073 C 
HETATM   18  C29 UNL     1       2.241   7.680  13.687  1.00  0.00     0.071 C 
ENDROOT
BRANCH   1  19
HETATM   19  O2  UNL     1       3.869   8.291  11.953  1.00  0.00    -0.356 OA
BRANCH  19  20
HETATM   20  C4  UNL     1       4.447   8.915  13.100  1.00  0.00     0.263 C 
HETATM   21  C3  UNL     1       5.655   8.089  13.521  1.00  0.00     0.095 C 
HETATM   22  C2  UNL     1       6.657   8.958  14.253  1.00  0.00     0.156 C 
HETATM   23  C32 UNL     1       7.150  10.091  13.327  1.00  0.00     0.175 C 
HETATM   24  C30 UNL     1       6.050  10.570  12.350  1.00  0.00     0.151 C 
HETATM   25  O8  UNL     1       4.740  10.285  12.840  1.00  0.00    -0.354 OA
HETATM   26  C31 UNL     1       6.244  10.047  10.928  1.00  0.00     0.042 C 
BRANCH  22  27
HETATM   27  O1  UNL     1       7.731   8.094  14.670  1.00  0.00    -0.388 OA
HETATM   28  C1  UNL     1       8.713   7.889  13.662  1.00  0.00     0.202 C 
ENDBRANCH  22  27
BRANCH  23  29
HETATM   29  O9  UNL     1       7.556  11.185  14.177  1.00  0.00    -0.390 OA
HETATM   30  H49 UNL     1       7.878  11.901  13.602  1.00  0.00     0.210 HD
ENDBRANCH  23  29
ENDBRANCH  19  20
ENDBRANCH   1  19
BRANCH  17  31
HETATM   31  O7  UNL     1       0.598   6.714  15.141  1.00  0.00    -0.389 OA
HETATM   32  H41 UNL     1       0.852   5.805  14.870  1.00  0.00     0.210 HD
ENDBRANCH  17  31
BRANCH   4  33
HETATM   33  C9  UNL     1       0.379   5.502  12.474  1.00  0.00     0.068 C 
HETATM   34  N1  UNL     1       0.467   5.059  11.268  1.00  0.00    -0.399 N 
ATOM     35  H1  UNL     1       0.204   5.620  10.458  1.00  0.00     0.158 HD
BRANCH  34  36
HETATM   36  C10 UNL     1       0.973   3.684  11.149  1.00  0.00     0.144 C 
BRANCH  36  37
HETATM   37  C11 UNL     1      -0.126   2.691  11.522  1.00  0.00     0.183 C 
BRANCH  37  38
HETATM   38  O3  UNL     1       0.047   1.472  10.815  1.00  0.00    -0.399 OA
HETATM   39  H18 UNL     1       0.845   1.041  11.173  1.00  0.00     0.209 HD
ENDBRANCH  37  38
ENDBRANCH  36  37
ENDBRANCH  34  36
ENDBRANCH   4  33
BRANCH  13  40
HETATM   40  O6  UNL     1      -3.895   8.104  15.912  1.00  0.00    -0.389 OA
HETATM   41  H35 UNL     1      -3.532   8.993  16.054  1.00  0.00     0.210 HD
ENDBRANCH  13  40
BRANCH  10  42
HETATM   42  C18 UNL     1      -6.846   5.825  13.705  1.00  0.00    -0.045 A 
HETATM   43  C19 UNL     1      -6.858   4.497  13.830  1.00  0.00     0.087 A 
HETATM   44  C20 UNL     1      -8.021   4.002  13.102  1.00  0.00     0.283 A 
HETATM   45  O4  UNL     1      -8.341   2.831  13.026  1.00  0.00    -0.260 OA
HETATM   46  O5  UNL     1      -8.669   5.050  12.530  1.00  0.00    -0.314 OA
HETATM   47  C21 UNL     1      -7.990   6.259  12.867  1.00  0.00     0.213 A 
ENDBRANCH  10  42
TORSDOF 11
ENDMDL
MODEL 7
REMARK minimizedAffinity -7.02447987
REMARK CNNscore 0.320445269
REMARK CNNaffinity 6.18855286
REMARK  11 active torsions:
REMARK  status: ('A' for Active; 'I' for Inactive)
REMARK    1  A    between atoms: O1_2  and  C2_3 
REMARK    2  A    between atoms: C4_5  and  O2_6 
REMARK    3  A    between atoms: O2_6  and  C5_7 
REMARK    4  A    between atoms: C8_10  and  C9_11 
REMARK    5  A    between atoms: N1_12  and  C10_14 
REMARK    6  A    between atoms: C10_14  and  C11_15 
REMARK    7  A    between atoms: C11_15  and  O3_16 
REMARK    8  A    between atoms: C17_22  and  C18_23 
REMARK    9  A    between atoms: C24_31  and  O6_32 
REMARK   10  A    between atoms: C28_36  and  O7_37 
REMARK   11  A    between atoms: C32_42  and  O9_43 
ROOT
HETATM    1  C5  UNL     1      -0.226  12.837  16.088  1.00  0.00     0.127 C 
HETATM    2  C6  UNL     1      -1.064  12.894  14.818  1.00  0.00     0.033 C 
HETATM    3  C7  UNL     1      -1.437  11.513  14.279  1.00  0.00     0.021 C 
HETATM    4  C8  UNL     1      -1.434  10.354  15.330  1.00  0.00     0.026 C 
HETATM    5  C12 UNL     1      -2.405   9.209  14.803  1.00  0.00     0.009 C 
HETATM    6  C13 UNL     1      -1.737   7.864  14.464  1.00  0.00     0.007 C 
HETATM    7  C14 UNL     1      -2.724   6.913  13.789  1.00  0.00     0.013 C 
HETATM    8  C15 UNL     1      -3.966   6.613  14.659  1.00  0.00    -0.005 C 
HETATM    9  C16 UNL     1      -3.552   5.700  15.830  1.00  0.00     0.019 C 
HETATM   10  C17 UNL     1      -5.124   5.967  13.826  1.00  0.00     0.028 C 
HETATM   11  C22 UNL     1      -5.776   7.159  13.100  1.00  0.00     0.013 C 
HETATM   12  C23 UNL     1      -5.443   8.410  13.922  1.00  0.00     0.040 C 
HETATM   13  C24 UNL     1      -4.638   7.932  15.144  1.00  0.00     0.070 C 
HETATM   14  C25 UNL     1      -3.633   8.971  15.721  1.00  0.00     0.026 C 
HETATM   15  C26 UNL     1      -4.287  10.324  16.047  1.00  0.00     0.011 C 
HETATM   16  C27 UNL     1      -3.346  11.316  16.742  1.00  0.00     0.039 C 
HETATM   17  C28 UNL     1      -1.852  10.920  16.728  1.00  0.00     0.073 C 
HETATM   18  C29 UNL     1      -0.991  12.122  17.207  1.00  0.00     0.071 C 
ENDROOT
BRANCH   1  19
HETATM   19  O2  UNL     1       0.107  14.182  16.441  1.00  0.00    -0.356 OA
BRANCH  19  20
HETATM   20  C4  UNL     1       0.029  15.108  15.358  1.00  0.00     0.263 C 
HETATM   21  C3  UNL     1      -0.703  16.347  15.855  1.00  0.00     0.095 C 
HETATM   22  C2  UNL     1      -0.282  17.564  15.056  1.00  0.00     0.156 C 
HETATM   23  C32 UNL     1       1.234  17.805  15.221  1.00  0.00     0.175 C 
HETATM   24  C30 UNL     1       2.024  16.484  15.380  1.00  0.00     0.151 C 
HETATM   25  O8  UNL     1       1.323  15.373  14.822  1.00  0.00    -0.354 OA
HETATM   26  C31 UNL     1       2.452  16.213  16.821  1.00  0.00     0.042 C 
BRANCH  22  27
HETATM   27  O1  UNL     1      -1.062  18.672  15.543  1.00  0.00    -0.388 OA
HETATM   28  C1  UNL     1      -1.926  19.229  14.561  1.00  0.00     0.202 C 
ENDBRANCH  22  27
BRANCH  23  29
HETATM   29  O9  UNL     1       1.681  18.500  14.038  1.00  0.00    -0.390 OA
HETATM   30  H49 UNL     1       2.636  18.666  14.137  1.00  0.00     0.210 HD
ENDBRANCH  23  29
ENDBRANCH  19  20
ENDBRANCH   1  19
BRANCH  17  31
HETATM   31  O7  UNL     1      -1.733   9.906  17.742  1.00  0.00    -0.389 OA
HETATM   32  H41 UNL     1      -0.817   9.555  17.682  1.00  0.00     0.210 HD
ENDBRANCH  17  31
BRANCH   4  33
HETATM   33  C9  UNL     1       0.008   9.812  15.377  1.00  0.00     0.068 C 
HETATM   34  N1  UNL     1       0.481   9.232  16.424  1.00  0.00    -0.399 N 
ATOM     35  H1  UNL     1      -0.060   9.121  17.282  1.00  0.00     0.158 HD
BRANCH  34  36
HETATM   36  C10 UNL     1       1.860   8.740  16.291  1.00  0.00     0.144 C 
BRANCH  36  37
HETATM   37  C11 UNL     1       1.875   7.449  15.474  1.00  0.00     0.183 C 
BRANCH  37  38
HETATM   38  O3  UNL     1       3.023   6.676  15.790  1.00  0.00    -0.399 OA
HETATM   39  H18 UNL     1       2.906   6.344  16.700  1.00  0.00     0.209 HD
ENDBRANCH  37  38
ENDBRANCH  36  37
ENDBRANCH  34  36
ENDBRANCH   4  33
BRANCH  13  40
HETATM   40  O6  UNL     1      -5.583   7.583  16.166  1.00  0.00    -0.389 OA
HETATM   41  H35 UNL     1      -6.088   8.375  16.412  1.00  0.00     0.210 HD
ENDBRANCH  13  40
BRANCH  10  42
HETATM   42  C18 UNL     1      -4.764   4.799  12.947  1.00  0.00    -0.045 A 
HETATM   43  C19 UNL     1      -5.472   3.702  12.672  1.00  0.00     0.087 A 
HETATM   44  C20 UNL     1      -4.651   2.862  11.807  1.00  0.00     0.283 A 
HETATM   45  O4  UNL     1      -5.001   1.788  11.354  1.00  0.00    -0.260 OA
HETATM   46  O5  UNL     1      -3.452   3.466  11.605  1.00  0.00    -0.314 OA
HETATM   47  C21 UNL     1      -3.436   4.716  12.293  1.00  0.00     0.213 A 
ENDBRANCH  10  42
TORSDOF 11
ENDMDL
MODEL 8
REMARK minimizedAffinity -9.93042946
REMARK CNNscore 0.284947038
REMARK CNNaffinity 7.44298315
REMARK  11 active torsions:
REMARK  status: ('A' for Active; 'I' for Inactive)
REMARK    1  A    between atoms: O1_2  and  C2_3 
REMARK    2  A    between atoms: C4_5  and  O2_6 
REMARK    3  A    between atoms: O2_6  and  C5_7 
REMARK    4  A    between atoms: C8_10  and  C9_11 
REMARK    5  A    between atoms: N1_12  and  C10_14 
REMARK    6  A    between atoms: C10_14  and  C11_15 
REMARK    7  A    between atoms: C11_15  and  O3_16 
REMARK    8  A    between atoms: C17_22  and  C18_23 
REMARK    9  A    between atoms: C24_31  and  O6_32 
REMARK   10  A    between atoms: C28_36  and  O7_37 
REMARK   11  A    between atoms: C32_42  and  O9_43 
ROOT
HETATM    1  C5  UNL     1      -5.334   6.213  14.682  1.00  0.00     0.127 C 
HETATM    2  C6  UNL     1      -5.655   7.601  14.147  1.00  0.00     0.033 C 
HETATM    3  C7  UNL     1      -7.079   7.724  13.604  1.00  0.00     0.021 C 
HETATM    4  C8  UNL     1      -8.111   6.695  14.175  1.00  0.00     0.026 C 
HETATM    5  C12 UNL     1      -9.565   7.322  14.029  1.00  0.00     0.009 C 
HETATM    6  C13 UNL     1     -10.523   6.585  13.076  1.00  0.00     0.007 C 
HETATM    7  C14 UNL     1     -11.812   7.380  12.866  1.00  0.00     0.013 C 
HETATM    8  C15 UNL     1     -12.576   7.652  14.182  1.00  0.00    -0.005 C 
HETATM    9  C16 UNL     1     -13.211   6.337  14.677  1.00  0.00     0.019 C 
HETATM   10  C17 UNL     1     -13.659   8.769  14.011  1.00  0.00     0.028 C 
HETATM   11  C22 UNL     1     -12.858  10.083  14.069  1.00  0.00     0.013 C 
HETATM   12  C23 UNL     1     -11.563   9.775  14.829  1.00  0.00     0.040 C 
HETATM   13  C24 UNL     1     -11.639   8.295  15.248  1.00  0.00     0.070 C 
HETATM   14  C25 UNL     1     -10.266   7.577  15.390  1.00  0.00     0.026 C 
HETATM   15  C26 UNL     1      -9.296   8.315  16.326  1.00  0.00     0.011 C 
HETATM   16  C27 UNL     1      -7.988   7.555  16.588  1.00  0.00     0.039 C 
HETATM   17  C28 UNL     1      -7.735   6.350  15.654  1.00  0.00     0.073 C 
HETATM   18  C29 UNL     1      -6.275   5.849  15.836  1.00  0.00     0.071 C 
ENDROOT
BRANCH   1  19
HETATM   19  O2  UNL     1      -3.964   6.219  15.090  1.00  0.00    -0.356 OA
BRANCH  19  20
HETATM   20  C4  UNL     1      -3.179   5.172  14.521  1.00  0.00     0.263 C 
HETATM   21  C3  UNL     1      -3.781   4.820  13.167  1.00  0.00     0.095 C 
HETATM   22  C2  UNL     1      -2.720   4.241  12.253  1.00  0.00     0.156 C 
HETATM   23  C32 UNL     1      -1.598   5.276  12.024  1.00  0.00     0.175 C 
HETATM   24  C30 UNL     1      -1.362   6.169  13.266  1.00  0.00     0.151 C 
HETATM   25  O8  UNL     1      -1.803   5.539  14.468  1.00  0.00    -0.354 OA
HETATM   26  C31 UNL     1      -1.953   7.570  13.115  1.00  0.00     0.042 C 
BRANCH  22  27
HETATM   27  O1  UNL     1      -3.380   3.879  11.026  1.00  0.00    -0.388 OA
HETATM   28  C1  UNL     1      -2.523   3.232  10.093  1.00  0.00     0.202 C 
ENDBRANCH  22  27
BRANCH  23  29
HETATM   29  O9  UNL     1      -0.396   4.535  11.723  1.00  0.00    -0.390 OA
HETATM   30  H49 UNL     1       0.316   5.180  11.566  1.00  0.00     0.210 HD
ENDBRANCH  23  29
ENDBRANCH  19  20
ENDBRANCH   1  19
BRANCH  17  31
HETATM   31  O7  UNL     1      -8.587   5.307  16.164  1.00  0.00    -0.389 OA
HETATM   32  H41 UNL     1      -8.531   4.562  15.526  1.00  0.00     0.210 HD
ENDBRANCH  17  31
BRANCH   4  33
HETATM   33  C9  UNL     1      -8.010   5.439  13.286  1.00  0.00     0.068 C 
HETATM   34  N1  UNL     1      -8.164   4.254  13.765  1.00  0.00    -0.399 N 
ATOM     35  H1  UNL     1      -8.334   4.081  14.755  1.00  0.00     0.158 HD
BRANCH  34  36
HETATM   36  C10 UNL     1      -8.074   3.170  12.776  1.00  0.00     0.144 C 
BRANCH  36  37
HETATM   37  C11 UNL     1      -6.621   2.980  12.344  1.00  0.00     0.183 C 
BRANCH  37  38
HETATM   38  O3  UNL     1      -6.477   1.772  11.612  1.00  0.00    -0.399 OA
HETATM   39  H18 UNL     1      -6.932   1.895  10.758  1.00  0.00     0.209 HD
ENDBRANCH  37  38
ENDBRANCH  36  37
ENDBRANCH  34  36
ENDBRANCH   4  33
BRANCH  13  40
HETATM   40  O6  UNL     1     -12.323   8.245  16.508  1.00  0.00    -0.389 OA
HETATM   41  H35 UNL     1     -11.804   8.732  17.168  1.00  0.00     0.210 HD
ENDBRANCH  13  40
BRANCH  10  42
HETATM   42  C18 UNL     1     -14.596   8.639  12.840  1.00  0.00    -0.045 A 
HETATM   43  C19 UNL     1     -15.234   9.594  12.160  1.00  0.00     0.087 A 
HETATM   44  C20 UNL     1     -16.055   8.934  11.152  1.00  0.00     0.283 A 
HETATM   45  O4  UNL     1     -16.757   9.514  10.345  1.00  0.00    -0.260 OA
HETATM   46  O5  UNL     1     -15.910   7.589  11.268  1.00  0.00    -0.314 OA
HETATM   47  C21 UNL     1     -14.989   7.307  12.321  1.00  0.00     0.213 A 
ENDBRANCH  10  42
TORSDOF 11
ENDMDL
MODEL 9
REMARK minimizedAffinity -7.90202999
REMARK CNNscore 0.272606492
REMARK CNNaffinity 6.36278152
REMARK  11 active torsions:
REMARK  status: ('A' for Active; 'I' for Inactive)
REMARK    1  A    between atoms: O1_2  and  C2_3 
REMARK    2  A    between atoms: C4_5  and  O2_6 
REMARK    3  A    between atoms: O2_6  and  C5_7 
REMARK    4  A    between atoms: C8_10  and  C9_11 
REMARK    5  A    between atoms: N1_12  and  C10_14 
REMARK    6  A    between atoms: C10_14  and  C11_15 
REMARK    7  A    between atoms: C11_15  and  O3_16 
REMARK    8  A    between atoms: C17_22  and  C18_23 
REMARK    9  A    between atoms: C24_31  and  O6_32 
REMARK   10  A    between atoms: C28_36  and  O7_37 
REMARK   11  A    between atoms: C32_42  and  O9_43 
ROOT
HETATM    1  C5  UNL     1      -0.084  12.032  18.042  1.00  0.00     0.127 C 
HETATM    2  C6  UNL     1      -0.780  10.983  18.898  1.00  0.00     0.033 C 
HETATM    3  C7  UNL     1      -2.068  10.449  18.270  1.00  0.00     0.021 C 
HETATM    4  C8  UNL     1      -2.165  10.581  16.713  1.00  0.00     0.026 C 
HETATM    5  C12 UNL     1      -3.179   9.474  16.188  1.00  0.00     0.009 C 
HETATM    6  C13 UNL     1      -4.472  10.000  15.540  1.00  0.00     0.007 C 
HETATM    7  C14 UNL     1      -5.449   8.860  15.252  1.00  0.00     0.013 C 
HETATM    8  C15 UNL     1      -4.860   7.781  14.315  1.00  0.00    -0.005 C 
HETATM    9  C16 UNL     1      -4.767   8.351  12.886  1.00  0.00     0.019 C 
HETATM   10  C17 UNL     1      -5.701   6.461  14.340  1.00  0.00     0.028 C 
HETATM   11  C22 UNL     1      -5.251   5.751  15.631  1.00  0.00     0.013 C 
HETATM   12  C23 UNL     1      -3.856   6.290  15.965  1.00  0.00     0.040 C 
HETATM   13  C24 UNL     1      -3.484   7.276  14.843  1.00  0.00     0.070 C 
HETATM   14  C25 UNL     1      -2.516   8.420  15.262  1.00  0.00     0.026 C 
HETATM   15  C26 UNL     1      -1.228   7.905  15.926  1.00  0.00     0.011 C 
HETATM   16  C27 UNL     1      -0.201   9.006  16.223  1.00  0.00     0.039 C 
HETATM   17  C28 UNL     1      -0.735  10.451  16.091  1.00  0.00     0.073 C 
HETATM   18  C29 UNL     1       0.305  11.445  16.680  1.00  0.00     0.071 C 
ENDROOT
BRANCH   1  19
HETATM   19  O2  UNL     1       1.056  12.491  18.772  1.00  0.00    -0.356 OA
BRANCH  19  20
HETATM   20  C4  UNL     1       1.008  12.210  20.170  1.00  0.00     0.263 C 
HETATM   21  C3  UNL     1       2.186  11.304  20.505  1.00  0.00     0.095 C 
HETATM   22  C2  UNL     1       2.589  11.478  21.955  1.00  0.00     0.156 C 
HETATM   23  C32 UNL     1       3.019  12.939  22.212  1.00  0.00     0.175 C 
HETATM   24  C30 UNL     1       2.225  13.945  21.345  1.00  0.00     0.151 C 
HETATM   25  O8  UNL     1       0.967  13.415  20.930  1.00  0.00    -0.354 OA
HETATM   26  C31 UNL     1       3.029  14.478  20.161  1.00  0.00     0.042 C 
BRANCH  22  27
HETATM   27  O1  UNL     1       3.658  10.548  22.204  1.00  0.00    -0.388 OA
HETATM   28  C1  UNL     1       3.634   9.997  23.516  1.00  0.00     0.202 C 
ENDBRANCH  22  27
BRANCH  23  29
HETATM   29  O9  UNL     1       2.783  13.208  23.610  1.00  0.00    -0.390 OA
HETATM   30  H49 UNL     1       3.061  14.125  23.785  1.00  0.00     0.210 HD
ENDBRANCH  23  29
ENDBRANCH  19  20
ENDBRANCH   1  19
BRANCH  17  31
HETATM   31  O7  UNL     1      -0.774  10.698  14.674  1.00  0.00    -0.389 OA
HETATM   32  H41 UNL     1      -1.213  11.569  14.553  1.00  0.00     0.210 HD
ENDBRANCH  17  31
BRANCH   4  33
HETATM   33  C9  UNL     1      -2.751  11.979  16.430  1.00  0.00     0.068 C 
HETATM   34  N1  UNL     1      -3.474  12.599  17.296  1.00  0.00    -0.399 N 
ATOM     35  H1  UNL     1      -3.718  12.193  18.198  1.00  0.00     0.158 HD
BRANCH  34  36
HETATM   36  C10 UNL     1      -3.922  13.937  16.883  1.00  0.00     0.144 C 
BRANCH  36  37
HETATM   37  C11 UNL     1      -4.147  13.967  15.372  1.00  0.00     0.183 C 
BRANCH  37  38
HETATM   38  O3  UNL     1      -5.521  13.773  15.072  1.00  0.00    -0.399 OA
HETATM   39  H18 UNL     1      -5.997  14.571  15.368  1.00  0.00     0.209 HD
ENDBRANCH  37  38
ENDBRANCH  36  37
ENDBRANCH  34  36
ENDBRANCH   4  33
BRANCH  13  40
HETATM   40  O6  UNL     1      -2.874   6.513  13.792  1.00  0.00    -0.389 OA
HETATM   41  H35 UNL     1      -2.062   6.102  14.130  1.00  0.00     0.210 HD
ENDBRANCH  13  40
BRANCH  10  42
HETATM   42  C18 UNL     1      -7.191   6.596  14.167  1.00  0.00    -0.045 A 
HETATM   43  C19 UNL     1      -8.084   7.178  14.969  1.00  0.00     0.087 A 
HETATM   44  C20 UNL     1      -9.398   6.990  14.365  1.00  0.00     0.283 A 
HETATM   45  O4  UNL     1     -10.439   7.413  14.831  1.00  0.00    -0.260 OA
HETATM   46  O5  UNL     1      -9.264   6.270  13.221  1.00  0.00    -0.314 OA
HETATM   47  C21 UNL     1      -7.884   5.978  13.011  1.00  0.00     0.213 A 
ENDBRANCH  10  42
TORSDOF 11
ENDMDL
