MODEL 1
REMARK minimizedAffinity -7.64833021
REMARK CNNscore 0.856328785
REMARK CNNaffinity 7.38818502
REMARK  10 active torsions:
REMARK  status: ('A' for Active; 'I' for Inactive)
REMARK    1  A    between atoms: C2_2  and  C3_3 
REMARK    2  A    between atoms: C3_3  and  C4_4 
REMARK    3  A    between atoms: C4_4  and  O1_5 
REMARK    4  A    between atoms: C4_4  and  C5_6 
REMARK    5  A    between atoms: C4_4  and  C26_30 
REMARK    6  A    between atoms: C17_18  and  O2_19 
REMARK    7  A    between atoms: C22_24  and  O3_25 
REMARK    8  A    between atoms: C27_32  and  C28_33 
REMARK    9  A    between atoms: C28_33  and  O6_35 
REMARK   10  A    between atoms: C28_33  and  C30_36 
ROOT
HETATM    1  C5  UNL     1      -0.312  53.169  -8.969  1.00  0.00     0.034 C 
HETATM    2  C6  UNL     1      -1.796  53.713  -9.161  1.00  0.00     0.016 C 
HETATM    3  C7  UNL     1      -2.162  53.430 -10.624  1.00  0.00     0.026 C 
HETATM    4  C8  UNL     1      -3.599  53.143 -11.017  1.00  0.00     0.013 C 
HETATM    5  C9  UNL     1      -3.639  52.820 -12.533  1.00  0.00     0.043 C 
HETATM    6  C10 UNL     1      -2.462  52.008 -13.062  1.00  0.00    -0.006 C 
HETATM    7  C11 UNL     1      -1.353  51.741 -12.344  1.00  0.00    -0.030 C 
HETATM    8  C12 UNL     1      -0.239  50.800 -12.763  1.00  0.00     0.027 C 
HETATM    9  C13 UNL     1       1.131  51.051 -12.052  1.00  0.00     0.011 C 
HETATM   10  C14 UNL     1       1.053  51.521 -10.579  1.00  0.00     0.014 C 
HETATM   11  C15 UNL     1       0.102  52.730 -10.439  1.00  0.00    -0.002 C 
HETATM   12  C16 UNL     1       0.665  53.917 -11.270  1.00  0.00     0.019 C 
HETATM   13  C17 UNL     1      -1.274  52.237 -10.943  1.00  0.00     0.094 C 
HETATM   14  C18 UNL     1      -0.122  50.680 -14.325  1.00  0.00    -0.026 C 
HETATM   15  C19 UNL     1       0.503  51.954 -14.955  1.00  0.00     0.016 C 
HETATM   16  C20 UNL     1       0.789  49.457 -14.666  1.00  0.00     0.013 C 
HETATM   17  C21 UNL     1       0.352  48.731 -15.933  1.00  0.00     0.032 C 
HETATM   18  C22 UNL     1      -1.059  48.152 -15.777  1.00  0.00     0.119 C 
HETATM   19  C23 UNL     1      -1.992  49.036 -14.941  1.00  0.00     0.045 C 
HETATM   20  C24 UNL     1      -1.532  50.498 -14.973  1.00  0.00     0.071 C 
HETATM   21  C25 UNL     1      -2.619  51.404 -14.413  1.00  0.00     0.161 C 
HETATM   22  O4  UNL     1      -3.646  51.617 -15.058  1.00  0.00    -0.292 OA
ENDROOT
BRANCH   1  23
HETATM   23  C4  UNL     1       0.624  54.110  -8.125  1.00  0.00     0.091 C 
BRANCH  23  24
HETATM   24  C3  UNL     1      -0.218  55.065  -7.233  1.00  0.00     0.040 C 
BRANCH  24  25
HETATM   25  C2  UNL     1      -0.354  54.723  -5.739  1.00  0.00    -0.002 C 
HETATM   26  C1  UNL     1      -1.466  53.740  -5.409  1.00  0.00     0.005 C 
ENDBRANCH  24  25
ENDBRANCH  23  24
BRANCH  23  27
HETATM   27  O1  UNL     1       1.430  53.304  -7.263  1.00  0.00    -0.387 OA
HETATM   28  H8  UNL     1       2.109  52.875  -7.811  1.00  0.00     0.210 HD
ENDBRANCH  23  27
BRANCH  23  29
HETATM   29  C26 UNL     1       1.577  54.953  -8.966  1.00  0.00     0.188 A 
HETATM   30  O5  UNL     1       2.261  56.030  -8.319  1.00  0.00    -0.369 OA
HETATM   31  C27 UNL     1       3.083  54.936  -8.754  1.00  0.00     0.188 A 
BRANCH  31  32
HETATM   32  C28 UNL     1       4.072  55.241  -9.872  1.00  0.00     0.086 C 
HETATM   33  C29 UNL     1       3.632  56.451 -10.721  1.00  0.00     0.049 C 
BRANCH  32  34
HETATM   34  O6  UNL     1       4.111  54.102 -10.741  1.00  0.00    -0.387 OA
HETATM   35  H43 UNL     1       3.292  54.096 -11.263  1.00  0.00     0.210 HD
ENDBRANCH  32  34
BRANCH  32  36
HETATM   36  C30 UNL     1       5.510  55.451  -9.283  1.00  0.00     0.014 C 
HETATM   37  C31 UNL     1       6.399  54.202  -9.395  1.00  0.00     0.012 C 
HETATM   38  C32 UNL     1       5.500  55.873  -7.800  1.00  0.00     0.012 C 
ENDBRANCH  32  36
ENDBRANCH  31  32
ENDBRANCH  23  29
ENDBRANCH   1  23
BRANCH  13  39
HETATM   39  O2  UNL     1      -1.685  51.108 -10.140  1.00  0.00    -0.384 OA
HETATM   40  H25 UNL     1      -2.491  50.731 -10.531  1.00  0.00     0.211 HD
ENDBRANCH  13  39
BRANCH  18  41
HETATM   41  O3  UNL     1      -1.613  47.947 -17.075  1.00  0.00    -0.396 OA
HETATM   42  H34 UNL     1      -1.815  48.815 -17.465  1.00  0.00     0.210 HD
ENDBRANCH  18  41
TORSDOF 10
ENDMDL
MODEL 2
REMARK minimizedAffinity -7.90926409
REMARK CNNscore 0.856297493
REMARK CNNaffinity 7.22587252
REMARK  10 active torsions:
REMARK  status: ('A' for Active; 'I' for Inactive)
REMARK    1  A    between atoms: C2_2  and  C3_3 
REMARK    2  A    between atoms: C3_3  and  C4_4 
REMARK    3  A    between atoms: C4_4  and  O1_5 
REMARK    4  A    between atoms: C4_4  and  C5_6 
REMARK    5  A    between atoms: C4_4  and  C26_30 
REMARK    6  A    between atoms: C17_18  and  O2_19 
REMARK    7  A    between atoms: C22_24  and  O3_25 
REMARK    8  A    between atoms: C27_32  and  C28_33 
REMARK    9  A    between atoms: C28_33  and  O6_35 
REMARK   10  A    between atoms: C28_33  and  C30_36 
ROOT
HETATM    1  C5  UNL     1       0.401  52.437 -10.820  1.00  0.00     0.034 C 
HETATM    2  C6  UNL     1       1.706  52.971 -11.558  1.00  0.00     0.016 C 
HETATM    3  C7  UNL     1       2.088  54.277 -10.849  1.00  0.00     0.026 C 
HETATM    4  C8  UNL     1       3.540  54.704 -10.750  1.00  0.00     0.013 C 
HETATM    5  C9  UNL     1       3.613  56.009  -9.915  1.00  0.00     0.043 C 
HETATM    6  C10 UNL     1       2.648  56.089  -8.737  1.00  0.00    -0.006 C 
HETATM    7  C11 UNL     1       1.656  55.203  -8.520  1.00  0.00    -0.030 C 
HETATM    8  C12 UNL     1       0.787  55.143  -7.278  1.00  0.00     0.027 C 
HETATM    9  C13 UNL     1      -0.583  54.414  -7.473  1.00  0.00     0.011 C 
HETATM   10  C14 UNL     1      -0.577  53.214  -8.450  1.00  0.00     0.014 C 
HETATM   11  C15 UNL     1       0.062  53.608  -9.800  1.00  0.00    -0.002 C 
HETATM   12  C16 UNL     1      -0.791  54.730 -10.455  1.00  0.00     0.019 C 
HETATM   13  C17 UNL     1       1.501  54.062  -9.461  1.00  0.00     0.094 C 
HETATM   14  C18 UNL     1       0.658  56.543  -6.577  1.00  0.00    -0.026 C 
HETATM   15  C19 UNL     1      -0.270  57.501  -7.372  1.00  0.00     0.016 C 
HETATM   16  C20 UNL     1       0.056  56.335  -5.151  1.00  0.00     0.013 C 
HETATM   17  C21 UNL     1       0.617  57.313  -4.125  1.00  0.00     0.032 C 
HETATM   18  C22 UNL     1       2.129  57.125  -3.955  1.00  0.00     0.119 C 
HETATM   19  C23 UNL     1       2.848  56.757  -5.259  1.00  0.00     0.045 C 
HETATM   20  C24 UNL     1       2.052  57.242  -6.476  1.00  0.00     0.071 C 
HETATM   21  C25 UNL     1       2.907  57.155  -7.732  1.00  0.00     0.161 C 
HETATM   22  O4  UNL     1       3.835  57.946  -7.909  1.00  0.00    -0.292 OA
ENDROOT
BRANCH   1  23
HETATM   23  C4  UNL     1      -0.708  51.872 -11.781  1.00  0.00     0.091 C 
BRANCH  23  24
HETATM   24  C3  UNL     1      -1.657  50.907 -11.016  1.00  0.00     0.040 C 
BRANCH  24  25
HETATM   25  C2  UNL     1      -3.159  50.963 -11.343  1.00  0.00    -0.002 C 
HETATM   26  C1  UNL     1      -4.008  51.699 -10.319  1.00  0.00     0.005 C 
ENDBRANCH  24  25
ENDBRANCH  23  24
BRANCH  23  27
HETATM   27  O1  UNL     1      -1.493  52.962 -12.269  1.00  0.00    -0.387 OA
HETATM   28  H8  UNL     1      -0.959  53.439 -12.926  1.00  0.00     0.210 HD
ENDBRANCH  23  27
BRANCH  23  29
HETATM   29  C26 UNL     1      -0.158  51.139 -13.000  1.00  0.00     0.188 A 
HETATM   30  O5  UNL     1      -0.994  51.051 -14.157  1.00  0.00    -0.369 OA
HETATM   31  C27 UNL     1       0.186  51.857 -14.296  1.00  0.00     0.188 A 
BRANCH  31  32
HETATM   32  C28 UNL     1       1.243  51.341 -15.264  1.00  0.00     0.086 C 
HETATM   33  C29 UNL     1       0.739  50.137 -16.085  1.00  0.00     0.049 C 
BRANCH  32  34
HETATM   34  O6  UNL     1       2.360  50.891 -14.488  1.00  0.00    -0.387 OA
HETATM   35  H43 UNL     1       2.114  50.048 -14.071  1.00  0.00     0.210 HD
ENDBRANCH  32  34
BRANCH  32  36
HETATM   36  C30 UNL     1       1.737  52.501 -16.197  1.00  0.00     0.014 C 
HETATM   37  C31 UNL     1       1.162  52.421 -17.620  1.00  0.00     0.012 C 
HETATM   38  C32 UNL     1       3.272  52.559 -16.327  1.00  0.00     0.012 C 
ENDBRANCH  32  36
ENDBRANCH  31  32
ENDBRANCH  23  29
ENDBRANCH   1  23
BRANCH  13  39
HETATM   39  O2  UNL     1       2.192  52.968  -8.816  1.00  0.00    -0.384 OA
HETATM   40  H25 UNL     1       3.053  53.292  -8.503  1.00  0.00     0.211 HD
ENDBRANCH  13  39
BRANCH  18  41
HETATM   41  O3  UNL     1       2.679  58.325  -3.415  1.00  0.00    -0.396 OA
HETATM   42  H34 UNL     1       2.657  59.012  -4.105  1.00  0.00     0.210 HD
ENDBRANCH  18  41
TORSDOF 10
ENDMDL
MODEL 3
REMARK minimizedAffinity -9.94843388
REMARK CNNscore 0.756625533
REMARK CNNaffinity 7.78135824
REMARK  10 active torsions:
REMARK  status: ('A' for Active; 'I' for Inactive)
REMARK    1  A    between atoms: C2_2  and  C3_3 
REMARK    2  A    between atoms: C3_3  and  C4_4 
REMARK    3  A    between atoms: C4_4  and  O1_5 
REMARK    4  A    between atoms: C4_4  and  C5_6 
REMARK    5  A    between atoms: C4_4  and  C26_30 
REMARK    6  A    between atoms: C17_18  and  O2_19 
REMARK    7  A    between atoms: C22_24  and  O3_25 
REMARK    8  A    between atoms: C27_32  and  C28_33 
REMARK    9  A    between atoms: C28_33  and  O6_35 
REMARK   10  A    between atoms: C28_33  and  C30_36 
ROOT
HETATM    1  C5  UNL     1      -3.350  50.783 -24.384  1.00  0.00     0.034 C 
HETATM    2  C6  UNL     1      -4.916  50.560 -24.204  1.00  0.00     0.016 C 
HETATM    3  C7  UNL     1      -5.090  49.877 -22.841  1.00  0.00     0.026 C 
HETATM    4  C8  UNL     1      -6.338  50.115 -22.013  1.00  0.00     0.013 C 
HETATM    5  C9  UNL     1      -6.187  49.362 -20.667  1.00  0.00     0.043 C 
HETATM    6  C10 UNL     1      -4.786  49.367 -20.065  1.00  0.00    -0.006 C 
HETATM    7  C11 UNL     1      -3.693  49.811 -20.716  1.00  0.00    -0.030 C 
HETATM    8  C12 UNL     1      -2.318  49.996 -20.103  1.00  0.00     0.027 C 
HETATM    9  C13 UNL     1      -1.139  50.005 -21.131  1.00  0.00     0.011 C 
HETATM   10  C14 UNL     1      -1.446  50.647 -22.506  1.00  0.00     0.014 C 
HETATM   11  C15 UNL     1      -2.735  50.052 -23.114  1.00  0.00    -0.002 C 
HETATM   12  C16 UNL     1      -2.526  48.531 -23.354  1.00  0.00     0.019 C 
HETATM   13  C17 UNL     1      -3.855  50.355 -22.092  1.00  0.00     0.094 C 
HETATM   14  C18 UNL     1      -2.079  49.032 -18.885  1.00  0.00    -0.026 C 
HETATM   15  C19 UNL     1      -1.851  47.568 -19.346  1.00  0.00     0.016 C 
HETATM   16  C20 UNL     1      -0.813  49.514 -18.108  1.00  0.00     0.013 C 
HETATM   17  C21 UNL     1      -0.926  49.296 -16.603  1.00  0.00     0.032 C 
HETATM   18  C22 UNL     1      -2.089  50.102 -16.016  1.00  0.00     0.119 C 
HETATM   19  C23 UNL     1      -3.299  50.197 -16.953  1.00  0.00     0.045 C 
HETATM   20  C24 UNL     1      -3.321  49.021 -17.937  1.00  0.00     0.071 C 
HETATM   21  C25 UNL     1      -4.667  48.950 -18.642  1.00  0.00     0.161 C 
HETATM   22  O4  UNL     1      -5.670  48.577 -18.032  1.00  0.00    -0.292 OA
ENDROOT
BRANCH   1  23
HETATM   23  C4  UNL     1      -2.807  50.467 -25.826  1.00  0.00     0.091 C 
BRANCH  23  24
HETATM   24  C3  UNL     1      -2.963  48.954 -26.151  1.00  0.00     0.040 C 
BRANCH  24  25
HETATM   25  C2  UNL     1      -4.341  48.455 -26.617  1.00  0.00    -0.002 C 
HETATM   26  C1  UNL     1      -4.461  48.218 -28.114  1.00  0.00     0.005 C 
ENDBRANCH  24  25
ENDBRANCH  23  24
BRANCH  23  27
HETATM   27  O1  UNL     1      -3.577  51.201 -26.779  1.00  0.00    -0.387 OA
HETATM   28  H8  UNL     1      -3.307  52.132 -26.723  1.00  0.00     0.210 HD
ENDBRANCH  23  27
BRANCH  23  29
HETATM   29  C26 UNL     1      -1.347  50.856 -26.038  1.00  0.00     0.188 A 
HETATM   30  O5  UNL     1      -0.915  51.112 -27.378  1.00  0.00    -0.369 OA
HETATM   31  C27 UNL     1      -0.933  52.246 -26.497  1.00  0.00     0.188 A 
BRANCH  31  32
HETATM   32  C28 UNL     1       0.421  52.853 -26.154  1.00  0.00     0.086 C 
HETATM   33  C29 UNL     1       0.750  52.727 -24.653  1.00  0.00     0.049 C 
BRANCH  32  34
HETATM   34  O6  UNL     1       0.360  54.252 -26.462  1.00  0.00    -0.387 OA
HETATM   35  H43 UNL     1      -0.176  54.685 -25.777  1.00  0.00     0.210 HD
ENDBRANCH  32  34
BRANCH  32  36
HETATM   36  C30 UNL     1       1.544  52.211 -27.040  1.00  0.00     0.014 C 
HETATM   37  C31 UNL     1       1.053  51.797 -28.437  1.00  0.00     0.012 C 
HETATM   38  C32 UNL     1       2.186  50.967 -26.394  1.00  0.00     0.012 C 
ENDBRANCH  32  36
ENDBRANCH  31  32
ENDBRANCH  23  29
ENDBRANCH   1  23
BRANCH  13  39
HETATM   39  O2  UNL     1      -3.937  51.786 -21.904  1.00  0.00    -0.384 OA
HETATM   40  H25 UNL     1      -4.559  51.965 -21.179  1.00  0.00     0.211 HD
ENDBRANCH  13  39
BRANCH  18  41
HETATM   41  O3  UNL     1      -2.475  49.510 -14.777  1.00  0.00    -0.396 OA
HETATM   42  H34 UNL     1      -2.916  48.663 -14.965  1.00  0.00     0.210 HD
ENDBRANCH  18  41
TORSDOF 10
ENDMDL
MODEL 4
REMARK minimizedAffinity -8.37759113
REMARK CNNscore 0.751894712
REMARK CNNaffinity 7.38653755
REMARK  10 active torsions:
REMARK  status: ('A' for Active; 'I' for Inactive)
REMARK    1  A    between atoms: C2_2  and  C3_3 
REMARK    2  A    between atoms: C3_3  and  C4_4 
REMARK    3  A    between atoms: C4_4  and  O1_5 
REMARK    4  A    between atoms: C4_4  and  C5_6 
REMARK    5  A    between atoms: C4_4  and  C26_30 
REMARK    6  A    between atoms: C17_18  and  O2_19 
REMARK    7  A    between atoms: C22_24  and  O3_25 
REMARK    8  A    between atoms: C27_32  and  C28_33 
REMARK    9  A    between atoms: C28_33  and  O6_35 
REMARK   10  A    between atoms: C28_33  and  C30_36 
ROOT
HETATM    1  C5  UNL     1      -3.377  50.192 -22.987  1.00  0.00     0.034 C 
HETATM    2  C6  UNL     1      -4.633  51.051 -22.520  1.00  0.00     0.016 C 
HETATM    3  C7  UNL     1      -5.535  50.088 -21.737  1.00  0.00     0.026 C 
HETATM    4  C8  UNL     1      -6.398  50.594 -20.597  1.00  0.00     0.013 C 
HETATM    5  C9  UNL     1      -7.125  49.385 -19.955  1.00  0.00     0.043 C 
HETATM    6  C10 UNL     1      -6.308  48.101 -19.863  1.00  0.00    -0.006 C 
HETATM    7  C11 UNL     1      -5.112  47.930 -20.459  1.00  0.00    -0.030 C 
HETATM    8  C12 UNL     1      -4.189  46.743 -20.255  1.00  0.00     0.027 C 
HETATM    9  C13 UNL     1      -3.154  46.515 -21.406  1.00  0.00     0.011 C 
HETATM   10  C14 UNL     1      -2.604  47.792 -22.085  1.00  0.00     0.014 C 
HETATM   11  C15 UNL     1      -3.758  48.720 -22.525  1.00  0.00    -0.002 C 
HETATM   12  C16 UNL     1      -4.630  47.980 -23.577  1.00  0.00     0.019 C 
HETATM   13  C17 UNL     1      -4.532  49.063 -21.230  1.00  0.00     0.094 C 
HETATM   14  C18 UNL     1      -4.976  45.445 -19.852  1.00  0.00    -0.026 C 
HETATM   15  C19 UNL     1      -5.745  44.840 -21.057  1.00  0.00     0.016 C 
HETATM   16  C20 UNL     1      -3.954  44.384 -19.330  1.00  0.00     0.013 C 
HETATM   17  C21 UNL     1      -4.520  43.523 -18.206  1.00  0.00     0.032 C 
HETATM   18  C22 UNL     1      -4.873  44.378 -16.983  1.00  0.00     0.119 C 
HETATM   19  C23 UNL     1      -5.416  45.765 -17.346  1.00  0.00     0.045 C 
HETATM   20  C24 UNL     1      -6.035  45.760 -18.748  1.00  0.00     0.071 C 
HETATM   21  C25 UNL     1      -6.839  47.032 -18.974  1.00  0.00     0.161 C 
HETATM   22  O4  UNL     1      -7.915  47.198 -18.399  1.00  0.00    -0.292 OA
ENDROOT
BRANCH   1  23
HETATM   23  C4  UNL     1      -2.909  50.468 -24.463  1.00  0.00     0.091 C 
BRANCH  23  24
HETATM   24  C3  UNL     1      -2.887  49.150 -25.287  1.00  0.00     0.040 C 
BRANCH  24  25
HETATM   25  C2  UNL     1      -3.304  49.216 -26.765  1.00  0.00    -0.002 C 
HETATM   26  C1  UNL     1      -4.492  48.342 -27.133  1.00  0.00     0.005 C 
ENDBRANCH  24  25
ENDBRANCH  23  24
BRANCH  23  27
HETATM   27  O1  UNL     1      -3.842  51.355 -25.083  1.00  0.00    -0.387 OA
HETATM   28  H8  UNL     1      -3.695  52.242 -24.715  1.00  0.00     0.210 HD
ENDBRANCH  23  27
BRANCH  23  29
HETATM   29  C26 UNL     1      -1.536  51.124 -24.566  1.00  0.00     0.188 A 
HETATM   30  O5  UNL     1      -0.508  50.410 -25.260  1.00  0.00    -0.369 OA
HETATM   31  C27 UNL     1      -0.966  51.619 -25.886  1.00  0.00     0.188 A 
BRANCH  31  32
HETATM   32  C28 UNL     1       0.042  52.758 -25.968  1.00  0.00     0.086 C 
HETATM   33  C29 UNL     1       0.702  53.048 -24.605  1.00  0.00     0.049 C 
BRANCH  32  34
HETATM   34  O6  UNL     1      -0.668  53.940 -26.359  1.00  0.00    -0.387 OA
HETATM   35  H43 UNL     1      -1.179  54.248 -25.592  1.00  0.00     0.210 HD
ENDBRANCH  32  34
BRANCH  32  36
HETATM   36  C30 UNL     1       1.117  52.453 -27.069  1.00  0.00     0.014 C 
HETATM   37  C31 UNL     1       0.539  51.734 -28.298  1.00  0.00     0.012 C 
HETATM   38  C32 UNL     1       2.289  51.597 -26.548  1.00  0.00     0.012 C 
ENDBRANCH  32  36
ENDBRANCH  31  32
ENDBRANCH  23  29
ENDBRANCH   1  23
BRANCH  13  39
HETATM   39  O2  UNL     1      -3.625  49.701 -20.303  1.00  0.00    -0.384 OA
HETATM   40  H25 UNL     1      -4.083  49.810 -19.453  1.00  0.00     0.211 HD
ENDBRANCH  13  39
BRANCH  18  41
HETATM   41  O3  UNL     1      -5.827  43.671 -16.193  1.00  0.00    -0.396 OA
HETATM   42  H34 UNL     1      -6.678  43.669 -16.666  1.00  0.00     0.210 HD
ENDBRANCH  18  41
TORSDOF 10
ENDMDL
MODEL 5
REMARK minimizedAffinity -7.92058945
REMARK CNNscore 0.727282465
REMARK CNNaffinity 6.85312891
REMARK  10 active torsions:
REMARK  status: ('A' for Active; 'I' for Inactive)
REMARK    1  A    between atoms: C2_2  and  C3_3 
REMARK    2  A    between atoms: C3_3  and  C4_4 
REMARK    3  A    between atoms: C4_4  and  O1_5 
REMARK    4  A    between atoms: C4_4  and  C5_6 
REMARK    5  A    between atoms: C4_4  and  C26_30 
REMARK    6  A    between atoms: C17_18  and  O2_19 
REMARK    7  A    between atoms: C22_24  and  O3_25 
REMARK    8  A    between atoms: C27_32  and  C28_33 
REMARK    9  A    between atoms: C28_33  and  O6_35 
REMARK   10  A    between atoms: C28_33  and  C30_36 
ROOT
HETATM    1  C5  UNL     1       0.977  52.726 -10.103  1.00  0.00     0.034 C 
HETATM    2  C6  UNL     1       2.317  52.020 -10.592  1.00  0.00     0.016 C 
HETATM    3  C7  UNL     1       3.463  52.940 -10.152  1.00  0.00     0.026 C 
HETATM    4  C8  UNL     1       4.820  52.365  -9.795  1.00  0.00     0.013 C 
HETATM    5  C9  UNL     1       5.734  53.522  -9.316  1.00  0.00     0.043 C 
HETATM    6  C10 UNL     1       5.049  54.597  -8.480  1.00  0.00    -0.006 C 
HETATM    7  C11 UNL     1       3.715  54.678  -8.312  1.00  0.00    -0.030 C 
HETATM    8  C12 UNL     1       3.004  55.618  -7.357  1.00  0.00     0.027 C 
HETATM    9  C13 UNL     1       1.506  55.899  -7.710  1.00  0.00     0.011 C 
HETATM   10  C14 UNL     1       0.723  54.715  -8.327  1.00  0.00     0.014 C 
HETATM   11  C15 UNL     1       1.493  54.113  -9.524  1.00  0.00    -0.002 C 
HETATM   12  C16 UNL     1       1.637  55.195 -10.630  1.00  0.00     0.019 C 
HETATM   13  C17 UNL     1       2.852  53.648  -8.951  1.00  0.00     0.094 C 
HETATM   14  C18 UNL     1       3.837  56.921  -7.079  1.00  0.00    -0.026 C 
HETATM   15  C19 UNL     1       3.818  57.887  -8.294  1.00  0.00     0.016 C 
HETATM   16  C20 UNL     1       3.218  57.657  -5.848  1.00  0.00     0.013 C 
HETATM   17  C21 UNL     1       4.269  58.349  -4.985  1.00  0.00     0.032 C 
HETATM   18  C22 UNL     1       5.253  57.333  -4.395  1.00  0.00     0.119 C 
HETATM   19  C23 UNL     1       5.565  56.167  -5.340  1.00  0.00     0.045 C 
HETATM   20  C24 UNL     1       5.334  56.571  -6.801  1.00  0.00     0.071 C 
HETATM   21  C25 UNL     1       5.936  55.532  -7.736  1.00  0.00     0.161 C 
HETATM   22  O4  UNL     1       7.158  55.439  -7.859  1.00  0.00    -0.292 OA
ENDROOT
BRANCH   1  23
HETATM   23  C4  UNL     1      -0.200  52.687 -11.145  1.00  0.00     0.091 C 
BRANCH  23  24
HETATM   24  C3  UNL     1      -1.515  52.203 -10.471  1.00  0.00     0.040 C 
BRANCH  24  25
HETATM   25  C2  UNL     1      -2.436  53.262  -9.843  1.00  0.00    -0.002 C 
HETATM   26  C1  UNL     1      -3.767  53.451 -10.553  1.00  0.00     0.005 C 
ENDBRANCH  24  25
ENDBRANCH  23  24
BRANCH  23  27
HETATM   27  O1  UNL     1      -0.423  54.010 -11.638  1.00  0.00    -0.387 OA
HETATM   28  H8  UNL     1       0.304  54.224 -12.246  1.00  0.00     0.210 HD
ENDBRANCH  23  27
BRANCH  23  29
HETATM   29  C26 UNL     1       0.074  51.802 -12.357  1.00  0.00     0.188 A 
HETATM   30  O5  UNL     1      -0.839  51.877 -13.456  1.00  0.00    -0.369 OA
HETATM   31  C27 UNL     1       0.487  52.370 -13.706  1.00  0.00     0.188 A 
BRANCH  31  32
HETATM   32  C28 UNL     1       1.320  51.582 -14.708  1.00  0.00     0.086 C 
HETATM   33  C29 UNL     1       0.622  50.279 -15.145  1.00  0.00     0.049 C 
BRANCH  32  34
HETATM   34  O6  UNL     1       2.544  51.213 -14.059  1.00  0.00    -0.387 OA
HETATM   35  H43 UNL     1       2.347  50.497 -13.433  1.00  0.00     0.210 HD
ENDBRANCH  32  34
BRANCH  32  36
HETATM   36  C30 UNL     1       1.678  52.481 -15.943  1.00  0.00     0.014 C 
HETATM   37  C31 UNL     1       0.945  52.064 -17.228  1.00  0.00     0.012 C 
HETATM   38  C32 UNL     1       3.186  52.497 -16.261  1.00  0.00     0.012 C 
ENDBRANCH  32  36
ENDBRANCH  31  32
ENDBRANCH  23  29
ENDBRANCH   1  23
BRANCH  13  39
HETATM   39  O2  UNL     1       2.608  52.683  -7.903  1.00  0.00    -0.384 OA
HETATM   40  H25 UNL     1       3.454  52.481  -7.470  1.00  0.00     0.211 HD
ENDBRANCH  13  39
BRANCH  18  41
HETATM   41  O3  UNL     1       6.456  58.014  -4.045  1.00  0.00    -0.396 OA
HETATM   42  H34 UNL     1       6.919  58.262  -4.864  1.00  0.00     0.210 HD
ENDBRANCH  18  41
TORSDOF 10
ENDMDL
MODEL 6
REMARK minimizedAffinity -8.22964382
REMARK CNNscore 0.574527919
REMARK CNNaffinity 7.15013695
REMARK  10 active torsions:
REMARK  status: ('A' for Active; 'I' for Inactive)
REMARK    1  A    between atoms: C2_2  and  C3_3 
REMARK    2  A    between atoms: C3_3  and  C4_4 
REMARK    3  A    between atoms: C4_4  and  O1_5 
REMARK    4  A    between atoms: C4_4  and  C5_6 
REMARK    5  A    between atoms: C4_4  and  C26_30 
REMARK    6  A    between atoms: C17_18  and  O2_19 
REMARK    7  A    between atoms: C22_24  and  O3_25 
REMARK    8  A    between atoms: C27_32  and  C28_33 
REMARK    9  A    between atoms: C28_33  and  O6_35 
REMARK   10  A    between atoms: C28_33  and  C30_36 
ROOT
HETATM    1  C5  UNL     1      -2.100  50.073 -22.033  1.00  0.00     0.034 C 
HETATM    2  C6  UNL     1      -1.935  51.362 -21.113  1.00  0.00     0.016 C 
HETATM    3  C7  UNL     1      -2.421  50.948 -19.718  1.00  0.00     0.026 C 
HETATM    4  C8  UNL     1      -1.819  51.575 -18.475  1.00  0.00     0.013 C 
HETATM    5  C9  UNL     1      -2.450  50.901 -17.229  1.00  0.00     0.043 C 
HETATM    6  C10 UNL     1      -2.710  49.404 -17.353  1.00  0.00    -0.006 C 
HETATM    7  C11 UNL     1      -2.598  48.718 -18.508  1.00  0.00    -0.030 C 
HETATM    8  C12 UNL     1      -2.677  47.209 -18.646  1.00  0.00     0.027 C 
HETATM    9  C13 UNL     1      -3.042  46.702 -20.079  1.00  0.00     0.011 C 
HETATM   10  C14 UNL     1      -2.486  47.540 -21.256  1.00  0.00     0.014 C 
HETATM   11  C15 UNL     1      -2.823  49.036 -21.072  1.00  0.00    -0.002 C 
HETATM   12  C16 UNL     1      -4.368  49.210 -21.074  1.00  0.00     0.019 C 
HETATM   13  C17 UNL     1      -2.169  49.447 -19.732  1.00  0.00     0.094 C 
HETATM   14  C18 UNL     1      -3.543  46.556 -17.510  1.00  0.00    -0.026 C 
HETATM   15  C19 UNL     1      -5.059  46.813 -17.723  1.00  0.00     0.016 C 
HETATM   16  C20 UNL     1      -3.294  45.014 -17.515  1.00  0.00     0.013 C 
HETATM   17  C21 UNL     1      -3.329  44.406 -16.117  1.00  0.00     0.032 C 
HETATM   18  C22 UNL     1      -2.222  44.990 -15.234  1.00  0.00     0.119 C 
HETATM   19  C23 UNL     1      -1.942  46.473 -15.508  1.00  0.00     0.045 C 
HETATM   20  C24 UNL     1      -3.173  47.156 -16.116  1.00  0.00     0.071 C 
HETATM   21  C25 UNL     1      -2.999  48.668 -16.093  1.00  0.00     0.161 C 
HETATM   22  O4  UNL     1      -3.068  49.286 -15.030  1.00  0.00    -0.292 OA
ENDROOT
BRANCH   1  23
HETATM   23  C4  UNL     1      -2.674  50.364 -23.468  1.00  0.00     0.091 C 
BRANCH  23  24
HETATM   24  C3  UNL     1      -2.744  49.057 -24.307  1.00  0.00     0.040 C 
BRANCH  24  25
HETATM   25  C2  UNL     1      -4.043  48.762 -25.075  1.00  0.00    -0.002 C 
HETATM   26  C1  UNL     1      -3.852  48.419 -26.544  1.00  0.00     0.005 C 
ENDBRANCH  24  25
ENDBRANCH  23  24
BRANCH  23  27
HETATM   27  O1  UNL     1      -4.004  50.871 -23.337  1.00  0.00    -0.387 OA
HETATM   28  H8  UNL     1      -3.940  51.786 -23.017  1.00  0.00     0.210 HD
ENDBRANCH  23  27
BRANCH  23  29
HETATM   29  C26 UNL     1      -1.879  51.400 -24.257  1.00  0.00     0.188 A 
HETATM   30  O5  UNL     1      -0.509  51.601 -23.899  1.00  0.00    -0.369 OA
HETATM   31  C27 UNL     1      -0.741  51.016 -25.190  1.00  0.00     0.188 A 
BRANCH  31  32
HETATM   32  C28 UNL     1      -0.346  51.863 -26.392  1.00  0.00     0.086 C 
HETATM   33  C29 UNL     1      -0.087  53.333 -26.007  1.00  0.00     0.049 C 
BRANCH  32  34
HETATM   34  O6  UNL     1      -1.445  51.851 -27.313  1.00  0.00    -0.387 OA
HETATM   35  H43 UNL     1      -2.144  52.421 -26.951  1.00  0.00     0.210 HD
ENDBRANCH  32  34
BRANCH  32  36
HETATM   36  C30 UNL     1       0.897  51.236 -27.114  1.00  0.00     0.014 C 
HETATM   37  C31 UNL     1       2.198  51.370 -26.307  1.00  0.00     0.012 C 
HETATM   38  C32 UNL     1       1.158  51.843 -28.507  1.00  0.00     0.012 C 
ENDBRANCH  32  36
ENDBRANCH  31  32
ENDBRANCH  23  29
ENDBRANCH   1  23
BRANCH  13  39
HETATM   39  O2  UNL     1      -0.748  49.203 -19.816  1.00  0.00    -0.384 OA
HETATM   40  H25 UNL     1      -0.359  49.353 -18.938  1.00  0.00     0.211 HD
ENDBRANCH  13  39
BRANCH  18  41
HETATM   41  O3  UNL     1      -2.583  44.805 -13.867  1.00  0.00    -0.396 OA
HETATM   42  H34 UNL     1      -3.319  45.407 -13.659  1.00  0.00     0.210 HD
ENDBRANCH  18  41
TORSDOF 10
ENDMDL
MODEL 7
REMARK minimizedAffinity -7.43862677
REMARK CNNscore 0.496325731
REMARK CNNaffinity 6.32265663
REMARK  10 active torsions:
REMARK  status: ('A' for Active; 'I' for Inactive)
REMARK    1  A    between atoms: C2_2  and  C3_3 
REMARK    2  A    between atoms: C3_3  and  C4_4 
REMARK    3  A    between atoms: C4_4  and  O1_5 
REMARK    4  A    between atoms: C4_4  and  C5_6 
REMARK    5  A    between atoms: C4_4  and  C26_30 
REMARK    6  A    between atoms: C17_18  and  O2_19 
REMARK    7  A    between atoms: C22_24  and  O3_25 
REMARK    8  A    between atoms: C27_32  and  C28_33 
REMARK    9  A    between atoms: C28_33  and  O6_35 
REMARK   10  A    between atoms: C28_33  and  C30_36 
ROOT
HETATM    1  C5  UNL     1      -6.430  45.914 -30.306  1.00  0.00     0.034 C 
HETATM    2  C6  UNL     1      -5.955  46.838 -29.100  1.00  0.00     0.016 C 
HETATM    3  C7  UNL     1      -7.235  47.406 -28.475  1.00  0.00     0.026 C 
HETATM    4  C8  UNL     1      -7.294  47.722 -26.992  1.00  0.00     0.013 C 
HETATM    5  C9  UNL     1      -8.729  48.199 -26.647  1.00  0.00     0.043 C 
HETATM    6  C10 UNL     1      -9.854  47.479 -27.382  1.00  0.00    -0.006 C 
HETATM    7  C11 UNL     1      -9.655  46.625 -28.405  1.00  0.00    -0.030 C 
HETATM    8  C12 UNL     1     -10.721  45.759 -29.049  1.00  0.00     0.027 C 
HETATM    9  C13 UNL     1     -10.383  45.275 -30.498  1.00  0.00     0.011 C 
HETATM   10  C14 UNL     1      -8.892  44.972 -30.780  1.00  0.00     0.014 C 
HETATM   11  C15 UNL     1      -8.000  46.156 -30.347  1.00  0.00    -0.002 C 
HETATM   12  C16 UNL     1      -8.380  47.409 -31.183  1.00  0.00     0.019 C 
HETATM   13  C17 UNL     1      -8.258  46.338 -28.832  1.00  0.00     0.094 C 
HETATM   14  C18 UNL     1     -12.154  46.389 -28.916  1.00  0.00    -0.026 C 
HETATM   15  C19 UNL     1     -12.341  47.601 -29.867  1.00  0.00     0.016 C 
HETATM   16  C20 UNL     1     -13.214  45.300 -29.282  1.00  0.00     0.013 C 
HETATM   17  C21 UNL     1     -14.491  45.421 -28.458  1.00  0.00     0.032 C 
HETATM   18  C22 UNL     1     -14.205  45.219 -26.966  1.00  0.00     0.119 C 
HETATM   19  C23 UNL     1     -12.852  45.788 -26.522  1.00  0.00     0.045 C 
HETATM   20  C24 UNL     1     -12.397  46.910 -27.463  1.00  0.00     0.071 C 
HETATM   21  C25 UNL     1     -11.230  47.670 -26.850  1.00  0.00     0.161 C 
HETATM   22  O4  UNL     1     -11.413  48.423 -25.892  1.00  0.00    -0.292 OA
ENDROOT
BRANCH   1  23
HETATM   23  C4  UNL     1      -5.569  46.052 -31.614  1.00  0.00     0.091 C 
BRANCH  23  24
HETATM   24  C3  UNL     1      -5.920  47.366 -32.366  1.00  0.00     0.040 C 
BRANCH  24  25
HETATM   25  C2  UNL     1      -4.770  48.326 -32.718  1.00  0.00    -0.002 C 
HETATM   26  C1  UNL     1      -4.157  48.109 -34.092  1.00  0.00     0.005 C 
ENDBRANCH  24  25
ENDBRANCH  23  24
BRANCH  23  27
HETATM   27  O1  UNL     1      -4.188  46.112 -31.252  1.00  0.00    -0.387 OA
HETATM   28  H8  UNL     1      -3.913  45.217 -30.990  1.00  0.00     0.210 HD
ENDBRANCH  23  27
BRANCH  23  29
HETATM   29  C26 UNL     1      -5.724  44.886 -32.585  1.00  0.00     0.188 A 
HETATM   30  O5  UNL     1      -4.536  44.346 -33.173  1.00  0.00    -0.369 OA
HETATM   31  C27 UNL     1      -5.233  43.483 -32.260  1.00  0.00     0.188 A 
BRANCH  31  32
HETATM   32  C28 UNL     1      -5.861  42.234 -32.863  1.00  0.00     0.086 C 
HETATM   33  C29 UNL     1      -7.033  42.572 -33.807  1.00  0.00     0.049 C 
BRANCH  32  34
HETATM   34  O6  UNL     1      -6.393  41.452 -31.786  1.00  0.00    -0.387 OA
HETATM   35  H43 UNL     1      -7.202  41.889 -31.471  1.00  0.00     0.210 HD
ENDBRANCH  32  34
BRANCH  32  36
HETATM   36  C30 UNL     1      -4.771  41.375 -33.593  1.00  0.00     0.014 C 
HETATM   37  C31 UNL     1      -3.359  41.571 -33.017  1.00  0.00     0.012 C 
HETATM   38  C32 UNL     1      -4.691  41.659 -35.106  1.00  0.00     0.012 C 
ENDBRANCH  32  36
ENDBRANCH  31  32
ENDBRANCH  23  29
ENDBRANCH   1  23
BRANCH  13  39
HETATM   39  O2  UNL     1      -7.920  45.109 -28.153  1.00  0.00    -0.384 OA
HETATM   40  H25 UNL     1      -8.191  45.187 -27.223  1.00  0.00     0.211 HD
ENDBRANCH  13  39
BRANCH  18  41
HETATM   41  O3  UNL     1     -15.258  45.819 -26.214  1.00  0.00    -0.396 OA
HETATM   42  H34 UNL     1     -15.176  46.786 -26.287  1.00  0.00     0.210 HD
ENDBRANCH  18  41
TORSDOF 10
ENDMDL
MODEL 8
REMARK minimizedAffinity -8.68465614
REMARK CNNscore 0.489615202
REMARK CNNaffinity 6.4541626
REMARK  10 active torsions:
REMARK  status: ('A' for Active; 'I' for Inactive)
REMARK    1  A    between atoms: C2_2  and  C3_3 
REMARK    2  A    between atoms: C3_3  and  C4_4 
REMARK    3  A    between atoms: C4_4  and  O1_5 
REMARK    4  A    between atoms: C4_4  and  C5_6 
REMARK    5  A    between atoms: C4_4  and  C26_30 
REMARK    6  A    between atoms: C17_18  and  O2_19 
REMARK    7  A    between atoms: C22_24  and  O3_25 
REMARK    8  A    between atoms: C27_32  and  C28_33 
REMARK    9  A    between atoms: C28_33  and  O6_35 
REMARK   10  A    between atoms: C28_33  and  C30_36 
ROOT
HETATM    1  C5  UNL     1      -0.822  51.228 -16.843  1.00  0.00     0.034 C 
HETATM    2  C6  UNL     1       0.224  52.103 -17.665  1.00  0.00     0.016 C 
HETATM    3  C7  UNL     1       0.112  51.636 -19.122  1.00  0.00     0.026 C 
HETATM    4  C8  UNL     1       0.369  52.602 -20.263  1.00  0.00     0.013 C 
HETATM    5  C9  UNL     1       0.100  51.866 -21.601  1.00  0.00     0.043 C 
HETATM    6  C10 UNL     1      -1.075  50.896 -21.592  1.00  0.00    -0.006 C 
HETATM    7  C11 UNL     1      -1.735  50.528 -20.476  1.00  0.00    -0.030 C 
HETATM    8  C12 UNL     1      -3.010  49.708 -20.437  1.00  0.00     0.027 C 
HETATM    9  C13 UNL     1      -3.281  48.983 -19.077  1.00  0.00     0.011 C 
HETATM   10  C14 UNL     1      -2.832  49.743 -17.805  1.00  0.00     0.014 C 
HETATM   11  C15 UNL     1      -1.363  50.202 -17.930  1.00  0.00    -0.002 C 
HETATM   12  C16 UNL     1      -0.451  48.951 -18.063  1.00  0.00     0.019 C 
HETATM   13  C17 UNL     1      -1.318  51.119 -19.175  1.00  0.00     0.094 C 
HETATM   14  C18 UNL     1      -3.145  48.765 -21.687  1.00  0.00    -0.026 C 
HETATM   15  C19 UNL     1      -2.177  47.555 -21.603  1.00  0.00     0.016 C 
HETATM   16  C20 UNL     1      -4.610  48.227 -21.751  1.00  0.00     0.013 C 
HETATM   17  C21 UNL     1      -5.113  48.055 -23.181  1.00  0.00     0.032 C 
HETATM   18  C22 UNL     1      -5.144  49.398 -23.918  1.00  0.00     0.119 C 
HETATM   19  C23 UNL     1      -3.993  50.334 -23.530  1.00  0.00     0.045 C 
HETATM   20  C24 UNL     1      -2.796  49.535 -23.001  1.00  0.00     0.071 C 
HETATM   21  C25 UNL     1      -1.566  50.426 -22.916  1.00  0.00     0.161 C 
HETATM   22  O4  UNL     1      -0.987  50.788 -23.942  1.00  0.00    -0.292 OA
ENDROOT
BRANCH   1  23
HETATM   23  C4  UNL     1      -0.294  50.712 -15.455  1.00  0.00     0.091 C 
BRANCH  23  24
HETATM   24  C3  UNL     1       0.309  49.286 -15.592  1.00  0.00     0.040 C 
BRANCH  24  25
HETATM   25  C2  UNL     1       1.469  48.901 -14.658  1.00  0.00    -0.002 C 
HETATM   26  C1  UNL     1       1.219  47.665 -13.807  1.00  0.00     0.005 C 
ENDBRANCH  24  25
ENDBRANCH  23  24
BRANCH  23  27
HETATM   27  O1  UNL     1       0.744  51.585 -15.004  1.00  0.00    -0.387 OA
HETATM   28  H8  UNL     1       0.327  52.410 -14.705  1.00  0.00     0.210 HD
ENDBRANCH  23  27
BRANCH  23  29
HETATM   29  C26 UNL     1      -1.356  50.682 -14.360  1.00  0.00     0.188 A 
HETATM   30  O5  UNL     1      -0.919  50.479 -13.013  1.00  0.00    -0.369 OA
HETATM   31  C27 UNL     1      -1.471  51.772 -13.305  1.00  0.00     0.188 A 
BRANCH  31  32
HETATM   32  C28 UNL     1      -2.787  52.112 -12.617  1.00  0.00     0.086 C 
HETATM   33  C29 UNL     1      -3.610  50.852 -12.284  1.00  0.00     0.049 C 
BRANCH  32  34
HETATM   34  O6  UNL     1      -3.562  52.900 -13.529  1.00  0.00    -0.387 OA
HETATM   35  H43 UNL     1      -3.904  52.308 -14.220  1.00  0.00     0.210 HD
ENDBRANCH  32  34
BRANCH  32  36
HETATM   36  C30 UNL     1      -2.522  52.976 -11.335  1.00  0.00     0.014 C 
HETATM   37  C31 UNL     1      -2.072  52.142 -10.125  1.00  0.00     0.012 C 
HETATM   38  C32 UNL     1      -3.751  53.795 -10.894  1.00  0.00     0.012 C 
ENDBRANCH  32  36
ENDBRANCH  31  32
ENDBRANCH  23  29
ENDBRANCH   1  23
BRANCH  13  39
HETATM   39  O2  UNL     1      -2.231  52.220 -18.972  1.00  0.00    -0.384 OA
HETATM   40  H25 UNL     1      -2.287  52.728 -19.799  1.00  0.00     0.211 HD
ENDBRANCH  13  39
BRANCH  18  41
HETATM   41  O3  UNL     1      -5.119  49.148 -25.322  1.00  0.00    -0.396 OA
HETATM   42  H34 UNL     1      -4.232  48.828 -25.562  1.00  0.00     0.210 HD
ENDBRANCH  18  41
TORSDOF 10
ENDMDL
MODEL 9
REMARK minimizedAffinity -9.94568729
REMARK CNNscore 0.454777688
REMARK CNNaffinity 6.97682238
REMARK  10 active torsions:
REMARK  status: ('A' for Active; 'I' for Inactive)
REMARK    1  A    between atoms: C2_2  and  C3_3 
REMARK    2  A    between atoms: C3_3  and  C4_4 
REMARK    3  A    between atoms: C4_4  and  O1_5 
REMARK    4  A    between atoms: C4_4  and  C5_6 
REMARK    5  A    between atoms: C4_4  and  C26_30 
REMARK    6  A    between atoms: C17_18  and  O2_19 
REMARK    7  A    between atoms: C22_24  and  O3_25 
REMARK    8  A    between atoms: C27_32  and  C28_33 
REMARK    9  A    between atoms: C28_33  and  O6_35 
REMARK   10  A    between atoms: C28_33  and  C30_36 
ROOT
HETATM    1  C5  UNL     1      -2.310  50.155 -24.248  1.00  0.00     0.034 C 
HETATM    2  C6  UNL     1      -1.522  51.382 -23.609  1.00  0.00     0.016 C 
HETATM    3  C7  UNL     1      -1.998  51.476 -22.154  1.00  0.00     0.026 C 
HETATM    4  C8  UNL     1      -1.067  51.986 -21.070  1.00  0.00     0.013 C 
HETATM    5  C9  UNL     1      -1.798  51.888 -19.707  1.00  0.00     0.043 C 
HETATM    6  C10 UNL     1      -2.683  50.660 -19.522  1.00  0.00    -0.006 C 
HETATM    7  C11 UNL     1      -2.989  49.802 -20.515  1.00  0.00    -0.030 C 
HETATM    8  C12 UNL     1      -3.716  48.482 -20.344  1.00  0.00     0.027 C 
HETATM    9  C13 UNL     1      -4.402  47.940 -21.641  1.00  0.00     0.011 C 
HETATM   10  C14 UNL     1      -3.661  48.228 -22.969  1.00  0.00     0.014 C 
HETATM   11  C15 UNL     1      -3.308  49.727 -23.088  1.00  0.00    -0.002 C 
HETATM   12  C16 UNL     1      -4.623  50.556 -23.107  1.00  0.00     0.019 C 
HETATM   13  C17 UNL     1      -2.413  50.041 -21.867  1.00  0.00     0.094 C 
HETATM   14  C18 UNL     1      -4.662  48.486 -19.090  1.00  0.00    -0.026 C 
HETATM   15  C19 UNL     1      -5.937  49.338 -19.333  1.00  0.00     0.016 C 
HETATM   16  C20 UNL     1      -5.096  47.016 -18.786  1.00  0.00     0.013 C 
HETATM   17  C21 UNL     1      -5.249  46.743 -17.293  1.00  0.00     0.032 C 
HETATM   18  C22 UNL     1      -3.917  46.931 -16.559  1.00  0.00     0.119 C 
HETATM   19  C23 UNL     1      -3.061  48.067 -17.131  1.00  0.00     0.045 C 
HETATM   20  C24 UNL     1      -3.935  49.100 -17.851  1.00  0.00     0.071 C 
HETATM   21  C25 UNL     1      -3.133  50.361 -18.136  1.00  0.00     0.161 C 
HETATM   22  O4  UNL     1      -2.826  51.125 -17.219  1.00  0.00    -0.292 OA
ENDROOT
BRANCH   1  23
HETATM   23  C4  UNL     1      -2.844  50.409 -25.705  1.00  0.00     0.091 C 
BRANCH  23  24
HETATM   24  C3  UNL     1      -2.842  49.090 -26.528  1.00  0.00     0.040 C 
BRANCH  24  25
HETATM   25  C2  UNL     1      -4.183  48.362 -26.728  1.00  0.00    -0.002 C 
HETATM   26  C1  UNL     1      -4.640  48.254 -28.174  1.00  0.00     0.005 C 
ENDBRANCH  24  25
ENDBRANCH  23  24
BRANCH  23  27
HETATM   27  O1  UNL     1      -4.193  50.873 -25.626  1.00  0.00    -0.387 OA
HETATM   28  H8  UNL     1      -4.171  51.794 -25.316  1.00  0.00     0.210 HD
ENDBRANCH  23  27
BRANCH  23  29
HETATM   29  C26 UNL     1      -2.057  51.460 -26.480  1.00  0.00     0.188 A 
HETATM   30  O5  UNL     1      -2.631  52.765 -26.604  1.00  0.00    -0.369 OA
HETATM   31  C27 UNL     1      -1.440  52.677 -25.807  1.00  0.00     0.188 A 
BRANCH  31  32
HETATM   32  C28 UNL     1      -0.208  53.383 -26.358  1.00  0.00     0.086 C 
HETATM   33  C29 UNL     1       0.423  54.340 -25.327  1.00  0.00     0.049 C 
BRANCH  32  34
HETATM   34  O6  UNL     1      -0.627  54.176 -27.476  1.00  0.00    -0.387 OA
HETATM   35  H43 UNL     1      -1.101  54.951 -27.132  1.00  0.00     0.210 HD
ENDBRANCH  32  34
BRANCH  32  36
HETATM   36  C30 UNL     1       0.835  52.332 -26.874  1.00  0.00     0.014 C 
HETATM   37  C31 UNL     1       0.568  51.869 -28.315  1.00  0.00     0.012 C 
HETATM   38  C32 UNL     1       0.906  51.069 -25.993  1.00  0.00     0.012 C 
ENDBRANCH  32  36
ENDBRANCH  31  32
ENDBRANCH  23  29
ENDBRANCH   1  23
BRANCH  13  39
HETATM   39  O2  UNL     1      -1.247  49.189 -21.915  1.00  0.00    -0.384 OA
HETATM   40  H25 UNL     1      -0.746  49.306 -21.091  1.00  0.00     0.211 HD
ENDBRANCH  13  39
BRANCH  18  41
HETATM   41  O3  UNL     1      -4.186  47.168 -15.179  1.00  0.00    -0.396 OA
HETATM   42  H34 UNL     1      -4.571  48.057 -15.089  1.00  0.00     0.210 HD
ENDBRANCH  18  41
TORSDOF 10
ENDMDL
