MODEL 1
REMARK minimizedAffinity -8.36034489
REMARK CNNscore 0.258497357
REMARK CNNaffinity 6.43688965
REMARK  7 active torsions:
REMARK  status: ('A' for Active; 'I' for Inactive)
REMARK    1  A    between atoms: C2_2  and  C3_3 
REMARK    2  A    between atoms: C9_10  and  O1_11 
REMARK    3  A    between atoms: C18_22  and  C19_23 
REMARK    4  A    between atoms: C33_39  and  C34_40 
REMARK    5  A    between atoms: C34_40  and  O2_41 
REMARK    6  A    between atoms: C35_42  and  C38_45 
REMARK    7  A    between atoms: C39_46  and  O3_47 
ROOT
HETATM    1  C19 UNL     1       2.104  10.802  18.208  1.00  0.00    -0.003 C 
HETATM    2  C20 UNL     1       2.622  10.050  19.204  1.00  0.00     0.102 C 
HETATM    3  N3  UNL     1       3.258  10.565  20.323  1.00  0.00    -0.349 N 
HETATM    4  C21 UNL     1       3.024  10.139  21.651  1.00  0.00     0.041 A 
HETATM    5  C22 UNL     1       2.520   8.912  22.069  1.00  0.00     0.030 A 
HETATM    6  C23 UNL     1       2.324   8.683  23.430  1.00  0.00     0.002 A 
HETATM    7  C24 UNL     1       2.647   9.665  24.372  1.00  0.00     0.001 A 
HETATM    8  C25 UNL     1       3.162  10.891  23.959  1.00  0.00     0.010 A 
HETATM    9  C26 UNL     1       3.334  11.124  22.596  1.00  0.00    -0.018 A 
HETATM   10  C27 UNL     1       3.866  12.356  21.904  1.00  0.00     0.041 C 
HETATM   11  C28 UNL     1       5.389  12.494  22.133  1.00  0.00     0.046 C 
HETATM   12  C29 UNL     1       5.579  13.737  22.971  1.00  0.00     0.239 C 
HETATM   13  N4  UNL     1       4.425  14.662  22.594  1.00  0.00    -0.062 N 
HETATM   14  C30 UNL     1       4.214  15.662  23.735  1.00  0.00     0.273 C 
HETATM   15  C31 UNL     1       4.671  15.452  21.306  1.00  0.00     0.271 C 
HETATM   16  C32 UNL     1       4.074  14.896  20.020  1.00  0.00    -0.051 C 
HETATM   17  C33 UNL     1       4.824  15.053  18.901  1.00  0.00     0.004 C 
HETATM   18  C35 UNL     1       2.650  14.297  20.088  1.00  0.00     0.027 C 
HETATM   19  C36 UNL     1       2.195  14.396  21.554  1.00  0.00     0.044 C 
HETATM   20  C37 UNL     1       3.234  13.691  22.431  1.00  0.00     0.206 C 
HETATM   21  C38 UNL     1       2.453  12.781  19.789  1.00  0.00     0.052 C 
HETATM   22  C39 UNL     1       2.198  12.329  18.343  1.00  0.00     0.160 C 
HETATM   23  C40 UNL     1       3.592  11.991  20.406  1.00  0.00     0.112 C 
ENDROOT
BRANCH   1  24
HETATM   24  C18 UNL     1       1.434  10.202  17.024  1.00  0.00    -0.016 C 
HETATM   25  C3  UNL     1      -0.034  10.013  16.844  1.00  0.00    -0.032 C 
HETATM   26  C4  UNL     1      -0.467   9.180  15.877  1.00  0.00     0.099 C 
HETATM   27  N1  UNL     1       0.357   8.544  14.948  1.00  0.00    -0.354 N 
HETATM   28  C5  UNL     1      -0.267   7.961  13.727  1.00  0.00     0.133 C 
HETATM   29  C16 UNL     1       1.713   8.949  14.895  1.00  0.00     0.062 C 
HETATM   30  C6  UNL     1       0.735   7.184  12.867  1.00  0.00     0.062 C 
HETATM   31  C7  UNL     1       1.990   7.971  12.678  1.00  0.00    -0.012 C 
HETATM   32  C8  UNL     1       2.793   8.150  11.629  1.00  0.00     0.033 A 
HETATM   33  C15 UNL     1       2.482   8.732  13.811  1.00  0.00     0.067 C 
HETATM   34  C9  UNL     1       2.833   7.731  10.258  1.00  0.00     0.081 A 
HETATM   35  C14 UNL     1       3.857   8.983  12.226  1.00  0.00     0.046 A 
HETATM   36  C11 UNL     1       3.862   8.168   9.496  1.00  0.00     0.038 A 
HETATM   37  C12 UNL     1       4.927   9.001  10.048  1.00  0.00     0.005 A 
HETATM   38  C13 UNL     1       4.963   9.390  11.335  1.00  0.00     0.030 A 
HETATM   39  N2  UNL     1       3.709   9.273  13.489  1.00  0.00    -0.353 N 
ATOM     40  H2  UNL     1       4.352   9.781  14.097  1.00  0.00     0.166 HD
HETATM   41  C17 UNL     1       2.223   9.681  16.052  1.00  0.00     0.044 C 
BRANCH  25  42
HETATM   42  C2  UNL     1      -1.058  10.785  17.643  1.00  0.00     0.036 C 
HETATM   43  C1  UNL     1      -2.423  10.092  17.676  1.00  0.00     0.010 C 
ENDBRANCH  25  42
BRANCH  34  44
HETATM   44  O1  UNL     1       1.774   6.942   9.878  1.00  0.00    -0.355 OA
HETATM   45  C10 UNL     1       0.713   7.561   9.165  1.00  0.00     0.210 C 
ENDBRANCH  34  44
ENDBRANCH   1  24
BRANCH  22  46
HETATM   46  O3  UNL     1       1.014  13.003  17.926  1.00  0.00    -0.390 OA
HETATM   47  H42 UNL     1       0.377  12.324  17.618  1.00  0.00     0.210 HD
ENDBRANCH  22  46
BRANCH  17  48
HETATM   48  C34 UNL     1       4.508  14.775  17.477  1.00  0.00     0.191 C 
BRANCH  48  49
HETATM   49  O2  UNL     1       3.705  15.862  17.051  1.00  0.00    -0.397 OA
HETATM   50  H35 UNL     1       2.896  15.500  16.643  1.00  0.00     0.209 HD
ENDBRANCH  48  49
ENDBRANCH  17  48
TORSDOF 7
ENDMDL
MODEL 2
REMARK minimizedAffinity -11.2769651
REMARK CNNscore 0.210763007
REMARK CNNaffinity 7.68795443
REMARK  7 active torsions:
REMARK  status: ('A' for Active; 'I' for Inactive)
REMARK    1  A    between atoms: C2_2  and  C3_3 
REMARK    2  A    between atoms: C9_10  and  O1_11 
REMARK    3  A    between atoms: C18_22  and  C19_23 
REMARK    4  A    between atoms: C33_39  and  C34_40 
REMARK    5  A    between atoms: C34_40  and  O2_41 
REMARK    6  A    between atoms: C35_42  and  C38_45 
REMARK    7  A    between atoms: C39_46  and  O3_47 
ROOT
HETATM    1  C19 UNL     1      -0.174   7.085  12.693  1.00  0.00    -0.003 C 
HETATM    2  C20 UNL     1      -0.679   5.842  12.852  1.00  0.00     0.102 C 
HETATM    3  N3  UNL     1      -1.937   5.568  13.365  1.00  0.00    -0.349 N 
HETATM    4  C21 UNL     1      -2.851   4.645  12.807  1.00  0.00     0.041 A 
HETATM    5  C22 UNL     1      -2.562   3.555  11.993  1.00  0.00     0.030 A 
HETATM    6  C23 UNL     1      -3.606   2.769  11.507  1.00  0.00     0.002 A 
HETATM    7  C24 UNL     1      -4.932   3.056  11.848  1.00  0.00     0.001 A 
HETATM    8  C25 UNL     1      -5.227   4.139  12.672  1.00  0.00     0.010 A 
HETATM    9  C26 UNL     1      -4.181   4.936  13.135  1.00  0.00    -0.018 A 
HETATM   10  C27 UNL     1      -4.239   6.151  14.028  1.00  0.00     0.041 C 
HETATM   11  C28 UNL     1      -4.590   5.745  15.478  1.00  0.00     0.046 C 
HETATM   12  C29 UNL     1      -5.952   6.336  15.764  1.00  0.00     0.239 C 
HETATM   13  N4  UNL     1      -6.032   7.602  14.916  1.00  0.00    -0.062 N 
HETATM   14  C30 UNL     1      -7.508   7.954  14.710  1.00  0.00     0.273 C 
HETATM   15  C31 UNL     1      -5.337   8.810  15.552  1.00  0.00     0.271 C 
HETATM   16  C32 UNL     1      -3.916   9.117  15.100  1.00  0.00    -0.051 C 
HETATM   17  C33 UNL     1      -3.074   9.577  16.058  1.00  0.00     0.004 C 
HETATM   18  C35 UNL     1      -3.592   8.969  13.595  1.00  0.00     0.027 C 
HETATM   19  C36 UNL     1      -4.878   8.478  12.908  1.00  0.00     0.044 C 
HETATM   20  C37 UNL     1      -5.333   7.189  13.601  1.00  0.00     0.206 C 
HETATM   21  C38 UNL     1      -2.556   7.895  13.147  1.00  0.00     0.052 C 
HETATM   22  C39 UNL     1      -1.069   8.274  13.075  1.00  0.00     0.160 C 
HETATM   23  C40 UNL     1      -2.750   6.633  13.965  1.00  0.00     0.112 C 
ENDROOT
BRANCH   1  24
HETATM   24  C18 UNL     1       1.186   7.327  12.143  1.00  0.00    -0.016 C 
HETATM   25  C3  UNL     1       1.596   7.191  10.716  1.00  0.00    -0.032 C 
HETATM   26  C4  UNL     1       2.909   7.134  10.420  1.00  0.00     0.099 C 
HETATM   27  N1  UNL     1       3.940   7.292  11.348  1.00  0.00    -0.354 N 
HETATM   28  C5  UNL     1       5.313   7.573  10.842  1.00  0.00     0.133 C 
HETATM   29  C16 UNL     1       3.586   7.733  12.645  1.00  0.00     0.062 C 
HETATM   30  C6  UNL     1       6.360   7.592  11.960  1.00  0.00     0.062 C 
HETATM   31  C7  UNL     1       5.882   8.406  13.117  1.00  0.00    -0.012 C 
HETATM   32  C8  UNL     1       6.497   9.267  13.930  1.00  0.00     0.033 A 
HETATM   33  C15 UNL     1       4.480   8.308  13.473  1.00  0.00     0.067 C 
HETATM   34  C9  UNL     1       7.814   9.817  14.068  1.00  0.00     0.081 A 
HETATM   35  C14 UNL     1       5.403   9.604  14.863  1.00  0.00     0.046 A 
HETATM   36  C11 UNL     1       8.022  10.709  15.063  1.00  0.00     0.038 A 
HETATM   37  C12 UNL     1       6.963  11.076  16.000  1.00  0.00     0.005 A 
HETATM   38  C13 UNL     1       5.721  10.561  15.943  1.00  0.00     0.030 A 
HETATM   39  N2  UNL     1       4.262   9.016  14.637  1.00  0.00    -0.353 N 
ATOM     40  H2  UNL     1       3.407   9.067  15.191  1.00  0.00     0.166 HD
HETATM   41  C17 UNL     1       2.181   7.599  13.022  1.00  0.00     0.044 C 
BRANCH  25  42
HETATM   42  C2  UNL     1       0.601   7.206   9.578  1.00  0.00     0.036 C 
HETATM   43  C1  UNL     1       0.578   8.545   8.834  1.00  0.00     0.010 C 
ENDBRANCH  25  42
BRANCH  34  44
HETATM   44  O1  UNL     1       8.712   9.376  13.126  1.00  0.00    -0.355 OA
HETATM   45  C10 UNL     1      10.029   9.906  13.171  1.00  0.00     0.210 C 
ENDBRANCH  34  44
ENDBRANCH   1  24
BRANCH  22  46
HETATM   46  O3  UNL     1      -0.986   9.356  12.152  1.00  0.00    -0.390 OA
HETATM   47  H42 UNL     1      -0.342   9.106  11.456  1.00  0.00     0.210 HD
ENDBRANCH  22  46
BRANCH  17  48
HETATM   48  C34 UNL     1      -1.691  10.107  15.958  1.00  0.00     0.191 C 
BRANCH  48  49
HETATM   49  O2  UNL     1      -0.899   9.243  16.753  1.00  0.00    -0.397 OA
HETATM   50  H35 UNL     1      -0.386   9.789  17.377  1.00  0.00     0.209 HD
ENDBRANCH  48  49
ENDBRANCH  17  48
TORSDOF 7
ENDMDL
MODEL 3
REMARK minimizedAffinity -8.7607193
REMARK CNNscore 0.209873676
REMARK CNNaffinity 6.94309378
REMARK  7 active torsions:
REMARK  status: ('A' for Active; 'I' for Inactive)
REMARK    1  A    between atoms: C2_2  and  C3_3 
REMARK    2  A    between atoms: C9_10  and  O1_11 
REMARK    3  A    between atoms: C18_22  and  C19_23 
REMARK    4  A    between atoms: C33_39  and  C34_40 
REMARK    5  A    between atoms: C34_40  and  O2_41 
REMARK    6  A    between atoms: C35_42  and  C38_45 
REMARK    7  A    between atoms: C39_46  and  O3_47 
ROOT
HETATM    1  C19 UNL     1      -2.916  11.127  15.530  1.00  0.00    -0.003 C 
HETATM    2  C20 UNL     1      -3.960  11.661  16.200  1.00  0.00     0.102 C 
HETATM    3  N3  UNL     1      -4.139  13.019  16.417  1.00  0.00    -0.349 N 
HETATM    4  C21 UNL     1      -5.359  13.711  16.234  1.00  0.00     0.041 A 
HETATM    5  C22 UNL     1      -6.644  13.181  16.263  1.00  0.00     0.030 A 
HETATM    6  C23 UNL     1      -7.734  14.018  16.027  1.00  0.00     0.002 A 
HETATM    7  C24 UNL     1      -7.543  15.382  15.782  1.00  0.00     0.001 A 
HETATM    8  C25 UNL     1      -6.259  15.920  15.763  1.00  0.00     0.010 A 
HETATM    9  C26 UNL     1      -5.173  15.075  15.976  1.00  0.00    -0.018 A 
HETATM   10  C27 UNL     1      -3.701  15.410  16.003  1.00  0.00     0.041 C 
HETATM   11  C28 UNL     1      -3.348  16.208  17.279  1.00  0.00     0.046 C 
HETATM   12  C29 UNL     1      -2.938  17.587  16.815  1.00  0.00     0.239 C 
HETATM   13  N4  UNL     1      -2.333  17.386  15.428  1.00  0.00    -0.062 N 
HETATM   14  C30 UNL     1      -2.399  18.717  14.675  1.00  0.00     0.273 C 
HETATM   15  C31 UNL     1      -0.873  16.926  15.459  1.00  0.00     0.271 C 
HETATM   16  C32 UNL     1      -0.607  15.434  15.315  1.00  0.00    -0.051 C 
HETATM   17  C33 UNL     1       0.421  14.941  16.050  1.00  0.00     0.004 C 
HETATM   18  C35 UNL     1      -1.457  14.646  14.291  1.00  0.00     0.027 C 
HETATM   19  C36 UNL     1      -2.445  15.648  13.669  1.00  0.00     0.044 C 
HETATM   20  C37 UNL     1      -3.242  16.306  14.801  1.00  0.00     0.206 C 
HETATM   21  C38 UNL     1      -2.411  13.527  14.804  1.00  0.00     0.052 C 
HETATM   22  C39 UNL     1      -1.876  12.092  14.940  1.00  0.00     0.160 C 
HETATM   23  C40 UNL     1      -3.075  13.976  16.091  1.00  0.00     0.112 C 
ENDROOT
BRANCH   1  24
HETATM   24  C18 UNL     1      -2.766   9.662  15.328  1.00  0.00    -0.016 C 
HETATM   25  C3  UNL     1      -1.637   8.817  15.814  1.00  0.00    -0.032 C 
HETATM   26  C4  UNL     1      -1.478   7.584  15.292  1.00  0.00     0.099 C 
HETATM   27  N1  UNL     1      -2.355   6.985  14.388  1.00  0.00    -0.354 N 
HETATM   28  C5  UNL     1      -2.265   5.512  14.183  1.00  0.00     0.133 C 
HETATM   29  C16 UNL     1      -3.591   7.634  14.153  1.00  0.00     0.062 C 
HETATM   30  C6  UNL     1      -3.195   5.014  13.072  1.00  0.00     0.062 C 
HETATM   31  C7  UNL     1      -4.562   5.596  13.227  1.00  0.00    -0.012 C 
HETATM   32  C8  UNL     1      -5.783   5.086  13.067  1.00  0.00     0.033 A 
HETATM   33  C15 UNL     1      -4.658   6.979  13.654  1.00  0.00     0.067 C 
HETATM   34  C9  UNL     1      -6.349   3.814  12.719  1.00  0.00     0.081 A 
HETATM   35  C14 UNL     1      -6.623   6.274  13.323  1.00  0.00     0.046 A 
HETATM   36  C11 UNL     1      -7.697   3.715  12.681  1.00  0.00     0.038 A 
HETATM   37  C12 UNL     1      -8.560   4.865  12.937  1.00  0.00     0.005 A 
HETATM   38  C13 UNL     1      -8.085   6.090  13.228  1.00  0.00     0.030 A 
HETATM   39  N2  UNL     1      -5.980   7.373  13.606  1.00  0.00    -0.353 N 
ATOM     40  H2  UNL     1      -6.364   8.305  13.757  1.00  0.00     0.166 HD
HETATM   41  C17 UNL     1      -3.679   9.038  14.545  1.00  0.00     0.044 C 
BRANCH  25  42
HETATM   42  C2  UNL     1      -0.719   9.251  16.933  1.00  0.00     0.036 C 
HETATM   43  C1  UNL     1       0.697   9.565  16.443  1.00  0.00     0.010 C 
ENDBRANCH  25  42
BRANCH  34  44
HETATM   44  O1  UNL     1      -5.421   2.827  12.494  1.00  0.00    -0.355 OA
HETATM   45  C10 UNL     1      -5.637   1.959  11.390  1.00  0.00     0.210 C 
ENDBRANCH  34  44
ENDBRANCH   1  24
BRANCH  22  46
HETATM   46  O3  UNL     1      -1.435  11.714  13.639  1.00  0.00    -0.390 OA
HETATM   47  H42 UNL     1      -1.896  10.883  13.398  1.00  0.00     0.210 HD
ENDBRANCH  22  46
BRANCH  17  48
HETATM   48  C34 UNL     1       1.050  13.596  16.054  1.00  0.00     0.191 C 
BRANCH  48  49
HETATM   49  O2  UNL     1       0.619  12.983  17.256  1.00  0.00    -0.397 OA
HETATM   50  H35 UNL     1       1.407  12.656  17.729  1.00  0.00     0.209 HD
ENDBRANCH  48  49
ENDBRANCH  17  48
TORSDOF 7
ENDMDL
MODEL 4
REMARK minimizedAffinity -9.70694923
REMARK CNNscore 0.1861334
REMARK CNNaffinity 6.95037889
REMARK  7 active torsions:
REMARK  status: ('A' for Active; 'I' for Inactive)
REMARK    1  A    between atoms: C2_2  and  C3_3 
REMARK    2  A    between atoms: C9_10  and  O1_11 
REMARK    3  A    between atoms: C18_22  and  C19_23 
REMARK    4  A    between atoms: C33_39  and  C34_40 
REMARK    5  A    between atoms: C34_40  and  O2_41 
REMARK    6  A    between atoms: C35_42  and  C38_45 
REMARK    7  A    between atoms: C39_46  and  O3_47 
ROOT
HETATM    1  C19 UNL     1      -1.321  10.017  16.134  1.00  0.00    -0.003 C 
HETATM    2  C20 UNL     1      -1.187  10.554  17.367  1.00  0.00     0.102 C 
HETATM    3  N3  UNL     1      -0.000  11.055  17.878  1.00  0.00    -0.349 N 
HETATM    4  C21 UNL     1       0.127  12.285  18.563  1.00  0.00     0.041 A 
HETATM    5  C22 UNL     1      -0.867  12.982  19.243  1.00  0.00     0.030 A 
HETATM    6  C23 UNL     1      -0.560  14.206  19.834  1.00  0.00     0.002 A 
HETATM    7  C24 UNL     1       0.737  14.725  19.765  1.00  0.00     0.001 A 
HETATM    8  C25 UNL     1       1.739  14.027  19.096  1.00  0.00     0.010 A 
HETATM    9  C26 UNL     1       1.421  12.815  18.486  1.00  0.00    -0.018 A 
HETATM   10  C27 UNL     1       2.317  11.881  17.709  1.00  0.00     0.041 C 
HETATM   11  C28 UNL     1       3.305  11.161  18.655  1.00  0.00     0.046 C 
HETATM   12  C29 UNL     1       4.682  11.662  18.288  1.00  0.00     0.239 C 
HETATM   13  N4  UNL     1       4.611  11.991  16.799  1.00  0.00    -0.062 N 
HETATM   14  C30 UNL     1       5.729  12.985  16.469  1.00  0.00     0.273 C 
HETATM   15  C31 UNL     1       4.778  10.767  15.893  1.00  0.00     0.271 C 
HETATM   16  C32 UNL     1       3.510  10.110  15.366  1.00  0.00    -0.051 C 
HETATM   17  C33 UNL     1       3.539   8.758  15.266  1.00  0.00     0.004 C 
HETATM   18  C35 UNL     1       2.356  11.034  14.911  1.00  0.00     0.027 C 
HETATM   19  C36 UNL     1       2.817  12.480  15.165  1.00  0.00     0.044 C 
HETATM   20  C37 UNL     1       3.205  12.610  16.642  1.00  0.00     0.206 C 
HETATM   21  C38 UNL     1       1.002  10.987  15.679  1.00  0.00     0.052 C 
HETATM   22  C39 UNL     1      -0.080   9.993  15.228  1.00  0.00     0.160 C 
HETATM   23  C40 UNL     1       1.267  10.853  17.166  1.00  0.00     0.112 C 
ENDROOT
BRANCH   1  24
HETATM   24  C18 UNL     1      -2.616   9.487  15.633  1.00  0.00    -0.016 C 
HETATM   25  C3  UNL     1      -3.906  10.232  15.566  1.00  0.00    -0.032 C 
HETATM   26  C4  UNL     1      -5.048   9.539  15.391  1.00  0.00     0.099 C 
HETATM   27  N1  UNL     1      -5.115   8.163  15.165  1.00  0.00    -0.354 N 
HETATM   28  C5  UNL     1      -6.383   7.594  14.627  1.00  0.00     0.133 C 
HETATM   29  C16 UNL     1      -3.899   7.485  14.910  1.00  0.00     0.062 C 
HETATM   30  C6  UNL     1      -6.356   6.064  14.552  1.00  0.00     0.062 C 
HETATM   31  C7  UNL     1      -5.082   5.588  13.936  1.00  0.00    -0.012 C 
HETATM   32  C8  UNL     1      -4.808   4.609  13.072  1.00  0.00     0.033 A 
HETATM   33  C15 UNL     1      -3.863   6.293  14.284  1.00  0.00     0.067 C 
HETATM   34  C9  UNL     1      -5.548   3.622  12.340  1.00  0.00     0.081 A 
HETATM   35  C14 UNL     1      -3.336   4.700  12.999  1.00  0.00     0.046 A 
HETATM   36  C11 UNL     1      -4.856   2.794  11.525  1.00  0.00     0.038 A 
HETATM   37  C12 UNL     1      -3.401   2.860  11.419  1.00  0.00     0.005 A 
HETATM   38  C13 UNL     1      -2.652   3.737  12.112  1.00  0.00     0.030 A 
HETATM   39  N2  UNL     1      -2.787   5.628  13.733  1.00  0.00    -0.353 N 
ATOM     40  H2  UNL     1      -1.794   5.818  13.868  1.00  0.00     0.166 HD
HETATM   41  C17 UNL     1      -2.671   8.176  15.295  1.00  0.00     0.044 C 
BRANCH  25  42
HETATM   42  C2  UNL     1      -3.976  11.742  15.597  1.00  0.00     0.036 C 
HETATM   43  C1  UNL     1      -4.379  12.284  16.972  1.00  0.00     0.010 C 
ENDBRANCH  25  42
BRANCH  34  44
HETATM   44  O1  UNL     1      -6.906   3.668  12.545  1.00  0.00    -0.355 OA
HETATM   45  C10 UNL     1      -7.581   2.438  12.765  1.00  0.00     0.210 C 
ENDBRANCH  34  44
ENDBRANCH   1  24
BRANCH  22  46
HETATM   46  O3  UNL     1      -0.371  10.321  13.872  1.00  0.00    -0.390 OA
HETATM   47  H42 UNL     1      -1.335  10.482  13.805  1.00  0.00     0.210 HD
ENDBRANCH  22  46
BRANCH  17  48
HETATM   48  C34 UNL     1       2.563   7.811  14.670  1.00  0.00     0.191 C 
BRANCH  48  49
HETATM   49  O2  UNL     1       2.629   6.647  15.475  1.00  0.00    -0.397 OA
HETATM   50  H35 UNL     1       2.771   5.880  14.890  1.00  0.00     0.209 HD
ENDBRANCH  48  49
ENDBRANCH  17  48
TORSDOF 7
ENDMDL
MODEL 5
REMARK minimizedAffinity -8.87113285
REMARK CNNscore 0.157773629
REMARK CNNaffinity 5.91921425
REMARK  7 active torsions:
REMARK  status: ('A' for Active; 'I' for Inactive)
REMARK    1  A    between atoms: C2_2  and  C3_3 
REMARK    2  A    between atoms: C9_10  and  O1_11 
REMARK    3  A    between atoms: C18_22  and  C19_23 
REMARK    4  A    between atoms: C33_39  and  C34_40 
REMARK    5  A    between atoms: C34_40  and  O2_41 
REMARK    6  A    between atoms: C35_42  and  C38_45 
REMARK    7  A    between atoms: C39_46  and  O3_47 
ROOT
HETATM    1  C19 UNL     1      -9.577  -9.557   2.534  1.00  0.00    -0.003 C 
HETATM    2  C20 UNL     1      -8.711 -10.379   1.901  1.00  0.00     0.102 C 
HETATM    3  N3  UNL     1      -8.490 -10.379   0.532  1.00  0.00    -0.349 N 
HETATM    4  C21 UNL     1      -7.215 -10.416  -0.079  1.00  0.00     0.041 A 
HETATM    5  C22 UNL     1      -6.030 -10.899   0.466  1.00  0.00     0.030 A 
HETATM    6  C23 UNL     1      -4.855 -10.823  -0.280  1.00  0.00     0.002 A 
HETATM    7  C24 UNL     1      -4.865 -10.284  -1.571  1.00  0.00     0.001 A 
HETATM    8  C25 UNL     1      -6.050  -9.809  -2.125  1.00  0.00     0.010 A 
HETATM    9  C26 UNL     1      -7.217  -9.867  -1.367  1.00  0.00    -0.018 A 
HETATM   10  C27 UNL     1      -8.611  -9.421  -1.736  1.00  0.00     0.041 C 
HETATM   11  C28 UNL     1      -9.229 -10.377  -2.783  1.00  0.00     0.046 C 
HETATM   12  C29 UNL     1      -9.390  -9.568  -4.050  1.00  0.00     0.239 C 
HETATM   13  N4  UNL     1      -9.616  -8.131  -3.589  1.00  0.00    -0.062 N 
HETATM   14  C30 UNL     1      -9.246  -7.190  -4.740  1.00  0.00     0.273 C 
HETATM   15  C31 UNL     1     -11.063  -7.840  -3.181  1.00  0.00     0.271 C 
HETATM   16  C32 UNL     1     -11.398  -7.910  -1.697  1.00  0.00    -0.051 C 
HETATM   17  C33 UNL     1     -12.620  -8.409  -1.387  1.00  0.00     0.004 C 
HETATM   18  C35 UNL     1     -10.370  -7.328  -0.699  1.00  0.00     0.027 C 
HETATM   19  C36 UNL     1      -9.176  -6.829  -1.531  1.00  0.00     0.044 C 
HETATM   20  C37 UNL     1      -8.660  -7.993  -2.383  1.00  0.00     0.206 C 
HETATM   21  C38 UNL     1      -9.679  -8.285   0.318  1.00  0.00     0.052 C 
HETATM   22  C39 UNL     1     -10.342  -8.533   1.682  1.00  0.00     0.160 C 
HETATM   23  C40 UNL     1      -9.349  -9.598  -0.366  1.00  0.00     0.112 C 
ENDROOT
BRANCH   1  24
HETATM   24  C18 UNL     1      -9.783  -9.599   4.005  1.00  0.00    -0.016 C 
HETATM   25  C3  UNL     1     -11.068  -9.878   4.708  1.00  0.00    -0.032 C 
HETATM   26  C4  UNL     1     -11.173  -9.574   6.016  1.00  0.00     0.099 C 
HETATM   27  N1  UNL     1     -10.126  -9.100   6.807  1.00  0.00    -0.354 N 
HETATM   28  C5  UNL     1     -10.274  -9.158   8.289  1.00  0.00     0.133 C 
HETATM   29  C16 UNL     1      -8.825  -9.125   6.249  1.00  0.00     0.062 C 
HETATM   30  C6  UNL     1      -9.109  -8.487   9.024  1.00  0.00     0.062 C 
HETATM   31  C7  UNL     1      -7.801  -8.929   8.454  1.00  0.00    -0.012 C 
HETATM   32  C8  UNL     1      -6.630  -9.237   9.014  1.00  0.00     0.033 A 
HETATM   33  C15 UNL     1      -7.717  -9.097   7.016  1.00  0.00     0.067 C 
HETATM   34  C9  UNL     1      -6.096  -9.318  10.343  1.00  0.00     0.081 A 
HETATM   35  C14 UNL     1      -5.805  -9.502   7.818  1.00  0.00     0.046 A 
HETATM   36  C11 UNL     1      -4.805  -9.701  10.479  1.00  0.00     0.038 A 
HETATM   37  C12 UNL     1      -3.961  -9.981   9.321  1.00  0.00     0.005 A 
HETATM   38  C13 UNL     1      -4.397  -9.882   8.052  1.00  0.00     0.030 A 
HETATM   39  N2  UNL     1      -6.410  -9.371   6.671  1.00  0.00    -0.353 N 
ATOM     40  H2  UNL     1      -6.010  -9.451   5.736  1.00  0.00     0.166 HD
HETATM   41  C17 UNL     1      -8.738  -9.254   4.797  1.00  0.00     0.044 C 
BRANCH  25  42
HETATM   42  C2  UNL     1     -12.230 -10.572   4.034  1.00  0.00     0.036 C 
HETATM   43  C1  UNL     1     -13.330  -9.596   3.606  1.00  0.00     0.010 C 
ENDBRANCH  25  42
BRANCH  34  44
HETATM   44  O1  UNL     1      -6.998  -9.017  11.334  1.00  0.00    -0.355 OA
HETATM   45  C10 UNL     1      -6.808  -7.808  12.053  1.00  0.00     0.210 C 
ENDBRANCH  34  44
ENDBRANCH   1  24
BRANCH  22  46
HETATM   46  O3  UNL     1     -10.448  -7.255   2.303  1.00  0.00    -0.390 OA
HETATM   47  H42 UNL     1     -10.007  -7.311   3.177  1.00  0.00     0.210 HD
ENDBRANCH  22  46
BRANCH  17  48
HETATM   48  C34 UNL     1     -13.331  -8.490  -0.086  1.00  0.00     0.191 C 
BRANCH  48  49
HETATM   49  O2  UNL     1     -13.727  -7.162   0.209  1.00  0.00    -0.397 OA
HETATM   50  H35 UNL     1     -13.420  -6.947   1.110  1.00  0.00     0.209 HD
ENDBRANCH  48  49
ENDBRANCH  17  48
TORSDOF 7
ENDMDL
MODEL 6
REMARK minimizedAffinity -8.43514442
REMARK CNNscore 0.147139698
REMARK CNNaffinity 5.79173517
REMARK  7 active torsions:
REMARK  status: ('A' for Active; 'I' for Inactive)
REMARK    1  A    between atoms: C2_2  and  C3_3 
REMARK    2  A    between atoms: C9_10  and  O1_11 
REMARK    3  A    between atoms: C18_22  and  C19_23 
REMARK    4  A    between atoms: C33_39  and  C34_40 
REMARK    5  A    between atoms: C34_40  and  O2_41 
REMARK    6  A    between atoms: C35_42  and  C38_45 
REMARK    7  A    between atoms: C39_46  and  O3_47 
ROOT
HETATM    1  C19 UNL     1      -9.572  -8.956   2.641  1.00  0.00    -0.003 C 
HETATM    2  C20 UNL     1      -8.711  -9.860   2.124  1.00  0.00     0.102 C 
HETATM    3  N3  UNL     1      -8.531 -10.081   0.767  1.00  0.00    -0.349 N 
HETATM    4  C21 UNL     1      -7.274 -10.203   0.131  1.00  0.00     0.041 A 
HETATM    5  C22 UNL     1      -6.066 -10.578   0.709  1.00  0.00     0.030 A 
HETATM    6  C23 UNL     1      -4.914 -10.611  -0.076  1.00  0.00     0.002 A 
HETATM    7  C24 UNL     1      -4.970 -10.291  -1.436  1.00  0.00     0.001 A 
HETATM    8  C25 UNL     1      -6.179  -9.926  -2.023  1.00  0.00     0.010 A 
HETATM    9  C26 UNL     1      -7.323  -9.872  -1.229  1.00  0.00    -0.018 A 
HETATM   10  C27 UNL     1      -8.734  -9.508  -1.622  1.00  0.00     0.041 C 
HETATM   11  C28 UNL     1      -9.367 -10.629  -2.479  1.00  0.00     0.046 C 
HETATM   12  C29 UNL     1      -9.577 -10.040  -3.855  1.00  0.00     0.239 C 
HETATM   13  N4  UNL     1      -9.813  -8.550  -3.628  1.00  0.00    -0.062 N 
HETATM   14  C30 UNL     1      -9.493  -7.805  -4.927  1.00  0.00     0.273 C 
HETATM   15  C31 UNL     1     -11.252  -8.212  -3.227  1.00  0.00     0.271 C 
HETATM   16  C32 UNL     1     -11.542  -8.042  -1.742  1.00  0.00    -0.051 C 
HETATM   17  C33 UNL     1     -12.747  -8.498  -1.316  1.00  0.00     0.004 C 
HETATM   18  C35 UNL     1     -10.495  -7.294  -0.885  1.00  0.00     0.027 C 
HETATM   19  C36 UNL     1      -9.334  -6.924  -1.824  1.00  0.00     0.044 C 
HETATM   20  C37 UNL     1      -8.825  -8.206  -2.491  1.00  0.00     0.206 C 
HETATM   21  C38 UNL     1      -9.759  -8.064   0.252  1.00  0.00     0.052 C 
HETATM   22  C39 UNL     1     -10.378  -8.093   1.659  1.00  0.00     0.160 C 
HETATM   23  C40 UNL     1      -9.428  -9.467  -0.218  1.00  0.00     0.112 C 
ENDROOT
BRANCH   1  24
HETATM   24  C18 UNL     1      -9.734  -8.759   4.106  1.00  0.00    -0.016 C 
HETATM   25  C3  UNL     1      -8.760  -9.160   5.162  1.00  0.00    -0.032 C 
HETATM   26  C4  UNL     1      -9.175  -9.207   6.443  1.00  0.00     0.099 C 
HETATM   27  N1  UNL     1     -10.437  -8.809   6.884  1.00  0.00    -0.354 N 
HETATM   28  C5  UNL     1     -10.635  -8.564   8.341  1.00  0.00     0.133 C 
HETATM   29  C16 UNL     1     -11.267  -8.132   5.959  1.00  0.00     0.062 C 
HETATM   30  C6  UNL     1     -12.095  -8.262   8.694  1.00  0.00     0.062 C 
HETATM   31  C7  UNL     1     -12.669  -7.256   7.752  1.00  0.00    -0.012 C 
HETATM   32  C8  UNL     1     -13.485  -6.216   7.930  1.00  0.00     0.033 A 
HETATM   33  C15 UNL     1     -12.293  -7.353   6.354  1.00  0.00     0.067 C 
HETATM   34  C9  UNL     1     -14.145  -5.581   9.033  1.00  0.00     0.081 A 
HETATM   35  C14 UNL     1     -13.662  -5.754   6.538  1.00  0.00     0.046 A 
HETATM   36  C11 UNL     1     -14.906  -4.494   8.770  1.00  0.00     0.038 A 
HETATM   37  C12 UNL     1     -15.097  -4.001   7.408  1.00  0.00     0.005 A 
HETATM   38  C13 UNL     1     -14.537  -4.582   6.331  1.00  0.00     0.030 A 
HETATM   39  N2  UNL     1     -13.023  -6.436   5.628  1.00  0.00    -0.353 N 
ATOM     40  H2  UNL     1     -13.056  -6.319   4.615  1.00  0.00     0.166 HD
HETATM   41  C17 UNL     1     -10.915  -8.261   4.547  1.00  0.00     0.044 C 
BRANCH  25  42
HETATM   42  C2  UNL     1      -7.303  -9.430   4.865  1.00  0.00     0.036 C 
HETATM   43  C1  UNL     1      -6.450  -9.511   6.133  1.00  0.00     0.010 C 
ENDBRANCH  25  42
BRANCH  34  44
HETATM   44  O1  UNL     1     -13.885  -6.156  10.254  1.00  0.00    -0.355 OA
HETATM   45  C10 UNL     1     -14.927  -6.903  10.865  1.00  0.00     0.210 C 
ENDBRANCH  34  44
ENDBRANCH   1  24
BRANCH  22  46
HETATM   46  O3  UNL     1     -10.486  -6.732   2.066  1.00  0.00    -0.390 OA
HETATM   47  H42 UNL     1     -10.019  -6.639   2.923  1.00  0.00     0.210 HD
ENDBRANCH  22  46
BRANCH  17  48
HETATM   48  C34 UNL     1     -13.418  -8.372   0.002  1.00  0.00     0.191 C 
BRANCH  48  49
HETATM   49  O2  UNL     1     -13.582  -6.981   0.210  1.00  0.00    -0.397 OA
HETATM   50  H35 UNL     1     -13.215  -6.760   1.086  1.00  0.00     0.209 HD
ENDBRANCH  48  49
ENDBRANCH  17  48
TORSDOF 7
ENDMDL
MODEL 7
REMARK minimizedAffinity -8.93474293
REMARK CNNscore 0.143227026
REMARK CNNaffinity 7.37469816
REMARK  7 active torsions:
REMARK  status: ('A' for Active; 'I' for Inactive)
REMARK    1  A    between atoms: C2_2  and  C3_3 
REMARK    2  A    between atoms: C9_10  and  O1_11 
REMARK    3  A    between atoms: C18_22  and  C19_23 
REMARK    4  A    between atoms: C33_39  and  C34_40 
REMARK    5  A    between atoms: C34_40  and  O2_41 
REMARK    6  A    between atoms: C35_42  and  C38_45 
REMARK    7  A    between atoms: C39_46  and  O3_47 
ROOT
HETATM    1  C19 UNL     1      -6.370   7.786  14.331  1.00  0.00    -0.003 C 
HETATM    2  C20 UNL     1      -5.673   7.210  13.327  1.00  0.00     0.102 C 
HETATM    3  N3  UNL     1      -4.306   7.352  13.142  1.00  0.00    -0.349 N 
HETATM    4  C21 UNL     1      -3.417   6.291  12.853  1.00  0.00     0.041 A 
HETATM    5  C22 UNL     1      -3.723   5.068  12.267  1.00  0.00     0.030 A 
HETATM    6  C23 UNL     1      -2.713   4.124  12.089  1.00  0.00     0.002 A 
HETATM    7  C24 UNL     1      -1.399   4.406  12.476  1.00  0.00     0.001 A 
HETATM    8  C25 UNL     1      -1.084   5.634  13.052  1.00  0.00     0.010 A 
HETATM    9  C26 UNL     1      -2.102   6.564  13.250  1.00  0.00    -0.018 A 
HETATM   10  C27 UNL     1      -2.020   7.947  13.849  1.00  0.00     0.041 C 
HETATM   11  C28 UNL     1      -1.303   8.918  12.882  1.00  0.00     0.046 C 
HETATM   12  C29 UNL     1      -0.009   9.308  13.558  1.00  0.00     0.239 C 
HETATM   13  N4  UNL     1      -0.298   9.246  15.055  1.00  0.00    -0.062 N 
HETATM   14  C30 UNL     1       1.031   9.083  15.798  1.00  0.00     0.273 C 
HETATM   15  C31 UNL     1      -0.997  10.496  15.596  1.00  0.00     0.271 C 
HETATM   16  C32 UNL     1      -2.512  10.442  15.742  1.00  0.00    -0.051 C 
HETATM   17  C33 UNL     1      -3.177  11.591  15.463  1.00  0.00     0.004 C 
HETATM   18  C35 UNL     1      -3.137   9.132  16.277  1.00  0.00     0.027 C 
HETATM   19  C36 UNL     1      -1.979   8.145  16.502  1.00  0.00     0.044 C 
HETATM   20  C37 UNL     1      -1.205   8.002  15.187  1.00  0.00     0.206 C 
HETATM   21  C38 UNL     1      -4.084   8.314  15.349  1.00  0.00     0.052 C 
HETATM   22  C39 UNL     1      -5.589   8.625  15.354  1.00  0.00     0.160 C 
HETATM   23  C40 UNL     1      -3.539   8.321  13.935  1.00  0.00     0.112 C 
ENDROOT
BRANCH   1  24
HETATM   24  C18 UNL     1      -7.838   7.608  14.484  1.00  0.00    -0.016 C 
HETATM   25  C3  UNL     1      -8.627   6.408  14.081  1.00  0.00    -0.032 C 
HETATM   26  C4  UNL     1      -9.967   6.513  13.989  1.00  0.00     0.099 C 
HETATM   27  N1  UNL     1     -10.701   7.647  14.340  1.00  0.00    -0.354 N 
HETATM   28  C5  UNL     1     -12.171   7.507  14.540  1.00  0.00     0.133 C 
HETATM   29  C16 UNL     1     -10.014   8.683  15.018  1.00  0.00     0.062 C 
HETATM   30  C6  UNL     1     -12.862   8.851  14.792  1.00  0.00     0.062 C 
HETATM   31  C7  UNL     1     -12.111   9.648  15.807  1.00  0.00    -0.012 C 
HETATM   32  C8  UNL     1     -12.506  10.423  16.818  1.00  0.00     0.033 A 
HETATM   33  C15 UNL     1     -10.662   9.604  15.757  1.00  0.00     0.067 C 
HETATM   34  C9  UNL     1     -13.752  10.821  17.406  1.00  0.00     0.081 A 
HETATM   35  C14 UNL     1     -11.208  10.926  17.313  1.00  0.00     0.046 A 
HETATM   36  C11 UNL     1     -13.707  11.646  18.478  1.00  0.00     0.038 A 
HETATM   37  C12 UNL     1     -12.443  12.156  19.001  1.00  0.00     0.005 A 
HETATM   38  C13 UNL     1     -11.248  11.849  18.466  1.00  0.00     0.030 A 
HETATM   39  N2  UNL     1     -10.154  10.502  16.674  1.00  0.00    -0.353 N 
ATOM     40  H2  UNL     1      -9.181  10.772  16.817  1.00  0.00     0.166 HD
HETATM   41  C17 UNL     1      -8.556   8.665  14.937  1.00  0.00     0.044 C 
BRANCH  25  42
HETATM   42  C2  UNL     1      -7.992   5.054  13.860  1.00  0.00     0.036 C 
HETATM   43  C1  UNL     1      -7.825   4.719  12.375  1.00  0.00     0.010 C 
ENDBRANCH  25  42
BRANCH  34  44
HETATM   44  O1  UNL     1     -14.860  10.274  16.805  1.00  0.00    -0.355 OA
HETATM   45  C10 UNL     1     -15.662  11.127  16.001  1.00  0.00     0.210 C 
ENDBRANCH  34  44
ENDBRANCH   1  24
BRANCH  22  46
HETATM   46  O3  UNL     1      -6.026   8.423  16.695  1.00  0.00    -0.390 OA
HETATM   47  H42 UNL     1      -6.767   7.781  16.674  1.00  0.00     0.210 HD
ENDBRANCH  22  46
BRANCH  17  48
HETATM   48  C34 UNL     1      -4.608  11.945  15.632  1.00  0.00     0.191 C 
BRANCH  48  49
HETATM   49  O2  UNL     1      -4.671  13.350  15.459  1.00  0.00    -0.397 OA
HETATM   50  H35 UNL     1      -5.141  13.730  16.225  1.00  0.00     0.209 HD
ENDBRANCH  48  49
ENDBRANCH  17  48
TORSDOF 7
ENDMDL
MODEL 8
REMARK minimizedAffinity -9.52517319
REMARK CNNscore 0.142781168
REMARK CNNaffinity 6.8250556
REMARK  7 active torsions:
REMARK  status: ('A' for Active; 'I' for Inactive)
REMARK    1  A    between atoms: C2_2  and  C3_3 
REMARK    2  A    between atoms: C9_10  and  O1_11 
REMARK    3  A    between atoms: C18_22  and  C19_23 
REMARK    4  A    between atoms: C33_39  and  C34_40 
REMARK    5  A    between atoms: C34_40  and  O2_41 
REMARK    6  A    between atoms: C35_42  and  C38_45 
REMARK    7  A    between atoms: C39_46  and  O3_47 
ROOT
HETATM    1  C19 UNL     1     -10.015   9.841  15.862  1.00  0.00    -0.003 C 
HETATM    2  C20 UNL     1      -9.642  11.112  15.596  1.00  0.00     0.102 C 
HETATM    3  N3  UNL     1      -9.986  12.208  16.373  1.00  0.00    -0.349 N 
HETATM    4  C21 UNL     1      -9.089  13.225  16.774  1.00  0.00     0.041 A 
HETATM    5  C22 UNL     1      -7.900  13.595  16.156  1.00  0.00     0.030 A 
HETATM    6  C23 UNL     1      -7.124  14.608  16.719  1.00  0.00     0.002 A 
HETATM    7  C24 UNL     1      -7.543  15.263  17.882  1.00  0.00     0.001 A 
HETATM    8  C25 UNL     1      -8.739  14.904  18.498  1.00  0.00     0.010 A 
HETATM    9  C26 UNL     1      -9.498  13.875  17.945  1.00  0.00    -0.018 A 
HETATM   10  C27 UNL     1     -10.813  13.306  18.419  1.00  0.00     0.041 C 
HETATM   11  C28 UNL     1     -11.963  14.309  18.166  1.00  0.00     0.046 C 
HETATM   12  C29 UNL     1     -12.457  14.738  19.528  1.00  0.00     0.239 C 
HETATM   13  N4  UNL     1     -12.208  13.544  20.446  1.00  0.00    -0.062 N 
HETATM   14  C30 UNL     1     -12.155  14.047  21.891  1.00  0.00     0.273 C 
HETATM   15  C31 UNL     1     -13.292  12.466  20.355  1.00  0.00     0.271 C 
HETATM   16  C32 UNL     1     -13.018  11.274  19.448  1.00  0.00    -0.051 C 
HETATM   17  C33 UNL     1     -14.088  10.782  18.775  1.00  0.00     0.004 C 
HETATM   18  C35 UNL     1     -11.589  10.682  19.449  1.00  0.00     0.027 C 
HETATM   19  C36 UNL     1     -10.751  11.543  20.411  1.00  0.00     0.044 C 
HETATM   20  C37 UNL     1     -10.845  13.003  19.957  1.00  0.00     0.206 C 
HETATM   21  C38 UNL     1     -10.745  10.744  18.141  1.00  0.00     0.052 C 
HETATM   22  C39 UNL     1     -10.847   9.591  17.129  1.00  0.00     0.160 C 
HETATM   23  C40 UNL     1     -10.967  12.079  17.458  1.00  0.00     0.112 C 
ENDROOT
BRANCH   1  24
HETATM   24  C18 UNL     1      -9.625   8.699  14.994  1.00  0.00    -0.016 C 
HETATM   25  C3  UNL     1     -10.531   7.921  14.102  1.00  0.00    -0.032 C 
HETATM   26  C4  UNL     1     -10.110   6.732  13.626  1.00  0.00     0.099 C 
HETATM   27  N1  UNL     1      -8.834   6.205  13.824  1.00  0.00    -0.354 N 
HETATM   28  C5  UNL     1      -8.387   5.083  12.951  1.00  0.00     0.133 C 
HETATM   29  C16 UNL     1      -7.858   7.057  14.395  1.00  0.00     0.062 C 
HETATM   30  C6  UNL     1      -7.023   4.521  13.366  1.00  0.00     0.062 C 
HETATM   31  C7  UNL     1      -6.047   5.627  13.605  1.00  0.00    -0.012 C 
HETATM   32  C8  UNL     1      -4.753   5.765  13.318  1.00  0.00     0.033 A 
HETATM   33  C15 UNL     1      -6.538   6.826  14.257  1.00  0.00     0.067 C 
HETATM   34  C9  UNL     1      -3.738   4.992  12.661  1.00  0.00     0.081 A 
HETATM   35  C14 UNL     1      -4.467   7.080  13.928  1.00  0.00     0.046 A 
HETATM   36  C11 UNL     1      -2.500   5.530  12.567  1.00  0.00     0.038 A 
HETATM   37  C12 UNL     1      -2.182   6.831  13.149  1.00  0.00     0.005 A 
HETATM   38  C13 UNL     1      -3.082   7.581  13.810  1.00  0.00     0.030 A 
HETATM   39  N2  UNL     1      -5.474   7.665  14.513  1.00  0.00    -0.353 N 
ATOM     40  H2  UNL     1      -5.474   8.540  15.038  1.00  0.00     0.166 HD
HETATM   41  C17 UNL     1      -8.351   8.245  15.087  1.00  0.00     0.044 C 
BRANCH  25  42
HETATM   42  C2  UNL     1     -11.868   8.452  13.637  1.00  0.00     0.036 C 
HETATM   43  C1  UNL     1     -12.805   7.342  13.152  1.00  0.00     0.010 C 
ENDBRANCH  25  42
BRANCH  34  44
HETATM   44  O1  UNL     1      -4.176   3.785  12.173  1.00  0.00    -0.355 OA
HETATM   45  C10 UNL     1      -3.926   3.498  10.804  1.00  0.00     0.210 C 
ENDBRANCH  34  44
ENDBRANCH   1  24
BRANCH  22  46
HETATM   46  O3  UNL     1     -10.456   8.417  17.834  1.00  0.00    -0.390 OA
HETATM   47  H42 UNL     1      -9.724   7.999  17.333  1.00  0.00     0.210 HD
ENDBRANCH  22  46
BRANCH  17  48
HETATM   48  C34 UNL     1     -14.226   9.567  17.934  1.00  0.00     0.191 C 
BRANCH  48  49
HETATM   49  O2  UNL     1     -13.705   8.507  18.715  1.00  0.00    -0.397 OA
HETATM   50  H35 UNL     1     -13.043   8.031  18.180  1.00  0.00     0.209 HD
ENDBRANCH  48  49
ENDBRANCH  17  48
TORSDOF 7
ENDMDL
MODEL 9
REMARK minimizedAffinity -8.16924477
REMARK CNNscore 0.139359489
REMARK CNNaffinity 6.00066614
REMARK  7 active torsions:
REMARK  status: ('A' for Active; 'I' for Inactive)
REMARK    1  A    between atoms: C2_2  and  C3_3 
REMARK    2  A    between atoms: C9_10  and  O1_11 
REMARK    3  A    between atoms: C18_22  and  C19_23 
REMARK    4  A    between atoms: C33_39  and  C34_40 
REMARK    5  A    between atoms: C34_40  and  O2_41 
REMARK    6  A    between atoms: C35_42  and  C38_45 
REMARK    7  A    between atoms: C39_46  and  O3_47 
ROOT
HETATM    1  C19 UNL     1       1.618  14.645  -2.516  1.00  0.00    -0.003 C 
HETATM    2  C20 UNL     1       2.820  15.013  -2.019  1.00  0.00     0.102 C 
HETATM    3  N3  UNL     1       3.049  15.354  -0.695  1.00  0.00    -0.349 N 
HETATM    4  C21 UNL     1       4.136  14.889   0.081  1.00  0.00     0.041 A 
HETATM    5  C22 UNL     1       5.364  14.425  -0.377  1.00  0.00     0.030 A 
HETATM    6  C23 UNL     1       6.310  13.973   0.543  1.00  0.00     0.002 A 
HETATM    7  C24 UNL     1       6.039  14.003   1.914  1.00  0.00     0.001 A 
HETATM    8  C25 UNL     1       4.815  14.477   2.379  1.00  0.00     0.010 A 
HETATM    9  C26 UNL     1       3.865  14.905   1.455  1.00  0.00    -0.018 A 
HETATM   10  C27 UNL     1       2.481  15.453   1.702  1.00  0.00     0.041 C 
HETATM   11  C28 UNL     1       2.558  16.877   2.301  1.00  0.00     0.046 C 
HETATM   12  C29 UNL     1       2.008  16.774   3.705  1.00  0.00     0.239 C 
HETATM   13  N4  UNL     1       0.984  15.644   3.659  1.00  0.00    -0.062 N 
HETATM   14  C30 UNL     1       0.789  15.110   5.081  1.00  0.00     0.273 C 
HETATM   15  C31 UNL     1      -0.382  16.077   3.120  1.00  0.00     0.271 C 
HETATM   16  C32 UNL     1      -0.669  15.813   1.648  1.00  0.00    -0.051 C 
HETATM   17  C33 UNL     1      -1.395  16.761   1.006  1.00  0.00     0.004 C 
HETATM   18  C35 UNL     1      -0.194  14.467   1.053  1.00  0.00     0.027 C 
HETATM   19  C36 UNL     1       0.528  13.711   2.181  1.00  0.00     0.044 C 
HETATM   20  C37 UNL     1       1.646  14.607   2.724  1.00  0.00     0.206 C 
HETATM   21  C38 UNL     1       0.884  14.476  -0.072  1.00  0.00     0.052 C 
HETATM   22  C39 UNL     1       0.435  14.569  -1.539  1.00  0.00     0.160 C 
HETATM   23  C40 UNL     1       1.930  15.530   0.238  1.00  0.00     0.112 C 
ENDROOT
BRANCH   1  24
HETATM   24  C18 UNL     1       1.422  14.293  -3.946  1.00  0.00    -0.016 C 
HETATM   25  C3  UNL     1       2.497  14.104  -4.963  1.00  0.00    -0.032 C 
HETATM   26  C4  UNL     1       2.163  14.102  -6.268  1.00  0.00     0.099 C 
HETATM   27  N1  UNL     1       0.856  14.165  -6.754  1.00  0.00    -0.354 N 
HETATM   28  C5  UNL     1       0.608  13.785  -8.173  1.00  0.00     0.133 C 
HETATM   29  C16 UNL     1      -0.194  14.027  -5.815  1.00  0.00     0.062 C 
HETATM   30  C6  UNL     1      -0.842  14.026  -8.602  1.00  0.00     0.062 C 
HETATM   31  C7  UNL     1      -1.792  13.493  -7.580  1.00  0.00    -0.012 C 
HETATM   32  C8  UNL     1      -2.952  12.843  -7.678  1.00  0.00     0.033 A 
HETATM   33  C15 UNL     1      -1.437  13.660  -6.183  1.00  0.00     0.067 C 
HETATM   34  C9  UNL     1      -3.787  12.347  -8.733  1.00  0.00     0.081 A 
HETATM   35  C14 UNL     1      -3.328  12.719  -6.255  1.00  0.00     0.046 A 
HETATM   36  C11 UNL     1      -4.926  11.704  -8.385  1.00  0.00     0.038 A 
HETATM   37  C12 UNL     1      -5.326  11.553  -6.988  1.00  0.00     0.005 A 
HETATM   38  C13 UNL     1      -4.603  12.034  -5.960  1.00  0.00     0.030 A 
HETATM   39  N2  UNL     1      -2.489  13.233  -5.399  1.00  0.00    -0.353 N 
ATOM     40  H2  UNL     1      -2.588  13.304  -4.386  1.00  0.00     0.166 HD
HETATM   41  C17 UNL     1       0.150  14.235  -4.411  1.00  0.00     0.044 C 
BRANCH  25  42
HETATM   42  C2  UNL     1       3.934  13.826  -4.585  1.00  0.00     0.036 C 
HETATM   43  C1  UNL     1       4.238  12.328  -4.493  1.00  0.00     0.010 C 
ENDBRANCH  25  42
BRANCH  34  44
HETATM   44  O1  UNL     1      -3.293  12.568  -9.996  1.00  0.00    -0.355 OA
HETATM   45  C10 UNL     1      -2.729  11.463 -10.686  1.00  0.00     0.210 C 
ENDBRANCH  34  44
ENDBRANCH   1  24
BRANCH  22  46
HETATM   46  O3  UNL     1      -0.404  13.440  -1.762  1.00  0.00    -0.390 OA
HETATM   47  H42 UNL     1      -0.042  12.946  -2.528  1.00  0.00     0.210 HD
ENDBRANCH  22  46
BRANCH  17  48
HETATM   48  C34 UNL     1      -1.977  16.773  -0.360  1.00  0.00     0.191 C 
BRANCH  48  49
HETATM   49  O2  UNL     1      -3.075  15.879  -0.310  1.00  0.00    -0.397 OA
HETATM   50  H35 UNL     1      -2.981  15.241  -1.041  1.00  0.00     0.209 HD
ENDBRANCH  48  49
ENDBRANCH  17  48
TORSDOF 7
ENDMDL
