MODEL 1
REMARK minimizedAffinity -7.45464373
REMARK CNNscore 0.482575357
REMARK CNNaffinity 6.4630661
REMARK  5 active torsions:
REMARK  status: ('A' for Active; 'I' for Inactive)
REMARK    1  A    between atoms: C2_2  and  C3_3 
REMARK    2  A    between atoms: C6_6  and  C7_7 
REMARK    3  A    between atoms: C7_7  and  O1_8 
REMARK    4  A    between atoms: C7_7  and  C8_9 
REMARK    5  A    between atoms: C26_32  and  O6_33 
ROOT
HETATM    1  C3  UNL     1      -6.273  14.619  22.053  1.00  0.00     0.008 C 
HETATM    2  C4  UNL     1      -5.581  13.451  21.371  1.00  0.00    -0.023 C 
HETATM    3  C5  UNL     1      -5.488  13.241  20.045  1.00  0.00     0.005 C 
HETATM    4  C6  UNL     1      -5.936  14.187  18.954  1.00  0.00     0.187 C 
HETATM    5  O2  UNL     1      -7.203  13.700  18.472  1.00  0.00    -0.308 OA
HETATM    6  C12 UNL     1      -8.043  14.692  18.041  1.00  0.00     0.276 C 
HETATM    7  O3  UNL     1      -7.712  15.875  17.948  1.00  0.00    -0.264 OA
HETATM    8  C13 UNL     1      -9.410  14.135  17.554  1.00  0.00     0.095 C 
HETATM    9  C14 UNL     1     -10.470  15.258  17.635  1.00  0.00     0.036 C 
HETATM   10  C15 UNL     1      -9.138  13.910  16.079  1.00  0.00     0.003 C 
HETATM   11  C16 UNL     1      -9.541  12.969  15.225  1.00  0.00     0.072 C 
HETATM   12  C17 UNL     1     -10.425  11.829  15.451  1.00  0.00     0.245 C 
HETATM   13  O4  UNL     1     -10.851  11.214  14.474  1.00  0.00    -0.268 OA
HETATM   14  N1  UNL     1     -10.744  11.412  16.689  1.00  0.00    -0.320 N 
HETATM   15  C18 UNL     1     -10.481  11.816  17.976  1.00  0.00     0.098 A 
HETATM   16  C19 UNL     1      -9.899  12.949  18.396  1.00  0.00     0.045 A 
HETATM   17  C20 UNL     1      -9.756  13.172  19.889  1.00  0.00     0.194 A 
HETATM   18  O5  UNL     1      -9.305  14.230  20.298  1.00  0.00    -0.287 OA
HETATM   19  C21 UNL     1     -10.164  12.136  20.862  1.00  0.00     0.046 A 
HETATM   20  C22 UNL     1     -10.805  11.001  20.386  1.00  0.00     0.032 A 
HETATM   21  C23 UNL     1     -11.258   9.996  21.263  1.00  0.00     0.026 A 
HETATM   22  C24 UNL     1     -11.065  10.099  22.643  1.00  0.00    -0.027 A 
HETATM   23  C25 UNL     1     -11.557   9.001  23.542  1.00  0.00     0.051 C 
HETATM   24  C26 UNL     1     -10.407  11.233  23.127  1.00  0.00     0.086 A 
HETATM   25  C27 UNL     1      -9.944  12.240  22.250  1.00  0.00     0.059 A 
HETATM   26  C28 UNL     1      -9.215  13.371  22.872  1.00  0.00     0.163 C 
HETATM   27  O7  UNL     1      -9.783  14.447  23.020  1.00  0.00    -0.292 OA
HETATM   28  C29 UNL     1      -7.833  13.048  23.417  1.00  0.00     0.084 C 
HETATM   29  C30 UNL     1      -6.853  14.224  23.430  1.00  0.00     0.016 C 
HETATM   30  C31 UNL     1     -11.010  10.806  18.951  1.00  0.00     0.210 A 
HETATM   31  O8  UNL     1     -11.603   9.812  18.539  1.00  0.00    -0.285 OA
HETATM   32  H24 UNL     1     -11.289  10.546  16.638  1.00  0.00     0.169 HD
ENDROOT
BRANCH   4  33
HETATM   33  C7  UNL     1      -4.914  14.275  17.771  1.00  0.00     0.174 C 
BRANCH  33  34
HETATM   34  O1  UNL     1      -3.568  14.397  18.250  1.00  0.00    -0.389 OA
HETATM   35  H11 UNL     1      -3.476  13.791  19.012  1.00  0.00     0.210 HD
ENDBRANCH  33  34
BRANCH  33  36
HETATM   36  C8  UNL     1      -4.950  13.078  16.854  1.00  0.00     0.009 C 
HETATM   37  C9  UNL     1      -4.173  11.975  16.934  1.00  0.00    -0.089 C 
HETATM   38  C10 UNL     1      -4.332  10.841  15.955  1.00  0.00     0.042 C 
HETATM   39  C11 UNL     1      -3.124  11.749  17.989  1.00  0.00     0.042 C 
ENDBRANCH  33  36
ENDBRANCH   4  33
BRANCH   1  40
HETATM   40  C2  UNL     1      -5.341  15.845  22.181  1.00  0.00     0.004 C 
HETATM   41  C1  UNL     1      -4.057  15.620  22.967  1.00  0.00     0.006 C 
ENDBRANCH   1  40
BRANCH  24  42
HETATM   42  O6  UNL     1     -10.188  11.383  24.470  1.00  0.00    -0.359 OA
HETATM   43  H29 UNL     1     -10.817  10.843  24.979  1.00  0.00     0.217 HD
ENDBRANCH  24  42
TORSDOF 5
ENDMDL
MODEL 2
REMARK minimizedAffinity -8.13664722
REMARK CNNscore 0.326744199
REMARK CNNaffinity 6.03593969
REMARK  5 active torsions:
REMARK  status: ('A' for Active; 'I' for Inactive)
REMARK    1  A    between atoms: C2_2  and  C3_3 
REMARK    2  A    between atoms: C6_6  and  C7_7 
REMARK    3  A    between atoms: C7_7  and  O1_8 
REMARK    4  A    between atoms: C7_7  and  C8_9 
REMARK    5  A    between atoms: C26_32  and  O6_33 
ROOT
HETATM    1  C3  UNL     1      -0.326  15.595  -4.427  1.00  0.00     0.008 C 
HETATM    2  C4  UNL     1      -0.711  14.397  -3.576  1.00  0.00    -0.023 C 
HETATM    3  C5  UNL     1      -0.593  14.295  -2.239  1.00  0.00     0.005 C 
HETATM    4  C6  UNL     1      -0.178  15.395  -1.290  1.00  0.00     0.187 C 
HETATM    5  O2  UNL     1       1.206  15.166  -0.962  1.00  0.00    -0.308 OA
HETATM    6  C12 UNL     1       1.910  16.315  -0.723  1.00  0.00     0.276 C 
HETATM    7  O3  UNL     1       1.394  17.432  -0.664  1.00  0.00    -0.264 OA
HETATM    8  C13 UNL     1       3.404  16.033  -0.401  1.00  0.00     0.095 C 
HETATM    9  C14 UNL     1       4.235  17.302  -0.708  1.00  0.00     0.036 C 
HETATM   10  C15 UNL     1       3.369  15.902   1.109  1.00  0.00     0.003 C 
HETATM   11  C16 UNL     1       4.036  15.120   1.958  1.00  0.00     0.072 C 
HETATM   12  C17 UNL     1       5.067  14.121   1.685  1.00  0.00     0.245 C 
HETATM   13  O4  UNL     1       5.716  13.674   2.630  1.00  0.00    -0.268 OA
HETATM   14  N1  UNL     1       5.290  13.652   0.444  1.00  0.00    -0.320 N 
HETATM   15  C18 UNL     1       4.796  13.890  -0.815  1.00  0.00     0.098 A 
HETATM   16  C19 UNL     1       3.977  14.872  -1.223  1.00  0.00     0.045 A 
HETATM   17  C20 UNL     1       3.605  14.933  -2.692  1.00  0.00     0.194 A 
HETATM   18  O5  UNL     1       2.929  15.863  -3.102  1.00  0.00    -0.287 OA
HETATM   19  C21 UNL     1       4.057  13.894  -3.641  1.00  0.00     0.046 A 
HETATM   20  C22 UNL     1       4.941  12.925  -3.188  1.00  0.00     0.032 A 
HETATM   21  C23 UNL     1       5.443  11.932  -4.051  1.00  0.00     0.026 A 
HETATM   22  C24 UNL     1       5.058  11.878  -5.393  1.00  0.00    -0.027 A 
HETATM   23  C25 UNL     1       5.611  10.798  -6.277  1.00  0.00     0.051 C 
HETATM   24  C26 UNL     1       4.156  12.842  -5.853  1.00  0.00     0.086 A 
HETATM   25  C27 UNL     1       3.644  13.835  -4.988  1.00  0.00     0.059 A 
HETATM   26  C28 UNL     1       2.655  14.772  -5.573  1.00  0.00     0.163 C 
HETATM   27  O7  UNL     1       3.005  15.908  -5.872  1.00  0.00    -0.292 OA
HETATM   28  C29 UNL     1       1.292  14.182  -5.892  1.00  0.00     0.084 C 
HETATM   29  C30 UNL     1       0.130  15.177  -5.843  1.00  0.00     0.016 C 
HETATM   30  C31 UNL     1       5.361  12.896  -1.787  1.00  0.00     0.210 A 
HETATM   31  O8  UNL     1       6.165  12.052  -1.398  1.00  0.00    -0.285 OA
HETATM   32  H24 UNL     1       5.978  12.894   0.475  1.00  0.00     0.169 HD
ENDROOT
BRANCH   4  33
HETATM   33  C7  UNL     1      -1.037  15.423   0.019  1.00  0.00     0.174 C 
BRANCH  33  34
HETATM   34  O1  UNL     1      -2.433  15.568  -0.274  1.00  0.00    -0.389 OA
HETATM   35  H11 UNL     1      -2.627  15.001  -1.048  1.00  0.00     0.210 HD
ENDBRANCH  33  34
BRANCH  33  36
HETATM   36  C8  UNL     1      -0.891  14.180   0.863  1.00  0.00     0.009 C 
HETATM   37  C9  UNL     1      -1.537  13.907   2.017  1.00  0.00    -0.089 C 
HETATM   38  C10 UNL     1      -1.305  12.610   2.748  1.00  0.00     0.042 C 
HETATM   39  C11 UNL     1      -2.546  14.818   2.664  1.00  0.00     0.042 C 
ENDBRANCH  33  36
ENDBRANCH   4  33
BRANCH   1  40
HETATM   40  C2  UNL     1      -1.465  16.638  -4.502  1.00  0.00     0.004 C 
HETATM   41  C1  UNL     1      -2.754  16.163  -5.159  1.00  0.00     0.006 C 
ENDBRANCH   1  40
BRANCH  24  42
HETATM   42  O6  UNL     1       3.742  12.832  -7.157  1.00  0.00    -0.359 OA
HETATM   43  H29 UNL     1       4.383  12.358  -7.714  1.00  0.00     0.217 HD
ENDBRANCH  24  42
TORSDOF 5
ENDMDL
MODEL 3
REMARK minimizedAffinity -6.67066097
REMARK CNNscore 0.256665289
REMARK CNNaffinity 5.14829397
REMARK  5 active torsions:
REMARK  status: ('A' for Active; 'I' for Inactive)
REMARK    1  A    between atoms: C2_2  and  C3_3 
REMARK    2  A    between atoms: C6_6  and  C7_7 
REMARK    3  A    between atoms: C7_7  and  O1_8 
REMARK    4  A    between atoms: C7_7  and  C8_9 
REMARK    5  A    between atoms: C26_32  and  O6_33 
ROOT
HETATM    1  C3  UNL     1     -18.177  -5.635  17.514  1.00  0.00     0.008 C 
HETATM    2  C4  UNL     1     -18.962  -5.672  16.214  1.00  0.00    -0.023 C 
HETATM    3  C5  UNL     1     -18.486  -6.007  15.001  1.00  0.00     0.005 C 
HETATM    4  C6  UNL     1     -17.106  -6.545  14.698  1.00  0.00     0.187 C 
HETATM    5  O2  UNL     1     -16.331  -5.444  14.184  1.00  0.00    -0.308 OA
HETATM    6  C12 UNL     1     -15.000  -5.520  14.494  1.00  0.00     0.276 C 
HETATM    7  O3  UNL     1     -14.481  -6.491  15.045  1.00  0.00    -0.264 OA
HETATM    8  C13 UNL     1     -14.200  -4.304  13.948  1.00  0.00     0.095 C 
HETATM    9  C14 UNL     1     -12.904  -4.140  14.776  1.00  0.00     0.036 C 
HETATM   10  C15 UNL     1     -13.773  -4.810  12.584  1.00  0.00     0.003 C 
HETATM   11  C16 UNL     1     -13.634  -4.204  11.404  1.00  0.00     0.072 C 
HETATM   12  C17 UNL     1     -13.839  -2.800  11.053  1.00  0.00     0.245 C 
HETATM   13  O4  UNL     1     -13.436  -2.405   9.960  1.00  0.00    -0.268 OA
HETATM   14  N1  UNL     1     -14.490  -1.952  11.868  1.00  0.00    -0.320 N 
HETATM   15  C18 UNL     1     -15.065  -2.011  13.115  1.00  0.00     0.098 A 
HETATM   16  C19 UNL     1     -14.991  -2.992  14.027  1.00  0.00     0.045 A 
HETATM   17  C20 UNL     1     -15.696  -2.793  15.354  1.00  0.00     0.194 A 
HETATM   18  O5  UNL     1     -15.575  -3.635  16.231  1.00  0.00    -0.287 OA
HETATM   19  C21 UNL     1     -16.517  -1.592  15.614  1.00  0.00     0.046 A 
HETATM   20  C22 UNL     1     -16.526  -0.581  14.664  1.00  0.00     0.032 A 
HETATM   21  C23 UNL     1     -17.253   0.609  14.868  1.00  0.00     0.026 A 
HETATM   22  C24 UNL     1     -18.003   0.807  16.030  1.00  0.00    -0.027 A 
HETATM   23  C25 UNL     1     -18.770   2.086  16.205  1.00  0.00     0.051 C 
HETATM   24  C26 UNL     1     -18.010  -0.214  16.985  1.00  0.00     0.086 A 
HETATM   25  C27 UNL     1     -17.288  -1.411  16.780  1.00  0.00     0.059 A 
HETATM   26  C28 UNL     1     -17.411  -2.444  17.837  1.00  0.00     0.163 C 
HETATM   27  O7  UNL     1     -16.493  -2.604  18.634  1.00  0.00    -0.292 OA
HETATM   28  C29 UNL     1     -18.760  -3.136  17.933  1.00  0.00     0.084 C 
HETATM   29  C30 UNL     1     -18.717  -4.563  18.487  1.00  0.00     0.016 C 
HETATM   30  C31 UNL     1     -15.794  -0.733  13.407  1.00  0.00     0.210 A 
HETATM   31  O8  UNL     1     -15.784   0.178  12.581  1.00  0.00    -0.285 OA
HETATM   32  H24 UNL     1     -14.616  -1.047  11.405  1.00  0.00     0.169 HD
ENDROOT
BRANCH   4  33
HETATM   33  C7  UNL     1     -17.126  -7.714  13.658  1.00  0.00     0.174 C 
BRANCH  33  34
HETATM   34  O1  UNL     1     -18.458  -8.198  13.439  1.00  0.00    -0.389 OA
HETATM   35  H11 UNL     1     -19.047  -7.417  13.401  1.00  0.00     0.210 HD
ENDBRANCH  33  34
BRANCH  33  36
HETATM   36  C8  UNL     1     -16.569  -7.330  12.309  1.00  0.00     0.009 C 
HETATM   37  C9  UNL     1     -17.205  -6.635  11.340  1.00  0.00    -0.089 C 
HETATM   38  C10 UNL     1     -16.516  -6.305  10.042  1.00  0.00     0.042 C 
HETATM   39  C11 UNL     1     -18.609  -6.106  11.455  1.00  0.00     0.042 C 
ENDBRANCH  33  36
ENDBRANCH   4  33
BRANCH   1  40
HETATM   40  C2  UNL     1     -18.130  -7.022  18.197  1.00  0.00     0.004 C 
HETATM   41  C1  UNL     1     -16.897  -7.298  19.047  1.00  0.00     0.006 C 
ENDBRANCH   1  40
BRANCH  24  42
HETATM   42  O6  UNL     1     -18.731  -0.073  18.140  1.00  0.00    -0.359 OA
HETATM   43  H29 UNL     1     -18.892   0.867  18.328  1.00  0.00     0.217 HD
ENDBRANCH  24  42
TORSDOF 5
ENDMDL
MODEL 4
REMARK minimizedAffinity -6.48746157
REMARK CNNscore 0.188837543
REMARK CNNaffinity 5.56977129
REMARK  5 active torsions:
REMARK  status: ('A' for Active; 'I' for Inactive)
REMARK    1  A    between atoms: C2_2  and  C3_3 
REMARK    2  A    between atoms: C6_6  and  C7_7 
REMARK    3  A    between atoms: C7_7  and  O1_8 
REMARK    4  A    between atoms: C7_7  and  C8_9 
REMARK    5  A    between atoms: C26_32  and  O6_33 
ROOT
HETATM    1  C3  UNL     1      -8.044  17.598   5.300  1.00  0.00     0.008 C 
HETATM    2  C4  UNL     1      -8.082  16.110   5.603  1.00  0.00    -0.023 C 
HETATM    3  C5  UNL     1      -9.129  15.284   5.427  1.00  0.00     0.005 C 
HETATM    4  C6  UNL     1     -10.445  15.633   4.770  1.00  0.00     0.187 C 
HETATM    5  O2  UNL     1     -11.396  15.858   5.829  1.00  0.00    -0.308 OA
HETATM    6  C12 UNL     1     -12.350  16.790   5.520  1.00  0.00     0.276 C 
HETATM    7  O3  UNL     1     -12.472  17.298   4.405  1.00  0.00    -0.264 OA
HETATM    8  C13 UNL     1     -13.340  17.028   6.694  1.00  0.00     0.095 C 
HETATM    9  C14 UNL     1     -13.990  18.423   6.531  1.00  0.00     0.036 C 
HETATM   10  C15 UNL     1     -14.424  16.014   6.386  1.00  0.00     0.003 C 
HETATM   11  C16 UNL     1     -15.187  15.249   7.168  1.00  0.00     0.072 C 
HETATM   12  C17 UNL     1     -15.230  15.166   8.626  1.00  0.00     0.245 C 
HETATM   13  O4  UNL     1     -16.165  14.564   9.152  1.00  0.00    -0.268 OA
HETATM   14  N1  UNL     1     -14.259  15.688   9.396  1.00  0.00    -0.320 N 
HETATM   15  C18 UNL     1     -13.103  16.403   9.195  1.00  0.00     0.098 A 
HETATM   16  C19 UNL     1     -12.656  16.974   8.066  1.00  0.00     0.045 A 
HETATM   17  C20 UNL     1     -11.352  17.745   8.119  1.00  0.00     0.194 A 
HETATM   18  O5  UNL     1     -10.966  18.342   7.126  1.00  0.00    -0.287 OA
HETATM   19  C21 UNL     1     -10.542  17.799   9.355  1.00  0.00     0.046 A 
HETATM   20  C22 UNL     1     -11.065  17.237  10.511  1.00  0.00     0.032 A 
HETATM   21  C23 UNL     1     -10.365  17.292  11.732  1.00  0.00     0.026 A 
HETATM   22  C24 UNL     1      -9.111  17.903  11.820  1.00  0.00    -0.027 A 
HETATM   23  C25 UNL     1      -8.395  17.932  13.139  1.00  0.00     0.051 C 
HETATM   24  C26 UNL     1      -8.572  18.458  10.656  1.00  0.00     0.086 A 
HETATM   25  C27 UNL     1      -9.269  18.398   9.428  1.00  0.00     0.059 A 
HETATM   26  C28 UNL     1      -8.577  18.975   8.250  1.00  0.00     0.163 C 
HETATM   27  O7  UNL     1      -8.919  20.074   7.828  1.00  0.00    -0.292 OA
HETATM   28  C29 UNL     1      -7.375  18.196   7.740  1.00  0.00     0.084 C 
HETATM   29  C30 UNL     1      -7.087  18.358   6.246  1.00  0.00     0.016 C 
HETATM   30  C31 UNL     1     -12.355  16.548  10.487  1.00  0.00     0.210 A 
HETATM   31  O8  UNL     1     -12.825  16.076  11.521  1.00  0.00    -0.285 OA
HETATM   32  H24 UNL     1     -14.419  15.442  10.377  1.00  0.00     0.169 HD
ENDROOT
BRANCH   4  33
HETATM   33  C7  UNL     1     -10.966  14.505   3.818  1.00  0.00     0.174 C 
BRANCH  33  34
HETATM   34  O1  UNL     1     -12.306  14.117   4.150  1.00  0.00    -0.389 OA
HETATM   35  H11 UNL     1     -12.802  14.936   4.356  1.00  0.00     0.210 HD
ENDBRANCH  33  34
BRANCH  33  36
HETATM   36  C8  UNL     1     -10.968  14.898   2.362  1.00  0.00     0.009 C 
HETATM   37  C9  UNL     1      -9.906  14.909   1.526  1.00  0.00    -0.089 C 
HETATM   38  C10 UNL     1     -10.059  15.309   0.082  1.00  0.00     0.042 C 
HETATM   39  C11 UNL     1      -8.510  14.509   1.920  1.00  0.00     0.042 C 
ENDBRANCH  33  36
ENDBRANCH   4  33
BRANCH   1  40
HETATM   40  C2  UNL     1      -7.691  17.876   3.821  1.00  0.00     0.004 C 
HETATM   41  C1  UNL     1      -6.411  17.226   3.314  1.00  0.00     0.006 C 
ENDBRANCH   1  40
BRANCH  24  42
HETATM   42  O6  UNL     1      -7.346  19.065  10.685  1.00  0.00    -0.359 OA
HETATM   43  H29 UNL     1      -7.127  19.346  11.590  1.00  0.00     0.217 HD
ENDBRANCH  24  42
TORSDOF 5
ENDMDL
MODEL 5
REMARK minimizedAffinity -7.08436441
REMARK CNNscore 0.168154329
REMARK CNNaffinity 5.54829645
REMARK  5 active torsions:
REMARK  status: ('A' for Active; 'I' for Inactive)
REMARK    1  A    between atoms: C2_2  and  C3_3 
REMARK    2  A    between atoms: C6_6  and  C7_7 
REMARK    3  A    between atoms: C7_7  and  O1_8 
REMARK    4  A    between atoms: C7_7  and  C8_9 
REMARK    5  A    between atoms: C26_32  and  O6_33 
ROOT
HETATM    1  C3  UNL     1     -16.433   8.507  25.777  1.00  0.00     0.008 C 
HETATM    2  C4  UNL     1     -14.942   8.798  25.783  1.00  0.00    -0.023 C 
HETATM    3  C5  UNL     1     -14.008   8.202  25.020  1.00  0.00     0.005 C 
HETATM    4  C6  UNL     1     -14.260   7.213  23.905  1.00  0.00     0.187 C 
HETATM    5  O2  UNL     1     -13.992   5.902  24.439  1.00  0.00    -0.308 OA
HETATM    6  C12 UNL     1     -14.767   4.917  23.887  1.00  0.00     0.276 C 
HETATM    7  O3  UNL     1     -15.529   5.100  22.936  1.00  0.00    -0.264 OA
HETATM    8  C13 UNL     1     -14.473   3.522  24.505  1.00  0.00     0.095 C 
HETATM    9  C14 UNL     1     -15.702   2.607  24.294  1.00  0.00     0.036 C 
HETATM   10  C15 UNL     1     -13.391   3.003  23.579  1.00  0.00     0.003 C 
HETATM   11  C16 UNL     1     -12.306   2.258  23.794  1.00  0.00     0.072 C 
HETATM   12  C17 UNL     1     -11.817   1.670  25.039  1.00  0.00     0.245 C 
HETATM   13  O4  UNL     1     -10.921   0.828  24.977  1.00  0.00    -0.268 OA
HETATM   14  N1  UNL     1     -12.285   2.056  26.239  1.00  0.00    -0.320 N 
HETATM   15  C18 UNL     1     -13.241   2.928  26.702  1.00  0.00     0.098 A 
HETATM   16  C19 UNL     1     -14.177   3.592  26.008  1.00  0.00     0.045 A 
HETATM   17  C20 UNL     1     -15.144   4.476  26.772  1.00  0.00     0.194 A 
HETATM   18  O5  UNL     1     -16.056   5.026  26.173  1.00  0.00    -0.287 OA
HETATM   19  C21 UNL     1     -15.013   4.676  28.230  1.00  0.00     0.046 A 
HETATM   20  C22 UNL     1     -14.062   3.932  28.915  1.00  0.00     0.032 A 
HETATM   21  C23 UNL     1     -13.914   4.042  30.311  1.00  0.00     0.026 A 
HETATM   22  C24 UNL     1     -14.711   4.916  31.057  1.00  0.00    -0.027 A 
HETATM   23  C25 UNL     1     -14.515   5.009  32.542  1.00  0.00     0.051 C 
HETATM   24  C26 UNL     1     -15.661   5.679  30.371  1.00  0.00     0.086 A 
HETATM   25  C27 UNL     1     -15.806   5.576  28.969  1.00  0.00     0.059 A 
HETATM   26  C28 UNL     1     -16.810   6.471  28.344  1.00  0.00     0.163 C 
HETATM   27  O7  UNL     1     -17.893   6.014  27.998  1.00  0.00    -0.292 OA
HETATM   28  C29 UNL     1     -16.454   7.948  28.316  1.00  0.00     0.084 C 
HETATM   29  C30 UNL     1     -17.076   8.741  27.163  1.00  0.00     0.016 C 
HETATM   30  C31 UNL     1     -13.168   3.024  28.198  1.00  0.00     0.210 A 
HETATM   31  O8  UNL     1     -12.346   2.348  28.814  1.00  0.00    -0.285 OA
HETATM   32  H24 UNL     1     -11.752   1.602  26.986  1.00  0.00     0.169 HD
ENDROOT
BRANCH   4  33
HETATM   33  C7  UNL     1     -13.358   7.471  22.651  1.00  0.00     0.174 C 
BRANCH  33  34
HETATM   34  O1  UNL     1     -13.983   6.999  21.450  1.00  0.00    -0.389 OA
HETATM   35  H11 UNL     1     -14.932   7.236  21.505  1.00  0.00     0.210 HD
ENDBRANCH  33  34
BRANCH  33  36
HETATM   36  C8  UNL     1     -13.030   8.928  22.434  1.00  0.00     0.009 C 
HETATM   37  C9  UNL     1     -11.891   9.562  22.789  1.00  0.00    -0.089 C 
HETATM   38  C10 UNL     1     -11.691  11.024  22.492  1.00  0.00     0.042 C 
HETATM   39  C11 UNL     1     -10.724   8.896  23.469  1.00  0.00     0.042 C 
ENDBRANCH  33  36
ENDBRANCH   4  33
BRANCH   1  40
HETATM   40  C2  UNL     1     -17.173   9.316  24.686  1.00  0.00     0.004 C 
HETATM   41  C1  UNL     1     -17.258   8.654  23.317  1.00  0.00     0.006 C 
ENDBRANCH   1  40
BRANCH  24  42
HETATM   42  O6  UNL     1     -16.464   6.553  31.051  1.00  0.00    -0.359 OA
HETATM   43  H29 UNL     1     -16.522   6.303  31.989  1.00  0.00     0.217 HD
ENDBRANCH  24  42
TORSDOF 5
ENDMDL
MODEL 6
REMARK minimizedAffinity -6.96739101
REMARK CNNscore 0.161135226
REMARK CNNaffinity 5.04462051
REMARK  5 active torsions:
REMARK  status: ('A' for Active; 'I' for Inactive)
REMARK    1  A    between atoms: C2_2  and  C3_3 
REMARK    2  A    between atoms: C6_6  and  C7_7 
REMARK    3  A    between atoms: C7_7  and  O1_8 
REMARK    4  A    between atoms: C7_7  and  C8_9 
REMARK    5  A    between atoms: C26_32  and  O6_33 
ROOT
HETATM    1  C3  UNL     1     -15.526   7.160  14.358  1.00  0.00     0.008 C 
HETATM    2  C4  UNL     1     -15.313   7.187  12.854  1.00  0.00    -0.023 C 
HETATM    3  C5  UNL     1     -16.237   7.481  11.920  1.00  0.00     0.005 C 
HETATM    4  C6  UNL     1     -17.643   7.973  12.175  1.00  0.00     0.187 C 
HETATM    5  O2  UNL     1     -18.519   6.840  12.017  1.00  0.00    -0.308 OA
HETATM    6  C12 UNL     1     -19.625   6.886  12.822  1.00  0.00     0.276 C 
HETATM    7  O3  UNL     1     -19.921   7.856  13.522  1.00  0.00    -0.264 OA
HETATM    8  C13 UNL     1     -20.533   5.637  12.646  1.00  0.00     0.095 C 
HETATM    9  C14 UNL     1     -21.396   5.457  13.917  1.00  0.00     0.036 C 
HETATM   10  C15 UNL     1     -21.476   6.099  11.552  1.00  0.00     0.003 C 
HETATM   11  C16 UNL     1     -22.043   5.461  10.528  1.00  0.00     0.072 C 
HETATM   12  C17 UNL     1     -21.944   4.056  10.140  1.00  0.00     0.245 C 
HETATM   13  O4  UNL     1     -22.728   3.624   9.296  1.00  0.00    -0.268 OA
HETATM   14  N1  UNL     1     -20.997   3.245  10.644  1.00  0.00    -0.320 N 
HETATM   15  C18 UNL     1     -19.984   3.349  11.566  1.00  0.00     0.098 A 
HETATM   16  C19 UNL     1     -19.729   4.349  12.424  1.00  0.00     0.045 A 
HETATM   17  C20 UNL     1     -18.555   4.201  13.372  1.00  0.00     0.194 A 
HETATM   18  O5  UNL     1     -18.353   5.059  14.216  1.00  0.00    -0.287 OA
HETATM   19  C21 UNL     1     -17.657   3.029  13.303  1.00  0.00     0.046 A 
HETATM   20  C22 UNL     1     -17.985   1.996  12.436  1.00  0.00     0.032 A 
HETATM   21  C23 UNL     1     -17.196   0.832  12.352  1.00  0.00     0.026 A 
HETATM   22  C24 UNL     1     -16.045   0.682  13.131  1.00  0.00    -0.027 A 
HETATM   23  C25 UNL     1     -15.228  -0.571  13.005  1.00  0.00     0.051 C 
HETATM   24  C26 UNL     1     -15.701   1.725  13.996  1.00  0.00     0.086 A 
HETATM   25  C27 UNL     1     -16.486   2.896  14.076  1.00  0.00     0.059 A 
HETATM   26  C28 UNL     1     -15.996   3.957  14.989  1.00  0.00     0.163 C 
HETATM   27  O7  UNL     1     -16.534   4.110  16.080  1.00  0.00    -0.292 OA
HETATM   28  C29 UNL     1     -14.741   4.688  14.542  1.00  0.00     0.084 C 
HETATM   29  C30 UNL     1     -14.613   6.125  15.054  1.00  0.00     0.016 C 
HETATM   30  C31 UNL     1     -19.155   2.099  11.564  1.00  0.00     0.210 A 
HETATM   31  O8  UNL     1     -19.455   1.169  10.818  1.00  0.00    -0.285 OA
HETATM   32  H24 UNL     1     -21.032   2.334  10.179  1.00  0.00     0.169 HD
ENDROOT
BRANCH   4  33
HETATM   33  C7  UNL     1     -18.071   9.118  11.197  1.00  0.00     0.174 C 
BRANCH  33  34
HETATM   34  O1  UNL     1     -16.963   9.580  10.414  1.00  0.00    -0.389 OA
HETATM   35  H11 UNL     1     -16.449   8.790  10.147  1.00  0.00     0.210 HD
ENDBRANCH  33  34
BRANCH  33  36
HETATM   36  C8  UNL     1     -19.155   8.710  10.230  1.00  0.00     0.009 C 
HETATM   37  C9  UNL     1     -20.356   9.308  10.062  1.00  0.00    -0.089 C 
HETATM   38  C10 UNL     1     -21.339   8.801   9.040  1.00  0.00     0.042 C 
HETATM   39  C11 UNL     1     -20.816  10.519  10.827  1.00  0.00     0.042 C 
ENDBRANCH  33  36
ENDBRANCH   4  33
BRANCH   1  40
HETATM   40  C2  UNL     1     -15.351   8.560  14.989  1.00  0.00     0.004 C 
HETATM   41  C1  UNL     1     -14.192   9.387  14.450  1.00  0.00     0.006 C 
ENDBRANCH   1  40
BRANCH  24  42
HETATM   42  O6  UNL     1     -14.581   1.631  14.777  1.00  0.00    -0.359 OA
HETATM   43  H29 UNL     1     -14.328   0.700  14.898  1.00  0.00     0.217 HD
ENDBRANCH  24  42
TORSDOF 5
ENDMDL
MODEL 7
REMARK minimizedAffinity -7.08934164
REMARK CNNscore 0.149875417
REMARK CNNaffinity 5.89051199
REMARK  5 active torsions:
REMARK  status: ('A' for Active; 'I' for Inactive)
REMARK    1  A    between atoms: C2_2  and  C3_3 
REMARK    2  A    between atoms: C6_6  and  C7_7 
REMARK    3  A    between atoms: C7_7  and  O1_8 
REMARK    4  A    between atoms: C7_7  and  C8_9 
REMARK    5  A    between atoms: C26_32  and  O6_33 
ROOT
HETATM    1  C3  UNL     1      -1.168  16.489   1.453  1.00  0.00     0.008 C 
HETATM    2  C4  UNL     1      -1.108  15.018   1.826  1.00  0.00    -0.023 C 
HETATM    3  C5  UNL     1      -0.114  14.401   2.492  1.00  0.00     0.005 C 
HETATM    4  C6  UNL     1       1.088  15.066   3.124  1.00  0.00     0.187 C 
HETATM    5  O2  UNL     1       2.196  14.869   2.224  1.00  0.00    -0.308 OA
HETATM    6  C12 UNL     1       3.105  15.893   2.242  1.00  0.00     0.276 C 
HETATM    7  O3  UNL     1       3.060  16.832   3.037  1.00  0.00    -0.264 OA
HETATM    8  C13 UNL     1       4.271  15.661   1.241  1.00  0.00     0.095 C 
HETATM    9  C14 UNL     1       4.910  17.024   0.886  1.00  0.00     0.036 C 
HETATM   10  C15 UNL     1       5.277  14.932   2.111  1.00  0.00     0.003 C 
HETATM   11  C16 UNL     1       6.141  13.949   1.855  1.00  0.00     0.072 C 
HETATM   12  C17 UNL     1       6.410  13.256   0.598  1.00  0.00     0.245 C 
HETATM   13  O4  UNL     1       7.407  12.538   0.526  1.00  0.00    -0.268 OA
HETATM   14  N1  UNL     1       5.580  13.348  -0.457  1.00  0.00    -0.320 N 
HETATM   15  C18 UNL     1       4.419  14.019  -0.755  1.00  0.00     0.098 A 
HETATM   16  C19 UNL     1       3.810  14.992  -0.060  1.00  0.00     0.045 A 
HETATM   17  C20 UNL     1       2.542  15.597  -0.631  1.00  0.00     0.194 A 
HETATM   18  O5  UNL     1       2.015  16.539  -0.059  1.00  0.00    -0.287 OA
HETATM   19  C21 UNL     1       1.938  15.077  -1.876  1.00  0.00     0.046 A 
HETATM   20  C22 UNL     1       2.626  14.105  -2.588  1.00  0.00     0.032 A 
HETATM   21  C23 UNL     1       2.128  13.599  -3.804  1.00  0.00     0.026 A 
HETATM   22  C24 UNL     1       0.913  14.047  -4.330  1.00  0.00    -0.027 A 
HETATM   23  C25 UNL     1       0.414  13.475  -5.625  1.00  0.00     0.051 C 
HETATM   24  C26 UNL     1       0.208  15.016  -3.611  1.00  0.00     0.086 A 
HETATM   25  C27 UNL     1       0.702  15.521  -2.387  1.00  0.00     0.059 A 
HETATM   26  C28 UNL     1      -0.157  16.506  -1.687  1.00  0.00     0.163 C 
HETATM   27  O7  UNL     1       0.132  17.697  -1.730  1.00  0.00    -0.292 OA
HETATM   28  C29 UNL     1      -1.436  15.956  -1.078  1.00  0.00     0.084 C 
HETATM   29  C30 UNL     1      -1.953  16.723   0.142  1.00  0.00     0.016 C 
HETATM   30  C31 UNL     1       3.886  13.562  -2.080  1.00  0.00     0.210 A 
HETATM   31  O8  UNL     1       4.504  12.720  -2.729  1.00  0.00    -0.285 OA
HETATM   32  H24 UNL     1       5.889  12.718  -1.202  1.00  0.00     0.169 HD
ENDROOT
BRANCH   4  33
HETATM   33  C7  UNL     1       1.435  14.479   4.533  1.00  0.00     0.174 C 
BRANCH  33  34
HETATM   34  O1  UNL     1       2.813  14.091   4.613  1.00  0.00    -0.389 OA
HETATM   35  H11 UNL     1       3.336  14.784   4.162  1.00  0.00     0.210 HD
ENDBRANCH  33  34
BRANCH  33  36
HETATM   36  C8  UNL     1       1.180  15.441   5.666  1.00  0.00     0.009 C 
HETATM   37  C9  UNL     1      -0.014  15.729   6.229  1.00  0.00    -0.089 C 
HETATM   38  C10 UNL     1      -0.118  16.703   7.374  1.00  0.00     0.042 C 
HETATM   39  C11 UNL     1      -1.322  15.110   5.813  1.00  0.00     0.042 C 
ENDBRANCH  33  36
ENDBRANCH   4  33
BRANCH   1  40
HETATM   40  C2  UNL     1      -1.744  17.351   2.599  1.00  0.00     0.004 C 
HETATM   41  C1  UNL     1      -3.120  16.940   3.107  1.00  0.00     0.006 C 
ENDBRANCH   1  40
BRANCH  24  42
HETATM   42  O6  UNL     1      -0.989  15.487  -4.079  1.00  0.00    -0.359 OA
HETATM   43  H29 UNL     1      -1.059  15.344  -5.038  1.00  0.00     0.217 HD
ENDBRANCH  24  42
TORSDOF 5
ENDMDL
MODEL 8
REMARK minimizedAffinity -7.09598923
REMARK CNNscore 0.133165941
REMARK CNNaffinity 4.82361031
REMARK  5 active torsions:
REMARK  status: ('A' for Active; 'I' for Inactive)
REMARK    1  A    between atoms: C2_2  and  C3_3 
REMARK    2  A    between atoms: C6_6  and  C7_7 
REMARK    3  A    between atoms: C7_7  and  O1_8 
REMARK    4  A    between atoms: C7_7  and  C8_9 
REMARK    5  A    between atoms: C26_32  and  O6_33 
ROOT
HETATM    1  C3  UNL     1     -14.589  -3.676  11.249  1.00  0.00     0.008 C 
HETATM    2  C4  UNL     1     -13.398  -3.853  12.175  1.00  0.00    -0.023 C 
HETATM    3  C5  UNL     1     -13.183  -4.883  13.014  1.00  0.00     0.005 C 
HETATM    4  C6  UNL     1     -14.013  -6.143  13.117  1.00  0.00     0.187 C 
HETATM    5  O2  UNL     1     -14.867  -5.989  14.267  1.00  0.00    -0.308 OA
HETATM    6  C12 UNL     1     -16.075  -6.620  14.140  1.00  0.00     0.276 C 
HETATM    7  O3  UNL     1     -16.365  -7.357  13.197  1.00  0.00    -0.264 OA
HETATM    8  C13 UNL     1     -16.982  -6.411  15.385  1.00  0.00     0.095 C 
HETATM    9  C14 UNL     1     -18.458  -6.623  14.976  1.00  0.00     0.036 C 
HETATM   10  C15 UNL     1     -16.601  -7.604  16.241  1.00  0.00     0.003 C 
HETATM   11  C16 UNL     1     -16.471  -7.759  17.559  1.00  0.00     0.072 C 
HETATM   12  C17 UNL     1     -16.686  -6.791  18.632  1.00  0.00     0.245 C 
HETATM   13  O4  UNL     1     -16.733  -7.201  19.791  1.00  0.00    -0.268 OA
HETATM   14  N1  UNL     1     -16.788  -5.472  18.389  1.00  0.00    -0.320 N 
HETATM   15  C18 UNL     1     -16.786  -4.660  17.281  1.00  0.00     0.098 A 
HETATM   16  C19 UNL     1     -16.845  -5.006  15.987  1.00  0.00     0.045 A 
HETATM   17  C20 UNL     1     -16.863  -3.902  14.948  1.00  0.00     0.194 A 
HETATM   18  O5  UNL     1     -16.999  -4.189  13.768  1.00  0.00    -0.287 OA
HETATM   19  C21 UNL     1     -16.733  -2.482  15.335  1.00  0.00     0.046 A 
HETATM   20  C22 UNL     1     -16.723  -2.165  16.686  1.00  0.00     0.032 A 
HETATM   21  C23 UNL     1     -16.645  -0.828  17.123  1.00  0.00     0.026 A 
HETATM   22  C24 UNL     1     -16.559   0.227  16.211  1.00  0.00    -0.027 A 
HETATM   23  C25 UNL     1     -16.469   1.637  16.719  1.00  0.00     0.051 C 
HETATM   24  C26 UNL     1     -16.553  -0.086  14.849  1.00  0.00     0.086 A 
HETATM   25  C27 UNL     1     -16.624  -1.427  14.407  1.00  0.00     0.059 A 
HETATM   26  C28 UNL     1     -16.557  -1.642  12.942  1.00  0.00     0.163 C 
HETATM   27  O7  UNL     1     -17.584  -1.899  12.322  1.00  0.00    -0.292 OA
HETATM   28  C29 UNL     1     -15.208  -1.377  12.294  1.00  0.00     0.084 C 
HETATM   29  C30 UNL     1     -14.932  -2.186  11.024  1.00  0.00     0.016 C 
HETATM   30  C31 UNL     1     -16.774  -3.219  17.699  1.00  0.00     0.210 A 
HETATM   31  O8  UNL     1     -16.793  -2.929  18.894  1.00  0.00    -0.285 OA
HETATM   32  H24 UNL     1     -16.837  -4.956  19.272  1.00  0.00     0.169 HD
ENDROOT
BRANCH   4  33
HETATM   33  C7  UNL     1     -13.140  -7.433  13.271  1.00  0.00     0.174 C 
BRANCH  33  34
HETATM   34  O1  UNL     1     -11.753  -7.158  13.031  1.00  0.00    -0.389 OA
HETATM   35  H11 UNL     1     -11.550  -6.302  13.459  1.00  0.00     0.210 HD
ENDBRANCH  33  34
BRANCH  33  36
HETATM   36  C8  UNL     1     -13.235  -8.066  14.637  1.00  0.00     0.009 C 
HETATM   37  C9  UNL     1     -12.653  -7.625  15.774  1.00  0.00    -0.089 C 
HETATM   38  C10 UNL     1     -12.851  -8.351  17.079  1.00  0.00     0.042 C 
HETATM   39  C11 UNL     1     -11.798  -6.390  15.869  1.00  0.00     0.042 C 
ENDBRANCH  33  36
ENDBRANCH   4  33
BRANCH   1  40
HETATM   40  C2  UNL     1     -14.382  -4.402   9.900  1.00  0.00     0.004 C 
HETATM   41  C1  UNL     1     -13.792  -3.557   8.779  1.00  0.00     0.006 C 
ENDBRANCH   1  40
BRANCH  24  42
HETATM   42  O6  UNL     1     -16.466   0.908  13.913  1.00  0.00    -0.359 OA
HETATM   43  H29 UNL     1     -16.760   1.756  14.289  1.00  0.00     0.217 HD
ENDBRANCH  24  42
TORSDOF 5
ENDMDL
MODEL 9
REMARK minimizedAffinity -6.60917187
REMARK CNNscore 0.127556458
REMARK CNNaffinity 5.13362169
REMARK  5 active torsions:
REMARK  status: ('A' for Active; 'I' for Inactive)
REMARK    1  A    between atoms: C2_2  and  C3_3 
REMARK    2  A    between atoms: C6_6  and  C7_7 
REMARK    3  A    between atoms: C7_7  and  O1_8 
REMARK    4  A    between atoms: C7_7  and  C8_9 
REMARK    5  A    between atoms: C26_32  and  O6_33 
ROOT
HETATM    1  C3  UNL     1     -17.962  -5.126  11.419  1.00  0.00     0.008 C 
HETATM    2  C4  UNL     1     -16.847  -4.488  10.609  1.00  0.00    -0.023 C 
HETATM    3  C5  UNL     1     -15.766  -3.852  11.097  1.00  0.00     0.005 C 
HETATM    4  C6  UNL     1     -15.367  -3.752  12.551  1.00  0.00     0.187 C 
HETATM    5  O2  UNL     1     -15.765  -2.445  13.007  1.00  0.00    -0.308 OA
HETATM    6  C12 UNL     1     -16.120  -2.410  14.329  1.00  0.00     0.276 C 
HETATM    7  O3  UNL     1     -15.992  -3.366  15.096  1.00  0.00    -0.264 OA
HETATM    8  C13 UNL     1     -16.571  -0.992  14.779  1.00  0.00     0.095 C 
HETATM    9  C14 UNL     1     -17.469  -1.123  16.032  1.00  0.00     0.036 C 
HETATM   10  C15 UNL     1     -15.260  -0.395  15.255  1.00  0.00     0.003 C 
HETATM   11  C16 UNL     1     -14.758   0.838  15.186  1.00  0.00     0.072 C 
HETATM   12  C17 UNL     1     -15.351   2.051  14.627  1.00  0.00     0.245 C 
HETATM   13  O4  UNL     1     -14.815   3.131  14.870  1.00  0.00    -0.268 OA
HETATM   14  N1  UNL     1     -16.430   2.009  13.824  1.00  0.00    -0.320 N 
HETATM   15  C18 UNL     1     -17.275   1.040  13.340  1.00  0.00     0.098 A 
HETATM   16  C19 UNL     1     -17.361  -0.251  13.694  1.00  0.00     0.045 A 
HETATM   17  C20 UNL     1     -18.415  -1.110  13.024  1.00  0.00     0.194 A 
HETATM   18  O5  UNL     1     -18.568  -2.266  13.387  1.00  0.00    -0.287 OA
HETATM   19  C21 UNL     1     -19.271  -0.573  11.945  1.00  0.00     0.046 A 
HETATM   20  C22 UNL     1     -19.181   0.779  11.644  1.00  0.00     0.032 A 
HETATM   21  C23 UNL     1     -19.999   1.364  10.657  1.00  0.00     0.026 A 
HETATM   22  C24 UNL     1     -20.920   0.600   9.935  1.00  0.00    -0.027 A 
HETATM   23  C25 UNL     1     -21.766   1.262   8.886  1.00  0.00     0.051 C 
HETATM   24  C26 UNL     1     -21.004  -0.765  10.223  1.00  0.00     0.086 A 
HETATM   25  C27 UNL     1     -20.181  -1.356  11.207  1.00  0.00     0.059 A 
HETATM   26  C28 UNL     1     -20.321  -2.821  11.391  1.00  0.00     0.163 C 
HETATM   27  O7  UNL     1     -20.944  -3.251  12.355  1.00  0.00    -0.292 OA
HETATM   28  C29 UNL     1     -19.789  -3.684  10.259  1.00  0.00     0.084 C 
HETATM   29  C30 UNL     1     -19.317  -5.079  10.678  1.00  0.00     0.016 C 
HETATM   30  C31 UNL     1     -18.215   1.634  12.333  1.00  0.00     0.210 A 
HETATM   31  O8  UNL     1     -18.160   2.836  12.080  1.00  0.00    -0.285 OA
HETATM   32  H24 UNL     1     -16.631   2.945  13.459  1.00  0.00     0.169 HD
ENDROOT
BRANCH   4  33
HETATM   33  C7  UNL     1     -13.829  -3.947  12.772  1.00  0.00     0.174 C 
BRANCH  33  34
HETATM   34  O1  UNL     1     -13.138  -2.692  12.778  1.00  0.00    -0.389 OA
HETATM   35  H11 UNL     1     -13.690  -2.059  13.281  1.00  0.00     0.210 HD
ENDBRANCH  33  34
BRANCH  33  36
HETATM   36  C8  UNL     1     -13.490  -4.644  14.067  1.00  0.00     0.009 C 
HETATM   37  C9  UNL     1     -13.078  -5.923  14.213  1.00  0.00    -0.089 C 
HETATM   38  C10 UNL     1     -12.755  -6.483  15.573  1.00  0.00     0.042 C 
HETATM   39  C11 UNL     1     -12.874  -6.885  13.074  1.00  0.00     0.042 C 
ENDBRANCH  33  36
ENDBRANCH   4  33
BRANCH   1  40
HETATM   40  C2  UNL     1     -17.614  -6.573  11.837  1.00  0.00     0.004 C 
HETATM   41  C1  UNL     1     -17.166  -6.753  13.281  1.00  0.00     0.006 C 
ENDBRANCH   1  40
BRANCH  24  42
HETATM   42  O6  UNL     1     -21.887  -1.560   9.543  1.00  0.00    -0.359 OA
HETATM   43  H29 UNL     1     -22.605  -1.024   9.164  1.00  0.00     0.217 HD
ENDBRANCH  24  42
TORSDOF 5
ENDMDL
