MODEL 1
REMARK minimizedAffinity -9.81809616
REMARK CNNscore 0.479801536
REMARK CNNaffinity 7.36680937
REMARK  12 active torsions:
REMARK  status: ('A' for Active; 'I' for Inactive)
REMARK    1  A    between atoms: C3_3  and  O1_4 
REMARK    2  A    between atoms: N1_14  and  O2_16 
REMARK    3  A    between atoms: O2_16  and  C13_17 
REMARK    4  A    between atoms: C13_17  and  C14_18 
REMARK       I    between atoms: C14_18  and  N2_20 
REMARK    5  A    between atoms: N2_20  and  C15_21 
REMARK    6  A    between atoms: C15_21  and  C16_22 
REMARK    7  A    between atoms: C15_21  and  C26_36 
REMARK       I    between atoms: C16_22  and  N3_24 
REMARK    8  A    between atoms: N3_24  and  C17_25 
REMARK    9  A    between atoms: C17_25  and  C18_26 
REMARK   10  A    between atoms: C17_25  and  C25_33 
REMARK   11  A    between atoms: C18_26  and  C19_27 
REMARK   12  A    between atoms: C25_33  and  O6_35 
ROOT
HETATM    1  C1  UNL     1      -7.464  46.771 -23.403  1.00  0.00     0.015 C 
HETATM    2  C2  UNL     1      -7.062  47.904 -23.348  1.00  0.00    -0.078 C 
HETATM    3  C3  UNL     1      -6.553  49.295 -23.281  1.00  0.00     0.128 C 
HETATM    4  C4  UNL     1      -7.065  49.976 -22.000  1.00  0.00     0.052 C 
HETATM    5  C5  UNL     1      -5.936  49.836 -20.962  1.00  0.00     0.010 C 
HETATM    6  C6  UNL     1      -4.807  49.042 -21.650  1.00  0.00     0.002 C 
HETATM    7  C7  UNL     1      -3.368  49.226 -21.114  1.00  0.00    -0.004 C 
HETATM    8  C8  UNL     1      -3.318  49.330 -19.573  1.00  0.00     0.010 C 
HETATM    9  C9  UNL     1      -3.043  50.742 -19.073  1.00  0.00     0.035 C 
HETATM   10  C10 UNL     1      -1.745  51.282 -19.608  1.00  0.00    -0.069 C 
HETATM   11  C11 UNL     1      -1.000  52.124 -18.865  1.00  0.00     0.030 C 
HETATM   12  C12 UNL     1       0.304  52.648 -19.370  1.00  0.00     0.032 C 
HETATM   13  N1  UNL     1       1.253  53.151 -18.640  1.00  0.00    -0.271 N 
ATOM     14  H1  UNL     1       2.144  53.479 -19.011  1.00  0.00     0.194 HD
HETATM   15  C29 UNL     1       0.586  52.551 -20.863  1.00  0.00     0.060 C 
HETATM   16  C30 UNL     1      -0.607  52.046 -21.668  1.00  0.00     0.020 C 
HETATM   17  C31 UNL     1      -1.312  50.833 -21.002  1.00  0.00    -0.016 C 
HETATM   18  C32 UNL     1      -0.278  49.676 -20.877  1.00  0.00     0.020 C 
HETATM   19  C33 UNL     1      -2.528  50.311 -21.862  1.00  0.00     0.002 C 
HETATM   20  C34 UNL     1      -3.435  51.387 -22.469  1.00  0.00     0.007 C 
HETATM   21  C35 UNL     1      -4.479  50.830 -23.447  1.00  0.00     0.014 C 
HETATM   22  C36 UNL     1      -4.996  49.389 -23.142  1.00  0.00     0.003 C 
HETATM   23  C37 UNL     1      -4.268  48.399 -24.076  1.00  0.00     0.020 C 
ENDROOT
BRANCH   3  24
HETATM   24  O1  UNL     1      -7.026  50.003 -24.419  1.00  0.00    -0.377 OA
HETATM   25  H2  UNL     1      -6.998  49.389 -25.174  1.00  0.00     0.211 HD
ENDBRANCH   3  24
BRANCH  13  26
HETATM   26  O2  UNL     1       0.907  53.190 -17.278  1.00  0.00    -0.271 OA
BRANCH  26  27
HETATM   27  C13 UNL     1       1.834  52.421 -16.536  1.00  0.00     0.303 C 
BRANCH  27  28
HETATM   28  C14 UNL     1       1.261  51.587 -15.386  1.00  0.00     0.244 C 
HETATM   29  O3  UNL     1       1.318  50.361 -15.306  1.00  0.00    -0.271 OA
HETATM   30  N2  UNL     1       0.676  52.368 -14.392  1.00  0.00    -0.346 N 
HETATM   31  H16 UNL     1       1.034  53.316 -14.328  1.00  0.00     0.163 HD
BRANCH  30  32
HETATM   32  C15 UNL     1       0.338  51.759 -13.103  1.00  0.00     0.180 C 
BRANCH  32  33
HETATM   33  C16 UNL     1       1.137  52.532 -12.027  1.00  0.00     0.241 C 
HETATM   34  O4  UNL     1       2.167  52.077 -11.526  1.00  0.00    -0.271 OA
HETATM   35  N3  UNL     1       0.627  53.774 -11.707  1.00  0.00    -0.345 N 
HETATM   36  H18 UNL     1      -0.348  53.939 -11.957  1.00  0.00     0.163 HD
BRANCH  35  37
HETATM   37  C17 UNL     1       1.033  54.452 -10.466  1.00  0.00     0.186 C 
BRANCH  37  38
HETATM   38  C18 UNL     1       1.915  55.663 -10.785  1.00  0.00     0.074 C 
BRANCH  38  39
HETATM   39  C19 UNL     1       3.230  55.633 -10.043  1.00  0.00    -0.056 A 
HETATM   40  C20 UNL     1       3.437  56.476  -8.945  1.00  0.00     0.007 A 
HETATM   41  C21 UNL     1       4.655  56.466  -8.265  1.00  0.00     0.001 A 
HETATM   42  C22 UNL     1       5.682  55.621  -8.676  1.00  0.00     0.000 A 
HETATM   43  C23 UNL     1       5.493  54.790  -9.780  1.00  0.00     0.001 A 
HETATM   44  C24 UNL     1       4.275  54.792 -10.459  1.00  0.00     0.007 A 
ENDBRANCH  38  39
ENDBRANCH  37  38
BRANCH  37  45
HETATM   45  C25 UNL     1      -0.234  54.889  -9.719  1.00  0.00     0.163 C 
HETATM   46  O5  UNL     1      -0.502  54.714  -8.542  1.00  0.00    -0.648 OA
BRANCH  45  47
HETATM   47  O6  UNL     1      -1.104  55.571 -10.509  1.00  0.00    -0.775 OA
HETATM   48  H27 UNL     1      -1.882  55.713  -9.931  1.00  0.00     0.167 HD
ENDBRANCH  45  47
ENDBRANCH  37  45
ENDBRANCH  35  37
ENDBRANCH  32  33
BRANCH  32  49
HETATM   49  C26 UNL     1      -1.188  51.760 -12.861  1.00  0.00     0.009 C 
HETATM   50  C27 UNL     1      -1.958  51.218 -14.073  1.00  0.00     0.012 C 
HETATM   51  C28 UNL     1      -1.615  51.002 -11.597  1.00  0.00     0.012 C 
ENDBRANCH  32  49
ENDBRANCH  30  32
ENDBRANCH  27  28
ENDBRANCH  26  27
ENDBRANCH  13  26
TORSDOF 12
ENDMDL
MODEL 2
REMARK minimizedAffinity -8.66290092
REMARK CNNscore 0.476166576
REMARK CNNaffinity 6.84951925
REMARK  12 active torsions:
REMARK  status: ('A' for Active; 'I' for Inactive)
REMARK    1  A    between atoms: C3_3  and  O1_4 
REMARK    2  A    between atoms: N1_14  and  O2_16 
REMARK    3  A    between atoms: O2_16  and  C13_17 
REMARK    4  A    between atoms: C13_17  and  C14_18 
REMARK       I    between atoms: C14_18  and  N2_20 
REMARK    5  A    between atoms: N2_20  and  C15_21 
REMARK    6  A    between atoms: C15_21  and  C16_22 
REMARK    7  A    between atoms: C15_21  and  C26_36 
REMARK       I    between atoms: C16_22  and  N3_24 
REMARK    8  A    between atoms: N3_24  and  C17_25 
REMARK    9  A    between atoms: C17_25  and  C18_26 
REMARK   10  A    between atoms: C17_25  and  C25_33 
REMARK   11  A    between atoms: C18_26  and  C19_27 
REMARK   12  A    between atoms: C25_33  and  O6_35 
ROOT
HETATM    1  C1  UNL     1       2.150  51.803 -26.411  1.00  0.00     0.015 C 
HETATM    2  C2  UNL     1       0.994  52.135 -26.356  1.00  0.00    -0.078 C 
HETATM    3  C3  UNL     1      -0.431  52.535 -26.277  1.00  0.00     0.128 C 
HETATM    4  C4  UNL     1      -1.166  52.105 -27.558  1.00  0.00     0.052 C 
HETATM    5  C5  UNL     1      -1.840  50.760 -27.231  1.00  0.00     0.010 C 
HETATM    6  C6  UNL     1      -1.451  50.418 -25.778  1.00  0.00     0.002 C 
HETATM    7  C7  UNL     1      -2.389  49.480 -24.984  1.00  0.00    -0.004 C 
HETATM    8  C8  UNL     1      -2.952  48.331 -25.850  1.00  0.00     0.010 C 
HETATM    9  C9  UNL     1      -4.422  48.511 -26.210  1.00  0.00     0.035 C 
HETATM   10  C10 UNL     1      -5.287  48.623 -24.984  1.00  0.00    -0.069 C 
HETATM   11  C11 UNL     1      -6.545  48.140 -24.993  1.00  0.00     0.030 C 
HETATM   12  C12 UNL     1      -7.408  48.220 -23.777  1.00  0.00     0.032 C 
HETATM   13  N1  UNL     1      -8.463  47.497 -23.548  1.00  0.00    -0.271 N 
ATOM     14  H1  UNL     1      -9.020  47.556 -22.695  1.00  0.00     0.194 HD
HETATM   15  C29 UNL     1      -7.009  49.192 -22.676  1.00  0.00     0.060 C 
HETATM   16  C30 UNL     1      -5.826  50.076 -23.055  1.00  0.00     0.020 C 
HETATM   17  C31 UNL     1      -4.682  49.285 -23.749  1.00  0.00    -0.016 C 
HETATM   18  C32 UNL     1      -4.181  48.189 -22.764  1.00  0.00     0.020 C 
HETATM   19  C33 UNL     1      -3.458  50.213 -24.110  1.00  0.00     0.002 C 
HETATM   20  C34 UNL     1      -3.803  51.584 -24.701  1.00  0.00     0.007 C 
HETATM   21  C35 UNL     1      -2.589  52.511 -24.853  1.00  0.00     0.014 C 
HETATM   22  C36 UNL     1      -1.227  51.806 -25.142  1.00  0.00     0.003 C 
HETATM   23  C37 UNL     1      -0.425  51.730 -23.825  1.00  0.00     0.020 C 
ENDROOT
BRANCH   3  24
HETATM   24  O1  UNL     1      -0.495  53.949 -26.142  1.00  0.00    -0.377 OA
HETATM   25  H2  UNL     1       0.237  54.217 -25.561  1.00  0.00     0.211 HD
ENDBRANCH   3  24
BRANCH  13  26
HETATM   26  O2  UNL     1      -8.746  46.624 -24.613  1.00  0.00    -0.271 OA
BRANCH  26  27
HETATM   27  C13 UNL     1      -8.532  45.289 -24.195  1.00  0.00     0.303 C 
BRANCH  27  28
HETATM   28  C14 UNL     1      -9.685  44.619 -23.440  1.00  0.00     0.244 C 
HETATM   29  O3  UNL     1      -9.675  44.339 -22.243  1.00  0.00    -0.271 OA
HETATM   30  N2  UNL     1     -10.791  44.374 -24.251  1.00  0.00    -0.346 N 
HETATM   31  H16 UNL     1     -10.874  44.987 -25.056  1.00  0.00     0.163 HD
BRANCH  30  32
HETATM   32  C15 UNL     1     -12.067  44.004 -23.634  1.00  0.00     0.180 C 
BRANCH  32  33
HETATM   33  C16 UNL     1     -12.917  45.295 -23.573  1.00  0.00     0.241 C 
HETATM   34  O4  UNL     1     -12.575  46.331 -24.149  1.00  0.00    -0.271 OA
HETATM   35  N3  UNL     1     -14.093  45.181 -22.861  1.00  0.00    -0.345 N 
HETATM   36  H18 UNL     1     -14.152  44.400 -22.209  1.00  0.00     0.163 HD
BRANCH  35  37
HETATM   37  C17 UNL     1     -14.805  46.382 -22.396  1.00  0.00     0.186 C 
BRANCH  37  38
HETATM   38  C18 UNL     1     -13.815  47.395 -21.811  1.00  0.00     0.074 C 
BRANCH  38  39
HETATM   39  C19 UNL     1     -13.927  47.512 -20.310  1.00  0.00    -0.056 A 
HETATM   40  C20 UNL     1     -12.785  47.395 -19.508  1.00  0.00     0.007 A 
HETATM   41  C21 UNL     1     -12.883  47.485 -18.120  1.00  0.00     0.001 A 
HETATM   42  C22 UNL     1     -14.121  47.685 -17.515  1.00  0.00     0.000 A 
HETATM   43  C23 UNL     1     -15.268  47.785 -18.302  1.00  0.00     0.001 A 
HETATM   44  C24 UNL     1     -15.173  47.701 -19.691  1.00  0.00     0.007 A 
ENDBRANCH  38  39
ENDBRANCH  37  38
BRANCH  37  45
HETATM   45  C25 UNL     1     -15.556  46.989 -23.589  1.00  0.00     0.163 C 
HETATM   46  O5  UNL     1     -15.358  48.067 -24.124  1.00  0.00    -0.648 OA
BRANCH  45  47
HETATM   47  O6  UNL     1     -16.520  46.166 -24.080  1.00  0.00    -0.775 OA
HETATM   48  H27 UNL     1     -16.958  46.706 -24.770  1.00  0.00     0.167 HD
ENDBRANCH  45  47
ENDBRANCH  37  45
ENDBRANCH  35  37
ENDBRANCH  32  33
BRANCH  32  49
HETATM   49  C26 UNL     1     -12.751  42.849 -24.399  1.00  0.00     0.009 C 
HETATM   50  C27 UNL     1     -12.971  43.195 -25.878  1.00  0.00     0.012 C 
HETATM   51  C28 UNL     1     -12.013  41.508 -24.286  1.00  0.00     0.012 C 
ENDBRANCH  32  49
ENDBRANCH  30  32
ENDBRANCH  27  28
ENDBRANCH  26  27
ENDBRANCH  13  26
TORSDOF 12
ENDMDL
MODEL 3
REMARK minimizedAffinity -8.39594936
REMARK CNNscore 0.435303688
REMARK CNNaffinity 6.08500528
REMARK  12 active torsions:
REMARK  status: ('A' for Active; 'I' for Inactive)
REMARK    1  A    between atoms: C3_3  and  O1_4 
REMARK    2  A    between atoms: N1_14  and  O2_16 
REMARK    3  A    between atoms: O2_16  and  C13_17 
REMARK    4  A    between atoms: C13_17  and  C14_18 
REMARK       I    between atoms: C14_18  and  N2_20 
REMARK    5  A    between atoms: N2_20  and  C15_21 
REMARK    6  A    between atoms: C15_21  and  C16_22 
REMARK    7  A    between atoms: C15_21  and  C26_36 
REMARK       I    between atoms: C16_22  and  N3_24 
REMARK    8  A    between atoms: N3_24  and  C17_25 
REMARK    9  A    between atoms: C17_25  and  C18_26 
REMARK   10  A    between atoms: C17_25  and  C25_33 
REMARK   11  A    between atoms: C18_26  and  C19_27 
REMARK   12  A    between atoms: C25_33  and  O6_35 
ROOT
HETATM    1  C1  UNL     1      -0.504  52.529 -19.094  1.00  0.00     0.015 C 
HETATM    2  C2  UNL     1      -0.670  51.514 -19.719  1.00  0.00    -0.078 C 
HETATM    3  C3  UNL     1      -0.885  50.270 -20.498  1.00  0.00     0.128 C 
HETATM    4  C4  UNL     1      -1.374  49.149 -19.565  1.00  0.00     0.052 C 
HETATM    5  C5  UNL     1      -2.909  49.131 -19.689  1.00  0.00     0.010 C 
HETATM    6  C6  UNL     1      -3.282  50.267 -20.662  1.00  0.00     0.002 C 
HETATM    7  C7  UNL     1      -4.623  50.151 -21.424  1.00  0.00    -0.004 C 
HETATM    8  C8  UNL     1      -5.756  49.577 -20.545  1.00  0.00     0.010 C 
HETATM    9  C9  UNL     1      -6.121  48.140 -20.896  1.00  0.00     0.035 C 
HETATM   10  C10 UNL     1      -6.547  48.007 -22.333  1.00  0.00    -0.069 C 
HETATM   11  C11 UNL     1      -7.482  47.102 -22.684  1.00  0.00     0.030 C 
HETATM   12  C12 UNL     1      -7.935  46.974 -24.102  1.00  0.00     0.032 C 
HETATM   13  N1  UNL     1      -9.042  46.422 -24.497  1.00  0.00    -0.271 N 
ATOM     14  H1  UNL     1      -9.337  46.371 -25.472  1.00  0.00     0.194 HD
HETATM   15  C29 UNL     1      -7.061  47.580 -25.191  1.00  0.00     0.060 C 
HETATM   16  C30 UNL     1      -5.735  48.119 -24.667  1.00  0.00     0.020 C 
HETATM   17  C31 UNL     1      -5.893  48.934 -23.354  1.00  0.00    -0.016 C 
HETATM   18  C32 UNL     1      -6.835  50.140 -23.640  1.00  0.00     0.020 C 
HETATM   19  C33 UNL     1      -4.514  49.503 -22.842  1.00  0.00     0.002 C 
HETATM   20  C34 UNL     1      -3.319  48.545 -22.917  1.00  0.00     0.007 C 
HETATM   21  C35 UNL     1      -1.976  49.211 -22.589  1.00  0.00     0.014 C 
HETATM   22  C36 UNL     1      -2.031  50.383 -21.559  1.00  0.00     0.003 C 
HETATM   23  C37 UNL     1      -1.980  51.718 -22.333  1.00  0.00     0.020 C 
ENDROOT
BRANCH   3  24
HETATM   24  O1  UNL     1       0.350  49.893 -21.092  1.00  0.00    -0.377 OA
HETATM   25  H2  UNL     1       0.796  50.709 -21.376  1.00  0.00     0.211 HD
ENDBRANCH   3  24
BRANCH  13  26
HETATM   26  O2  UNL     1      -9.785  45.902 -23.423  1.00  0.00    -0.271 OA
BRANCH  26  27
HETATM   27  C13 UNL     1     -11.105  46.411 -23.475  1.00  0.00     0.303 C 
BRANCH  27  28
HETATM   28  C14 UNL     1     -12.066  45.713 -24.441  1.00  0.00     0.244 C 
HETATM   29  O3  UNL     1     -12.177  44.495 -24.567  1.00  0.00    -0.271 OA
HETATM   30  N2  UNL     1     -12.849  46.609 -25.166  1.00  0.00    -0.346 N 
HETATM   31  H16 UNL     1     -12.994  47.508 -24.718  1.00  0.00     0.163 HD
BRANCH  30  32
HETATM   32  C15 UNL     1     -14.005  46.111 -25.916  1.00  0.00     0.180 C 
BRANCH  32  33
HETATM   33  C16 UNL     1     -15.264  46.600 -25.161  1.00  0.00     0.241 C 
HETATM   34  O4  UNL     1     -15.301  47.693 -24.592  1.00  0.00    -0.271 OA
HETATM   35  N3  UNL     1     -16.339  45.737 -25.210  1.00  0.00    -0.345 N 
HETATM   36  H18 UNL     1     -16.131  44.770 -25.455  1.00  0.00     0.163 HD
BRANCH  35  37
HETATM   37  C17 UNL     1     -17.448  45.870 -24.252  1.00  0.00     0.186 C 
BRANCH  37  38
HETATM   38  C18 UNL     1     -17.001  46.676 -23.029  1.00  0.00     0.074 C 
BRANCH  38  39
HETATM   39  C19 UNL     1     -17.424  46.036 -21.728  1.00  0.00    -0.056 A 
HETATM   40  C20 UNL     1     -18.737  45.582 -21.560  1.00  0.00     0.007 A 
HETATM   41  C21 UNL     1     -19.139  45.005 -20.355  1.00  0.00     0.001 A 
HETATM   42  C22 UNL     1     -18.237  44.880 -19.302  1.00  0.00     0.000 A 
HETATM   43  C23 UNL     1     -16.930  45.345 -19.451  1.00  0.00     0.001 A 
HETATM   44  C24 UNL     1     -16.524  45.917 -20.656  1.00  0.00     0.007 A 
ENDBRANCH  38  39
ENDBRANCH  37  38
BRANCH  37  45
HETATM   45  C25 UNL     1     -18.617  46.568 -24.962  1.00  0.00     0.163 C 
HETATM   46  O5  UNL     1     -19.116  47.647 -24.689  1.00  0.00    -0.648 OA
BRANCH  45  47
HETATM   47  O6  UNL     1     -19.082  45.866 -26.028  1.00  0.00    -0.775 OA
HETATM   48  H27 UNL     1     -19.859  46.383 -26.326  1.00  0.00     0.167 HD
ENDBRANCH  45  47
ENDBRANCH  37  45
ENDBRANCH  35  37
ENDBRANCH  32  33
BRANCH  32  49
HETATM   49  C26 UNL     1     -13.956  46.560 -27.393  1.00  0.00     0.009 C 
HETATM   50  C27 UNL     1     -12.514  46.766 -27.879  1.00  0.00     0.012 C 
HETATM   51  C28 UNL     1     -14.694  45.617 -28.353  1.00  0.00     0.012 C 
ENDBRANCH  32  49
ENDBRANCH  30  32
ENDBRANCH  27  28
ENDBRANCH  26  27
ENDBRANCH  13  26
TORSDOF 12
ENDMDL
MODEL 4
REMARK minimizedAffinity -9.02991486
REMARK CNNscore 0.345989704
REMARK CNNaffinity 6.66638708
REMARK  12 active torsions:
REMARK  status: ('A' for Active; 'I' for Inactive)
REMARK    1  A    between atoms: C3_3  and  O1_4 
REMARK    2  A    between atoms: N1_14  and  O2_16 
REMARK    3  A    between atoms: O2_16  and  C13_17 
REMARK    4  A    between atoms: C13_17  and  C14_18 
REMARK       I    between atoms: C14_18  and  N2_20 
REMARK    5  A    between atoms: N2_20  and  C15_21 
REMARK    6  A    between atoms: C15_21  and  C16_22 
REMARK    7  A    between atoms: C15_21  and  C26_36 
REMARK       I    between atoms: C16_22  and  N3_24 
REMARK    8  A    between atoms: N3_24  and  C17_25 
REMARK    9  A    between atoms: C17_25  and  C18_26 
REMARK   10  A    between atoms: C17_25  and  C25_33 
REMARK   11  A    between atoms: C18_26  and  C19_27 
REMARK   12  A    between atoms: C25_33  and  O6_35 
ROOT
HETATM    1  C1  UNL     1       2.188  51.705 -26.382  1.00  0.00     0.015 C 
HETATM    2  C2  UNL     1       1.042  52.066 -26.304  1.00  0.00    -0.078 C 
HETATM    3  C3  UNL     1      -0.371  52.503 -26.195  1.00  0.00     0.128 C 
HETATM    4  C4  UNL     1      -1.139  52.102 -27.466  1.00  0.00     0.052 C 
HETATM    5  C5  UNL     1      -1.843  50.773 -27.136  1.00  0.00     0.010 C 
HETATM    6  C6  UNL     1      -1.437  50.410 -25.694  1.00  0.00     0.002 C 
HETATM    7  C7  UNL     1      -2.385  49.491 -24.889  1.00  0.00    -0.004 C 
HETATM    8  C8  UNL     1      -2.994  48.364 -25.753  1.00  0.00     0.010 C 
HETATM    9  C9  UNL     1      -4.464  48.586 -26.085  1.00  0.00     0.035 C 
HETATM   10  C10 UNL     1      -5.304  48.711 -24.842  1.00  0.00    -0.069 C 
HETATM   11  C11 UNL     1      -6.575  48.262 -24.832  1.00  0.00     0.030 C 
HETATM   12  C12 UNL     1      -7.414  48.354 -23.600  1.00  0.00     0.032 C 
HETATM   13  N1  UNL     1      -8.482  47.658 -23.357  1.00  0.00    -0.271 N 
ATOM     14  H1  UNL     1      -9.022  47.725 -22.494  1.00  0.00     0.194 HD
HETATM   15  C29 UNL     1      -6.969  49.307 -22.500  1.00  0.00     0.060 C 
HETATM   16  C30 UNL     1      -5.770  50.163 -22.894  1.00  0.00     0.020 C 
HETATM   17  C31 UNL     1      -4.660  49.348 -23.614  1.00  0.00    -0.016 C 
HETATM   18  C32 UNL     1      -4.171  48.231 -22.646  1.00  0.00     0.020 C 
HETATM   19  C33 UNL     1      -3.419  50.245 -23.991  1.00  0.00     0.002 C 
HETATM   20  C34 UNL     1      -3.738  51.630 -24.566  1.00  0.00     0.007 C 
HETATM   21  C35 UNL     1      -2.502  52.525 -24.733  1.00  0.00     0.014 C 
HETATM   22  C36 UNL     1      -1.165  51.787 -25.051  1.00  0.00     0.003 C 
HETATM   23  C37 UNL     1      -0.341  51.679 -23.750  1.00  0.00     0.020 C 
ENDROOT
BRANCH   3  24
HETATM   24  O1  UNL     1      -0.394  53.917 -26.050  1.00  0.00    -0.377 OA
HETATM   25  H2  UNL     1       0.355  54.162 -25.480  1.00  0.00     0.211 HD
ENDBRANCH   3  24
BRANCH  13  26
HETATM   26  O2  UNL     1      -8.808  46.801 -24.423  1.00  0.00    -0.271 OA
BRANCH  26  27
HETATM   27  C13 UNL     1      -8.768  45.459 -23.975  1.00  0.00     0.303 C 
BRANCH  27  28
HETATM   28  C14 UNL     1      -9.421  45.174 -22.619  1.00  0.00     0.244 C 
HETATM   29  O3  UNL     1      -8.968  45.523 -21.531  1.00  0.00    -0.271 OA
HETATM   30  N2  UNL     1     -10.627  44.486 -22.734  1.00  0.00    -0.346 N 
HETATM   31  H16 UNL     1     -11.108  44.614 -23.619  1.00  0.00     0.163 HD
BRANCH  30  32
HETATM   32  C15 UNL     1     -11.512  44.385 -21.572  1.00  0.00     0.180 C 
BRANCH  32  33
HETATM   33  C16 UNL     1     -12.869  44.993 -21.997  1.00  0.00     0.241 C 
HETATM   34  O4  UNL     1     -13.350  44.800 -23.115  1.00  0.00    -0.271 OA
HETATM   35  N3  UNL     1     -13.506  45.729 -21.018  1.00  0.00    -0.345 N 
HETATM   36  H18 UNL     1     -12.922  46.056 -20.249  1.00  0.00     0.163 HD
BRANCH  35  37
HETATM   37  C17 UNL     1     -14.584  46.666 -21.371  1.00  0.00     0.186 C 
BRANCH  37  38
HETATM   38  C18 UNL     1     -15.948  45.981 -21.238  1.00  0.00     0.074 C 
BRANCH  38  39
HETATM   39  C19 UNL     1     -16.858  46.272 -22.407  1.00  0.00    -0.056 A 
HETATM   40  C20 UNL     1     -16.321  46.696 -23.628  1.00  0.00     0.007 A 
HETATM   41  C21 UNL     1     -17.157  46.983 -24.707  1.00  0.00     0.001 A 
HETATM   42  C22 UNL     1     -18.537  46.857 -24.579  1.00  0.00     0.000 A 
HETATM   43  C23 UNL     1     -19.085  46.453 -23.362  1.00  0.00     0.001 A 
HETATM   44  C24 UNL     1     -18.252  46.159 -22.282  1.00  0.00     0.007 A 
ENDBRANCH  38  39
ENDBRANCH  37  38
BRANCH  37  45
HETATM   45  C25 UNL     1     -14.495  47.878 -20.433  1.00  0.00     0.163 C 
HETATM   46  O5  UNL     1     -13.751  48.839 -20.528  1.00  0.00    -0.648 OA
BRANCH  45  47
HETATM   47  O6  UNL     1     -15.397  47.828 -19.418  1.00  0.00    -0.775 OA
HETATM   48  H27 UNL     1     -15.173  48.608 -18.869  1.00  0.00     0.167 HD
ENDBRANCH  45  47
ENDBRANCH  37  45
ENDBRANCH  35  37
ENDBRANCH  32  33
BRANCH  32  49
HETATM   49  C26 UNL     1     -11.617  42.929 -21.066  1.00  0.00     0.009 C 
HETATM   50  C27 UNL     1     -12.741  42.763 -20.033  1.00  0.00     0.012 C 
HETATM   51  C28 UNL     1     -11.789  41.894 -22.186  1.00  0.00     0.012 C 
ENDBRANCH  32  49
ENDBRANCH  30  32
ENDBRANCH  27  28
ENDBRANCH  26  27
ENDBRANCH  13  26
TORSDOF 12
ENDMDL
MODEL 5
REMARK minimizedAffinity -9.24048233
REMARK CNNscore 0.337788224
REMARK CNNaffinity 6.53852463
REMARK  12 active torsions:
REMARK  status: ('A' for Active; 'I' for Inactive)
REMARK    1  A    between atoms: C3_3  and  O1_4 
REMARK    2  A    between atoms: N1_14  and  O2_16 
REMARK    3  A    between atoms: O2_16  and  C13_17 
REMARK    4  A    between atoms: C13_17  and  C14_18 
REMARK       I    between atoms: C14_18  and  N2_20 
REMARK    5  A    between atoms: N2_20  and  C15_21 
REMARK    6  A    between atoms: C15_21  and  C16_22 
REMARK    7  A    between atoms: C15_21  and  C26_36 
REMARK       I    between atoms: C16_22  and  N3_24 
REMARK    8  A    between atoms: N3_24  and  C17_25 
REMARK    9  A    between atoms: C17_25  and  C18_26 
REMARK   10  A    between atoms: C17_25  and  C25_33 
REMARK   11  A    between atoms: C18_26  and  C19_27 
REMARK   12  A    between atoms: C25_33  and  O6_35 
ROOT
HETATM    1  C1  UNL     1       1.462  51.995 -28.159  1.00  0.00     0.015 C 
HETATM    2  C2  UNL     1       0.472  52.310 -27.552  1.00  0.00    -0.078 C 
HETATM    3  C3  UNL     1      -0.744  52.691 -26.793  1.00  0.00     0.128 C 
HETATM    4  C4  UNL     1      -1.997  52.394 -27.633  1.00  0.00     0.052 C 
HETATM    5  C5  UNL     1      -2.506  51.017 -27.168  1.00  0.00     0.010 C 
HETATM    6  C6  UNL     1      -1.515  50.526 -26.093  1.00  0.00     0.002 C 
HETATM    7  C7  UNL     1      -2.029  49.502 -25.054  1.00  0.00    -0.004 C 
HETATM    8  C8  UNL     1      -2.972  48.448 -25.676  1.00  0.00     0.010 C 
HETATM    9  C9  UNL     1      -4.435  48.656 -25.307  1.00  0.00     0.035 C 
HETATM   10  C10 UNL     1      -4.645  48.631 -23.817  1.00  0.00    -0.069 C 
HETATM   11  C11 UNL     1      -5.789  48.144 -23.299  1.00  0.00     0.030 C 
HETATM   12  C12 UNL     1      -6.002  48.088 -21.822  1.00  0.00     0.032 C 
HETATM   13  N1  UNL     1      -6.868  47.338 -21.209  1.00  0.00    -0.271 N 
ATOM     14  H1  UNL     1      -6.974  47.303 -20.195  1.00  0.00     0.194 HD
HETATM   15  C29 UNL     1      -5.106  48.940 -20.935  1.00  0.00     0.060 C 
HETATM   16  C30 UNL     1      -4.188  49.868 -21.724  1.00  0.00     0.020 C 
HETATM   17  C31 UNL     1      -3.518  49.163 -22.935  1.00  0.00    -0.016 C 
HETATM   18  C32 UNL     1      -2.671  47.972 -22.399  1.00  0.00     0.020 C 
HETATM   19  C33 UNL     1      -2.553  50.131 -23.723  1.00  0.00     0.002 C 
HETATM   20  C34 UNL     1      -3.070  51.556 -23.955  1.00  0.00     0.007 C 
HETATM   21  C35 UNL     1      -2.019  52.501 -24.552  1.00  0.00     0.014 C 
HETATM   22  C36 UNL     1      -0.968  51.840 -25.497  1.00  0.00     0.003 C 
HETATM   23  C37 UNL     1       0.341  51.630 -24.705  1.00  0.00     0.020 C 
ENDROOT
BRANCH   3  24
HETATM   24  O1  UNL     1      -0.679  54.082 -26.507  1.00  0.00    -0.377 OA
HETATM   25  H2  UNL     1       0.248  54.292 -26.300  1.00  0.00     0.211 HD
ENDBRANCH   3  24
BRANCH  13  26
HETATM   26  O2  UNL     1      -7.640  46.581 -22.107  1.00  0.00    -0.271 OA
BRANCH  26  27
HETATM   27  C13 UNL     1      -8.878  47.230 -22.324  1.00  0.00     0.303 C 
BRANCH  27  28
HETATM   28  C14 UNL     1      -9.936  47.064 -21.229  1.00  0.00     0.244 C 
HETATM   29  O3  UNL     1     -10.822  46.212 -21.228  1.00  0.00    -0.271 OA
HETATM   30  N2  UNL     1      -9.781  47.975 -20.186  1.00  0.00    -0.346 N 
HETATM   31  H16 UNL     1      -8.836  48.325 -20.063  1.00  0.00     0.163 HD
BRANCH  30  32
HETATM   32  C15 UNL     1     -10.521  47.773 -18.938  1.00  0.00     0.180 C 
BRANCH  32  33
HETATM   33  C16 UNL     1     -12.012  48.027 -19.264  1.00  0.00     0.241 C 
HETATM   34  O4  UNL     1     -12.400  49.085 -19.766  1.00  0.00    -0.271 OA
HETATM   35  N3  UNL     1     -12.854  46.971 -18.985  1.00  0.00    -0.345 N 
HETATM   36  H18 UNL     1     -12.499  46.271 -18.335  1.00  0.00     0.163 HD
BRANCH  35  37
HETATM   37  C17 UNL     1     -14.307  47.181 -18.879  1.00  0.00     0.186 C 
BRANCH  37  38
HETATM   38  C18 UNL     1     -15.055  45.870 -19.141  1.00  0.00     0.074 C 
BRANCH  38  39
HETATM   39  C19 UNL     1     -16.310  46.073 -19.956  1.00  0.00    -0.056 A 
HETATM   40  C20 UNL     1     -16.281  45.907 -21.345  1.00  0.00     0.007 A 
HETATM   41  C21 UNL     1     -17.433  46.109 -22.106  1.00  0.00     0.001 A 
HETATM   42  C22 UNL     1     -18.623  46.486 -21.491  1.00  0.00     0.000 A 
HETATM   43  C23 UNL     1     -18.659  46.672 -20.109  1.00  0.00     0.001 A 
HETATM   44  C24 UNL     1     -17.512  46.465 -19.345  1.00  0.00     0.007 A 
ENDBRANCH  38  39
ENDBRANCH  37  38
BRANCH  37  45
HETATM   45  C25 UNL     1     -14.615  47.707 -17.470  1.00  0.00     0.163 C 
HETATM   46  O5  UNL     1     -14.273  47.224 -16.404  1.00  0.00    -0.648 OA
BRANCH  45  47
HETATM   47  O6  UNL     1     -15.329  48.863 -17.483  1.00  0.00    -0.775 OA
HETATM   48  H27 UNL     1     -15.516  49.032 -16.537  1.00  0.00     0.167 HD
ENDBRANCH  45  47
ENDBRANCH  37  45
ENDBRANCH  35  37
ENDBRANCH  32  33
BRANCH  32  49
HETATM   49  C26 UNL     1     -10.248  46.376 -18.338  1.00  0.00     0.009 C 
HETATM   50  C27 UNL     1      -8.754  46.024 -18.371  1.00  0.00     0.012 C 
HETATM   51  C28 UNL     1     -10.790  46.197 -16.914  1.00  0.00     0.012 C 
ENDBRANCH  32  49
ENDBRANCH  30  32
ENDBRANCH  27  28
ENDBRANCH  26  27
ENDBRANCH  13  26
TORSDOF 12
ENDMDL
MODEL 6
REMARK minimizedAffinity -8.30571365
REMARK CNNscore 0.319258928
REMARK CNNaffinity 6.47903299
REMARK  12 active torsions:
REMARK  status: ('A' for Active; 'I' for Inactive)
REMARK    1  A    between atoms: C3_3  and  O1_4 
REMARK    2  A    between atoms: N1_14  and  O2_16 
REMARK    3  A    between atoms: O2_16  and  C13_17 
REMARK    4  A    between atoms: C13_17  and  C14_18 
REMARK       I    between atoms: C14_18  and  N2_20 
REMARK    5  A    between atoms: N2_20  and  C15_21 
REMARK    6  A    between atoms: C15_21  and  C16_22 
REMARK    7  A    between atoms: C15_21  and  C26_36 
REMARK       I    between atoms: C16_22  and  N3_24 
REMARK    8  A    between atoms: N3_24  and  C17_25 
REMARK    9  A    between atoms: C17_25  and  C18_26 
REMARK   10  A    between atoms: C17_25  and  C25_33 
REMARK   11  A    between atoms: C18_26  and  C19_27 
REMARK   12  A    between atoms: C25_33  and  O6_35 
ROOT
HETATM    1  C1  UNL     1       0.987  52.102 -27.162  1.00  0.00     0.015 C 
HETATM    2  C2  UNL     1      -0.207  52.117 -27.010  1.00  0.00    -0.078 C 
HETATM    3  C3  UNL     1      -1.676  52.137 -26.809  1.00  0.00     0.128 C 
HETATM    4  C4  UNL     1      -2.306  50.884 -27.441  1.00  0.00     0.052 C 
HETATM    5  C5  UNL     1      -2.469  49.866 -26.298  1.00  0.00     0.010 C 
HETATM    6  C6  UNL     1      -1.895  50.534 -25.033  1.00  0.00     0.002 C 
HETATM    7  C7  UNL     1      -2.411  50.042 -23.661  1.00  0.00    -0.004 C 
HETATM    8  C8  UNL     1      -2.612  48.510 -23.618  1.00  0.00     0.010 C 
HETATM    9  C9  UNL     1      -4.077  48.094 -23.646  1.00  0.00     0.035 C 
HETATM   10  C10 UNL     1      -4.848  48.687 -22.498  1.00  0.00    -0.069 C 
HETATM   11  C11 UNL     1      -5.870  48.007 -21.942  1.00  0.00     0.030 C 
HETATM   12  C12 UNL     1      -6.629  48.569 -20.785  1.00  0.00     0.032 C 
HETATM   13  N1  UNL     1      -7.364  47.888 -19.958  1.00  0.00    -0.271 N 
ATOM     14  H1  UNL     1      -7.852  48.297 -19.161  1.00  0.00     0.194 HD
HETATM   15  C29 UNL     1      -6.508  50.060 -20.504  1.00  0.00     0.060 C 
HETATM   16  C30 UNL     1      -5.716  50.809 -21.570  1.00  0.00     0.020 C 
HETATM   17  C31 UNL     1      -4.422  50.063 -21.994  1.00  0.00    -0.016 C 
HETATM   18  C32 UNL     1      -3.519  49.899 -20.736  1.00  0.00     0.020 C 
HETATM   19  C33 UNL     1      -3.604  50.866 -23.079  1.00  0.00     0.002 C 
HETATM   20  C34 UNL     1      -4.426  51.510 -24.201  1.00  0.00     0.007 C 
HETATM   21  C35 UNL     1      -3.604  52.433 -25.112  1.00  0.00     0.014 C 
HETATM   22  C36 UNL     1      -2.107  52.038 -25.306  1.00  0.00     0.003 C 
HETATM   23  C37 UNL     1      -1.242  52.933 -24.393  1.00  0.00     0.020 C 
ENDROOT
BRANCH   3  24
HETATM   24  O1  UNL     1      -2.200  53.302 -27.434  1.00  0.00    -0.377 OA
HETATM   25  H2  UNL     1      -1.564  54.022 -27.283  1.00  0.00     0.211 HD
ENDBRANCH   3  24
BRANCH  13  26
HETATM   26  O2  UNL     1      -7.407  46.523 -20.291  1.00  0.00    -0.271 OA
BRANCH  26  27
HETATM   27  C13 UNL     1      -8.729  46.169 -20.650  1.00  0.00     0.303 C 
BRANCH  27  28
HETATM   28  C14 UNL     1      -8.918  45.570 -22.048  1.00  0.00     0.244 C 
HETATM   29  O3  UNL     1      -8.491  44.475 -22.409  1.00  0.00    -0.271 OA
HETATM   30  N2  UNL     1      -9.665  46.391 -22.890  1.00  0.00    -0.346 N 
HETATM   31  H16 UNL     1     -10.301  47.023 -22.415  1.00  0.00     0.163 HD
BRANCH  30  32
HETATM   32  C15 UNL     1     -10.174  45.852 -24.153  1.00  0.00     0.180 C 
BRANCH  32  33
HETATM   33  C16 UNL     1     -11.606  45.340 -23.868  1.00  0.00     0.241 C 
HETATM   34  O4  UNL     1     -11.831  44.168 -23.559  1.00  0.00    -0.271 OA
HETATM   35  N3  UNL     1     -12.592  46.302 -23.951  1.00  0.00    -0.345 N 
HETATM   36  H18 UNL     1     -12.355  47.147 -24.469  1.00  0.00     0.163 HD
BRANCH  35  37
HETATM   37  C17 UNL     1     -14.005  45.914 -24.083  1.00  0.00     0.186 C 
BRANCH  37  38
HETATM   38  C18 UNL     1     -14.902  47.155 -24.062  1.00  0.00     0.074 C 
BRANCH  38  39
HETATM   39  C19 UNL     1     -16.341  46.823 -23.747  1.00  0.00    -0.056 A 
HETATM   40  C20 UNL     1     -17.344  47.073 -24.691  1.00  0.00     0.007 A 
HETATM   41  C21 UNL     1     -18.678  46.785 -24.400  1.00  0.00     0.001 A 
HETATM   42  C22 UNL     1     -19.027  46.252 -23.163  1.00  0.00     0.000 A 
HETATM   43  C23 UNL     1     -18.039  46.015 -22.208  1.00  0.00     0.001 A 
HETATM   44  C24 UNL     1     -16.704  46.297 -22.497  1.00  0.00     0.007 A 
ENDBRANCH  38  39
ENDBRANCH  37  38
BRANCH  37  45
HETATM   45  C25 UNL     1     -14.173  45.149 -25.404  1.00  0.00     0.163 C 
HETATM   46  O5  UNL     1     -14.075  45.589 -26.537  1.00  0.00    -0.648 OA
BRANCH  45  47
HETATM   47  O6  UNL     1     -14.427  43.827 -25.219  1.00  0.00    -0.775 OA
HETATM   48  H27 UNL     1     -14.585  43.491 -26.126  1.00  0.00     0.167 HD
ENDBRANCH  45  47
ENDBRANCH  37  45
ENDBRANCH  35  37
ENDBRANCH  32  33
BRANCH  32  49
HETATM   49  C26 UNL     1     -10.106  46.902 -25.285  1.00  0.00     0.009 C 
HETATM   50  C27 UNL     1      -9.163  48.060 -24.931  1.00  0.00     0.012 C 
HETATM   51  C28 UNL     1      -9.717  46.318 -26.649  1.00  0.00     0.012 C 
ENDBRANCH  32  49
ENDBRANCH  30  32
ENDBRANCH  27  28
ENDBRANCH  26  27
ENDBRANCH  13  26
TORSDOF 12
ENDMDL
MODEL 7
REMARK minimizedAffinity -9.25051117
REMARK CNNscore 0.293954432
REMARK CNNaffinity 6.90605116
REMARK  12 active torsions:
REMARK  status: ('A' for Active; 'I' for Inactive)
REMARK    1  A    between atoms: C3_3  and  O1_4 
REMARK    2  A    between atoms: N1_14  and  O2_16 
REMARK    3  A    between atoms: O2_16  and  C13_17 
REMARK    4  A    between atoms: C13_17  and  C14_18 
REMARK       I    between atoms: C14_18  and  N2_20 
REMARK    5  A    between atoms: N2_20  and  C15_21 
REMARK    6  A    between atoms: C15_21  and  C16_22 
REMARK    7  A    between atoms: C15_21  and  C26_36 
REMARK       I    between atoms: C16_22  and  N3_24 
REMARK    8  A    between atoms: N3_24  and  C17_25 
REMARK    9  A    between atoms: C17_25  and  C18_26 
REMARK   10  A    between atoms: C17_25  and  C25_33 
REMARK   11  A    between atoms: C18_26  and  C19_27 
REMARK   12  A    between atoms: C25_33  and  O6_35 
ROOT
HETATM    1  C1  UNL     1       0.233  49.576 -16.949  1.00  0.00     0.015 C 
HETATM    2  C2  UNL     1      -0.409  50.206 -17.749  1.00  0.00    -0.078 C 
HETATM    3  C3  UNL     1      -1.210  50.972 -18.734  1.00  0.00     0.128 C 
HETATM    4  C4  UNL     1      -0.395  51.179 -20.021  1.00  0.00     0.052 C 
HETATM    5  C5  UNL     1      -0.834  50.064 -20.988  1.00  0.00     0.010 C 
HETATM    6  C6  UNL     1      -1.868  49.209 -20.227  1.00  0.00     0.002 C 
HETATM    7  C7  UNL     1      -2.891  48.404 -21.062  1.00  0.00    -0.004 C 
HETATM    8  C8  UNL     1      -2.264  47.785 -22.332  1.00  0.00     0.010 C 
HETATM    9  C9  UNL     1      -2.677  48.495 -23.615  1.00  0.00     0.035 C 
HETATM   10  C10 UNL     1      -4.171  48.494 -23.798  1.00  0.00    -0.069 C 
HETATM   11  C11 UNL     1      -4.705  48.435 -25.033  1.00  0.00     0.030 C 
HETATM   12  C12 UNL     1      -6.185  48.407 -25.232  1.00  0.00     0.032 C 
HETATM   13  N1  UNL     1      -6.798  47.999 -26.301  1.00  0.00    -0.271 N 
ATOM     14  H1  UNL     1      -7.813  47.968 -26.398  1.00  0.00     0.194 HD
HETATM   15  C29 UNL     1      -7.072  48.845 -24.075  1.00  0.00     0.060 C 
HETATM   16  C30 UNL     1      -6.286  49.405 -22.894  1.00  0.00     0.020 C 
HETATM   17  C31 UNL     1      -5.038  48.550 -22.543  1.00  0.00    -0.016 C 
HETATM   18  C32 UNL     1      -5.517  47.115 -22.177  1.00  0.00     0.020 C 
HETATM   19  C33 UNL     1      -4.253  49.132 -21.304  1.00  0.00     0.002 C 
HETATM   20  C34 UNL     1      -4.075  50.654 -21.273  1.00  0.00     0.007 C 
HETATM   21  C35 UNL     1      -3.477  51.177 -19.959  1.00  0.00     0.014 C 
HETATM   22  C36 UNL     1      -2.487  50.214 -19.232  1.00  0.00     0.003 C 
HETATM   23  C37 UNL     1      -3.238  49.517 -18.078  1.00  0.00     0.020 C 
ENDROOT
BRANCH   3  24
HETATM   24  O1  UNL     1      -1.533  52.235 -18.166  1.00  0.00    -0.377 OA
HETATM   25  H2  UNL     1      -1.722  52.088 -17.223  1.00  0.00     0.211 HD
ENDBRANCH   3  24
BRANCH  13  26
HETATM   26  O2  UNL     1      -5.900  47.605 -27.307  1.00  0.00    -0.271 OA
BRANCH  26  27
HETATM   27  C13 UNL     1      -6.552  47.651 -28.563  1.00  0.00     0.303 C 
BRANCH  27  28
HETATM   28  C14 UNL     1      -5.647  47.699 -29.798  1.00  0.00     0.244 C 
HETATM   29  O3  UNL     1      -4.547  48.246 -29.845  1.00  0.00    -0.271 OA
HETATM   30  N2  UNL     1      -6.186  47.022 -30.890  1.00  0.00    -0.346 N 
HETATM   31  H16 UNL     1      -6.842  46.283 -30.652  1.00  0.00     0.163 HD
BRANCH  30  32
HETATM   32  C15 UNL     1      -5.337  46.730 -32.047  1.00  0.00     0.180 C 
BRANCH  32  33
HETATM   33  C16 UNL     1      -5.824  45.379 -32.622  1.00  0.00     0.241 C 
HETATM   34  O4  UNL     1      -7.019  45.077 -32.657  1.00  0.00    -0.271 OA
HETATM   35  N3  UNL     1      -4.826  44.567 -33.119  1.00  0.00    -0.345 N 
HETATM   36  H18 UNL     1      -3.879  44.772 -32.802  1.00  0.00     0.163 HD
BRANCH  35  37
HETATM   37  C17 UNL     1      -5.069  43.133 -33.342  1.00  0.00     0.186 C 
BRANCH  37  38
HETATM   38  C18 UNL     1      -3.804  42.325 -33.036  1.00  0.00     0.074 C 
BRANCH  38  39
HETATM   39  C19 UNL     1      -3.649  41.128 -33.944  1.00  0.00    -0.056 A 
HETATM   40  C20 UNL     1      -4.399  41.036 -35.122  1.00  0.00     0.007 A 
HETATM   41  C21 UNL     1      -4.273  39.925 -35.956  1.00  0.00     0.001 A 
HETATM   42  C22 UNL     1      -3.405  38.891 -35.622  1.00  0.00     0.000 A 
HETATM   43  C23 UNL     1      -2.666  38.962 -34.441  1.00  0.00     0.001 A 
HETATM   44  C24 UNL     1      -2.784  40.074 -33.607  1.00  0.00     0.007 A 
ENDBRANCH  38  39
ENDBRANCH  37  38
BRANCH  37  45
HETATM   45  C25 UNL     1      -6.224  42.694 -32.431  1.00  0.00     0.163 C 
HETATM   46  O5  UNL     1      -7.289  42.203 -32.764  1.00  0.00    -0.648 OA
BRANCH  45  47
HETATM   47  O6  UNL     1      -5.951  42.869 -31.111  1.00  0.00    -0.775 OA
HETATM   48  H27 UNL     1      -6.789  42.626 -30.666  1.00  0.00     0.167 HD
ENDBRANCH  45  47
ENDBRANCH  37  45
ENDBRANCH  35  37
ENDBRANCH  32  33
BRANCH  32  49
HETATM   49  C26 UNL     1      -5.364  47.885 -33.073  1.00  0.00     0.009 C 
HETATM   50  C27 UNL     1      -3.990  48.100 -33.724  1.00  0.00     0.012 C 
HETATM   51  C28 UNL     1      -6.432  47.723 -34.162  1.00  0.00     0.012 C 
ENDBRANCH  32  49
ENDBRANCH  30  32
ENDBRANCH  27  28
ENDBRANCH  26  27
ENDBRANCH  13  26
TORSDOF 12
ENDMDL
MODEL 8
REMARK minimizedAffinity -9.08943462
REMARK CNNscore 0.257936418
REMARK CNNaffinity 6.93135595
REMARK  12 active torsions:
REMARK  status: ('A' for Active; 'I' for Inactive)
REMARK    1  A    between atoms: C3_3  and  O1_4 
REMARK    2  A    between atoms: N1_14  and  O2_16 
REMARK    3  A    between atoms: O2_16  and  C13_17 
REMARK    4  A    between atoms: C13_17  and  C14_18 
REMARK       I    between atoms: C14_18  and  N2_20 
REMARK    5  A    between atoms: N2_20  and  C15_21 
REMARK    6  A    between atoms: C15_21  and  C16_22 
REMARK    7  A    between atoms: C15_21  and  C26_36 
REMARK       I    between atoms: C16_22  and  N3_24 
REMARK    8  A    between atoms: N3_24  and  C17_25 
REMARK    9  A    between atoms: C17_25  and  C18_26 
REMARK   10  A    between atoms: C17_25  and  C25_33 
REMARK   11  A    between atoms: C18_26  and  C19_27 
REMARK   12  A    between atoms: C25_33  and  O6_35 
ROOT
HETATM    1  C1  UNL     1      -2.666  50.619 -16.010  1.00  0.00     0.015 C 
HETATM    2  C2  UNL     1      -1.951  50.420 -16.958  1.00  0.00    -0.078 C 
HETATM    3  C3  UNL     1      -1.078  50.184 -18.133  1.00  0.00     0.128 C 
HETATM    4  C4  UNL     1      -1.068  48.686 -18.483  1.00  0.00     0.052 C 
HETATM    5  C5  UNL     1      -2.110  48.503 -19.602  1.00  0.00     0.010 C 
HETATM    6  C6  UNL     1      -2.731  49.892 -19.852  1.00  0.00     0.002 C 
HETATM    7  C7  UNL     1      -3.355  50.163 -21.241  1.00  0.00    -0.004 C 
HETATM    8  C8  UNL     1      -4.120  48.940 -21.796  1.00  0.00     0.010 C 
HETATM    9  C9  UNL     1      -3.385  48.233 -22.928  1.00  0.00     0.035 C 
HETATM   10  C10 UNL     1      -3.111  49.161 -24.081  1.00  0.00    -0.069 C 
HETATM   11  C11 UNL     1      -3.107  48.692 -25.344  1.00  0.00     0.030 C 
HETATM   12  C12 UNL     1      -2.862  49.604 -26.502  1.00  0.00     0.032 C 
HETATM   13  N1  UNL     1      -3.180  49.361 -27.737  1.00  0.00    -0.271 N 
ATOM     14  H1  UNL     1      -3.023  50.015 -28.505  1.00  0.00     0.194 HD
HETATM   15  C29 UNL     1      -2.230  50.960 -26.226  1.00  0.00     0.060 C 
HETATM   16  C30 UNL     1      -1.791  51.134 -24.775  1.00  0.00     0.020 C 
HETATM   17  C31 UNL     1      -2.854  50.631 -23.761  1.00  0.00    -0.016 C 
HETATM   18  C32 UNL     1      -4.162  51.447 -23.981  1.00  0.00     0.020 C 
HETATM   19  C33 UNL     1      -2.393  50.842 -22.267  1.00  0.00     0.002 C 
HETATM   20  C34 UNL     1      -0.931  50.500 -21.959  1.00  0.00     0.007 C 
HETATM   21  C35 UNL     1      -0.489  50.905 -20.545  1.00  0.00     0.014 C 
HETATM   22  C36 UNL     1      -1.598  50.859 -19.448  1.00  0.00     0.003 C 
HETATM   23  C37 UNL     1      -2.106  52.296 -19.203  1.00  0.00     0.020 C 
ENDROOT
BRANCH   3  24
HETATM   24  O1  UNL     1       0.240  50.607 -17.807  1.00  0.00    -0.377 OA
HETATM   25  H2  UNL     1       0.160  51.415 -17.272  1.00  0.00     0.211 HD
ENDBRANCH   3  24
BRANCH  13  26
HETATM   26  O2  UNL     1      -3.767  48.094 -27.893  1.00  0.00    -0.271 OA
BRANCH  26  27
HETATM   27  C13 UNL     1      -5.138  48.246 -28.211  1.00  0.00     0.303 C 
BRANCH  27  28
HETATM   28  C14 UNL     1      -5.495  48.249 -29.701  1.00  0.00     0.244 C 
HETATM   29  O3  UNL     1      -4.754  48.635 -30.602  1.00  0.00    -0.271 OA
HETATM   30  N2  UNL     1      -6.763  47.730 -29.953  1.00  0.00    -0.346 N 
HETATM   31  H16 UNL     1      -7.104  47.079 -29.253  1.00  0.00     0.163 HD
BRANCH  30  32
HETATM   32  C15 UNL     1      -7.145  47.400 -31.328  1.00  0.00     0.180 C 
BRANCH  32  33
HETATM   33  C16 UNL     1      -7.380  45.871 -31.364  1.00  0.00     0.241 C 
HETATM   34  O4  UNL     1      -7.539  45.210 -30.336  1.00  0.00    -0.271 OA
HETATM   35  N3  UNL     1      -7.435  45.324 -32.630  1.00  0.00    -0.345 N 
HETATM   36  H18 UNL     1      -7.027  45.881 -33.380  1.00  0.00     0.163 HD
BRANCH  35  37
HETATM   37  C17 UNL     1      -7.272  43.875 -32.825  1.00  0.00     0.186 C 
BRANCH  37  38
HETATM   38  C18 UNL     1      -6.011  43.379 -32.110  1.00  0.00     0.074 C 
BRANCH  38  39
HETATM   39  C19 UNL     1      -5.139  42.526 -32.999  1.00  0.00    -0.056 A 
HETATM   40  C20 UNL     1      -3.770  42.402 -32.733  1.00  0.00     0.007 A 
HETATM   41  C21 UNL     1      -2.955  41.630 -33.560  1.00  0.00     0.001 A 
HETATM   42  C22 UNL     1      -3.494  40.979 -34.666  1.00  0.00     0.000 A 
HETATM   43  C23 UNL     1      -4.853  41.110 -34.952  1.00  0.00     0.001 A 
HETATM   44  C24 UNL     1      -5.672  41.876 -34.124  1.00  0.00     0.007 A 
ENDBRANCH  38  39
ENDBRANCH  37  38
BRANCH  37  45
HETATM   45  C25 UNL     1      -8.519  43.171 -32.271  1.00  0.00     0.163 C 
HETATM   46  O5  UNL     1      -9.650  43.194 -32.725  1.00  0.00    -0.648 OA
BRANCH  45  47
HETATM   47  O6  UNL     1      -8.257  42.428 -31.164  1.00  0.00    -0.775 OA
HETATM   48  H27 UNL     1      -9.140  42.110 -30.883  1.00  0.00     0.167 HD
ENDBRANCH  45  47
ENDBRANCH  37  45
ENDBRANCH  35  37
ENDBRANCH  32  33
BRANCH  32  49
HETATM   49  C26 UNL     1      -8.366  48.226 -31.790  1.00  0.00     0.009 C 
HETATM   50  C27 UNL     1      -9.594  47.338 -32.038  1.00  0.00     0.012 C 
HETATM   51  C28 UNL     1      -8.739  49.368 -30.835  1.00  0.00     0.012 C 
ENDBRANCH  32  49
ENDBRANCH  30  32
ENDBRANCH  27  28
ENDBRANCH  26  27
ENDBRANCH  13  26
TORSDOF 12
ENDMDL
MODEL 9
REMARK minimizedAffinity -9.2400713
REMARK CNNscore 0.247531667
REMARK CNNaffinity 6.97256231
REMARK  12 active torsions:
REMARK  status: ('A' for Active; 'I' for Inactive)
REMARK    1  A    between atoms: C3_3  and  O1_4 
REMARK    2  A    between atoms: N1_14  and  O2_16 
REMARK    3  A    between atoms: O2_16  and  C13_17 
REMARK    4  A    between atoms: C13_17  and  C14_18 
REMARK       I    between atoms: C14_18  and  N2_20 
REMARK    5  A    between atoms: N2_20  and  C15_21 
REMARK    6  A    between atoms: C15_21  and  C16_22 
REMARK    7  A    between atoms: C15_21  and  C26_36 
REMARK       I    between atoms: C16_22  and  N3_24 
REMARK    8  A    between atoms: N3_24  and  C17_25 
REMARK    9  A    between atoms: C17_25  and  C18_26 
REMARK   10  A    between atoms: C17_25  and  C25_33 
REMARK   11  A    between atoms: C18_26  and  C19_27 
REMARK   12  A    between atoms: C25_33  and  O6_35 
ROOT
HETATM    1  C1  UNL     1      -5.542  47.866 -25.351  1.00  0.00     0.015 C 
HETATM    2  C2  UNL     1      -5.494  48.767 -24.554  1.00  0.00    -0.078 C 
HETATM    3  C3  UNL     1      -5.420  49.880 -23.577  1.00  0.00     0.128 C 
HETATM    4  C4  UNL     1      -5.678  49.345 -22.158  1.00  0.00     0.052 C 
HETATM    5  C5  UNL     1      -4.290  49.109 -21.534  1.00  0.00     0.010 C 
HETATM    6  C6  UNL     1      -3.256  49.474 -22.617  1.00  0.00     0.002 C 
HETATM    7  C7  UNL     1      -1.842  49.892 -22.150  1.00  0.00    -0.004 C 
HETATM    8  C8  UNL     1      -1.340  49.053 -20.953  1.00  0.00     0.010 C 
HETATM    9  C9  UNL     1      -1.349  49.819 -19.636  1.00  0.00     0.035 C 
HETATM   10  C10 UNL     1      -0.503  51.062 -19.707  1.00  0.00    -0.069 C 
HETATM   11  C11 UNL     1       0.158  51.498 -18.617  1.00  0.00     0.030 C 
HETATM   12  C12 UNL     1       1.021  52.715 -18.676  1.00  0.00     0.032 C 
HETATM   13  N1  UNL     1       1.961  53.019 -17.833  1.00  0.00    -0.271 N 
ATOM     14  H1  UNL     1       2.552  53.847 -17.914  1.00  0.00     0.194 HD
HETATM   15  C29 UNL     1       0.834  53.671 -19.846  1.00  0.00     0.060 C 
HETATM   16  C30 UNL     1      -0.349  53.306 -20.736  1.00  0.00     0.020 C 
HETATM   17  C31 UNL     1      -0.421  51.786 -21.048  1.00  0.00    -0.016 C 
HETATM   18  C32 UNL     1       0.890  51.376 -21.780  1.00  0.00     0.020 C 
HETATM   19  C33 UNL     1      -1.636  51.433 -21.990  1.00  0.00     0.002 C 
HETATM   20  C34 UNL     1      -2.962  52.133 -21.671  1.00  0.00     0.007 C 
HETATM   21  C35 UNL     1      -4.050  51.901 -22.729  1.00  0.00     0.014 C 
HETATM   22  C36 UNL     1      -3.998  50.527 -23.467  1.00  0.00     0.003 C 
HETATM   23  C37 UNL     1      -3.346  50.737 -24.850  1.00  0.00     0.020 C 
ENDROOT
BRANCH   3  24
HETATM   24  O1  UNL     1      -6.414  50.840 -23.913  1.00  0.00    -0.377 OA
HETATM   25  H2  UNL     1      -6.446  50.895 -24.884  1.00  0.00     0.211 HD
ENDBRANCH   3  24
BRANCH  13  26
HETATM   26  O2  UNL     1       2.067  52.075 -16.797  1.00  0.00    -0.271 OA
BRANCH  26  27
HETATM   27  C13 UNL     1       3.099  52.464 -15.910  1.00  0.00     0.303 C 
BRANCH  27  28
HETATM   28  C14 UNL     1       3.303  51.583 -14.675  1.00  0.00     0.244 C 
HETATM   29  O3  UNL     1       4.203  50.755 -14.540  1.00  0.00    -0.271 OA
HETATM   30  N2  UNL     1       2.366  51.831 -13.674  1.00  0.00    -0.346 N 
HETATM   31  H16 UNL     1       1.962  52.762 -13.689  1.00  0.00     0.163 HD
BRANCH  30  32
HETATM   32  C15 UNL     1       2.586  51.286 -12.332  1.00  0.00     0.180 C 
BRANCH  32  33
HETATM   33  C16 UNL     1       2.279  52.429 -11.336  1.00  0.00     0.241 C 
HETATM   34  O4  UNL     1       2.806  52.485 -10.223  1.00  0.00    -0.271 OA
HETATM   35  N3  UNL     1       1.408  53.390 -11.808  1.00  0.00    -0.345 N 
HETATM   36  H18 UNL     1       0.827  53.121 -12.601  1.00  0.00     0.163 HD
BRANCH  35  37
HETATM   37  C17 UNL     1       0.733  54.308 -10.877  1.00  0.00     0.186 C 
BRANCH  37  38
HETATM   38  C18 UNL     1       0.032  53.521  -9.766  1.00  0.00     0.074 C 
BRANCH  38  39
HETATM   39  C19 UNL     1      -1.426  53.268 -10.067  1.00  0.00    -0.056 A 
HETATM   40  C20 UNL     1      -2.239  54.307 -10.534  1.00  0.00     0.007 A 
HETATM   41  C21 UNL     1      -3.590  54.084 -10.798  1.00  0.00     0.001 A 
HETATM   42  C22 UNL     1      -4.148  52.826 -10.593  1.00  0.00     0.000 A 
HETATM   43  C23 UNL     1      -3.351  51.787 -10.111  1.00  0.00     0.001 A 
HETATM   44  C24 UNL     1      -1.998  52.004  -9.852  1.00  0.00     0.007 A 
ENDBRANCH  38  39
ENDBRANCH  37  38
BRANCH  37  45
HETATM   45  C25 UNL     1       1.788  55.255 -10.286  1.00  0.00     0.163 C 
HETATM   46  O5  UNL     1       2.008  55.481  -9.108  1.00  0.00    -0.648 OA
BRANCH  45  47
HETATM   47  O6  UNL     1       2.551  55.854 -11.237  1.00  0.00    -0.775 OA
HETATM   48  H27 UNL     1       3.113  56.475 -10.728  1.00  0.00     0.167 HD
ENDBRANCH  45  47
ENDBRANCH  37  45
ENDBRANCH  35  37
ENDBRANCH  32  33
BRANCH  32  49
HETATM   49  C26 UNL     1       1.742  50.014 -12.093  1.00  0.00     0.009 C 
HETATM   50  C27 UNL     1       2.557  48.736 -12.332  1.00  0.00     0.012 C 
HETATM   51  C28 UNL     1       1.085  49.956 -10.707  1.00  0.00     0.012 C 
ENDBRANCH  32  49
ENDBRANCH  30  32
ENDBRANCH  27  28
ENDBRANCH  26  27
ENDBRANCH  13  26
TORSDOF 12
ENDMDL
