MODEL 1
REMARK minimizedAffinity -7.65946913
REMARK  21 active torsions:
REMARK  status: ('A' for Active; 'I' for Inactive)
REMARK    1  A    between atoms: C2_2  and  C14_18 
REMARK    2  A    between atoms: C3_3  and  C4_4 
REMARK    3  A    between atoms: C4_4  and  O2_6 
REMARK    4  A    between atoms: O2_6  and  C5_7 
REMARK    5  A    between atoms: C5_7  and  C6_8 
REMARK    6  A    between atoms: C6_8  and  C7_9 
REMARK    7  A    between atoms: C7_9  and  C8_10 
REMARK    8  A    between atoms: C8_10  and  C9_11 
REMARK    9  A    between atoms: C9_11  and  C10_12 
REMARK   10  A    between atoms: C10_12  and  C11_13 
REMARK   11  A    between atoms: C11_13  and  C12_14 
REMARK   12  A    between atoms: C12_14  and  C13_15 
REMARK   13  A    between atoms: C13_15  and  O4_17 
REMARK   14  A    between atoms: C14_18  and  C15_19 
REMARK   15  A    between atoms: C17_22  and  O6_23 
REMARK   16  A    between atoms: C17_22  and  C18_24 
REMARK   17  A    between atoms: C18_24  and  C19_25 
REMARK   18  A    between atoms: C20_26  and  C21_27 
REMARK   19  A    between atoms: C21_27  and  C23_29 
REMARK   20  A    between atoms: C23_29  and  O7_31 
REMARK   21  A    between atoms: C25_32  and  O8_33 
ROOT
HETATM    1  C15 UNL     1      -2.359   7.473  13.790  1.00  0.00     0.197 C 
HETATM    2  O5  UNL     1      -1.913   7.259  12.438  1.00  0.00    -0.375 OA
HETATM    3  C16 UNL     1      -1.011   8.275  12.000  1.00  0.00     0.210 C 
HETATM    4  C17 UNL     1       0.301   8.242  12.809  1.00  0.00     0.115 C 
HETATM    5  C25 UNL     1      -0.042   8.468  14.299  1.00  0.00     0.227 C 
HETATM    6  C26 UNL     1      -1.137   7.496  14.715  1.00  0.00     0.187 C 
HETATM    7  O9  UNL     1      -1.020   6.799  15.723  1.00  0.00    -0.292 OA
ENDROOT
BRANCH   1   8
HETATM    8  C14 UNL     1      -3.354   6.351  14.132  1.00  0.00     0.073 C 
BRANCH   8   9
HETATM    9  C2  UNL     1      -4.775   6.847  14.360  1.00  0.00    -0.075 C 
HETATM   10  C1  UNL     1      -5.202   7.997  13.484  1.00  0.00     0.043 C 
HETATM   11  C3  UNL     1      -5.528   6.289  15.331  1.00  0.00     0.084 C 
BRANCH  11  12
HETATM   12  C4  UNL     1      -6.924   6.598  15.713  1.00  0.00     0.283 C 
HETATM   13  O1  UNL     1      -7.195   7.492  16.499  1.00  0.00    -0.260 OA
BRANCH  12  14
HETATM   14  O2  UNL     1      -7.796   5.734  15.145  1.00  0.00    -0.318 OA
BRANCH  14  15
HETATM   15  C5  UNL     1      -8.551   6.247  14.036  1.00  0.00     0.179 C 
BRANCH  15  16
HETATM   16  C6  UNL     1      -8.502   5.256  12.875  1.00  0.00     0.027 C 
BRANCH  16  17
HETATM   17  C7  UNL     1      -7.681   3.998  13.165  1.00  0.00     0.002 C 
BRANCH  17  18
HETATM   18  C8  UNL     1      -6.278   4.033  12.560  1.00  0.00     0.000 C 
BRANCH  18  19
HETATM   19  C9  UNL     1      -5.978   2.873  11.602  1.00  0.00     0.000 C 
BRANCH  19  20
HETATM   20  C10 UNL     1      -4.720   3.059  10.745  1.00  0.00     0.001 C 
BRANCH  20  21
HETATM   21  C11 UNL     1      -3.406   3.301  11.504  1.00  0.00     0.010 C 
BRANCH  21  22
HETATM   22  C12 UNL     1      -2.148   3.208  10.636  1.00  0.00     0.110 C 
BRANCH  22  23
HETATM   23  C13 UNL     1      -1.301   1.994  10.918  1.00  0.00     0.139 C 
HETATM   24  O3  UNL     1      -0.102   1.949  11.123  1.00  0.00    -0.650 OA
BRANCH  23  25
HETATM   25  O4  UNL     1      -2.033   0.861  10.906  1.00  0.00    -0.776 OA
HETATM   26  H21 UNL     1      -1.379   0.155  11.084  1.00  0.00     0.167 HD
ENDBRANCH  23  25
ENDBRANCH  22  23
ENDBRANCH  21  22
ENDBRANCH  20  21
ENDBRANCH  19  20
ENDBRANCH  18  19
ENDBRANCH  17  18
ENDBRANCH  16  17
ENDBRANCH  15  16
ENDBRANCH  14  15
ENDBRANCH  12  14
ENDBRANCH  11  12
ENDBRANCH   8   9
ENDBRANCH   1   8
BRANCH   5  27
HETATM   27  O8  UNL     1      -0.489   9.814  14.491  1.00  0.00    -0.385 OA
HETATM   28  H42 UNL     1       0.156  10.364  14.000  1.00  0.00     0.210 HD
ENDBRANCH   5  27
BRANCH   4  29
HETATM   29  O6  UNL     1       1.133   9.351  12.401  1.00  0.00    -0.384 OA
HETATM   30  H27 UNL     1       1.494   9.137  11.521  1.00  0.00     0.210 HD
ENDBRANCH   4  29
BRANCH   4  31
HETATM   31  C18 UNL     1       1.089   6.915  12.653  1.00  0.00     0.070 C 
BRANCH  31  32
HETATM   32  C19 UNL     1       2.089   6.896  11.520  1.00  0.00    -0.027 C 
HETATM   33  C20 UNL     1       1.753   6.988  10.223  1.00  0.00    -0.024 C 
BRANCH  33  34
HETATM   34  C21 UNL     1       2.690   7.071   9.024  1.00  0.00     0.032 C 
HETATM   35  C22 UNL     1       3.073   5.706   8.435  1.00  0.00     0.017 C 
BRANCH  34  36
HETATM   36  C23 UNL     1       2.163   8.006   7.902  1.00  0.00     0.121 C 
HETATM   37  C24 UNL     1       1.694   7.275   6.649  1.00  0.00     0.040 C 
BRANCH  36  38
HETATM   38  O7  UNL     1       3.149   8.968   7.522  1.00  0.00    -0.395 OA
HETATM   39  H40 UNL     1       3.974   8.488   7.348  1.00  0.00     0.210 HD
ENDBRANCH  36  38
ENDBRANCH  34  36
ENDBRANCH  33  34
ENDBRANCH  31  32
ENDBRANCH   4  31
TORSDOF 21
ENDMDL
MODEL 2
REMARK minimizedAffinity -7.63703632
REMARK  21 active torsions:
REMARK  status: ('A' for Active; 'I' for Inactive)
REMARK    1  A    between atoms: C2_2  and  C14_18 
REMARK    2  A    between atoms: C3_3  and  C4_4 
REMARK    3  A    between atoms: C4_4  and  O2_6 
REMARK    4  A    between atoms: O2_6  and  C5_7 
REMARK    5  A    between atoms: C5_7  and  C6_8 
REMARK    6  A    between atoms: C6_8  and  C7_9 
REMARK    7  A    between atoms: C7_9  and  C8_10 
REMARK    8  A    between atoms: C8_10  and  C9_11 
REMARK    9  A    between atoms: C9_11  and  C10_12 
REMARK   10  A    between atoms: C10_12  and  C11_13 
REMARK   11  A    between atoms: C11_13  and  C12_14 
REMARK   12  A    between atoms: C12_14  and  C13_15 
REMARK   13  A    between atoms: C13_15  and  O4_17 
REMARK   14  A    between atoms: C14_18  and  C15_19 
REMARK   15  A    between atoms: C17_22  and  O6_23 
REMARK   16  A    between atoms: C17_22  and  C18_24 
REMARK   17  A    between atoms: C18_24  and  C19_25 
REMARK   18  A    between atoms: C20_26  and  C21_27 
REMARK   19  A    between atoms: C21_27  and  C23_29 
REMARK   20  A    between atoms: C23_29  and  O7_31 
REMARK   21  A    between atoms: C25_32  and  O8_33 
ROOT
HETATM    1  C15 UNL     1      -0.764   8.364  14.520  1.00  0.00     0.197 C 
HETATM    2  O5  UNL     1      -1.055   7.067  13.967  1.00  0.00    -0.375 OA
HETATM    3  C16 UNL     1      -1.692   6.208  14.914  1.00  0.00     0.210 C 
HETATM    4  C17 UNL     1      -3.085   6.743  15.302  1.00  0.00     0.115 C 
HETATM    5  C25 UNL     1      -2.910   8.147  15.922  1.00  0.00     0.227 C 
HETATM    6  C26 UNL     1      -2.075   9.009  14.985  1.00  0.00     0.187 C 
HETATM    7  O9  UNL     1      -2.450  10.132  14.648  1.00  0.00    -0.292 OA
ENDROOT
BRANCH   1   8
HETATM    8  C14 UNL     1      -0.042   9.179  13.432  1.00  0.00     0.073 C 
BRANCH   8   9
HETATM    9  C2  UNL     1      -0.519   8.865  12.021  1.00  0.00    -0.075 C 
HETATM   10  C1  UNL     1      -2.010   8.711  11.866  1.00  0.00     0.043 C 
HETATM   11  C3  UNL     1       0.386   8.696  11.034  1.00  0.00     0.084 C 
BRANCH  11  12
HETATM   12  C4  UNL     1       0.152   8.405   9.603  1.00  0.00     0.283 C 
HETATM   13  O1  UNL     1      -0.496   9.154   8.889  1.00  0.00    -0.260 OA
BRANCH  12  14
HETATM   14  O2  UNL     1       0.675   7.209   9.249  1.00  0.00    -0.318 OA
BRANCH  14  15
HETATM   15  C5  UNL     1       2.021   7.239   8.747  1.00  0.00     0.179 C 
BRANCH  15  16
HETATM   16  C6  UNL     1       2.788   6.019   9.251  1.00  0.00     0.027 C 
BRANCH  16  17
HETATM   17  C7  UNL     1       2.597   5.736  10.742  1.00  0.00     0.002 C 
BRANCH  17  18
HETATM   18  C8  UNL     1       1.670   4.553  11.023  1.00  0.00     0.000 C 
BRANCH  18  19
HETATM   19  C9  UNL     1       0.509   4.876  11.973  1.00  0.00     0.000 C 
BRANCH  19  20
HETATM   20  C10 UNL     1      -0.833   5.135  11.279  1.00  0.00     0.001 C 
BRANCH  20  21
HETATM   21  C11 UNL     1      -1.973   4.158  11.608  1.00  0.00     0.010 C 
BRANCH  21  22
HETATM   22  C12 UNL     1      -2.194   3.068  10.556  1.00  0.00     0.110 C 
BRANCH  22  23
HETATM   23  C13 UNL     1      -1.472   1.779  10.853  1.00  0.00     0.139 C 
HETATM   24  O3  UNL     1      -0.273   1.599  10.954  1.00  0.00    -0.650 OA
BRANCH  23  25
HETATM   25  O4  UNL     1      -2.329   0.747  10.991  1.00  0.00    -0.776 OA
HETATM   26  H21 UNL     1      -1.748  -0.022  11.164  1.00  0.00     0.167 HD
ENDBRANCH  23  25
ENDBRANCH  22  23
ENDBRANCH  21  22
ENDBRANCH  20  21
ENDBRANCH  19  20
ENDBRANCH  18  19
ENDBRANCH  17  18
ENDBRANCH  16  17
ENDBRANCH  15  16
ENDBRANCH  14  15
ENDBRANCH  12  14
ENDBRANCH  11  12
ENDBRANCH   8   9
ENDBRANCH   1   8
BRANCH   5  27
HETATM   27  O8  UNL     1      -2.256   8.036  17.191  1.00  0.00    -0.385 OA
HETATM   28  H42 UNL     1      -2.720   7.303  17.646  1.00  0.00     0.210 HD
ENDBRANCH   5  27
BRANCH   4  29
HETATM   29  O6  UNL     1      -3.641   5.899  16.336  1.00  0.00    -0.384 OA
HETATM   30  H27 UNL     1      -3.912   5.063  15.915  1.00  0.00     0.210 HD
ENDBRANCH   4  29
BRANCH   4  31
HETATM   31  C18 UNL     1      -4.071   6.821  14.107  1.00  0.00     0.070 C 
BRANCH  31  32
HETATM   32  C19 UNL     1      -5.413   6.168  14.345  1.00  0.00    -0.027 C 
HETATM   33  C20 UNL     1      -6.313   5.931  13.375  1.00  0.00    -0.024 C 
BRANCH  33  34
HETATM   34  C21 UNL     1      -7.644   5.199  13.502  1.00  0.00     0.032 C 
HETATM   35  C22 UNL     1      -8.739   5.729  12.564  1.00  0.00     0.017 C 
BRANCH  34  36
HETATM   36  C23 UNL     1      -7.510   3.660  13.350  1.00  0.00     0.121 C 
HETATM   37  C24 UNL     1      -6.426   3.222  12.371  1.00  0.00     0.040 C 
BRANCH  36  38
HETATM   38  O7  UNL     1      -8.747   3.068  12.949  1.00  0.00    -0.395 OA
HETATM   39  H40 UNL     1      -9.073   3.563  12.181  1.00  0.00     0.210 HD
ENDBRANCH  36  38
ENDBRANCH  34  36
ENDBRANCH  33  34
ENDBRANCH  31  32
ENDBRANCH   4  31
TORSDOF 21
ENDMDL
MODEL 3
REMARK minimizedAffinity -7.5357604
REMARK  21 active torsions:
REMARK  status: ('A' for Active; 'I' for Inactive)
REMARK    1  A    between atoms: C2_2  and  C14_18 
REMARK    2  A    between atoms: C3_3  and  C4_4 
REMARK    3  A    between atoms: C4_4  and  O2_6 
REMARK    4  A    between atoms: O2_6  and  C5_7 
REMARK    5  A    between atoms: C5_7  and  C6_8 
REMARK    6  A    between atoms: C6_8  and  C7_9 
REMARK    7  A    between atoms: C7_9  and  C8_10 
REMARK    8  A    between atoms: C8_10  and  C9_11 
REMARK    9  A    between atoms: C9_11  and  C10_12 
REMARK   10  A    between atoms: C10_12  and  C11_13 
REMARK   11  A    between atoms: C11_13  and  C12_14 
REMARK   12  A    between atoms: C12_14  and  C13_15 
REMARK   13  A    between atoms: C13_15  and  O4_17 
REMARK   14  A    between atoms: C14_18  and  C15_19 
REMARK   15  A    between atoms: C17_22  and  O6_23 
REMARK   16  A    between atoms: C17_22  and  C18_24 
REMARK   17  A    between atoms: C18_24  and  C19_25 
REMARK   18  A    between atoms: C20_26  and  C21_27 
REMARK   19  A    between atoms: C21_27  and  C23_29 
REMARK   20  A    between atoms: C23_29  and  O7_31 
REMARK   21  A    between atoms: C25_32  and  O8_33 
ROOT
HETATM    1  C15 UNL     1       0.235   7.006  13.699  1.00  0.00     0.197 C 
HETATM    2  O5  UNL     1      -0.506   5.819  13.362  1.00  0.00    -0.375 OA
HETATM    3  C16 UNL     1      -1.369   5.403  14.422  1.00  0.00     0.210 C 
HETATM    4  C17 UNL     1      -2.476   6.445  14.680  1.00  0.00     0.115 C 
HETATM    5  C25 UNL     1      -1.804   7.783  15.061  1.00  0.00     0.227 C 
HETATM    6  C26 UNL     1      -0.754   8.134  14.016  1.00  0.00     0.187 C 
HETATM    7  O9  UNL     1      -0.728   9.245  13.488  1.00  0.00    -0.292 OA
ENDROOT
BRANCH   1   8
HETATM    8  C14 UNL     1       1.157   7.329  12.510  1.00  0.00     0.073 C 
BRANCH   8   9
HETATM    9  C2  UNL     1       0.440   7.329  11.168  1.00  0.00    -0.075 C 
HETATM   10  C1  UNL     1      -0.205   6.022  10.784  1.00  0.00     0.043 C 
HETATM   11  C3  UNL     1       0.464   8.438  10.399  1.00  0.00     0.084 C 
BRANCH  11  12
HETATM   12  C4  UNL     1      -0.171   8.667   9.082  1.00  0.00     0.283 C 
HETATM   13  O1  UNL     1      -1.176   9.348   8.959  1.00  0.00    -0.260 OA
BRANCH  12  14
HETATM   14  O2  UNL     1       0.459   7.978   8.103  1.00  0.00    -0.318 OA
BRANCH  14  15
HETATM   15  C5  UNL     1       1.891   7.916   8.204  1.00  0.00     0.179 C 
BRANCH  15  16
HETATM   16  C6  UNL     1       2.365   6.488   7.949  1.00  0.00     0.027 C 
BRANCH  16  17
HETATM   17  C7  UNL     1       3.286   5.933   9.038  1.00  0.00     0.002 C 
BRANCH  17  18
HETATM   18  C8  UNL     1       3.979   7.019   9.860  1.00  0.00     0.000 C 
BRANCH  18  19
HETATM   19  C9  UNL     1       4.540   6.529  11.202  1.00  0.00     0.000 C 
BRANCH  19  20
HETATM   20  C10 UNL     1       5.117   7.633  12.096  1.00  0.00     0.001 C 
BRANCH  20  21
HETATM   21  C11 UNL     1       6.221   7.210  13.078  1.00  0.00     0.010 C 
BRANCH  21  22
HETATM   22  C12 UNL     1       6.713   8.332  13.997  1.00  0.00     0.110 C 
BRANCH  22  23
HETATM   23  C13 UNL     1       6.390   8.112  15.452  1.00  0.00     0.139 C 
HETATM   24  O3  UNL     1       6.867   8.680  16.418  1.00  0.00    -0.650 OA
BRANCH  23  25
HETATM   25  O4  UNL     1       5.468   7.143  15.619  1.00  0.00    -0.776 OA
HETATM   26  H21 UNL     1       5.357   7.086  16.590  1.00  0.00     0.167 HD
ENDBRANCH  23  25
ENDBRANCH  22  23
ENDBRANCH  21  22
ENDBRANCH  20  21
ENDBRANCH  19  20
ENDBRANCH  18  19
ENDBRANCH  17  18
ENDBRANCH  16  17
ENDBRANCH  15  16
ENDBRANCH  14  15
ENDBRANCH  12  14
ENDBRANCH  11  12
ENDBRANCH   8   9
ENDBRANCH   1   8
BRANCH   5  27
HETATM   27  O8  UNL     1      -1.187   7.662  16.348  1.00  0.00    -0.385 OA
HETATM   28  H42 UNL     1      -1.860   7.222  16.907  1.00  0.00     0.210 HD
ENDBRANCH   5  27
BRANCH   4  29
HETATM   29  O6  UNL     1      -3.254   6.029  15.825  1.00  0.00    -0.384 OA
HETATM   30  H27 UNL     1      -3.813   5.282  15.542  1.00  0.00     0.210 HD
ENDBRANCH   4  29
BRANCH   4  31
HETATM   31  C18 UNL     1      -3.414   6.662  13.464  1.00  0.00     0.070 C 
BRANCH  31  32
HETATM   32  C19 UNL     1      -4.556   5.678  13.355  1.00  0.00    -0.027 C 
HETATM   33  C20 UNL     1      -4.518   4.567  12.601  1.00  0.00    -0.024 C 
BRANCH  33  34
HETATM   34  C21 UNL     1      -5.577   3.475  12.501  1.00  0.00     0.032 C 
HETATM   35  C22 UNL     1      -6.997   3.950  12.842  1.00  0.00     0.017 C 
BRANCH  34  36
HETATM   36  C23 UNL     1      -5.573   2.745  11.131  1.00  0.00     0.121 C 
HETATM   37  C24 UNL     1      -5.895   1.257  11.216  1.00  0.00     0.040 C 
BRANCH  36  38
HETATM   38  O7  UNL     1      -4.319   2.899  10.464  1.00  0.00    -0.395 OA
HETATM   39  H40 UNL     1      -3.621   2.661  11.096  1.00  0.00     0.210 HD
ENDBRANCH  36  38
ENDBRANCH  34  36
ENDBRANCH  33  34
ENDBRANCH  31  32
ENDBRANCH   4  31
TORSDOF 21
ENDMDL
MODEL 4
REMARK minimizedAffinity -7.51164389
REMARK  21 active torsions:
REMARK  status: ('A' for Active; 'I' for Inactive)
REMARK    1  A    between atoms: C2_2  and  C14_18 
REMARK    2  A    between atoms: C3_3  and  C4_4 
REMARK    3  A    between atoms: C4_4  and  O2_6 
REMARK    4  A    between atoms: O2_6  and  C5_7 
REMARK    5  A    between atoms: C5_7  and  C6_8 
REMARK    6  A    between atoms: C6_8  and  C7_9 
REMARK    7  A    between atoms: C7_9  and  C8_10 
REMARK    8  A    between atoms: C8_10  and  C9_11 
REMARK    9  A    between atoms: C9_11  and  C10_12 
REMARK   10  A    between atoms: C10_12  and  C11_13 
REMARK   11  A    between atoms: C11_13  and  C12_14 
REMARK   12  A    between atoms: C12_14  and  C13_15 
REMARK   13  A    between atoms: C13_15  and  O4_17 
REMARK   14  A    between atoms: C14_18  and  C15_19 
REMARK   15  A    between atoms: C17_22  and  O6_23 
REMARK   16  A    between atoms: C17_22  and  C18_24 
REMARK   17  A    between atoms: C18_24  and  C19_25 
REMARK   18  A    between atoms: C20_26  and  C21_27 
REMARK   19  A    between atoms: C21_27  and  C23_29 
REMARK   20  A    between atoms: C23_29  and  O7_31 
REMARK   21  A    between atoms: C25_32  and  O8_33 
ROOT
HETATM    1  C15 UNL     1      -0.552   6.592  12.658  1.00  0.00     0.197 C 
HETATM    2  O5  UNL     1      -1.757   5.834  12.447  1.00  0.00    -0.375 OA
HETATM    3  C16 UNL     1      -2.250   5.257  13.656  1.00  0.00     0.210 C 
HETATM    4  C17 UNL     1      -2.694   6.346  14.653  1.00  0.00     0.115 C 
HETATM    5  C25 UNL     1      -1.473   7.238  14.972  1.00  0.00     0.227 C 
HETATM    6  C26 UNL     1      -0.841   7.709  13.669  1.00  0.00     0.187 C 
HETATM    7  O9  UNL     1      -0.592   8.898  13.475  1.00  0.00    -0.292 OA
ENDROOT
BRANCH   1   8
HETATM    8  C14 UNL     1      -0.092   7.123  11.289  1.00  0.00     0.073 C 
BRANCH   8   9
HETATM    9  C2  UNL     1       0.986   6.270  10.637  1.00  0.00    -0.075 C 
HETATM   10  C1  UNL     1       1.221   4.928  11.283  1.00  0.00     0.043 C 
HETATM   11  C3  UNL     1       1.684   6.760   9.591  1.00  0.00     0.084 C 
BRANCH  11  12
HETATM   12  C4  UNL     1       2.752   6.109   8.802  1.00  0.00     0.283 C 
HETATM   13  O1  UNL     1       2.575   5.747   7.650  1.00  0.00    -0.260 OA
BRANCH  12  14
HETATM   14  O2  UNL     1       3.869   5.919   9.542  1.00  0.00    -0.318 OA
BRANCH  14  15
HETATM   15  C5  UNL     1       4.415   7.095  10.162  1.00  0.00     0.179 C 
BRANCH  15  16
HETATM   16  C6  UNL     1       5.070   6.723  11.490  1.00  0.00     0.027 C 
BRANCH  16  17
HETATM   17  C7  UNL     1       4.829   7.738  12.609  1.00  0.00     0.002 C 
BRANCH  17  18
HETATM   18  C8  UNL     1       5.929   7.748  13.670  1.00  0.00     0.000 C 
BRANCH  18  19
HETATM   19  C9  UNL     1       7.353   7.696  13.100  1.00  0.00     0.000 C 
BRANCH  19  20
HETATM   20  C10 UNL     1       8.315   8.735  13.687  1.00  0.00     0.001 C 
BRANCH  20  21
HETATM   21  C11 UNL     1       9.605   8.190  14.321  1.00  0.00     0.010 C 
BRANCH  21  22
HETATM   22  C12 UNL     1       9.408   7.540  15.694  1.00  0.00     0.110 C 
BRANCH  22  23
HETATM   23  C13 UNL     1       8.824   8.466  16.729  1.00  0.00     0.139 C 
HETATM   24  O3  UNL     1       7.649   8.659  16.981  1.00  0.00    -0.650 OA
BRANCH  23  25
HETATM   25  O4  UNL     1       9.784   9.135  17.399  1.00  0.00    -0.776 OA
HETATM   26  H21 UNL     1       9.285   9.703  18.022  1.00  0.00     0.167 HD
ENDBRANCH  23  25
ENDBRANCH  22  23
ENDBRANCH  21  22
ENDBRANCH  20  21
ENDBRANCH  19  20
ENDBRANCH  18  19
ENDBRANCH  17  18
ENDBRANCH  16  17
ENDBRANCH  15  16
ENDBRANCH  14  15
ENDBRANCH  12  14
ENDBRANCH  11  12
ENDBRANCH   8   9
ENDBRANCH   1   8
BRANCH   5  27
HETATM   27  O8  UNL     1      -0.517   6.493  15.734  1.00  0.00    -0.385 OA
HETATM   28  H42 UNL     1      -1.046   6.041  16.424  1.00  0.00     0.210 HD
ENDBRANCH   5  27
BRANCH   4  29
HETATM   29  O6  UNL     1      -3.084   5.716  15.894  1.00  0.00    -0.384 OA
HETATM   30  H27 UNL     1      -3.947   5.288  15.746  1.00  0.00     0.210 HD
ENDBRANCH   4  29
BRANCH   4  31
HETATM   31  C18 UNL     1      -3.858   7.226  14.127  1.00  0.00     0.070 C 
BRANCH  31  32
HETATM   32  C19 UNL     1      -5.242   6.722  14.467  1.00  0.00    -0.027 C 
HETATM   33  C20 UNL     1      -5.899   5.797  13.747  1.00  0.00    -0.024 C 
BRANCH  33  34
HETATM   34  C21 UNL     1      -7.249   5.163  14.060  1.00  0.00     0.032 C 
HETATM   35  C22 UNL     1      -8.452   5.976  13.558  1.00  0.00     0.017 C 
BRANCH  34  36
HETATM   36  C23 UNL     1      -7.359   3.693  13.575  1.00  0.00     0.121 C 
HETATM   37  C24 UNL     1      -6.413   3.340  12.433  1.00  0.00     0.040 C 
BRANCH  36  38
HETATM   38  O7  UNL     1      -8.693   3.377  13.172  1.00  0.00    -0.395 OA
HETATM   39  H40 UNL     1      -8.983   4.070  12.558  1.00  0.00     0.210 HD
ENDBRANCH  36  38
ENDBRANCH  34  36
ENDBRANCH  33  34
ENDBRANCH  31  32
ENDBRANCH   4  31
TORSDOF 21
ENDMDL
MODEL 5
REMARK minimizedAffinity -7.39244795
REMARK  21 active torsions:
REMARK  status: ('A' for Active; 'I' for Inactive)
REMARK    1  A    between atoms: C2_2  and  C14_18 
REMARK    2  A    between atoms: C3_3  and  C4_4 
REMARK    3  A    between atoms: C4_4  and  O2_6 
REMARK    4  A    between atoms: O2_6  and  C5_7 
REMARK    5  A    between atoms: C5_7  and  C6_8 
REMARK    6  A    between atoms: C6_8  and  C7_9 
REMARK    7  A    between atoms: C7_9  and  C8_10 
REMARK    8  A    between atoms: C8_10  and  C9_11 
REMARK    9  A    between atoms: C9_11  and  C10_12 
REMARK   10  A    between atoms: C10_12  and  C11_13 
REMARK   11  A    between atoms: C11_13  and  C12_14 
REMARK   12  A    between atoms: C12_14  and  C13_15 
REMARK   13  A    between atoms: C13_15  and  O4_17 
REMARK   14  A    between atoms: C14_18  and  C15_19 
REMARK   15  A    between atoms: C17_22  and  O6_23 
REMARK   16  A    between atoms: C17_22  and  C18_24 
REMARK   17  A    between atoms: C18_24  and  C19_25 
REMARK   18  A    between atoms: C20_26  and  C21_27 
REMARK   19  A    between atoms: C21_27  and  C23_29 
REMARK   20  A    between atoms: C23_29  and  O7_31 
REMARK   21  A    between atoms: C25_32  and  O8_33 
ROOT
HETATM    1  C15 UNL     1       0.307   7.314  11.627  1.00  0.00     0.197 C 
HETATM    2  O5  UNL     1      -0.133   5.947  11.728  1.00  0.00    -0.375 OA
HETATM    3  C16 UNL     1      -0.017   5.440  13.058  1.00  0.00     0.210 C 
HETATM    4  C17 UNL     1      -0.962   6.183  14.023  1.00  0.00     0.115 C 
HETATM    5  C25 UNL     1      -0.587   7.681  14.011  1.00  0.00     0.227 C 
HETATM    6  C26 UNL     1      -0.538   8.176  12.572  1.00  0.00     0.187 C 
HETATM    7  O9  UNL     1      -1.139   9.194  12.228  1.00  0.00    -0.292 OA
ENDROOT
BRANCH   1   8
HETATM    8  C14 UNL     1       0.180   7.734  10.152  1.00  0.00     0.073 C 
BRANCH   8   9
HETATM    9  C2  UNL     1       1.347   7.278   9.288  1.00  0.00    -0.075 C 
HETATM   10  C1  UNL     1       1.521   8.032   7.995  1.00  0.00     0.043 C 
HETATM   11  C3  UNL     1       2.102   6.232   9.684  1.00  0.00     0.084 C 
BRANCH  11  12
HETATM   12  C4  UNL     1       3.281   5.635   9.019  1.00  0.00     0.283 C 
HETATM   13  O1  UNL     1       3.203   5.103   7.923  1.00  0.00    -0.260 OA
BRANCH  12  14
HETATM   14  O2  UNL     1       4.379   5.701   9.805  1.00  0.00    -0.318 OA
BRANCH  14  15
HETATM   15  C5  UNL     1       4.322   6.653  10.880  1.00  0.00     0.179 C 
BRANCH  15  16
HETATM   16  C6  UNL     1       5.064   7.926  10.483  1.00  0.00     0.027 C 
BRANCH  16  17
HETATM   17  C7  UNL     1       6.453   8.059  11.110  1.00  0.00     0.002 C 
BRANCH  17  18
HETATM   18  C8  UNL     1       6.830   6.884  12.010  1.00  0.00     0.000 C 
BRANCH  18  19
HETATM   19  C9  UNL     1       6.520   7.105  13.497  1.00  0.00     0.000 C 
BRANCH  19  20
HETATM   20  C10 UNL     1       7.109   8.391  14.089  1.00  0.00     0.001 C 
BRANCH  20  21
HETATM   21  C11 UNL     1       8.641   8.455  14.197  1.00  0.00     0.010 C 
BRANCH  21  22
HETATM   22  C12 UNL     1       9.158   9.363  15.316  1.00  0.00     0.110 C 
BRANCH  22  23
HETATM   23  C13 UNL     1       9.150   8.716  16.677  1.00  0.00     0.139 C 
HETATM   24  O3  UNL     1       9.210   7.530  16.943  1.00  0.00    -0.650 OA
BRANCH  23  25
HETATM   25  O4  UNL     1       9.045   9.630  17.663  1.00  0.00    -0.776 OA
HETATM   26  H21 UNL     1       9.037   9.094  18.483  1.00  0.00     0.167 HD
ENDBRANCH  23  25
ENDBRANCH  22  23
ENDBRANCH  21  22
ENDBRANCH  20  21
ENDBRANCH  19  20
ENDBRANCH  18  19
ENDBRANCH  17  18
ENDBRANCH  16  17
ENDBRANCH  15  16
ENDBRANCH  14  15
ENDBRANCH  12  14
ENDBRANCH  11  12
ENDBRANCH   8   9
ENDBRANCH   1   8
BRANCH   5  27
HETATM   27  O8  UNL     1       0.691   7.863  14.631  1.00  0.00    -0.385 OA
HETATM   28  H42 UNL     1       0.649   7.326  15.450  1.00  0.00     0.210 HD
ENDBRANCH   5  27
BRANCH   4  29
HETATM   29  O6  UNL     1      -0.731   5.706  15.367  1.00  0.00    -0.384 OA
HETATM   30  H27 UNL     1      -1.120   4.815  15.432  1.00  0.00     0.210 HD
ENDBRANCH   4  29
BRANCH   4  31
HETATM   31  C18 UNL     1      -2.463   6.020  13.663  1.00  0.00     0.070 C 
BRANCH  31  32
HETATM   32  C19 UNL     1      -2.839   4.672  13.094  1.00  0.00    -0.027 C 
HETATM   33  C20 UNL     1      -3.852   4.479  12.232  1.00  0.00    -0.024 C 
BRANCH  33  34
HETATM   34  C21 UNL     1      -4.246   3.181  11.537  1.00  0.00     0.032 C 
HETATM   35  C22 UNL     1      -3.215   2.052  11.691  1.00  0.00     0.017 C 
BRANCH  34  36
HETATM   36  C23 UNL     1      -5.655   2.674  11.945  1.00  0.00     0.121 C 
HETATM   37  C24 UNL     1      -6.079   1.383  11.253  1.00  0.00     0.040 C 
BRANCH  36  38
HETATM   38  O7  UNL     1      -6.654   3.667  11.703  1.00  0.00    -0.395 OA
HETATM   39  H40 UNL     1      -6.541   3.977  10.791  1.00  0.00     0.210 HD
ENDBRANCH  36  38
ENDBRANCH  34  36
ENDBRANCH  33  34
ENDBRANCH  31  32
ENDBRANCH   4  31
TORSDOF 21
ENDMDL
MODEL 6
REMARK minimizedAffinity -7.29078007
REMARK  21 active torsions:
REMARK  status: ('A' for Active; 'I' for Inactive)
REMARK    1  A    between atoms: C2_2  and  C14_18 
REMARK    2  A    between atoms: C3_3  and  C4_4 
REMARK    3  A    between atoms: C4_4  and  O2_6 
REMARK    4  A    between atoms: O2_6  and  C5_7 
REMARK    5  A    between atoms: C5_7  and  C6_8 
REMARK    6  A    between atoms: C6_8  and  C7_9 
REMARK    7  A    between atoms: C7_9  and  C8_10 
REMARK    8  A    between atoms: C8_10  and  C9_11 
REMARK    9  A    between atoms: C9_11  and  C10_12 
REMARK   10  A    between atoms: C10_12  and  C11_13 
REMARK   11  A    between atoms: C11_13  and  C12_14 
REMARK   12  A    between atoms: C12_14  and  C13_15 
REMARK   13  A    between atoms: C13_15  and  O4_17 
REMARK   14  A    between atoms: C14_18  and  C15_19 
REMARK   15  A    between atoms: C17_22  and  O6_23 
REMARK   16  A    between atoms: C17_22  and  C18_24 
REMARK   17  A    between atoms: C18_24  and  C19_25 
REMARK   18  A    between atoms: C20_26  and  C21_27 
REMARK   19  A    between atoms: C21_27  and  C23_29 
REMARK   20  A    between atoms: C23_29  and  O7_31 
REMARK   21  A    between atoms: C25_32  and  O8_33 
ROOT
HETATM    1  C15 UNL     1      -2.269   8.135  14.112  1.00  0.00     0.197 C 
HETATM    2  O5  UNL     1      -1.183   8.572  13.274  1.00  0.00    -0.375 OA
HETATM    3  C16 UNL     1       0.079   8.082  13.727  1.00  0.00     0.210 C 
HETATM    4  C17 UNL     1       0.152   6.545  13.619  1.00  0.00     0.115 C 
HETATM    5  C25 UNL     1      -0.974   5.944  14.490  1.00  0.00     0.227 C 
HETATM    6  C26 UNL     1      -2.298   6.602  14.125  1.00  0.00     0.187 C 
HETATM    7  O9  UNL     1      -3.294   5.927  13.867  1.00  0.00    -0.292 OA
ENDROOT
BRANCH   1   8
HETATM    8  C14 UNL     1      -3.562   8.758  13.557  1.00  0.00     0.073 C 
BRANCH   8   9
HETATM    9  C2  UNL     1      -4.667   8.889  14.595  1.00  0.00    -0.075 C 
HETATM   10  C1  UNL     1      -4.278   9.607  15.861  1.00  0.00     0.043 C 
HETATM   11  C3  UNL     1      -5.873   8.331  14.359  1.00  0.00     0.084 C 
BRANCH  11  12
HETATM   12  C4  UNL     1      -7.084   8.347  15.209  1.00  0.00     0.283 C 
HETATM   13  O1  UNL     1      -7.909   9.245  15.141  1.00  0.00    -0.260 OA
BRANCH  12  14
HETATM   14  O2  UNL     1      -7.095   7.309  16.077  1.00  0.00    -0.318 OA
BRANCH  14  15
HETATM   15  C5  UNL     1      -8.146   6.348  15.889  1.00  0.00     0.179 C 
BRANCH  15  16
HETATM   16  C6  UNL     1      -7.545   4.971  15.619  1.00  0.00     0.027 C 
BRANCH  16  17
HETATM   17  C7  UNL     1      -6.943   4.817  14.221  1.00  0.00     0.002 C 
BRANCH  17  18
HETATM   18  C8  UNL     1      -7.973   4.457  13.151  1.00  0.00     0.000 C 
BRANCH  18  19
HETATM   19  C9  UNL     1      -7.883   3.009  12.653  1.00  0.00     0.000 C 
BRANCH  19  20
HETATM   20  C10 UNL     1      -6.455   2.492  12.439  1.00  0.00     0.001 C 
BRANCH  20  21
HETATM   21  C11 UNL     1      -5.666   3.125  11.283  1.00  0.00     0.010 C 
BRANCH  21  22
HETATM   22  C12 UNL     1      -4.208   3.454  11.618  1.00  0.00     0.110 C 
BRANCH  22  23
HETATM   23  C13 UNL     1      -3.278   2.272  11.520  1.00  0.00     0.139 C 
HETATM   24  O3  UNL     1      -2.063   2.280  11.456  1.00  0.00    -0.650 OA
BRANCH  23  25
HETATM   25  O4  UNL     1      -3.955   1.106  11.486  1.00  0.00    -0.776 OA
HETATM   26  H21 UNL     1      -3.253   0.428  11.409  1.00  0.00     0.167 HD
ENDBRANCH  23  25
ENDBRANCH  22  23
ENDBRANCH  21  22
ENDBRANCH  20  21
ENDBRANCH  19  20
ENDBRANCH  18  19
ENDBRANCH  17  18
ENDBRANCH  16  17
ENDBRANCH  15  16
ENDBRANCH  14  15
ENDBRANCH  12  14
ENDBRANCH  11  12
ENDBRANCH   8   9
ENDBRANCH   1   8
BRANCH   5  27
HETATM   27  O8  UNL     1      -0.685   6.171  15.874  1.00  0.00    -0.385 OA
HETATM   28  H42 UNL     1       0.259   5.928  15.975  1.00  0.00     0.210 HD
ENDBRANCH   5  27
BRANCH   4  29
HETATM   29  O6  UNL     1       1.402   6.093  14.185  1.00  0.00    -0.384 OA
HETATM   30  H27 UNL     1       2.108   6.322  13.553  1.00  0.00     0.210 HD
ENDBRANCH   4  29
BRANCH   4  31
HETATM   31  C18 UNL     1       0.019   6.022  12.165  1.00  0.00     0.070 C 
BRANCH  31  32
HETATM   32  C19 UNL     1       1.133   6.439  11.233  1.00  0.00    -0.027 C 
HETATM   33  C20 UNL     1       2.095   5.608  10.796  1.00  0.00    -0.024 C 
BRANCH  33  34
HETATM   34  C21 UNL     1       3.198   5.911   9.789  1.00  0.00     0.032 C 
HETATM   35  C22 UNL     1       2.682   6.303   8.397  1.00  0.00     0.017 C 
BRANCH  34  36
HETATM   36  C23 UNL     1       4.214   6.969  10.299  1.00  0.00     0.121 C 
HETATM   37  C24 UNL     1       4.207   8.272   9.507  1.00  0.00     0.040 C 
BRANCH  36  38
HETATM   38  O7  UNL     1       5.545   6.450  10.305  1.00  0.00    -0.395 OA
HETATM   39  H40 UNL     1       5.710   6.060   9.432  1.00  0.00     0.210 HD
ENDBRANCH  36  38
ENDBRANCH  34  36
ENDBRANCH  33  34
ENDBRANCH  31  32
ENDBRANCH   4  31
TORSDOF 21
ENDMDL
MODEL 7
REMARK minimizedAffinity -7.27137375
REMARK  21 active torsions:
REMARK  status: ('A' for Active; 'I' for Inactive)
REMARK    1  A    between atoms: C2_2  and  C14_18 
REMARK    2  A    between atoms: C3_3  and  C4_4 
REMARK    3  A    between atoms: C4_4  and  O2_6 
REMARK    4  A    between atoms: O2_6  and  C5_7 
REMARK    5  A    between atoms: C5_7  and  C6_8 
REMARK    6  A    between atoms: C6_8  and  C7_9 
REMARK    7  A    between atoms: C7_9  and  C8_10 
REMARK    8  A    between atoms: C8_10  and  C9_11 
REMARK    9  A    between atoms: C9_11  and  C10_12 
REMARK   10  A    between atoms: C10_12  and  C11_13 
REMARK   11  A    between atoms: C11_13  and  C12_14 
REMARK   12  A    between atoms: C12_14  and  C13_15 
REMARK   13  A    between atoms: C13_15  and  O4_17 
REMARK   14  A    between atoms: C14_18  and  C15_19 
REMARK   15  A    between atoms: C17_22  and  O6_23 
REMARK   16  A    between atoms: C17_22  and  C18_24 
REMARK   17  A    between atoms: C18_24  and  C19_25 
REMARK   18  A    between atoms: C20_26  and  C21_27 
REMARK   19  A    between atoms: C21_27  and  C23_29 
REMARK   20  A    between atoms: C23_29  and  O7_31 
REMARK   21  A    between atoms: C25_32  and  O8_33 
ROOT
HETATM    1  C15 UNL     1      -1.895   9.532  16.571  1.00  0.00     0.197 C 
HETATM    2  O5  UNL     1      -0.714   9.218  15.810  1.00  0.00    -0.375 OA
HETATM    3  C16 UNL     1      -0.573   7.815  15.588  1.00  0.00     0.210 C 
HETATM    4  C17 UNL     1      -1.713   7.273  14.703  1.00  0.00     0.115 C 
HETATM    5  C25 UNL     1      -3.055   7.546  15.418  1.00  0.00     0.227 C 
HETATM    6  C26 UNL     1      -3.124   9.015  15.813  1.00  0.00     0.187 C 
HETATM    7  O9  UNL     1      -4.104   9.705  15.533  1.00  0.00    -0.292 OA
ENDROOT
BRANCH   1   8
HETATM    8  C14 UNL     1      -1.916  11.056  16.786  1.00  0.00     0.073 C 
BRANCH   8   9
HETATM    9  C2  UNL     1      -0.800  11.558  17.690  1.00  0.00    -0.075 C 
HETATM   10  C1  UNL     1       0.159  12.527  17.048  1.00  0.00     0.043 C 
HETATM   11  C3  UNL     1      -0.701  11.088  18.950  1.00  0.00     0.084 C 
BRANCH  11  12
HETATM   12  C4  UNL     1       0.282  11.443  19.998  1.00  0.00     0.283 C 
HETATM   13  O1  UNL     1       0.550  12.604  20.265  1.00  0.00    -0.260 OA
BRANCH  12  14
HETATM   14  O2  UNL     1       0.861  10.342  20.529  1.00  0.00    -0.318 OA
BRANCH  14  15
HETATM   15  C5  UNL     1       2.156  10.538  21.119  1.00  0.00     0.179 C 
BRANCH  15  16
HETATM   16  C6  UNL     1       2.782   9.187  21.453  1.00  0.00     0.027 C 
BRANCH  16  17
HETATM   17  C7  UNL     1       2.968   8.940  22.952  1.00  0.00     0.002 C 
BRANCH  17  18
HETATM   18  C8  UNL     1       3.531  10.146  23.702  1.00  0.00     0.000 C 
BRANCH  18  19
HETATM   19  C9  UNL     1       4.861  10.670  23.144  1.00  0.00     0.000 C 
BRANCH  19  20
HETATM   20  C10 UNL     1       4.876  12.170  22.826  1.00  0.00     0.001 C 
BRANCH  20  21
HETATM   21  C11 UNL     1       6.188  12.916  23.115  1.00  0.00     0.010 C 
BRANCH  21  22
HETATM   22  C12 UNL     1       7.364  12.492  22.230  1.00  0.00     0.110 C 
BRANCH  22  23
HETATM   23  C13 UNL     1       8.648  12.272  22.987  1.00  0.00     0.139 C 
HETATM   24  O3  UNL     1       9.522  13.084  23.231  1.00  0.00    -0.650 OA
BRANCH  23  25
HETATM   25  O4  UNL     1       8.775  10.992  23.393  1.00  0.00    -0.776 OA
HETATM   26  H21 UNL     1       9.640  10.975  23.852  1.00  0.00     0.167 HD
ENDBRANCH  23  25
ENDBRANCH  22  23
ENDBRANCH  21  22
ENDBRANCH  20  21
ENDBRANCH  19  20
ENDBRANCH  18  19
ENDBRANCH  17  18
ENDBRANCH  16  17
ENDBRANCH  15  16
ENDBRANCH  14  15
ENDBRANCH  12  14
ENDBRANCH  11  12
ENDBRANCH   8   9
ENDBRANCH   1   8
BRANCH   5  27
HETATM   27  O8  UNL     1      -3.154   6.724  16.586  1.00  0.00    -0.385 OA
HETATM   28  H42 UNL     1      -2.877   5.833  16.288  1.00  0.00     0.210 HD
ENDBRANCH   5  27
BRANCH   4  29
HETATM   29  O6  UNL     1      -1.584   5.838  14.596  1.00  0.00    -0.384 OA
HETATM   30  H27 UNL     1      -0.832   5.655  14.002  1.00  0.00     0.210 HD
ENDBRANCH   4  29
BRANCH   4  31
HETATM   31  C18 UNL     1      -1.743   7.900  13.284  1.00  0.00     0.070 C 
BRANCH  31  32
HETATM   32  C19 UNL     1      -0.635   7.445  12.362  1.00  0.00    -0.027 C 
HETATM   33  C20 UNL     1      -0.332   8.049  11.201  1.00  0.00    -0.024 C 
BRANCH  33  34
HETATM   34  C21 UNL     1       0.819   7.722  10.257  1.00  0.00     0.032 C 
HETATM   35  C22 UNL     1       1.338   6.282  10.380  1.00  0.00     0.017 C 
BRANCH  34  36
HETATM   36  C23 UNL     1       0.501   8.049   8.773  1.00  0.00     0.121 C 
HETATM   37  C24 UNL     1       1.735   8.268   7.904  1.00  0.00     0.040 C 
BRANCH  36  38
HETATM   38  O7  UNL     1      -0.340   9.198   8.662  1.00  0.00    -0.395 OA
HETATM   39  H40 UNL     1       0.058   9.903   9.196  1.00  0.00     0.210 HD
ENDBRANCH  36  38
ENDBRANCH  34  36
ENDBRANCH  33  34
ENDBRANCH  31  32
ENDBRANCH   4  31
TORSDOF 21
ENDMDL
MODEL 8
REMARK minimizedAffinity -7.23107958
REMARK  21 active torsions:
REMARK  status: ('A' for Active; 'I' for Inactive)
REMARK    1  A    between atoms: C2_2  and  C14_18 
REMARK    2  A    between atoms: C3_3  and  C4_4 
REMARK    3  A    between atoms: C4_4  and  O2_6 
REMARK    4  A    between atoms: O2_6  and  C5_7 
REMARK    5  A    between atoms: C5_7  and  C6_8 
REMARK    6  A    between atoms: C6_8  and  C7_9 
REMARK    7  A    between atoms: C7_9  and  C8_10 
REMARK    8  A    between atoms: C8_10  and  C9_11 
REMARK    9  A    between atoms: C9_11  and  C10_12 
REMARK   10  A    between atoms: C10_12  and  C11_13 
REMARK   11  A    between atoms: C11_13  and  C12_14 
REMARK   12  A    between atoms: C12_14  and  C13_15 
REMARK   13  A    between atoms: C13_15  and  O4_17 
REMARK   14  A    between atoms: C14_18  and  C15_19 
REMARK   15  A    between atoms: C17_22  and  O6_23 
REMARK   16  A    between atoms: C17_22  and  C18_24 
REMARK   17  A    between atoms: C18_24  and  C19_25 
REMARK   18  A    between atoms: C20_26  and  C21_27 
REMARK   19  A    between atoms: C21_27  and  C23_29 
REMARK   20  A    between atoms: C23_29  and  O7_31 
REMARK   21  A    between atoms: C25_32  and  O8_33 
ROOT
HETATM    1  C15 UNL     1      -5.530   8.027  15.525  1.00  0.00     0.197 C 
HETATM    2  O5  UNL     1      -5.092   6.765  14.991  1.00  0.00    -0.375 OA
HETATM    3  C16 UNL     1      -5.681   5.657  15.672  1.00  0.00     0.210 C 
HETATM    4  C17 UNL     1      -7.208   5.617  15.455  1.00  0.00     0.115 C 
HETATM    5  C25 UNL     1      -7.809   6.932  15.998  1.00  0.00     0.227 C 
HETATM    6  C26 UNL     1      -7.056   8.114  15.402  1.00  0.00     0.187 C 
HETATM    7  O9  UNL     1      -7.655   9.050  14.872  1.00  0.00    -0.292 OA
ENDROOT
BRANCH   1   8
HETATM    8  C14 UNL     1      -4.798   9.137  14.749  1.00  0.00     0.073 C 
BRANCH   8   9
HETATM    9  C2  UNL     1      -3.375   8.768  14.358  1.00  0.00    -0.075 C 
HETATM   10  C1  UNL     1      -2.333   9.016  15.419  1.00  0.00     0.043 C 
HETATM   11  C3  UNL     1      -3.123   8.308  13.115  1.00  0.00     0.084 C 
BRANCH  11  12
HETATM   12  C4  UNL     1      -1.834   7.878  12.530  1.00  0.00     0.283 C 
HETATM   13  O1  UNL     1      -1.282   6.843  12.871  1.00  0.00    -0.260 OA
BRANCH  12  14
HETATM   14  O2  UNL     1      -1.353   8.797  11.662  1.00  0.00    -0.318 OA
BRANCH  14  15
HETATM   15  C5  UNL     1       0.070   8.784  11.462  1.00  0.00     0.179 C 
BRANCH  15  16
HETATM   16  C6  UNL     1       0.434   7.747  10.402  1.00  0.00     0.027 C 
BRANCH  16  17
HETATM   17  C7  UNL     1       0.047   8.151   8.978  1.00  0.00     0.002 C 
BRANCH  17  18
HETATM   18  C8  UNL     1       1.236   8.591   8.125  1.00  0.00     0.000 C 
BRANCH  18  19
HETATM   19  C9  UNL     1       1.813   7.484   7.232  1.00  0.00     0.000 C 
BRANCH  19  20
HETATM   20  C10 UNL     1       2.508   6.347   7.989  1.00  0.00     0.001 C 
BRANCH  20  21
HETATM   21  C11 UNL     1       3.407   6.758   9.165  1.00  0.00     0.010 C 
BRANCH  21  22
HETATM   22  C12 UNL     1       3.907   5.588  10.017  1.00  0.00     0.110 C 
BRANCH  22  23
HETATM   23  C13 UNL     1       2.891   4.492  10.204  1.00  0.00     0.139 C 
HETATM   24  O3  UNL     1       1.803   4.564  10.746  1.00  0.00    -0.650 OA
BRANCH  23  25
HETATM   25  O4  UNL     1       3.323   3.319   9.698  1.00  0.00    -0.776 OA
HETATM   26  H21 UNL     1       2.593   2.695   9.891  1.00  0.00     0.167 HD
ENDBRANCH  23  25
ENDBRANCH  22  23
ENDBRANCH  21  22
ENDBRANCH  20  21
ENDBRANCH  19  20
ENDBRANCH  18  19
ENDBRANCH  17  18
ENDBRANCH  16  17
ENDBRANCH  15  16
ENDBRANCH  14  15
ENDBRANCH  12  14
ENDBRANCH  11  12
ENDBRANCH   8   9
ENDBRANCH   1   8
BRANCH   5  27
HETATM   27  O8  UNL     1      -7.701   6.958  17.425  1.00  0.00    -0.385 OA
HETATM   28  H42 UNL     1      -8.002   6.072  17.714  1.00  0.00     0.210 HD
ENDBRANCH   5  27
BRANCH   4  29
HETATM   29  O6  UNL     1      -7.767   4.546  16.246  1.00  0.00    -0.384 OA
HETATM   30  H27 UNL     1      -7.531   3.706  15.810  1.00  0.00     0.210 HD
ENDBRANCH   4  29
BRANCH   4  31
HETATM   31  C18 UNL     1      -7.614   5.435  13.969  1.00  0.00     0.070 C 
BRANCH  31  32
HETATM   32  C19 UNL     1      -7.075   4.186  13.309  1.00  0.00    -0.027 C 
HETATM   33  C20 UNL     1      -6.134   4.193  12.350  1.00  0.00    -0.024 C 
BRANCH  33  34
HETATM   34  C21 UNL     1      -5.466   2.989  11.696  1.00  0.00     0.032 C 
HETATM   35  C22 UNL     1      -5.628   2.938  10.169  1.00  0.00     0.017 C 
BRANCH  34  36
HETATM   36  C23 UNL     1      -3.968   2.841  12.077  1.00  0.00     0.121 C 
HETATM   37  C24 UNL     1      -3.156   4.123  11.924  1.00  0.00     0.040 C 
BRANCH  36  38
HETATM   38  O7  UNL     1      -3.337   1.812  11.315  1.00  0.00    -0.395 OA
HETATM   39  H40 UNL     1      -3.543   1.973  10.380  1.00  0.00     0.210 HD
ENDBRANCH  36  38
ENDBRANCH  34  36
ENDBRANCH  33  34
ENDBRANCH  31  32
ENDBRANCH   4  31
TORSDOF 21
ENDMDL
MODEL 9
REMARK minimizedAffinity -7.22706652
REMARK  21 active torsions:
REMARK  status: ('A' for Active; 'I' for Inactive)
REMARK    1  A    between atoms: C2_2  and  C14_18 
REMARK    2  A    between atoms: C3_3  and  C4_4 
REMARK    3  A    between atoms: C4_4  and  O2_6 
REMARK    4  A    between atoms: O2_6  and  C5_7 
REMARK    5  A    between atoms: C5_7  and  C6_8 
REMARK    6  A    between atoms: C6_8  and  C7_9 
REMARK    7  A    between atoms: C7_9  and  C8_10 
REMARK    8  A    between atoms: C8_10  and  C9_11 
REMARK    9  A    between atoms: C9_11  and  C10_12 
REMARK   10  A    between atoms: C10_12  and  C11_13 
REMARK   11  A    between atoms: C11_13  and  C12_14 
REMARK   12  A    between atoms: C12_14  and  C13_15 
REMARK   13  A    between atoms: C13_15  and  O4_17 
REMARK   14  A    between atoms: C14_18  and  C15_19 
REMARK   15  A    between atoms: C17_22  and  O6_23 
REMARK   16  A    between atoms: C17_22  and  C18_24 
REMARK   17  A    between atoms: C18_24  and  C19_25 
REMARK   18  A    between atoms: C20_26  and  C21_27 
REMARK   19  A    between atoms: C21_27  and  C23_29 
REMARK   20  A    between atoms: C23_29  and  O7_31 
REMARK   21  A    between atoms: C25_32  and  O8_33 
ROOT
HETATM    1  C15 UNL     1      -2.306   4.628  12.175  1.00  0.00     0.197 C 
HETATM    2  O5  UNL     1      -2.916   5.916  12.373  1.00  0.00    -0.375 OA
HETATM    3  C16 UNL     1      -2.312   6.640  13.445  1.00  0.00     0.210 C 
HETATM    4  C17 UNL     1      -0.846   6.994  13.123  1.00  0.00     0.115 C 
HETATM    5  C25 UNL     1      -0.070   5.679  12.892  1.00  0.00     0.227 C 
HETATM    6  C26 UNL     1      -0.816   4.827  11.874  1.00  0.00     0.187 C 
HETATM    7  O9  UNL     1      -0.238   4.349  10.897  1.00  0.00    -0.292 OA
ENDROOT
BRANCH   1   8
HETATM    8  C14 UNL     1      -3.063   3.926  11.034  1.00  0.00     0.073 C 
BRANCH   8   9
HETATM    9  C2  UNL     1      -4.136   2.962  11.519  1.00  0.00    -0.075 C 
HETATM   10  C1  UNL     1      -3.664   1.554  11.777  1.00  0.00     0.043 C 
HETATM   11  C3  UNL     1      -5.411   3.387  11.636  1.00  0.00     0.084 C 
BRANCH  11  12
HETATM   12  C4  UNL     1      -6.599   2.636  12.099  1.00  0.00     0.283 C 
HETATM   13  O1  UNL     1      -6.639   1.416  12.083  1.00  0.00    -0.260 OA
BRANCH  12  14
HETATM   14  O2  UNL     1      -7.605   3.469  12.451  1.00  0.00    -0.318 OA
BRANCH  14  15
HETATM   15  C5  UNL     1      -7.206   4.723  13.029  1.00  0.00     0.179 C 
BRANCH  15  16
HETATM   16  C6  UNL     1      -8.351   5.299  13.856  1.00  0.00     0.027 C 
BRANCH  16  17
HETATM   17  C7  UNL     1      -8.937   6.595  13.292  1.00  0.00     0.002 C 
BRANCH  17  18
HETATM   18  C8  UNL     1     -10.158   7.097  14.061  1.00  0.00     0.000 C 
BRANCH  18  19
HETATM   19  C9  UNL     1     -11.501   6.627  13.486  1.00  0.00     0.000 C 
BRANCH  19  20
HETATM   20  C10 UNL     1     -12.718   7.426  13.966  1.00  0.00     0.001 C 
BRANCH  20  21
HETATM   21  C11 UNL     1     -13.483   8.216  12.892  1.00  0.00     0.010 C 
BRANCH  21  22
HETATM   22  C12 UNL     1     -15.005   8.200  13.061  1.00  0.00     0.110 C 
BRANCH  22  23
HETATM   23  C13 UNL     1     -15.743   7.623  11.880  1.00  0.00     0.139 C 
HETATM   24  O3  UNL     1     -16.097   6.471  11.710  1.00  0.00    -0.650 OA
BRANCH  23  25
HETATM   25  O4  UNL     1     -15.986   8.557  10.938  1.00  0.00    -0.776 OA
HETATM   26  H21 UNL     1     -16.449   8.064  10.230  1.00  0.00     0.167 HD
ENDBRANCH  23  25
ENDBRANCH  22  23
ENDBRANCH  21  22
ENDBRANCH  20  21
ENDBRANCH  19  20
ENDBRANCH  18  19
ENDBRANCH  17  18
ENDBRANCH  16  17
ENDBRANCH  15  16
ENDBRANCH  14  15
ENDBRANCH  12  14
ENDBRANCH  11  12
ENDBRANCH   8   9
ENDBRANCH   1   8
BRANCH   5  27
HETATM   27  O8  UNL     1       0.049   4.965  14.127  1.00  0.00    -0.385 OA
HETATM   28  H42 UNL     1       0.323   5.642  14.780  1.00  0.00     0.210 HD
ENDBRANCH   5  27
BRANCH   4  29
HETATM   29  O6  UNL     1      -0.252   7.630  14.277  1.00  0.00    -0.384 OA
HETATM   30  H27 UNL     1      -0.616   8.533  14.333  1.00  0.00     0.210 HD
ENDBRANCH   4  29
BRANCH   4  31
HETATM   31  C18 UNL     1      -0.692   7.914  11.884  1.00  0.00     0.070 C 
BRANCH  31  32
HETATM   32  C19 UNL     1       0.679   7.901  11.248  1.00  0.00    -0.027 C 
HETATM   33  C20 UNL     1       0.902   7.618   9.953  1.00  0.00    -0.024 C 
BRANCH  33  34
HETATM   34  C21 UNL     1       2.229   7.670   9.205  1.00  0.00     0.032 C 
HETATM   35  C22 UNL     1       2.936   6.311   9.092  1.00  0.00     0.017 C 
BRANCH  34  36
HETATM   36  C23 UNL     1       2.113   8.329   7.805  1.00  0.00     0.121 C 
HETATM   37  C24 UNL     1       1.979   7.335   6.657  1.00  0.00     0.040 C 
BRANCH  36  38
HETATM   38  O7  UNL     1       3.229   9.180   7.538  1.00  0.00    -0.395 OA
HETATM   39  H40 UNL     1       4.035   8.672   7.724  1.00  0.00     0.210 HD
ENDBRANCH  36  38
ENDBRANCH  34  36
ENDBRANCH  33  34
ENDBRANCH  31  32
ENDBRANCH   4  31
TORSDOF 21
ENDMDL
