MODEL 1
REMARK minimizedAffinity -8.8303051
REMARK CNNscore 0.745593846
REMARK CNNaffinity 7.41689682
REMARK  10 active torsions:
REMARK  status: ('A' for Active; 'I' for Inactive)
REMARK    1  A    between atoms: N1_6  and  O1_8 
REMARK    2  A    between atoms: O1_8  and  C6_9 
REMARK    3  A    between atoms: C6_9  and  C7_10 
REMARK       I    between atoms: C7_10  and  N2_12 
REMARK    4  A    between atoms: N2_12  and  C8_13 
REMARK    5  A    between atoms: C8_13  and  C9_14 
REMARK    6  A    between atoms: C20_27  and  O3_28 
REMARK    7  A    between atoms: C27_35  and  O4_36 
REMARK    8  A    between atoms: C27_35  and  C28_37 
REMARK    9  A    between atoms: C28_37  and  C29_39 
REMARK   10  A    between atoms: C29_39  and  O6_40 
ROOT
HETATM    1  C1  UNL     1      -1.455   7.330  12.363  1.00  0.00     0.020 C 
HETATM    2  C2  UNL     1      -2.214   6.811  13.610  1.00  0.00    -0.014 C 
HETATM    3  C3  UNL     1      -1.712   5.380  13.935  1.00  0.00     0.020 C 
HETATM    4  C4  UNL     1      -2.033   4.353  12.852  1.00  0.00     0.060 C 
HETATM    5  C5  UNL     1      -3.464   4.420  12.358  1.00  0.00     0.032 C 
HETATM    6  N1  UNL     1      -3.878   3.405  11.660  1.00  0.00    -0.271 N 
ATOM      7  H1  UNL     1      -3.309   2.584  11.453  1.00  0.00     0.194 HD
HETATM    8  C14 UNL     1      -4.267   5.626  12.704  1.00  0.00     0.030 C 
HETATM    9  C15 UNL     1      -3.713   6.705  13.287  1.00  0.00    -0.069 C 
HETATM   10  C16 UNL     1      -4.616   7.829  13.743  1.00  0.00     0.035 C 
HETATM   11  C17 UNL     1      -3.937   9.191  13.733  1.00  0.00     0.010 C 
HETATM   12  C18 UNL     1      -2.586   9.215  14.475  1.00  0.00    -0.002 C 
HETATM   13  C19 UNL     1      -2.045   7.799  14.835  1.00  0.00     0.031 C 
HETATM   14  C20 UNL     1      -0.624   7.952  15.430  1.00  0.00     0.124 C 
HETATM   15  C21 UNL     1      -0.624   8.895  16.643  1.00  0.00     0.045 C 
HETATM   16  C22 UNL     1      -1.225  10.301  16.384  1.00  0.00     0.001 C 
HETATM   17  C23 UNL     1      -0.213  11.113  15.555  1.00  0.00     0.019 C 
HETATM   18  C24 UNL     1      -2.591  10.189  15.669  1.00  0.00     0.002 C 
HETATM   19  C25 UNL     1      -3.593   9.859  16.788  1.00  0.00     0.009 C 
HETATM   20  C26 UNL     1      -2.956  10.336  18.098  1.00  0.00     0.047 C 
HETATM   21  C27 UNL     1      -1.619  11.004  17.723  1.00  0.00     0.128 C 
ENDROOT
BRANCH   6  22
HETATM   22  O1  UNL     1      -5.203   3.571  11.224  1.00  0.00    -0.271 OA
BRANCH  22  23
HETATM   23  C6  UNL     1      -5.993   2.535  11.782  1.00  0.00     0.303 C 
BRANCH  23  24
HETATM   24  C7  UNL     1      -7.234   3.083  12.482  1.00  0.00     0.244 C 
HETATM   25  O2  UNL     1      -8.113   2.383  12.975  1.00  0.00    -0.271 OA
HETATM   26  N2  UNL     1      -7.272   4.467  12.517  1.00  0.00    -0.355 N 
HETATM   27  H10 UNL     1      -6.627   4.985  11.936  1.00  0.00     0.162 HD
BRANCH  26  28
HETATM   28  C8  UNL     1      -8.407   5.180  13.058  1.00  0.00     0.161 C 
BRANCH  28  29
HETATM   29  C9  UNL     1      -8.068   5.816  14.379  1.00  0.00    -0.038 A 
HETATM   30  C10 UNL     1      -8.754   6.956  14.812  1.00  0.00     0.025 A 
HETATM   31  C11 UNL     1      -8.403   7.524  16.026  1.00  0.00     0.088 A 
HETATM   32  N3  UNL     1      -7.427   7.042  16.827  1.00  0.00    -0.375 N 
HETATM   33  C12 UNL     1      -6.772   5.946  16.388  1.00  0.00     0.088 A 
ATOM     34  H3  UNL     1      -7.197   7.483  17.716  1.00  0.00     0.164 HD
HETATM   35  C13 UNL     1      -7.047   5.308  15.187  1.00  0.00     0.025 A 
ENDBRANCH  28  29
ENDBRANCH  26  28
ENDBRANCH  23  24
ENDBRANCH  22  23
ENDBRANCH   6  22
BRANCH  14  36
HETATM   36  O3  UNL     1      -0.137   6.698  15.901  1.00  0.00    -0.395 OA
HETATM   37  H25 UNL     1       0.763   6.840  16.243  1.00  0.00     0.210 HD
ENDBRANCH  14  36
BRANCH  21  38
HETATM   38  O4  UNL     1      -0.654  10.741  18.737  1.00  0.00    -0.381 OA
HETATM   39  H36 UNL     1      -1.090  10.817  19.605  1.00  0.00     0.211 HD
ENDBRANCH  21  38
BRANCH  21  40
HETATM   40  C28 UNL     1      -1.824  12.536  17.587  1.00  0.00     0.184 C 
HETATM   41  O5  UNL     1      -1.771  13.125  16.502  1.00  0.00    -0.292 OA
BRANCH  40  42
HETATM   42  C29 UNL     1      -2.107  13.324  18.863  1.00  0.00     0.245 C 
BRANCH  42  43
HETATM   43  O6  UNL     1      -3.446  13.800  18.897  1.00  0.00    -0.393 OA
HETATM   44  H39 UNL     1      -3.956  13.224  18.291  1.00  0.00     0.209 HD
ENDBRANCH  42  43
ENDBRANCH  40  42
ENDBRANCH  21  40
TORSDOF 10
ENDMDL
MODEL 2
REMARK minimizedAffinity -8.33337879
REMARK CNNscore 0.627536833
REMARK CNNaffinity 7.3298974
REMARK  10 active torsions:
REMARK  status: ('A' for Active; 'I' for Inactive)
REMARK    1  A    between atoms: N1_6  and  O1_8 
REMARK    2  A    between atoms: O1_8  and  C6_9 
REMARK    3  A    between atoms: C6_9  and  C7_10 
REMARK       I    between atoms: C7_10  and  N2_12 
REMARK    4  A    between atoms: N2_12  and  C8_13 
REMARK    5  A    between atoms: C8_13  and  C9_14 
REMARK    6  A    between atoms: C20_27  and  O3_28 
REMARK    7  A    between atoms: C27_35  and  O4_36 
REMARK    8  A    between atoms: C27_35  and  C28_37 
REMARK    9  A    between atoms: C28_37  and  C29_39 
REMARK   10  A    between atoms: C29_39  and  O6_40 
ROOT
HETATM    1  C1  UNL     1      -7.427   7.035  16.761  1.00  0.00     0.020 C 
HETATM    2  C2  UNL     1      -7.361   7.621  15.328  1.00  0.00    -0.014 C 
HETATM    3  C3  UNL     1      -8.168   8.945  15.296  1.00  0.00     0.020 C 
HETATM    4  C4  UNL     1      -9.661   8.764  15.554  1.00  0.00     0.060 C 
HETATM    5  C5  UNL     1     -10.281   7.633  14.760  1.00  0.00     0.032 C 
HETATM    6  N1  UNL     1     -11.580   7.610  14.710  1.00  0.00    -0.271 N 
ATOM      7  H1  UNL     1     -12.180   8.308  15.152  1.00  0.00     0.194 HD
HETATM    8  C14 UNL     1      -9.367   6.651  14.112  1.00  0.00     0.030 C 
HETATM    9  C15 UNL     1      -8.042   6.650  14.350  1.00  0.00    -0.069 C 
HETATM   10  C16 UNL     1      -7.160   5.723  13.544  1.00  0.00     0.035 C 
HETATM   11  C17 UNL     1      -5.905   5.288  14.286  1.00  0.00     0.010 C 
HETATM   12  C18 UNL     1      -5.099   6.460  14.881  1.00  0.00    -0.002 C 
HETATM   13  C19 UNL     1      -5.863   7.818  14.859  1.00  0.00     0.031 C 
HETATM   14  C20 UNL     1      -5.017   8.869  15.618  1.00  0.00     0.124 C 
HETATM   15  C21 UNL     1      -3.607   8.992  15.019  1.00  0.00     0.045 C 
HETATM   16  C22 UNL     1      -2.812   7.663  14.930  1.00  0.00     0.001 C 
HETATM   17  C23 UNL     1      -2.347   7.283  16.347  1.00  0.00     0.019 C 
HETATM   18  C24 UNL     1      -3.677   6.550  14.295  1.00  0.00     0.002 C 
HETATM   19  C25 UNL     1      -3.600   6.811  12.780  1.00  0.00     0.009 C 
HETATM   20  C26 UNL     1      -2.325   7.628  12.543  1.00  0.00     0.047 C 
HETATM   21  C27 UNL     1      -1.633   7.776  13.912  1.00  0.00     0.128 C 
ENDROOT
BRANCH   6  22
HETATM   22  O1  UNL     1     -12.059   6.512  13.978  1.00  0.00    -0.271 OA
BRANCH  22  23
HETATM   23  C6  UNL     1     -13.069   6.967  13.094  1.00  0.00     0.303 C 
BRANCH  23  24
HETATM   24  C7  UNL     1     -14.458   6.518  13.541  1.00  0.00     0.244 C 
HETATM   25  O2  UNL     1     -15.503   7.059  13.192  1.00  0.00    -0.271 OA
HETATM   26  N2  UNL     1     -14.429   5.420  14.386  1.00  0.00    -0.355 N 
HETATM   27  H10 UNL     1     -13.544   5.140  14.786  1.00  0.00     0.162 HD
BRANCH  26  28
HETATM   28  C8  UNL     1     -15.634   4.898  14.990  1.00  0.00     0.161 C 
BRANCH  28  29
HETATM   29  C9  UNL     1     -15.909   3.494  14.522  1.00  0.00    -0.038 A 
HETATM   30  C10 UNL     1     -17.103   3.191  13.859  1.00  0.00     0.025 A 
HETATM   31  C11 UNL     1     -17.330   1.885  13.457  1.00  0.00     0.088 A 
HETATM   32  N3  UNL     1     -16.461   0.872  13.670  1.00  0.00    -0.375 N 
HETATM   33  C12 UNL     1     -15.318   1.183  14.318  1.00  0.00     0.088 A 
ATOM     34  H3  UNL     1     -16.658  -0.078  13.358  1.00  0.00     0.164 HD
HETATM   35  C13 UNL     1     -15.002   2.459  14.763  1.00  0.00     0.025 A 
ENDBRANCH  28  29
ENDBRANCH  26  28
ENDBRANCH  23  24
ENDBRANCH  22  23
ENDBRANCH   6  22
BRANCH  14  36
HETATM   36  O3  UNL     1      -5.607  10.162  15.512  1.00  0.00    -0.395 OA
HETATM   37  H25 UNL     1      -5.055  10.782  16.021  1.00  0.00     0.210 HD
ENDBRANCH  14  36
BRANCH  21  38
HETATM   38  O4  UNL     1      -1.011   9.055  13.995  1.00  0.00    -0.381 OA
HETATM   39  H36 UNL     1      -0.595   9.252  13.136  1.00  0.00     0.211 HD
ENDBRANCH  21  38
BRANCH  21  40
HETATM   40  C28 UNL     1      -0.561   6.666  14.073  1.00  0.00     0.184 C 
HETATM   41  O5  UNL     1       0.427   6.788  14.806  1.00  0.00    -0.292 OA
BRANCH  40  42
HETATM   42  C29 UNL     1      -0.760   5.375  13.282  1.00  0.00     0.245 C 
BRANCH  42  43
HETATM   43  O6  UNL     1       0.307   5.154  12.368  1.00  0.00    -0.393 OA
HETATM   44  H39 UNL     1       1.068   5.668  12.706  1.00  0.00     0.209 HD
ENDBRANCH  42  43
ENDBRANCH  40  42
ENDBRANCH  21  40
TORSDOF 10
ENDMDL
MODEL 3
REMARK minimizedAffinity -10.4935656
REMARK CNNscore 0.609778762
REMARK CNNaffinity 7.37179041
REMARK  10 active torsions:
REMARK  status: ('A' for Active; 'I' for Inactive)
REMARK    1  A    between atoms: N1_6  and  O1_8 
REMARK    2  A    between atoms: O1_8  and  C6_9 
REMARK    3  A    between atoms: C6_9  and  C7_10 
REMARK       I    between atoms: C7_10  and  N2_12 
REMARK    4  A    between atoms: N2_12  and  C8_13 
REMARK    5  A    between atoms: C8_13  and  C9_14 
REMARK    6  A    between atoms: C20_27  and  O3_28 
REMARK    7  A    between atoms: C27_35  and  O4_36 
REMARK    8  A    between atoms: C27_35  and  C28_37 
REMARK    9  A    between atoms: C28_37  and  C29_39 
REMARK   10  A    between atoms: C29_39  and  O6_40 
ROOT
HETATM    1  C1  UNL     1      -1.389   7.779  15.793  1.00  0.00     0.020 C 
HETATM    2  C2  UNL     1      -2.105   7.626  14.428  1.00  0.00    -0.014 C 
HETATM    3  C3  UNL     1      -3.115   8.791  14.265  1.00  0.00     0.020 C 
HETATM    4  C4  UNL     1      -4.252   8.768  15.284  1.00  0.00     0.060 C 
HETATM    5  C5  UNL     1      -4.889   7.404  15.451  1.00  0.00     0.032 C 
HETATM    6  N1  UNL     1      -6.029   7.376  16.073  1.00  0.00    -0.271 N 
ATOM      7  H1  UNL     1      -6.509   8.205  16.425  1.00  0.00     0.194 HD
HETATM    8  C14 UNL     1      -4.166   6.224  14.901  1.00  0.00     0.030 C 
HETATM    9  C15 UNL     1      -2.912   6.319  14.419  1.00  0.00    -0.069 C 
HETATM   10  C16 UNL     1      -2.301   5.113  13.743  1.00  0.00     0.035 C 
HETATM   11  C17 UNL     1      -0.784   5.060  13.859  1.00  0.00     0.010 C 
HETATM   12  C18 UNL     1      -0.085   6.366  13.429  1.00  0.00    -0.002 C 
HETATM   13  C19 UNL     1      -1.062   7.565  13.239  1.00  0.00     0.031 C 
HETATM   14  C20 UNL     1      -0.227   8.839  12.964  1.00  0.00     0.124 C 
HETATM   15  C21 UNL     1       0.698   8.652  11.751  1.00  0.00     0.045 C 
HETATM   16  C22 UNL     1       1.645   7.427  11.829  1.00  0.00     0.001 C 
HETATM   17  C23 UNL     1       2.767   7.747  12.833  1.00  0.00     0.019 C 
HETATM   18  C24 UNL     1       0.864   6.155  12.233  1.00  0.00     0.002 C 
HETATM   19  C25 UNL     1       0.194   5.679  10.932  1.00  0.00     0.009 C 
HETATM   20  C26 UNL     1       1.007   6.276   9.778  1.00  0.00     0.047 C 
HETATM   21  C27 UNL     1       2.185   7.038  10.415  1.00  0.00     0.128 C 
ENDROOT
BRANCH   6  22
HETATM   22  O1  UNL     1      -6.525   6.068  16.204  1.00  0.00    -0.271 OA
BRANCH  22  23
HETATM   23  C6  UNL     1      -7.907   6.078  15.891  1.00  0.00     0.303 C 
BRANCH  23  24
HETATM   24  C7  UNL     1      -8.165   5.644  14.451  1.00  0.00     0.244 C 
HETATM   25  O2  UNL     1      -8.620   6.381  13.581  1.00  0.00    -0.271 OA
HETATM   26  N2  UNL     1      -7.824   4.323  14.211  1.00  0.00    -0.355 N 
HETATM   27  H10 UNL     1      -7.637   3.720  15.000  1.00  0.00     0.162 HD
BRANCH  26  28
HETATM   28  C8  UNL     1      -8.075   3.697  12.932  1.00  0.00     0.161 C 
BRANCH  28  29
HETATM   29  C9  UNL     1      -6.819   3.087  12.372  1.00  0.00    -0.038 A 
HETATM   30  C10 UNL     1      -5.645   3.843  12.283  1.00  0.00     0.025 A 
HETATM   31  C11 UNL     1      -4.512   3.254  11.746  1.00  0.00     0.088 A 
HETATM   32  N3  UNL     1      -4.469   1.980  11.295  1.00  0.00    -0.375 N 
HETATM   33  C12 UNL     1      -5.613   1.270  11.383  1.00  0.00     0.088 A 
ATOM     34  H3  UNL     1      -3.617   1.577  10.909  1.00  0.00     0.164 HD
HETATM   35  C13 UNL     1      -6.800   1.772  11.901  1.00  0.00     0.025 A 
ENDBRANCH  28  29
ENDBRANCH  26  28
ENDBRANCH  23  24
ENDBRANCH  22  23
ENDBRANCH   6  22
BRANCH  14  36
HETATM   36  O3  UNL     1      -1.076   9.940  12.650  1.00  0.00    -0.395 OA
HETATM   37  H25 UNL     1      -0.510  10.719  12.508  1.00  0.00     0.210 HD
ENDBRANCH  14  36
BRANCH  21  38
HETATM   38  O4  UNL     1       2.473   8.201   9.644  1.00  0.00    -0.381 OA
HETATM   39  H36 UNL     1       2.404   7.969   8.700  1.00  0.00     0.211 HD
ENDBRANCH  21  38
BRANCH  21  40
HETATM   40  C28 UNL     1       3.435   6.119  10.456  1.00  0.00     0.184 C 
HETATM   41  O5  UNL     1       4.377   6.302  11.235  1.00  0.00    -0.292 OA
BRANCH  40  42
HETATM   42  C29 UNL     1       3.477   4.945   9.481  1.00  0.00     0.245 C 
BRANCH  42  43
HETATM   43  O6  UNL     1       3.099   3.729  10.114  1.00  0.00    -0.393 OA
HETATM   44  H39 UNL     1       2.571   3.981  10.899  1.00  0.00     0.209 HD
ENDBRANCH  42  43
ENDBRANCH  40  42
ENDBRANCH  21  40
TORSDOF 10
ENDMDL
MODEL 4
REMARK minimizedAffinity -9.04884529
REMARK CNNscore 0.560544848
REMARK CNNaffinity 7.48712349
REMARK  10 active torsions:
REMARK  status: ('A' for Active; 'I' for Inactive)
REMARK    1  A    between atoms: N1_6  and  O1_8 
REMARK    2  A    between atoms: O1_8  and  C6_9 
REMARK    3  A    between atoms: C6_9  and  C7_10 
REMARK       I    between atoms: C7_10  and  N2_12 
REMARK    4  A    between atoms: N2_12  and  C8_13 
REMARK    5  A    between atoms: C8_13  and  C9_14 
REMARK    6  A    between atoms: C20_27  and  O3_28 
REMARK    7  A    between atoms: C27_35  and  O4_36 
REMARK    8  A    between atoms: C27_35  and  C28_37 
REMARK    9  A    between atoms: C28_37  and  C29_39 
REMARK   10  A    between atoms: C29_39  and  O6_40 
ROOT
HETATM    1  C1  UNL     1      -6.765   5.960  15.775  1.00  0.00     0.020 C 
HETATM    2  C2  UNL     1      -6.998   6.361  14.297  1.00  0.00    -0.014 C 
HETATM    3  C3  UNL     1      -7.049   7.908  14.206  1.00  0.00     0.020 C 
HETATM    4  C4  UNL     1      -8.227   8.532  14.949  1.00  0.00     0.060 C 
HETATM    5  C5  UNL     1      -9.549   7.844  14.676  1.00  0.00     0.032 C 
HETATM    6  N1  UNL     1     -10.617   8.489  15.039  1.00  0.00    -0.271 N 
ATOM      7  H1  UNL     1     -10.607   9.415  15.467  1.00  0.00     0.194 HD
HETATM    8  C14 UNL     1      -9.517   6.503  14.028  1.00  0.00     0.030 C 
HETATM    9  C15 UNL     1      -8.366   5.833  13.836  1.00  0.00    -0.069 C 
HETATM   10  C16 UNL     1      -8.397   4.549  13.039  1.00  0.00     0.035 C 
HETATM   11  C17 UNL     1      -7.305   3.566  13.436  1.00  0.00     0.010 C 
HETATM   12  C18 UNL     1      -5.892   4.184  13.457  1.00  0.00    -0.002 C 
HETATM   13  C19 UNL     1      -5.890   5.739  13.354  1.00  0.00     0.031 C 
HETATM   14  C20 UNL     1      -4.438   6.241  13.543  1.00  0.00     0.124 C 
HETATM   15  C21 UNL     1      -3.485   5.594  12.525  1.00  0.00     0.045 C 
HETATM   16  C22 UNL     1      -3.492   4.044  12.509  1.00  0.00     0.001 C 
HETATM   17  C23 UNL     1      -2.747   3.545  13.761  1.00  0.00     0.019 C 
HETATM   18  C24 UNL     1      -4.940   3.504  12.455  1.00  0.00     0.002 C 
HETATM   19  C25 UNL     1      -5.344   3.618  10.975  1.00  0.00     0.009 C 
HETATM   20  C26 UNL     1      -4.042   3.653  10.168  1.00  0.00     0.047 C 
HETATM   21  C27 UNL     1      -2.890   3.488  11.180  1.00  0.00     0.128 C 
ENDROOT
BRANCH   6  22
HETATM   22  O1  UNL     1     -11.788   7.760  14.772  1.00  0.00    -0.271 OA
BRANCH  22  23
HETATM   23  C6  UNL     1     -12.871   8.668  14.677  1.00  0.00     0.303 C 
BRANCH  23  24
HETATM   24  C7  UNL     1     -13.964   8.151  13.746  1.00  0.00     0.244 C 
HETATM   25  O2  UNL     1     -13.960   8.303  12.528  1.00  0.00    -0.271 OA
HETATM   26  N2  UNL     1     -14.973   7.476  14.413  1.00  0.00    -0.355 N 
HETATM   27  H10 UNL     1     -15.020   7.547  15.420  1.00  0.00     0.162 HD
BRANCH  26  28
HETATM   28  C8  UNL     1     -16.144   6.987  13.719  1.00  0.00     0.161 C 
BRANCH  28  29
HETATM   29  C9  UNL     1     -16.283   5.498  13.877  1.00  0.00    -0.038 A 
HETATM   30  C10 UNL     1     -17.288   4.805  13.193  1.00  0.00     0.025 A 
HETATM   31  C11 UNL     1     -17.397   3.436  13.376  1.00  0.00     0.088 A 
HETATM   32  N3  UNL     1     -16.585   2.719  14.184  1.00  0.00    -0.375 N 
HETATM   33  C12 UNL     1     -15.627   3.406  14.840  1.00  0.00     0.088 A 
ATOM     34  H3  UNL     1     -16.691   1.711  14.292  1.00  0.00     0.164 HD
HETATM   35  C13 UNL     1     -15.440   4.777  14.727  1.00  0.00     0.025 A 
ENDBRANCH  28  29
ENDBRANCH  26  28
ENDBRANCH  23  24
ENDBRANCH  22  23
ENDBRANCH   6  22
BRANCH  14  36
HETATM   36  O3  UNL     1      -4.358   7.647  13.324  1.00  0.00    -0.395 OA
HETATM   37  H25 UNL     1      -3.435   7.918  13.475  1.00  0.00     0.210 HD
ENDBRANCH  14  36
BRANCH  21  38
HETATM   38  O4  UNL     1      -1.774   4.269  10.762  1.00  0.00    -0.381 OA
HETATM   39  H36 UNL     1      -1.683   4.184   9.795  1.00  0.00     0.211 HD
ENDBRANCH  21  38
BRANCH  21  40
HETATM   40  C28 UNL     1      -2.479   1.994  11.257  1.00  0.00     0.184 C 
HETATM   41  O5  UNL     1      -3.261   1.100  11.601  1.00  0.00    -0.292 OA
BRANCH  40  42
HETATM   42  C29 UNL     1      -1.042   1.640  10.884  1.00  0.00     0.245 C 
BRANCH  42  43
HETATM   43  O6  UNL     1      -0.988   0.867   9.691  1.00  0.00    -0.393 OA
HETATM   44  H39 UNL     1      -1.822   1.047   9.210  1.00  0.00     0.209 HD
ENDBRANCH  42  43
ENDBRANCH  40  42
ENDBRANCH  21  40
TORSDOF 10
ENDMDL
MODEL 5
REMARK minimizedAffinity -8.0568018
REMARK CNNscore 0.507897139
REMARK CNNaffinity 7.13110781
REMARK  10 active torsions:
REMARK  status: ('A' for Active; 'I' for Inactive)
REMARK    1  A    between atoms: N1_6  and  O1_8 
REMARK    2  A    between atoms: O1_8  and  C6_9 
REMARK    3  A    between atoms: C6_9  and  C7_10 
REMARK       I    between atoms: C7_10  and  N2_12 
REMARK    4  A    between atoms: N2_12  and  C8_13 
REMARK    5  A    between atoms: C8_13  and  C9_14 
REMARK    6  A    between atoms: C20_27  and  O3_28 
REMARK    7  A    between atoms: C27_35  and  O4_36 
REMARK    8  A    between atoms: C27_35  and  C28_37 
REMARK    9  A    between atoms: C28_37  and  C29_39 
REMARK   10  A    between atoms: C29_39  and  O6_40 
ROOT
HETATM    1  C1  UNL     1      -3.076   7.577  12.863  1.00  0.00     0.020 C 
HETATM    2  C2  UNL     1      -3.350   7.104  14.312  1.00  0.00    -0.014 C 
HETATM    3  C3  UNL     1      -3.027   5.590  14.409  1.00  0.00     0.020 C 
HETATM    4  C4  UNL     1      -3.935   4.710  13.554  1.00  0.00     0.060 C 
HETATM    5  C5  UNL     1      -5.406   5.047  13.685  1.00  0.00     0.032 C 
HETATM    6  N1  UNL     1      -6.241   4.166  13.220  1.00  0.00    -0.271 N 
ATOM      7  H1  UNL     1      -5.960   3.279  12.802  1.00  0.00     0.194 HD
HETATM    8  C14 UNL     1      -5.771   6.342  14.324  1.00  0.00     0.030 C 
HETATM    9  C15 UNL     1      -4.845   7.271  14.628  1.00  0.00    -0.069 C 
HETATM   10  C16 UNL     1      -5.272   8.494  15.408  1.00  0.00     0.035 C 
HETATM   11  C17 UNL     1      -4.421   9.722  15.117  1.00  0.00     0.010 C 
HETATM   12  C18 UNL     1      -2.905   9.470  15.245  1.00  0.00    -0.002 C 
HETATM   13  C19 UNL     1      -2.530   7.962  15.359  1.00  0.00     0.031 C 
HETATM   14  C20 UNL     1      -0.988   7.835  15.323  1.00  0.00     0.124 C 
HETATM   15  C21 UNL     1      -0.331   8.677  16.429  1.00  0.00     0.045 C 
HETATM   16  C22 UNL     1      -0.722  10.178  16.432  1.00  0.00     0.001 C 
HETATM   17  C23 UNL     1       0.001  10.868  15.260  1.00  0.00     0.019 C 
HETATM   18  C24 UNL     1      -2.255  10.345  16.334  1.00  0.00     0.002 C 
HETATM   19  C25 UNL     1      -2.766  10.108  17.766  1.00  0.00     0.009 C 
HETATM   20  C26 UNL     1      -1.583  10.379  18.702  1.00  0.00     0.047 C 
HETATM   21  C27 UNL     1      -0.412  10.841  17.812  1.00  0.00     0.128 C 
ENDROOT
BRANCH   6  22
HETATM   22  O1  UNL     1      -7.575   4.580  13.360  1.00  0.00    -0.271 OA
BRANCH  22  23
HETATM   23  C6  UNL     1      -8.029   5.068  12.110  1.00  0.00     0.303 C 
BRANCH  23  24
HETATM   24  C7  UNL     1      -9.271   5.942  12.260  1.00  0.00     0.244 C 
HETATM   25  O2  UNL     1      -9.836   6.503  11.325  1.00  0.00    -0.271 OA
HETATM   26  N2  UNL     1      -9.713   6.039  13.569  1.00  0.00    -0.355 N 
HETATM   27  H10 UNL     1      -9.107   5.718  14.310  1.00  0.00     0.162 HD
BRANCH  26  28
HETATM   28  C8  UNL     1     -10.822   6.893  13.932  1.00  0.00     0.161 C 
BRANCH  28  29
HETATM   29  C9  UNL     1     -10.343   8.261  14.336  1.00  0.00    -0.038 A 
HETATM   30  C10 UNL     1      -9.149   8.410  15.049  1.00  0.00     0.025 A 
HETATM   31  C11 UNL     1      -8.747   9.683  15.419  1.00  0.00     0.088 A 
HETATM   32  N3  UNL     1      -9.446  10.804  15.132  1.00  0.00    -0.375 N 
HETATM   33  C12 UNL     1     -10.599  10.639  14.450  1.00  0.00     0.088 A 
ATOM     34  H3  UNL     1      -9.119  11.726  15.417  1.00  0.00     0.164 HD
HETATM   35  C13 UNL     1     -11.087   9.406  14.039  1.00  0.00     0.025 A 
ENDBRANCH  28  29
ENDBRANCH  26  28
ENDBRANCH  23  24
ENDBRANCH  22  23
ENDBRANCH   6  22
BRANCH  14  36
HETATM   36  O3  UNL     1      -0.587   6.488  15.560  1.00  0.00    -0.395 OA
HETATM   37  H25 UNL     1       0.385   6.455  15.505  1.00  0.00     0.210 HD
ENDBRANCH  14  36
BRANCH  21  38
HETATM   38  O4  UNL     1       0.814  10.351  18.347  1.00  0.00    -0.381 OA
HETATM   39  H36 UNL     1       0.783  10.437  19.318  1.00  0.00     0.211 HD
ENDBRANCH  21  38
BRANCH  21  40
HETATM   40  C28 UNL     1      -0.376  12.391  17.767  1.00  0.00     0.184 C 
HETATM   41  O5  UNL     1      -1.381  13.091  17.935  1.00  0.00    -0.292 OA
BRANCH  40  42
HETATM   42  C29 UNL     1       0.973  13.056  17.504  1.00  0.00     0.245 C 
BRANCH  42  43
HETATM   43  O6  UNL     1       1.784  13.070  18.673  1.00  0.00    -0.393 OA
HETATM   44  H39 UNL     1       1.445  12.355  19.249  1.00  0.00     0.209 HD
ENDBRANCH  42  43
ENDBRANCH  40  42
ENDBRANCH  21  40
TORSDOF 10
ENDMDL
MODEL 6
REMARK minimizedAffinity -8.70286846
REMARK CNNscore 0.342378289
REMARK CNNaffinity 6.72019386
REMARK  10 active torsions:
REMARK  status: ('A' for Active; 'I' for Inactive)
REMARK    1  A    between atoms: N1_6  and  O1_8 
REMARK    2  A    between atoms: O1_8  and  C6_9 
REMARK    3  A    between atoms: C6_9  and  C7_10 
REMARK       I    between atoms: C7_10  and  N2_12 
REMARK    4  A    between atoms: N2_12  and  C8_13 
REMARK    5  A    between atoms: C8_13  and  C9_14 
REMARK    6  A    between atoms: C20_27  and  O3_28 
REMARK    7  A    between atoms: C27_35  and  O4_36 
REMARK    8  A    between atoms: C27_35  and  C28_37 
REMARK    9  A    between atoms: C28_37  and  C29_39 
REMARK   10  A    between atoms: C29_39  and  O6_40 
ROOT
HETATM    1  C1  UNL     1      -2.429   9.503  15.442  1.00  0.00     0.020 C 
HETATM    2  C2  UNL     1      -2.237   8.115  14.781  1.00  0.00    -0.014 C 
HETATM    3  C3  UNL     1      -1.140   7.344  15.559  1.00  0.00     0.020 C 
HETATM    4  C4  UNL     1       0.242   7.987  15.478  1.00  0.00     0.060 C 
HETATM    5  C5  UNL     1       0.639   8.397  14.075  1.00  0.00     0.032 C 
HETATM    6  N1  UNL     1       1.895   8.678  13.892  1.00  0.00    -0.271 N 
ATOM      7  H1  UNL     1       2.605   8.619  14.623  1.00  0.00     0.194 HD
HETATM    8  C14 UNL     1      -0.426   8.446  13.034  1.00  0.00     0.030 C 
HETATM    9  C15 UNL     1      -1.728   8.302  13.343  1.00  0.00    -0.069 C 
HETATM   10  C16 UNL     1      -2.736   8.215  12.219  1.00  0.00     0.035 C 
HETATM   11  C17 UNL     1      -4.115   8.731  12.603  1.00  0.00     0.010 C 
HETATM   12  C18 UNL     1      -4.666   8.116  13.905  1.00  0.00    -0.002 C 
HETATM   13  C19 UNL     1      -3.602   7.318  14.718  1.00  0.00     0.031 C 
HETATM   14  C20 UNL     1      -4.234   6.889  16.064  1.00  0.00     0.124 C 
HETATM   15  C21 UNL     1      -5.521   6.077  15.846  1.00  0.00     0.045 C 
HETATM   16  C22 UNL     1      -6.598   6.774  14.974  1.00  0.00     0.001 C 
HETATM   17  C23 UNL     1      -7.254   7.885  15.814  1.00  0.00     0.019 C 
HETATM   18  C24 UNL     1      -5.973   7.333  13.676  1.00  0.00     0.002 C 
HETATM   19  C25 UNL     1      -5.861   6.117  12.740  1.00  0.00     0.009 C 
HETATM   20  C26 UNL     1      -6.882   5.088  13.238  1.00  0.00     0.047 C 
HETATM   21  C27 UNL     1      -7.630   5.741  14.417  1.00  0.00     0.128 C 
ENDROOT
BRANCH   6  22
HETATM   22  O1  UNL     1       2.159   9.074  12.571  1.00  0.00    -0.271 OA
BRANCH  22  23
HETATM   23  C6  UNL     1       2.813   8.008  11.905  1.00  0.00     0.303 C 
BRANCH  23  24
HETATM   24  C7  UNL     1       2.247   7.783  10.505  1.00  0.00     0.244 C 
HETATM   25  O2  UNL     1       1.314   8.421  10.028  1.00  0.00    -0.271 OA
HETATM   26  N2  UNL     1       2.901   6.780   9.808  1.00  0.00    -0.355 N 
HETATM   27  H10 UNL     1       3.527   6.168  10.314  1.00  0.00     0.162 HD
BRANCH  26  28
HETATM   28  C8  UNL     1       2.459   6.354   8.500  1.00  0.00     0.161 C 
BRANCH  28  29
HETATM   29  C9  UNL     1       3.211   5.133   8.045  1.00  0.00    -0.038 A 
HETATM   30  C10 UNL     1       3.940   4.369   8.961  1.00  0.00     0.025 A 
HETATM   31  C11 UNL     1       4.634   3.261   8.503  1.00  0.00     0.088 A 
HETATM   32  N3  UNL     1       4.653   2.868   7.210  1.00  0.00    -0.375 N 
HETATM   33  C12 UNL     1       3.950   3.622   6.340  1.00  0.00     0.088 A 
ATOM     34  H3  UNL     1       5.172   2.045   6.908  1.00  0.00     0.164 HD
HETATM   35  C13 UNL     1       3.226   4.751   6.700  1.00  0.00     0.025 A 
ENDBRANCH  28  29
ENDBRANCH  26  28
ENDBRANCH  23  24
ENDBRANCH  22  23
ENDBRANCH   6  22
BRANCH  14  36
HETATM   36  O3  UNL     1      -3.347   6.040  16.789  1.00  0.00    -0.395 OA
HETATM   37  H25 UNL     1      -3.777   5.817  17.634  1.00  0.00     0.210 HD
ENDBRANCH  14  36
BRANCH  21  38
HETATM   38  O4  UNL     1      -7.935   4.751  15.395  1.00  0.00    -0.381 OA
HETATM   39  H36 UNL     1      -8.220   3.941  14.934  1.00  0.00     0.211 HD
ENDBRANCH  21  38
BRANCH  21  40
HETATM   40  C28 UNL     1      -8.944   6.387  13.904  1.00  0.00     0.184 C 
HETATM   41  O5  UNL     1      -9.255   6.413  12.708  1.00  0.00    -0.292 OA
BRANCH  40  42
HETATM   42  C29 UNL     1      -9.875   7.007  14.942  1.00  0.00     0.245 C 
BRANCH  42  43
HETATM   43  O6  UNL     1     -11.176   6.435  14.884  1.00  0.00    -0.393 OA
HETATM   44  H39 UNL     1     -11.071   5.560  14.458  1.00  0.00     0.209 HD
ENDBRANCH  42  43
ENDBRANCH  40  42
ENDBRANCH  21  40
TORSDOF 10
ENDMDL
MODEL 7
REMARK minimizedAffinity -8.62860584
REMARK CNNscore 0.313073903
REMARK CNNaffinity 6.88398886
REMARK  10 active torsions:
REMARK  status: ('A' for Active; 'I' for Inactive)
REMARK    1  A    between atoms: N1_6  and  O1_8 
REMARK    2  A    between atoms: O1_8  and  C6_9 
REMARK    3  A    between atoms: C6_9  and  C7_10 
REMARK       I    between atoms: C7_10  and  N2_12 
REMARK    4  A    between atoms: N2_12  and  C8_13 
REMARK    5  A    between atoms: C8_13  and  C9_14 
REMARK    6  A    between atoms: C20_27  and  O3_28 
REMARK    7  A    between atoms: C27_35  and  O4_36 
REMARK    8  A    between atoms: C27_35  and  C28_37 
REMARK    9  A    between atoms: C28_37  and  C29_39 
REMARK   10  A    between atoms: C29_39  and  O6_40 
ROOT
HETATM    1  C1  UNL     1      -7.648   4.362  14.694  1.00  0.00     0.020 C 
HETATM    2  C2  UNL     1      -7.275   5.715  14.037  1.00  0.00    -0.014 C 
HETATM    3  C3  UNL     1      -6.519   5.431  12.713  1.00  0.00     0.020 C 
HETATM    4  C4  UNL     1      -5.176   4.731  12.907  1.00  0.00     0.060 C 
HETATM    5  C5  UNL     1      -4.324   5.348  13.997  1.00  0.00     0.032 C 
HETATM    6  N1  UNL     1      -3.074   4.992  14.018  1.00  0.00    -0.271 N 
ATOM      7  H1  UNL     1      -2.651   4.354  13.344  1.00  0.00     0.194 HD
HETATM    8  C14 UNL     1      -4.977   6.294  14.944  1.00  0.00     0.030 C 
HETATM    9  C15 UNL     1      -6.310   6.480  14.956  1.00  0.00    -0.069 C 
HETATM   10  C16 UNL     1      -6.885   7.563  15.841  1.00  0.00     0.035 C 
HETATM   11  C17 UNL     1      -8.301   7.269  16.313  1.00  0.00     0.010 C 
HETATM   12  C18 UNL     1      -9.270   6.898  15.172  1.00  0.00    -0.002 C 
HETATM   13  C19 UNL     1      -8.557   6.615  13.815  1.00  0.00     0.031 C 
HETATM   14  C20 UNL     1      -9.613   6.106  12.803  1.00  0.00     0.124 C 
HETATM   15  C21 UNL     1     -10.769   7.107  12.650  1.00  0.00     0.045 C 
HETATM   16  C22 UNL     1     -11.477   7.503  13.972  1.00  0.00     0.001 C 
HETATM   17  C23 UNL     1     -12.352   6.320  14.424  1.00  0.00     0.019 C 
HETATM   18  C24 UNL     1     -10.441   7.891  15.052  1.00  0.00     0.002 C 
HETATM   19  C25 UNL     1     -10.049   9.340  14.714  1.00  0.00     0.009 C 
HETATM   20  C26 UNL     1     -11.200   9.922  13.885  1.00  0.00     0.047 C 
HETATM   21  C27 UNL     1     -12.284   8.830  13.807  1.00  0.00     0.128 C 
ENDROOT
BRANCH   6  22
HETATM   22  O1  UNL     1      -2.374   5.592  15.078  1.00  0.00    -0.271 OA
BRANCH  22  23
HETATM   23  C6  UNL     1      -1.008   5.696  14.713  1.00  0.00     0.303 C 
BRANCH  23  24
HETATM   24  C7  UNL     1      -0.768   6.843  13.735  1.00  0.00     0.244 C 
HETATM   25  O2  UNL     1      -1.557   7.175  12.856  1.00  0.00    -0.271 OA
HETATM   26  N2  UNL     1       0.439   7.490  13.942  1.00  0.00    -0.355 N 
HETATM   27  H10 UNL     1       1.123   7.058  14.547  1.00  0.00     0.162 HD
BRANCH  26  28
HETATM   28  C8  UNL     1       0.892   8.546  13.064  1.00  0.00     0.161 C 
BRANCH  28  29
HETATM   29  C9  UNL     1       2.231   8.214  12.465  1.00  0.00    -0.038 A 
HETATM   30  C10 UNL     1       3.243   9.179  12.416  1.00  0.00     0.025 A 
HETATM   31  C11 UNL     1       4.458   8.843  11.842  1.00  0.00     0.088 A 
HETATM   32  N3  UNL     1       4.730   7.628  11.317  1.00  0.00    -0.375 N 
HETATM   33  C12 UNL     1       3.740   6.713  11.366  1.00  0.00     0.088 A 
ATOM     34  H3  UNL     1       5.638   7.413  10.905  1.00  0.00     0.164 HD
HETATM   35  C13 UNL     1       2.488   6.954  11.917  1.00  0.00     0.025 A 
ENDBRANCH  28  29
ENDBRANCH  26  28
ENDBRANCH  23  24
ENDBRANCH  22  23
ENDBRANCH   6  22
BRANCH  14  36
HETATM   36  O3  UNL     1      -9.039   5.961  11.507  1.00  0.00    -0.395 OA
HETATM   37  H25 UNL     1      -9.731   5.619  10.914  1.00  0.00     0.210 HD
ENDBRANCH  14  36
BRANCH  21  38
HETATM   38  O4  UNL     1     -12.921   8.881  12.533  1.00  0.00    -0.381 OA
HETATM   39  H36 UNL     1     -13.053   9.816  12.292  1.00  0.00     0.211 HD
ENDBRANCH  21  38
BRANCH  21  40
HETATM   40  C28 UNL     1     -13.336   9.063  14.923  1.00  0.00     0.184 C 
HETATM   41  O5  UNL     1     -14.510   8.689  14.827  1.00  0.00    -0.292 OA
BRANCH  40  42
HETATM   42  C29 UNL     1     -12.874   9.786  16.186  1.00  0.00     0.245 C 
BRANCH  42  43
HETATM   43  O6  UNL     1     -12.817   8.905  17.300  1.00  0.00    -0.393 OA
HETATM   44  H39 UNL     1     -12.740   8.002  16.931  1.00  0.00     0.209 HD
ENDBRANCH  42  43
ENDBRANCH  40  42
ENDBRANCH  21  40
TORSDOF 10
ENDMDL
MODEL 8
REMARK minimizedAffinity -8.36241436
REMARK CNNscore 0.290981412
REMARK CNNaffinity 6.43501997
REMARK  10 active torsions:
REMARK  status: ('A' for Active; 'I' for Inactive)
REMARK    1  A    between atoms: N1_6  and  O1_8 
REMARK    2  A    between atoms: O1_8  and  C6_9 
REMARK    3  A    between atoms: C6_9  and  C7_10 
REMARK       I    between atoms: C7_10  and  N2_12 
REMARK    4  A    between atoms: N2_12  and  C8_13 
REMARK    5  A    between atoms: C8_13  and  C9_14 
REMARK    6  A    between atoms: C20_27  and  O3_28 
REMARK    7  A    between atoms: C27_35  and  O4_36 
REMARK    8  A    between atoms: C27_35  and  C28_37 
REMARK    9  A    between atoms: C28_37  and  C29_39 
REMARK   10  A    between atoms: C29_39  and  O6_40 
ROOT
HETATM    1  C1  UNL     1      -1.726  10.612  14.299  1.00  0.00     0.020 C 
HETATM    2  C2  UNL     1      -1.877   9.668  15.518  1.00  0.00    -0.014 C 
HETATM    3  C3  UNL     1      -1.846   8.201  15.017  1.00  0.00     0.020 C 
HETATM    4  C4  UNL     1      -3.022   7.833  14.116  1.00  0.00     0.060 C 
HETATM    5  C5  UNL     1      -4.364   8.284  14.655  1.00  0.00     0.032 C 
HETATM    6  N1  UNL     1      -5.413   7.759  14.096  1.00  0.00    -0.271 N 
ATOM      7  H1  UNL     1      -5.375   7.066  13.348  1.00  0.00     0.194 HD
HETATM    8  C14 UNL     1      -4.372   9.279  15.764  1.00  0.00     0.030 C 
HETATM    9  C15 UNL     1      -3.248   9.897  16.173  1.00  0.00    -0.069 C 
HETATM   10  C16 UNL     1      -3.310  10.781  17.398  1.00  0.00     0.035 C 
HETATM   11  C17 UNL     1      -2.286  11.906  17.382  1.00  0.00     0.010 C 
HETATM   12  C18 UNL     1      -0.847  11.430  17.100  1.00  0.00    -0.002 C 
HETATM   13  C19 UNL     1      -0.762   9.955  16.605  1.00  0.00     0.031 C 
HETATM   14  C20 UNL     1       0.704   9.652  16.211  1.00  0.00     0.124 C 
HETATM   15  C21 UNL     1       1.665   9.924  17.379  1.00  0.00     0.045 C 
HETATM   16  C22 UNL     1       1.581  11.351  17.982  1.00  0.00     0.001 C 
HETATM   17  C23 UNL     1       2.248  12.330  17.000  1.00  0.00     0.019 C 
HETATM   18  C24 UNL     1       0.112  11.739  18.266  1.00  0.00     0.002 C 
HETATM   19  C25 UNL     1      -0.224  11.049  19.600  1.00  0.00     0.009 C 
HETATM   20  C26 UNL     1       1.111  10.793  20.307  1.00  0.00     0.047 C 
HETATM   21  C27 UNL     1       2.209  11.399  19.411  1.00  0.00     0.128 C 
ENDROOT
BRANCH   6  22
HETATM   22  O1  UNL     1      -6.606   8.259  14.643  1.00  0.00    -0.271 OA
BRANCH  22  23
HETATM   23  C6  UNL     1      -7.248   7.214  15.353  1.00  0.00     0.303 C 
BRANCH  23  24
HETATM   24  C7  UNL     1      -7.907   6.210  14.411  1.00  0.00     0.244 C 
HETATM   25  O2  UNL     1      -8.936   6.431  13.780  1.00  0.00    -0.271 OA
HETATM   26  N2  UNL     1      -7.220   5.010  14.328  1.00  0.00    -0.355 N 
HETATM   27  H10 UNL     1      -6.496   4.819  15.006  1.00  0.00     0.162 HD
BRANCH  26  28
HETATM   28  C8  UNL     1      -7.730   3.898  13.558  1.00  0.00     0.161 C 
BRANCH  28  29
HETATM   29  C9  UNL     1      -6.641   3.267  12.733  1.00  0.00    -0.038 A 
HETATM   30  C10 UNL     1      -5.401   3.899  12.596  1.00  0.00     0.025 A 
HETATM   31  C11 UNL     1      -4.428   3.297  11.815  1.00  0.00     0.088 A 
HETATM   32  N3  UNL     1      -4.605   2.125  11.166  1.00  0.00    -0.375 N 
HETATM   33  C12 UNL     1      -5.811   1.535  11.304  1.00  0.00     0.088 A 
ATOM     34  H3  UNL     1      -3.866   1.708  10.601  1.00  0.00     0.164 HD
HETATM   35  C13 UNL     1      -6.849   2.060  12.061  1.00  0.00     0.025 A 
ENDBRANCH  28  29
ENDBRANCH  26  28
ENDBRANCH  23  24
ENDBRANCH  22  23
ENDBRANCH   6  22
BRANCH  14  36
HETATM   36  O3  UNL     1       0.862   8.276  15.878  1.00  0.00    -0.395 OA
HETATM   37  H25 UNL     1       1.790   8.140  15.617  1.00  0.00     0.210 HD
ENDBRANCH  14  36
BRANCH  21  38
HETATM   38  O4  UNL     1       3.380  10.589  19.479  1.00  0.00    -0.381 OA
HETATM   39  H36 UNL     1       3.506  10.307  20.403  1.00  0.00     0.211 HD
ENDBRANCH  21  38
BRANCH  21  40
HETATM   40  C28 UNL     1       2.542  12.834  19.899  1.00  0.00     0.184 C 
HETATM   41  O5  UNL     1       3.617  13.393  19.654  1.00  0.00    -0.292 OA
BRANCH  40  42
HETATM   42  C29 UNL     1       1.477  13.566  20.711  1.00  0.00     0.245 C 
BRANCH  42  43
HETATM   43  O6  UNL     1       1.940  13.874  22.020  1.00  0.00    -0.393 OA
HETATM   44  H39 UNL     1       2.917  13.871  21.973  1.00  0.00     0.209 HD
ENDBRANCH  42  43
ENDBRANCH  40  42
ENDBRANCH  21  40
TORSDOF 10
ENDMDL
MODEL 9
REMARK minimizedAffinity -9.48104382
REMARK CNNscore 0.282458842
REMARK CNNaffinity 6.7019906
REMARK  10 active torsions:
REMARK  status: ('A' for Active; 'I' for Inactive)
REMARK    1  A    between atoms: N1_6  and  O1_8 
REMARK    2  A    between atoms: O1_8  and  C6_9 
REMARK    3  A    between atoms: C6_9  and  C7_10 
REMARK       I    between atoms: C7_10  and  N2_12 
REMARK    4  A    between atoms: N2_12  and  C8_13 
REMARK    5  A    between atoms: C8_13  and  C9_14 
REMARK    6  A    between atoms: C20_27  and  O3_28 
REMARK    7  A    between atoms: C27_35  and  O4_36 
REMARK    8  A    between atoms: C27_35  and  C28_37 
REMARK    9  A    between atoms: C28_37  and  C29_39 
REMARK   10  A    between atoms: C29_39  and  O6_40 
ROOT
HETATM    1  C1  UNL     1      -7.576   4.341  14.688  1.00  0.00     0.020 C 
HETATM    2  C2  UNL     1      -7.208   5.693  14.027  1.00  0.00    -0.014 C 
HETATM    3  C3  UNL     1      -6.457   5.407  12.700  1.00  0.00     0.020 C 
HETATM    4  C4  UNL     1      -5.113   4.710  12.890  1.00  0.00     0.060 C 
HETATM    5  C5  UNL     1      -4.256   5.329  13.975  1.00  0.00     0.032 C 
HETATM    6  N1  UNL     1      -3.005   4.975  13.991  1.00  0.00    -0.271 N 
ATOM      7  H1  UNL     1      -2.585   4.336  13.316  1.00  0.00     0.194 HD
HETATM    8  C14 UNL     1      -4.906   6.276  14.923  1.00  0.00     0.030 C 
HETATM    9  C15 UNL     1      -6.240   6.460  14.941  1.00  0.00    -0.069 C 
HETATM   10  C16 UNL     1      -6.811   7.544  15.827  1.00  0.00     0.035 C 
HETATM   11  C17 UNL     1      -8.225   7.249  16.305  1.00  0.00     0.010 C 
HETATM   12  C18 UNL     1      -9.198   6.875  15.169  1.00  0.00    -0.002 C 
HETATM   13  C19 UNL     1      -8.492   6.591  13.810  1.00  0.00     0.031 C 
HETATM   14  C20 UNL     1      -9.551   6.080  12.803  1.00  0.00     0.124 C 
HETATM   15  C21 UNL     1     -10.710   7.079  12.654  1.00  0.00     0.045 C 
HETATM   16  C22 UNL     1     -11.412   7.476  13.978  1.00  0.00     0.001 C 
HETATM   17  C23 UNL     1     -12.284   6.292  14.435  1.00  0.00     0.019 C 
HETATM   18  C24 UNL     1     -10.372   7.867  15.053  1.00  0.00     0.002 C 
HETATM   19  C25 UNL     1      -9.983   9.316  14.711  1.00  0.00     0.009 C 
HETATM   20  C26 UNL     1     -11.138   9.895  13.886  1.00  0.00     0.047 C 
HETATM   21  C27 UNL     1     -12.222   8.802  13.815  1.00  0.00     0.128 C 
ENDROOT
BRANCH   6  22
HETATM   22  O1  UNL     1      -2.302   5.577  15.046  1.00  0.00    -0.271 OA
BRANCH  22  23
HETATM   23  C6  UNL     1      -0.999   5.902  14.591  1.00  0.00     0.303 C 
BRANCH  23  24
HETATM   24  C7  UNL     1      -1.038   6.749  13.323  1.00  0.00     0.244 C 
HETATM   25  O2  UNL     1      -1.787   7.707  13.156  1.00  0.00    -0.271 OA
HETATM   26  N2  UNL     1      -0.127   6.335  12.364  1.00  0.00    -0.355 N 
HETATM   27  H10 UNL     1       0.323   5.438  12.479  1.00  0.00     0.162 HD
BRANCH  26  28
HETATM   28  C8  UNL     1      -0.070   6.952  11.058  1.00  0.00     0.161 C 
BRANCH  28  29
HETATM   29  C9  UNL     1       1.147   6.498  10.298  1.00  0.00    -0.038 A 
HETATM   30  C10 UNL     1       1.978   5.503  10.822  1.00  0.00     0.025 A 
HETATM   31  C11 UNL     1       3.098   5.122  10.102  1.00  0.00     0.088 A 
HETATM   32  N3  UNL     1       3.445   5.660   8.912  1.00  0.00    -0.375 N 
HETATM   33  C12 UNL     1       2.635   6.624   8.426  1.00  0.00     0.088 A 
ATOM     34  H3  UNL     1       4.275   5.353   8.407  1.00  0.00     0.164 HD
HETATM   35  C13 UNL     1       1.493   7.076   9.073  1.00  0.00     0.025 A 
ENDBRANCH  28  29
ENDBRANCH  26  28
ENDBRANCH  23  24
ENDBRANCH  22  23
ENDBRANCH   6  22
BRANCH  14  36
HETATM   36  O3  UNL     1      -8.983   5.933  11.505  1.00  0.00    -0.395 OA
HETATM   37  H25 UNL     1      -9.677   5.589  10.915  1.00  0.00     0.210 HD
ENDBRANCH  14  36
BRANCH  21  38
HETATM   38  O4  UNL     1     -12.864   8.851  12.544  1.00  0.00    -0.381 OA
HETATM   39  H36 UNL     1     -12.998   9.785  12.302  1.00  0.00     0.211 HD
ENDBRANCH  21  38
BRANCH  21  40
HETATM   40  C28 UNL     1     -13.269   9.036  14.935  1.00  0.00     0.184 C 
HETATM   41  O5  UNL     1     -14.417   8.582  14.884  1.00  0.00    -0.292 OA
BRANCH  40  42
HETATM   42  C29 UNL     1     -12.834   9.863  16.142  1.00  0.00     0.245 C 
BRANCH  42  43
HETATM   43  O6  UNL     1     -12.592   9.042  17.278  1.00  0.00    -0.393 OA
HETATM   44  H39 UNL     1     -12.414   8.143  16.932  1.00  0.00     0.209 HD
ENDBRANCH  42  43
ENDBRANCH  40  42
ENDBRANCH  21  40
TORSDOF 10
ENDMDL
