MODEL 1
REMARK minimizedAffinity -8.25803566
REMARK CNNscore 0.536865652
REMARK CNNaffinity 7.26791573
REMARK  7 active torsions:
REMARK  status: ('A' for Active; 'I' for Inactive)
REMARK    1  A    between atoms: C2_2  and  C30_32 
REMARK    2  A    between atoms: C3_3  and  C4_4 
REMARK    3  A    between atoms: C4_4  and  O1_5 
REMARK    4  A    between atoms: C4_4  and  C5_6 
REMARK    5  A    between atoms: C5_6  and  C6_7 
REMARK    6  A    between atoms: C6_7  and  C8_9 
REMARK    7  A    between atoms: C30_32  and  O4_34 
ROOT
HETATM    1  C8  UNL     1      -0.268   7.676  13.741  1.00  0.00    -0.002 C 
HETATM    2  C9  UNL     1      -0.541   8.929  12.874  1.00  0.00     0.006 C 
HETATM    3  C10 UNL     1      -2.058   8.956  12.596  1.00  0.00     0.011 C 
HETATM    4  C11 UNL     1      -2.671   7.948  13.593  1.00  0.00    -0.032 C 
HETATM    5  C12 UNL     1      -2.840   8.707  14.948  1.00  0.00     0.016 C 
HETATM    6  C13 UNL     1      -4.029   7.340  13.155  1.00  0.00     0.004 C 
HETATM    7  C14 UNL     1      -5.219   8.306  13.277  1.00  0.00     0.007 C 
HETATM    8  C15 UNL     1      -6.473   7.655  12.703  1.00  0.00     0.007 C 
HETATM    9  C16 UNL     1      -6.938   6.490  13.589  1.00  0.00     0.010 C 
HETATM   10  C17 UNL     1      -8.179   5.706  13.049  1.00  0.00     0.018 C 
HETATM   11  C18 UNL     1      -9.472   6.360  13.569  1.00  0.00     0.023 C 
HETATM   12  C19 UNL     1      -8.249   5.660  11.511  1.00  0.00     0.023 C 
HETATM   13  C20 UNL     1      -8.172   4.257  13.567  1.00  0.00     0.135 C 
HETATM   14  O2  UNL     1      -8.738   3.346  12.957  1.00  0.00    -0.297 OA
HETATM   15  C21 UNL     1      -7.563   3.971  14.922  1.00  0.00     0.080 C 
HETATM   16  C22 UNL     1      -6.236   4.677  15.168  1.00  0.00     0.018 C 
HETATM   17  C23 UNL     1      -5.810   5.540  13.995  1.00  0.00    -0.026 A 
HETATM   18  C24 UNL     1      -4.924   4.904  12.960  1.00  0.00     0.021 A 
HETATM   19  C25 UNL     1      -4.328   5.987  13.856  1.00  0.00    -0.027 A 
HETATM   20  C26 UNL     1      -3.344   5.531  14.943  1.00  0.00     0.011 C 
HETATM   21  C27 UNL     1      -1.853   5.865  14.751  1.00  0.00     0.011 C 
HETATM   22  C28 UNL     1      -1.567   6.826  13.592  1.00  0.00    -0.032 C 
HETATM   23  C29 UNL     1      -1.527   5.993  12.284  1.00  0.00     0.016 C 
ENDROOT
BRANCH   1  24
HETATM   24  C6  UNL     1       1.155   7.048  13.683  1.00  0.00    -0.011 C 
HETATM   25  C7  UNL     1       1.843   7.227  15.050  1.00  0.00     0.010 C 
BRANCH  24  26
HETATM   26  C5  UNL     1       2.153   7.365  12.539  1.00  0.00     0.040 C 
BRANCH  26  27
HETATM   27  C4  UNL     1       3.564   7.873  12.865  1.00  0.00     0.142 C 
BRANCH  27  28
HETATM   28  C3  UNL     1       4.561   7.333  11.873  1.00  0.00     0.018 C 
HETATM   29  C2  UNL     1       5.834   6.947  12.097  1.00  0.00     0.010 C 
HETATM   30  C1  UNL     1       6.555   7.001  13.412  1.00  0.00     0.055 C 
BRANCH  29  31
HETATM   31  C30 UNL     1       6.662   6.398  10.987  1.00  0.00     0.171 C 
HETATM   32  O3  UNL     1       7.372   7.055  10.245  1.00  0.00    -0.646 OA
BRANCH  31  33
HETATM   33  O4  UNL     1       6.591   5.064  10.861  1.00  0.00    -0.773 OA
HETATM   34  H46 UNL     1       7.181   4.869  10.103  1.00  0.00     0.167 HD
ENDBRANCH  31  33
ENDBRANCH  29  31
ENDBRANCH  27  28
BRANCH  27  35
HETATM   35  O1  UNL     1       3.971   7.421  14.151  1.00  0.00    -0.392 OA
HETATM   36  H6  UNL     1       4.930   7.559  14.218  1.00  0.00     0.210 HD
ENDBRANCH  27  35
ENDBRANCH  26  27
ENDBRANCH  24  26
ENDBRANCH   1  24
TORSDOF 7
ENDMDL
MODEL 2
REMARK minimizedAffinity -8.06968975
REMARK CNNscore 0.429453492
REMARK CNNaffinity 7.25792503
REMARK  7 active torsions:
REMARK  status: ('A' for Active; 'I' for Inactive)
REMARK    1  A    between atoms: C2_2  and  C30_32 
REMARK    2  A    between atoms: C3_3  and  C4_4 
REMARK    3  A    between atoms: C4_4  and  O1_5 
REMARK    4  A    between atoms: C4_4  and  C5_6 
REMARK    5  A    between atoms: C5_6  and  C6_7 
REMARK    6  A    between atoms: C6_7  and  C8_9 
REMARK    7  A    between atoms: C30_32  and  O4_34 
ROOT
HETATM    1  C8  UNL     1      -5.367   5.707  14.227  1.00  0.00    -0.002 C 
HETATM    2  C9  UNL     1      -4.791   6.825  15.129  1.00  0.00     0.006 C 
HETATM    3  C10 UNL     1      -5.982   7.708  15.558  1.00  0.00     0.011 C 
HETATM    4  C11 UNL     1      -7.242   6.886  15.209  1.00  0.00    -0.032 C 
HETATM    5  C12 UNL     1      -7.468   5.891  16.391  1.00  0.00     0.016 C 
HETATM    6  C13 UNL     1      -8.525   7.726  14.972  1.00  0.00     0.004 C 
HETATM    7  C14 UNL     1      -9.152   8.290  16.258  1.00  0.00     0.007 C 
HETATM    8  C15 UNL     1     -10.323   9.201  15.903  1.00  0.00     0.007 C 
HETATM    9  C16 UNL     1     -11.493   8.387  15.328  1.00  0.00     0.010 C 
HETATM   10  C17 UNL     1     -12.720   9.237  14.863  1.00  0.00     0.018 C 
HETATM   11  C18 UNL     1     -13.692   9.431  16.042  1.00  0.00     0.023 C 
HETATM   12  C19 UNL     1     -12.332  10.627  14.327  1.00  0.00     0.023 C 
HETATM   13  C20 UNL     1     -13.500   8.503  13.758  1.00  0.00     0.135 C 
HETATM   14  O2  UNL     1     -14.190   9.111  12.936  1.00  0.00    -0.297 OA
HETATM   15  C21 UNL     1     -13.520   6.990  13.763  1.00  0.00     0.080 C 
HETATM   16  C22 UNL     1     -12.163   6.353  14.032  1.00  0.00     0.018 C 
HETATM   17  C23 UNL     1     -11.071   7.381  14.256  1.00  0.00    -0.026 A 
HETATM   18  C24 UNL     1     -10.280   7.817  13.054  1.00  0.00     0.021 A 
HETATM   19  C25 UNL     1      -9.578   6.974  14.114  1.00  0.00    -0.027 A 
HETATM   20  C26 UNL     1      -9.272   5.512  13.755  1.00  0.00     0.011 C 
HETATM   21  C27 UNL     1      -7.803   5.127  13.494  1.00  0.00     0.011 C 
HETATM   22  C28 UNL     1      -6.792   6.220  13.855  1.00  0.00    -0.032 C 
HETATM   23  C29 UNL     1      -6.721   7.214  12.666  1.00  0.00     0.016 C 
ENDROOT
BRANCH   1  24
HETATM   24  C6  UNL     1      -4.414   5.052  13.185  1.00  0.00    -0.011 C 
HETATM   25  C7  UNL     1      -5.029   3.724  12.701  1.00  0.00     0.010 C 
BRANCH  24  26
HETATM   26  C5  UNL     1      -2.897   4.871  13.449  1.00  0.00     0.040 C 
BRANCH  26  27
HETATM   27  C4  UNL     1      -1.890   5.036  12.304  1.00  0.00     0.142 C 
BRANCH  27  28
HETATM   28  C3  UNL     1      -1.330   3.697  11.896  1.00  0.00     0.018 C 
HETATM   29  C2  UNL     1      -1.729   2.900  10.885  1.00  0.00     0.010 C 
HETATM   30  C1  UNL     1      -2.866   3.170   9.942  1.00  0.00     0.055 C 
BRANCH  29  31
HETATM   31  C30 UNL     1      -1.022   1.618  10.611  1.00  0.00     0.171 C 
HETATM   32  O3  UNL     1      -0.415   0.957  11.436  1.00  0.00    -0.646 OA
BRANCH  31  33
HETATM   33  O4  UNL     1      -1.117   1.204   9.338  1.00  0.00    -0.773 OA
HETATM   34  H46 UNL     1      -0.609   0.365   9.327  1.00  0.00     0.167 HD
ENDBRANCH  31  33
ENDBRANCH  29  31
ENDBRANCH  27  28
BRANCH  27  35
HETATM   35  O1  UNL     1      -0.789   5.836  12.719  1.00  0.00    -0.392 OA
HETATM   36  H6  UNL     1      -0.082   5.722  12.064  1.00  0.00     0.210 HD
ENDBRANCH  27  35
ENDBRANCH  26  27
ENDBRANCH  24  26
ENDBRANCH   1  24
TORSDOF 7
ENDMDL
MODEL 3
REMARK minimizedAffinity -9.27267933
REMARK CNNscore 0.393597156
REMARK CNNaffinity 6.95134974
REMARK  7 active torsions:
REMARK  status: ('A' for Active; 'I' for Inactive)
REMARK    1  A    between atoms: C2_2  and  C30_32 
REMARK    2  A    between atoms: C3_3  and  C4_4 
REMARK    3  A    between atoms: C4_4  and  O1_5 
REMARK    4  A    between atoms: C4_4  and  C5_6 
REMARK    5  A    between atoms: C5_6  and  C6_7 
REMARK    6  A    between atoms: C6_7  and  C8_9 
REMARK    7  A    between atoms: C30_32  and  O4_34 
ROOT
HETATM    1  C8  UNL     1      -3.441   8.014  14.869  1.00  0.00    -0.002 C 
HETATM    2  C9  UNL     1      -2.589   7.511  16.059  1.00  0.00     0.006 C 
HETATM    3  C10 UNL     1      -1.167   7.259  15.514  1.00  0.00     0.011 C 
HETATM    4  C11 UNL     1      -1.132   7.960  14.138  1.00  0.00    -0.032 C 
HETATM    5  C12 UNL     1      -0.831   9.467  14.411  1.00  0.00     0.016 C 
HETATM    6  C13 UNL     1      -0.091   7.385  13.140  1.00  0.00     0.004 C 
HETATM    7  C14 UNL     1       1.363   7.767  13.460  1.00  0.00     0.007 C 
HETATM    8  C15 UNL     1       2.307   7.049  12.501  1.00  0.00     0.007 C 
HETATM    9  C16 UNL     1       2.158   7.599  11.075  1.00  0.00     0.010 C 
HETATM   10  C17 UNL     1       3.032   6.880   9.996  1.00  0.00     0.018 C 
HETATM   11  C18 UNL     1       4.409   7.563   9.905  1.00  0.00     0.023 C 
HETATM   12  C19 UNL     1       3.257   5.385  10.291  1.00  0.00     0.023 C 
HETATM   13  C20 UNL     1       2.383   6.997   8.606  1.00  0.00     0.135 C 
HETATM   14  O2  UNL     1       2.603   6.172   7.715  1.00  0.00    -0.297 OA
HETATM   15  C21 UNL     1       1.558   8.224   8.289  1.00  0.00     0.080 C 
HETATM   16  C22 UNL     1       0.608   8.638   9.405  1.00  0.00     0.018 C 
HETATM   17  C23 UNL     1       0.704   7.733  10.617  1.00  0.00    -0.026 A 
HETATM   18  C24 UNL     1      -0.235   6.560  10.676  1.00  0.00     0.021 A 
HETATM   19  C25 UNL     1      -0.446   7.706  11.662  1.00  0.00    -0.027 A 
HETATM   20  C26 UNL     1      -1.649   8.628  11.416  1.00  0.00     0.011 C 
HETATM   21  C27 UNL     1      -2.847   8.521  12.379  1.00  0.00     0.011 C 
HETATM   22  C28 UNL     1      -2.586   7.655  13.616  1.00  0.00    -0.032 C 
HETATM   23  C29 UNL     1      -2.804   6.173  13.213  1.00  0.00     0.016 C 
ENDROOT
BRANCH   1  24
HETATM   24  C6  UNL     1      -4.979   7.783  14.928  1.00  0.00    -0.011 C 
HETATM   25  C7  UNL     1      -5.649   9.000  15.595  1.00  0.00     0.010 C 
BRANCH  24  26
HETATM   26  C5  UNL     1      -5.598   6.469  15.473  1.00  0.00     0.040 C 
BRANCH  26  27
HETATM   27  C4  UNL     1      -6.627   5.697  14.636  1.00  0.00     0.142 C 
BRANCH  27  28
HETATM   28  C3  UNL     1      -5.941   4.924  13.539  1.00  0.00     0.018 C 
HETATM   29  C2  UNL     1      -6.337   3.775  12.956  1.00  0.00     0.010 C 
HETATM   30  C1  UNL     1      -7.564   2.984  13.305  1.00  0.00     0.055 C 
BRANCH  29  31
HETATM   31  C30 UNL     1      -5.538   3.176  11.850  1.00  0.00     0.171 C 
HETATM   32  O3  UNL     1      -4.581   3.700  11.306  1.00  0.00    -0.646 OA
BRANCH  31  33
HETATM   33  O4  UNL     1      -5.946   1.950  11.485  1.00  0.00    -0.773 OA
HETATM   34  H46 UNL     1      -5.328   1.705  10.763  1.00  0.00     0.167 HD
ENDBRANCH  31  33
ENDBRANCH  29  31
ENDBRANCH  27  28
BRANCH  27  35
HETATM   35  O1  UNL     1      -7.532   6.595  14.006  1.00  0.00    -0.392 OA
HETATM   36  H6  UNL     1      -8.003   6.099  13.317  1.00  0.00     0.210 HD
ENDBRANCH  27  35
ENDBRANCH  26  27
ENDBRANCH  24  26
ENDBRANCH   1  24
TORSDOF 7
ENDMDL
MODEL 4
REMARK minimizedAffinity -8.08206749
REMARK CNNscore 0.378243268
REMARK CNNaffinity 7.09806871
REMARK  7 active torsions:
REMARK  status: ('A' for Active; 'I' for Inactive)
REMARK    1  A    between atoms: C2_2  and  C30_32 
REMARK    2  A    between atoms: C3_3  and  C4_4 
REMARK    3  A    between atoms: C4_4  and  O1_5 
REMARK    4  A    between atoms: C4_4  and  C5_6 
REMARK    5  A    between atoms: C5_6  and  C6_7 
REMARK    6  A    between atoms: C6_7  and  C8_9 
REMARK    7  A    between atoms: C30_32  and  O4_34 
ROOT
HETATM    1  C8  UNL     1      -5.450   5.694  14.254  1.00  0.00    -0.002 C 
HETATM    2  C9  UNL     1      -6.141   4.423  13.705  1.00  0.00     0.006 C 
HETATM    3  C10 UNL     1      -7.655   4.719  13.668  1.00  0.00     0.011 C 
HETATM    4  C11 UNL     1      -7.772   6.250  13.842  1.00  0.00    -0.032 C 
HETATM    5  C12 UNL     1      -7.548   6.878  12.430  1.00  0.00     0.016 C 
HETATM    6  C13 UNL     1      -9.121   6.738  14.431  1.00  0.00     0.004 C 
HETATM    7  C14 UNL     1     -10.296   6.681  13.440  1.00  0.00     0.007 C 
HETATM    8  C15 UNL     1     -11.591   7.057  14.154  1.00  0.00     0.007 C 
HETATM    9  C16 UNL     1     -11.591   8.545  14.536  1.00  0.00     0.010 C 
HETATM   10  C17 UNL     1     -12.846   9.018  15.339  1.00  0.00     0.018 C 
HETATM   11  C18 UNL     1     -13.946   9.471  14.362  1.00  0.00     0.023 C 
HETATM   12  C19 UNL     1     -13.435   7.926  16.251  1.00  0.00     0.023 C 
HETATM   13  C20 UNL     1     -12.500  10.234  16.217  1.00  0.00     0.135 C 
HETATM   14  O2  UNL     1     -13.137  10.498  17.240  1.00  0.00    -0.297 OA
HETATM   15  C21 UNL     1     -11.436  11.197  15.741  1.00  0.00     0.080 C 
HETATM   16  C22 UNL     1     -10.192  10.520  15.180  1.00  0.00     0.018 C 
HETATM   17  C23 UNL     1     -10.293   9.007  15.203  1.00  0.00    -0.026 A 
HETATM   18  C24 UNL     1      -9.752   8.300  16.414  1.00  0.00     0.021 A 
HETATM   19  C25 UNL     1      -9.009   8.139  15.091  1.00  0.00    -0.027 A 
HETATM   20  C26 UNL     1      -7.667   8.873  14.949  1.00  0.00     0.011 C 
HETATM   21  C27 UNL     1      -6.380   8.027  14.960  1.00  0.00     0.011 C 
HETATM   22  C28 UNL     1      -6.618   6.516  14.879  1.00  0.00    -0.032 C 
HETATM   23  C29 UNL     1      -6.938   6.009  16.310  1.00  0.00     0.016 C 
ENDROOT
BRANCH   1  24
HETATM   24  C6  UNL     1      -4.073   5.524  14.960  1.00  0.00    -0.011 C 
HETATM   25  C7  UNL     1      -3.715   6.833  15.692  1.00  0.00     0.010 C 
BRANCH  24  26
HETATM   26  C5  UNL     1      -2.827   4.969  14.221  1.00  0.00     0.040 C 
BRANCH  26  27
HETATM   27  C4  UNL     1      -2.676   5.168  12.707  1.00  0.00     0.142 C 
BRANCH  27  28
HETATM   28  C3  UNL     1      -1.821   4.077  12.115  1.00  0.00     0.018 C 
HETATM   29  C2  UNL     1      -2.203   2.856  11.691  1.00  0.00     0.010 C 
HETATM   30  C1  UNL     1      -3.595   2.297  11.746  1.00  0.00     0.055 C 
BRANCH  29  31
HETATM   31  C30 UNL     1      -1.210   1.920  11.093  1.00  0.00     0.171 C 
HETATM   32  O3  UNL     1      -0.006   2.106  11.044  1.00  0.00    -0.646 OA
BRANCH  31  33
HETATM   33  O4  UNL     1      -1.748   0.792  10.605  1.00  0.00    -0.773 OA
HETATM   34  H46 UNL     1      -0.976   0.297  10.257  1.00  0.00     0.167 HD
ENDBRANCH  31  33
ENDBRANCH  29  31
ENDBRANCH  27  28
BRANCH  27  35
HETATM   35  O1  UNL     1      -2.026   6.402  12.429  1.00  0.00    -0.392 OA
HETATM   36  H6  UNL     1      -1.744   6.380  11.500  1.00  0.00     0.210 HD
ENDBRANCH  27  35
ENDBRANCH  26  27
ENDBRANCH  24  26
ENDBRANCH   1  24
TORSDOF 7
ENDMDL
MODEL 5
REMARK minimizedAffinity -7.5324626
REMARK CNNscore 0.331169754
REMARK CNNaffinity 6.45386457
REMARK  7 active torsions:
REMARK  status: ('A' for Active; 'I' for Inactive)
REMARK    1  A    between atoms: C2_2  and  C30_32 
REMARK    2  A    between atoms: C3_3  and  C4_4 
REMARK    3  A    between atoms: C4_4  and  O1_5 
REMARK    4  A    between atoms: C4_4  and  C5_6 
REMARK    5  A    between atoms: C5_6  and  C6_7 
REMARK    6  A    between atoms: C6_7  and  C8_9 
REMARK    7  A    between atoms: C30_32  and  O4_34 
ROOT
HETATM    1  C8  UNL     1      -1.479  10.816  16.502  1.00  0.00    -0.002 C 
HETATM    2  C9  UNL     1      -0.059  10.345  16.109  1.00  0.00     0.006 C 
HETATM    3  C10 UNL     1      -0.236   9.106  15.206  1.00  0.00     0.011 C 
HETATM    4  C11 UNL     1      -1.726   9.108  14.802  1.00  0.00    -0.032 C 
HETATM    5  C12 UNL     1      -1.860  10.088  13.594  1.00  0.00     0.016 C 
HETATM    6  C13 UNL     1      -2.301   7.718  14.421  1.00  0.00     0.004 C 
HETATM    7  C14 UNL     1      -1.847   7.206  13.044  1.00  0.00     0.007 C 
HETATM    8  C15 UNL     1      -2.362   5.786  12.827  1.00  0.00     0.007 C 
HETATM    9  C16 UNL     1      -3.889   5.778  12.663  1.00  0.00     0.010 C 
HETATM   10  C17 UNL     1      -4.527   4.359  12.507  1.00  0.00     0.018 C 
HETATM   11  C18 UNL     1      -4.562   3.968  11.019  1.00  0.00     0.023 C 
HETATM   12  C19 UNL     1      -3.767   3.261  13.275  1.00  0.00     0.023 C 
HETATM   13  C20 UNL     1      -5.984   4.363  13.002  1.00  0.00     0.135 C 
HETATM   14  O2  UNL     1      -6.535   3.336  13.406  1.00  0.00    -0.297 OA
HETATM   15  C21 UNL     1      -6.795   5.633  12.868  1.00  0.00     0.080 C 
HETATM   16  C22 UNL     1      -6.045   6.894  13.275  1.00  0.00     0.018 C 
HETATM   17  C23 UNL     1      -4.623   6.609  13.718  1.00  0.00    -0.026 A 
HETATM   18  C24 UNL     1      -4.394   6.373  15.185  1.00  0.00     0.021 A 
HETATM   19  C25 UNL     1      -3.847   7.655  14.564  1.00  0.00    -0.027 A 
HETATM   20  C26 UNL     1      -4.570   8.964  14.912  1.00  0.00     0.011 C 
HETATM   21  C27 UNL     1      -3.855   9.955  15.850  1.00  0.00     0.011 C 
HETATM   22  C28 UNL     1      -2.392   9.605  16.139  1.00  0.00    -0.032 C 
HETATM   23  C29 UNL     1      -2.372   8.547  17.274  1.00  0.00     0.016 C 
ENDROOT
BRANCH   1  24
HETATM   24  C6  UNL     1      -1.638  11.616  17.828  1.00  0.00    -0.011 C 
HETATM   25  C7  UNL     1      -1.319  13.101  17.564  1.00  0.00     0.010 C 
BRANCH  24  26
HETATM   26  C5  UNL     1      -0.979  11.158  19.155  1.00  0.00     0.040 C 
BRANCH  26  27
HETATM   27  C4  UNL     1       0.419  11.662  19.536  1.00  0.00     0.142 C 
BRANCH  27  28
HETATM   28  C3  UNL     1       1.158  10.617  20.332  1.00  0.00     0.018 C 
HETATM   29  C2  UNL     1       2.247  10.778  21.111  1.00  0.00     0.010 C 
HETATM   30  C1  UNL     1       2.993  12.061  21.333  1.00  0.00     0.055 C 
BRANCH  29  31
HETATM   31  C30 UNL     1       2.817   9.622  21.858  1.00  0.00     0.171 C 
HETATM   32  O3  UNL     1       2.172   8.711  22.348  1.00  0.00    -0.646 OA
BRANCH  31  33
HETATM   33  O4  UNL     1       4.156   9.636  21.945  1.00  0.00    -0.773 OA
HETATM   34  H46 UNL     1       4.365   8.825  22.455  1.00  0.00     0.167 HD
ENDBRANCH  31  33
ENDBRANCH  29  31
ENDBRANCH  27  28
BRANCH  27  35
HETATM   35  O1  UNL     1       0.325  12.819  20.357  1.00  0.00    -0.392 OA
HETATM   36  H6  UNL     1       1.197  12.962  20.761  1.00  0.00     0.210 HD
ENDBRANCH  27  35
ENDBRANCH  26  27
ENDBRANCH  24  26
ENDBRANCH   1  24
TORSDOF 7
ENDMDL
MODEL 6
REMARK minimizedAffinity -8.55081367
REMARK CNNscore 0.297050327
REMARK CNNaffinity 6.71235895
REMARK  7 active torsions:
REMARK  status: ('A' for Active; 'I' for Inactive)
REMARK    1  A    between atoms: C2_2  and  C30_32 
REMARK    2  A    between atoms: C3_3  and  C4_4 
REMARK    3  A    between atoms: C4_4  and  O1_5 
REMARK    4  A    between atoms: C4_4  and  C5_6 
REMARK    5  A    between atoms: C5_6  and  C6_7 
REMARK    6  A    between atoms: C6_7  and  C8_9 
REMARK    7  A    between atoms: C30_32  and  O4_34 
ROOT
HETATM    1  C8  UNL     1      -6.217   6.257  14.533  1.00  0.00    -0.002 C 
HETATM    2  C9  UNL     1      -6.641   5.332  13.367  1.00  0.00     0.006 C 
HETATM    3  C10 UNL     1      -5.379   5.083  12.515  1.00  0.00     0.011 C 
HETATM    4  C11 UNL     1      -4.199   5.554  13.392  1.00  0.00    -0.032 C 
HETATM    5  C12 UNL     1      -3.860   4.373  14.357  1.00  0.00     0.016 C 
HETATM    6  C13 UNL     1      -2.929   5.975  12.606  1.00  0.00     0.004 C 
HETATM    7  C14 UNL     1      -2.130   4.797  12.025  1.00  0.00     0.007 C 
HETATM    8  C15 UNL     1      -0.983   5.325  11.169  1.00  0.00     0.007 C 
HETATM    9  C16 UNL     1       0.080   6.008  12.042  1.00  0.00     0.010 C 
HETATM   10  C17 UNL     1       1.267   6.650  11.252  1.00  0.00     0.018 C 
HETATM   11  C18 UNL     1       2.382   5.606  11.056  1.00  0.00     0.023 C 
HETATM   12  C19 UNL     1       0.861   7.185   9.866  1.00  0.00     0.023 C 
HETATM   13  C20 UNL     1       1.882   7.814  12.049  1.00  0.00     0.135 C 
HETATM   14  O2  UNL     1       2.484   8.736  11.492  1.00  0.00    -0.297 OA
HETATM   15  C21 UNL     1       1.854   7.757  13.561  1.00  0.00     0.080 C 
HETATM   16  C22 UNL     1       0.520   7.303  14.140  1.00  0.00     0.018 C 
HETATM   17  C23 UNL     1      -0.502   6.984  13.066  1.00  0.00    -0.026 A 
HETATM   18  C24 UNL     1      -1.421   8.096  12.640  1.00  0.00     0.021 A 
HETATM   19  C25 UNL     1      -2.014   6.928  13.423  1.00  0.00    -0.027 A 
HETATM   20  C26 UNL     1      -2.408   7.194  14.884  1.00  0.00     0.011 C 
HETATM   21  C27 UNL     1      -3.909   7.260  15.223  1.00  0.00     0.011 C 
HETATM   22  C28 UNL     1      -4.833   6.817  14.084  1.00  0.00    -0.032 C 
HETATM   23  C29 UNL     1      -5.018   8.024  13.126  1.00  0.00     0.016 C 
ENDROOT
BRANCH   1  24
HETATM   24  C6  UNL     1      -7.311   7.150  15.186  1.00  0.00    -0.011 C 
HETATM   25  C7  UNL     1      -7.471   6.754  16.667  1.00  0.00     0.010 C 
BRANCH  24  26
HETATM   26  C5  UNL     1      -8.704   7.361  14.538  1.00  0.00     0.040 C 
BRANCH  26  27
HETATM   27  C4  UNL     1      -9.662   8.421  15.097  1.00  0.00     0.142 C 
BRANCH  27  28
HETATM   28  C3  UNL     1     -10.757   8.717  14.105  1.00  0.00     0.018 C 
HETATM   29  C2  UNL     1     -11.838   7.967  13.806  1.00  0.00     0.010 C 
HETATM   30  C1  UNL     1     -12.173   6.628  14.394  1.00  0.00     0.055 C 
BRANCH  29  31
HETATM   31  C30 UNL     1     -12.840   8.449  12.816  1.00  0.00     0.171 C 
HETATM   32  O3  UNL     1     -12.710   9.427  12.099  1.00  0.00    -0.646 OA
BRANCH  31  33
HETATM   33  O4  UNL     1     -13.944   7.690  12.743  1.00  0.00    -0.773 OA
HETATM   34  H46 UNL     1     -14.489   8.136  12.060  1.00  0.00     0.167 HD
ENDBRANCH  31  33
ENDBRANCH  29  31
ENDBRANCH  27  28
BRANCH  27  35
HETATM   35  O1  UNL     1      -8.973   9.642  15.331  1.00  0.00    -0.392 OA
HETATM   36  H6  UNL     1      -9.641  10.336  15.454  1.00  0.00     0.210 HD
ENDBRANCH  27  35
ENDBRANCH  26  27
ENDBRANCH  24  26
ENDBRANCH   1  24
TORSDOF 7
ENDMDL
MODEL 7
REMARK minimizedAffinity -8.02003765
REMARK CNNscore 0.270817459
REMARK CNNaffinity 6.89593124
REMARK  7 active torsions:
REMARK  status: ('A' for Active; 'I' for Inactive)
REMARK    1  A    between atoms: C2_2  and  C30_32 
REMARK    2  A    between atoms: C3_3  and  C4_4 
REMARK    3  A    between atoms: C4_4  and  O1_5 
REMARK    4  A    between atoms: C4_4  and  C5_6 
REMARK    5  A    between atoms: C5_6  and  C6_7 
REMARK    6  A    between atoms: C6_7  and  C8_9 
REMARK    7  A    between atoms: C30_32  and  O4_34 
ROOT
HETATM    1  C8  UNL     1      -7.389   7.743  14.941  1.00  0.00    -0.002 C 
HETATM    2  C9  UNL     1      -6.568   8.885  15.587  1.00  0.00     0.006 C 
HETATM    3  C10 UNL     1      -5.102   8.679  15.153  1.00  0.00     0.011 C 
HETATM    4  C11 UNL     1      -5.162   7.665  13.990  1.00  0.00    -0.032 C 
HETATM    5  C12 UNL     1      -5.498   8.481  12.702  1.00  0.00     0.016 C 
HETATM    6  C13 UNL     1      -3.864   6.843  13.772  1.00  0.00     0.004 C 
HETATM    7  C14 UNL     1      -2.719   7.639  13.123  1.00  0.00     0.007 C 
HETATM    8  C15 UNL     1      -1.459   6.781  13.074  1.00  0.00     0.007 C 
HETATM    9  C16 UNL     1      -1.624   5.624  12.078  1.00  0.00     0.010 C 
HETATM   10  C17 UNL     1      -0.412   4.639  12.004  1.00  0.00     0.018 C 
HETATM   11  C18 UNL     1       0.598   5.139  10.955  1.00  0.00     0.023 C 
HETATM   12  C19 UNL     1       0.328   4.482  13.346  1.00  0.00     0.023 C 
HETATM   13  C20 UNL     1      -0.874   3.244  11.550  1.00  0.00     0.135 C 
HETATM   14  O2  UNL     1      -0.245   2.224  11.843  1.00  0.00    -0.297 OA
HETATM   15  C21 UNL     1      -2.059   3.137  10.616  1.00  0.00     0.080 C 
HETATM   16  C22 UNL     1      -3.228   4.038  10.991  1.00  0.00     0.018 C 
HETATM   17  C23 UNL     1      -2.948   4.871  12.227  1.00  0.00    -0.026 A 
HETATM   18  C24 UNL     1      -3.367   4.299  13.552  1.00  0.00     0.021 A 
HETATM   19  C25 UNL     1      -4.123   5.512  13.017  1.00  0.00    -0.027 A 
HETATM   20  C26 UNL     1      -5.546   5.272  12.491  1.00  0.00     0.011 C 
HETATM   21  C27 UNL     1      -6.723   5.799  13.332  1.00  0.00     0.011 C 
HETATM   22  C28 UNL     1      -6.310   6.711  14.492  1.00  0.00    -0.032 C 
HETATM   23  C29 UNL     1      -5.892   5.807  15.682  1.00  0.00     0.016 C 
ENDROOT
BRANCH   1  24
HETATM   24  C6  UNL     1      -8.716   7.319  15.636  1.00  0.00    -0.011 C 
HETATM   25  C7  UNL     1      -9.625   6.620  14.607  1.00  0.00     0.010 C 
BRANCH  24  26
HETATM   26  C5  UNL     1      -9.548   8.301  16.501  1.00  0.00     0.040 C 
BRANCH  26  27
HETATM   27  C4  UNL     1     -10.232   9.511  15.851  1.00  0.00     0.142 C 
BRANCH  27  28
HETATM   28  C3  UNL     1     -10.800   9.135  14.507  1.00  0.00     0.018 C 
HETATM   29  C2  UNL     1     -11.804   9.730  13.830  1.00  0.00     0.010 C 
HETATM   30  C1  UNL     1     -12.610  10.906  14.299  1.00  0.00     0.055 C 
BRANCH  29  31
HETATM   31  C30 UNL     1     -12.204   9.235  12.484  1.00  0.00     0.171 C 
HETATM   32  O3  UNL     1     -11.438   8.980  11.570  1.00  0.00    -0.646 OA
BRANCH  31  33
HETATM   33  O4  UNL     1     -13.526   9.057  12.338  1.00  0.00    -0.773 OA
HETATM   34  H46 UNL     1     -13.617   8.735  11.416  1.00  0.00     0.167 HD
ENDBRANCH  31  33
ENDBRANCH  29  31
ENDBRANCH  27  28
BRANCH  27  35
HETATM   35  O1  UNL     1      -9.293  10.555  15.627  1.00  0.00    -0.392 OA
HETATM   36  H6  UNL     1      -9.701  11.189  15.016  1.00  0.00     0.210 HD
ENDBRANCH  27  35
ENDBRANCH  26  27
ENDBRANCH  24  26
ENDBRANCH   1  24
TORSDOF 7
ENDMDL
MODEL 8
REMARK minimizedAffinity -8.74899197
REMARK CNNscore 0.249006033
REMARK CNNaffinity 6.46476316
REMARK  7 active torsions:
REMARK  status: ('A' for Active; 'I' for Inactive)
REMARK    1  A    between atoms: C2_2  and  C30_32 
REMARK    2  A    between atoms: C3_3  and  C4_4 
REMARK    3  A    between atoms: C4_4  and  O1_5 
REMARK    4  A    between atoms: C4_4  and  C5_6 
REMARK    5  A    between atoms: C5_6  and  C6_7 
REMARK    6  A    between atoms: C6_7  and  C8_9 
REMARK    7  A    between atoms: C30_32  and  O4_34 
ROOT
HETATM    1  C8  UNL     1      -3.137   8.187  15.327  1.00  0.00    -0.002 C 
HETATM    2  C9  UNL     1      -2.097   8.080  16.467  1.00  0.00     0.006 C 
HETATM    3  C10 UNL     1      -0.708   8.008  15.797  1.00  0.00     0.011 C 
HETATM    4  C11 UNL     1      -0.942   8.440  14.333  1.00  0.00    -0.032 C 
HETATM    5  C12 UNL     1      -0.939  10.002  14.322  1.00  0.00     0.016 C 
HETATM    6  C13 UNL     1       0.102   7.902  13.319  1.00  0.00     0.004 C 
HETATM    7  C14 UNL     1       1.468   8.605  13.391  1.00  0.00     0.007 C 
HETATM    8  C15 UNL     1       2.451   7.918  12.450  1.00  0.00     0.007 C 
HETATM    9  C16 UNL     1       2.064   8.161  10.983  1.00  0.00     0.010 C 
HETATM   10  C17 UNL     1       2.970   7.437   9.934  1.00  0.00     0.018 C 
HETATM   11  C18 UNL     1       4.160   8.341   9.566  1.00  0.00     0.023 C 
HETATM   12  C19 UNL     1       3.527   6.091  10.435  1.00  0.00     0.023 C 
HETATM   13  C20 UNL     1       2.190   7.174   8.634  1.00  0.00     0.135 C 
HETATM   14  O2  UNL     1       2.496   6.258   7.867  1.00  0.00    -0.297 OA
HETATM   15  C21 UNL     1       1.101   8.144   8.230  1.00  0.00     0.080 C 
HETATM   16  C22 UNL     1       0.189   8.566   9.374  1.00  0.00     0.018 C 
HETATM   17  C23 UNL     1       0.580   7.931  10.694  1.00  0.00    -0.026 A 
HETATM   18  C24 UNL     1      -0.086   6.632  11.056  1.00  0.00     0.021 A 
HETATM   19  C25 UNL     1      -0.442   7.876  11.864  1.00  0.00    -0.027 A 
HETATM   20  C26 UNL     1      -1.828   8.492  11.625  1.00  0.00     0.011 C 
HETATM   21  C27 UNL     1      -2.886   8.336  12.734  1.00  0.00     0.011 C 
HETATM   22  C28 UNL     1      -2.341   7.775  14.051  1.00  0.00    -0.032 C 
HETATM   23  C29 UNL     1      -2.280   6.230  13.920  1.00  0.00     0.016 C 
ENDROOT
BRANCH   1  24
HETATM   24  C6  UNL     1      -4.582   7.682  15.612  1.00  0.00    -0.011 C 
HETATM   25  C7  UNL     1      -4.678   6.188  15.245  1.00  0.00     0.010 C 
BRANCH  24  26
HETATM   26  C5  UNL     1      -5.838   8.437  15.104  1.00  0.00     0.040 C 
BRANCH  26  27
HETATM   27  C4  UNL     1      -7.240   7.909  15.433  1.00  0.00     0.142 C 
BRANCH  27  28
HETATM   28  C3  UNL     1      -8.267   8.999  15.267  1.00  0.00     0.018 C 
HETATM   29  C2  UNL     1      -9.556   8.880  14.888  1.00  0.00     0.010 C 
HETATM   30  C1  UNL     1     -10.252   7.604  14.515  1.00  0.00     0.055 C 
BRANCH  29  31
HETATM   31  C30 UNL     1     -10.435  10.080  14.817  1.00  0.00     0.171 C 
HETATM   32  O3  UNL     1     -10.577  10.905  15.704  1.00  0.00    -0.646 OA
BRANCH  31  33
HETATM   33  O4  UNL     1     -11.079  10.217  13.648  1.00  0.00    -0.773 OA
HETATM   34  H46 UNL     1     -11.603  11.038  13.764  1.00  0.00     0.167 HD
ENDBRANCH  31  33
ENDBRANCH  29  31
ENDBRANCH  27  28
BRANCH  27  35
HETATM   35  O1  UNL     1      -7.306   7.481  16.788  1.00  0.00    -0.392 OA
HETATM   36  H6  UNL     1      -8.244   7.381  17.017  1.00  0.00     0.210 HD
ENDBRANCH  27  35
ENDBRANCH  26  27
ENDBRANCH  24  26
ENDBRANCH   1  24
TORSDOF 7
ENDMDL
MODEL 9
REMARK minimizedAffinity -7.42261124
REMARK CNNscore 0.241187498
REMARK CNNaffinity 5.56962347
REMARK  7 active torsions:
REMARK  status: ('A' for Active; 'I' for Inactive)
REMARK    1  A    between atoms: C2_2  and  C30_32 
REMARK    2  A    between atoms: C3_3  and  C4_4 
REMARK    3  A    between atoms: C4_4  and  O1_5 
REMARK    4  A    between atoms: C4_4  and  C5_6 
REMARK    5  A    between atoms: C5_6  and  C6_7 
REMARK    6  A    between atoms: C6_7  and  C8_9 
REMARK    7  A    between atoms: C30_32  and  O4_34 
ROOT
HETATM    1  C8  UNL     1       7.770   9.733  14.736  1.00  0.00    -0.002 C 
HETATM    2  C9  UNL     1       6.782  10.428  15.703  1.00  0.00     0.006 C 
HETATM    3  C10 UNL     1       5.361  10.044  15.240  1.00  0.00     0.011 C 
HETATM    4  C11 UNL     1       5.559   8.863  14.264  1.00  0.00    -0.032 C 
HETATM    5  C12 UNL     1       5.691   7.577  15.141  1.00  0.00     0.016 C 
HETATM    6  C13 UNL     1       4.422   8.678  13.224  1.00  0.00     0.004 C 
HETATM    7  C14 UNL     1       3.128   8.085  13.805  1.00  0.00     0.007 C 
HETATM    8  C15 UNL     1       2.043   8.067  12.733  1.00  0.00     0.007 C 
HETATM    9  C16 UNL     1       2.376   7.046  11.636  1.00  0.00     0.010 C 
HETATM   10  C17 UNL     1       1.360   7.001  10.448  1.00  0.00     0.018 C 
HETATM   11  C18 UNL     1       0.236   5.997  10.766  1.00  0.00     0.023 C 
HETATM   12  C19 UNL     1       0.714   8.365  10.145  1.00  0.00     0.023 C 
HETATM   13  C20 UNL     1       2.049   6.506   9.164  1.00  0.00     0.135 C 
HETATM   14  O2  UNL     1       1.626   6.805   8.044  1.00  0.00    -0.297 OA
HETATM   15  C21 UNL     1       3.196   5.527   9.284  1.00  0.00     0.080 C 
HETATM   16  C22 UNL     1       4.197   5.875  10.377  1.00  0.00     0.018 C 
HETATM   17  C23 UNL     1       3.819   7.134  11.134  1.00  0.00    -0.026 A 
HETATM   18  C24 UNL     1       4.386   8.434  10.634  1.00  0.00     0.021 A 
HETATM   19  C25 UNL     1       4.889   7.892  11.968  1.00  0.00    -0.027 A 
HETATM   20  C26 UNL     1       6.310   7.310  11.996  1.00  0.00     0.011 C 
HETATM   21  C27 UNL     1       7.404   8.117  12.720  1.00  0.00     0.011 C 
HETATM   22  C28 UNL     1       6.878   9.307  13.530  1.00  0.00    -0.032 C 
HETATM   23  C29 UNL     1       6.677  10.495  12.553  1.00  0.00     0.016 C 
ENDROOT
BRANCH   1  24
HETATM   24  C6  UNL     1       9.177  10.372  14.552  1.00  0.00    -0.011 C 
HETATM   25  C7  UNL     1      10.210   9.257  14.296  1.00  0.00     0.010 C 
BRANCH  24  26
HETATM   26  C5  UNL     1       9.751  11.411  15.551  1.00  0.00     0.040 C 
BRANCH  26  27
HETATM   27  C4  UNL     1       9.966  11.029  17.022  1.00  0.00     0.142 C 
BRANCH  27  28
HETATM   28  C3  UNL     1      11.252  11.620  17.538  1.00  0.00     0.018 C 
HETATM   29  C2  UNL     1      11.567  11.953  18.806  1.00  0.00     0.010 C 
HETATM   30  C1  UNL     1      10.668  11.827  20.002  1.00  0.00     0.055 C 
BRANCH  29  31
HETATM   31  C30 UNL     1      12.916  12.495  19.131  1.00  0.00     0.171 C 
HETATM   32  O3  UNL     1      13.962  11.872  19.062  1.00  0.00    -0.646 OA
BRANCH  31  33
HETATM   33  O4  UNL     1      12.911  13.783  19.505  1.00  0.00    -0.773 OA
HETATM   34  H46 UNL     1      13.856  13.980  19.679  1.00  0.00     0.167 HD
ENDBRANCH  31  33
ENDBRANCH  29  31
ENDBRANCH  27  28
BRANCH  27  35
HETATM   35  O1  UNL     1      10.075   9.617  17.159  1.00  0.00    -0.392 OA
HETATM   36  H6  UNL     1      10.438   9.437  18.042  1.00  0.00     0.210 HD
ENDBRANCH  27  35
ENDBRANCH  26  27
ENDBRANCH  24  26
ENDBRANCH   1  24
TORSDOF 7
ENDMDL
