MODEL 1
REMARK minimizedAffinity -6.94792461
REMARK CNNscore 0.52933079
REMARK CNNaffinity 6.12149286
REMARK  5 active torsions:
REMARK  status: ('A' for Active; 'I' for Inactive)
REMARK    1  A    between atoms: C2_2  and  C4_4 
REMARK    2  A    between atoms: C7_7  and  C8_8 
REMARK    3  A    between atoms: C8_8  and  O2_10 
REMARK    4  A    between atoms: C22_25  and  C24_27 
REMARK    5  A    between atoms: C24_27  and  O4_28 
ROOT
HETATM    1  C4  UNL     1     -13.413   8.094  13.304  1.00  0.00     0.019 C 
HETATM    2  C5  UNL     1     -13.567   9.580  12.879  1.00  0.00     0.011 C 
HETATM    3  C6  UNL     1     -15.045   9.955  13.081  1.00  0.00     0.021 C 
HETATM    4  C7  UNL     1     -15.781   8.614  13.013  1.00  0.00     0.050 C 
HETATM    5  C9  UNL     1     -17.160   8.593  13.690  1.00  0.00     0.022 C 
HETATM    6  C10 UNL     1     -17.702   7.149  13.778  1.00  0.00     0.011 C 
HETATM    7  C11 UNL     1     -16.744   6.128  14.487  1.00  0.00    -0.032 C 
HETATM    8  C12 UNL     1     -16.725   6.553  15.995  1.00  0.00     0.016 C 
HETATM    9  C13 UNL     1     -15.295   6.256  13.861  1.00  0.00     0.000 C 
HETATM   10  C14 UNL     1     -14.305   5.287  14.517  1.00  0.00     0.006 C 
HETATM   11  C15 UNL     1     -14.778   3.832  14.441  1.00  0.00     0.006 C 
HETATM   12  C16 UNL     1     -16.193   3.632  15.027  1.00  0.00     0.003 C 
HETATM   13  C17 UNL     1     -16.603   2.110  15.236  1.00  0.00    -0.035 C 
HETATM   14  C18 UNL     1     -16.498   1.278  13.937  1.00  0.00     0.016 C 
HETATM   15  C19 UNL     1     -15.590   1.471  16.258  1.00  0.00     0.017 C 
HETATM   16  C20 UNL     1     -16.166   0.401  17.180  1.00  0.00     0.080 C 
HETATM   17  C21 UNL     1     -17.353  -0.281  16.555  1.00  0.00     0.137 C 
HETATM   18  O3  UNL     1     -17.336  -1.491  16.326  1.00  0.00    -0.297 OA
HETATM   19  C22 UNL     1     -18.560   0.611  16.233  1.00  0.00     0.042 C 
HETATM   20  C23 UNL     1     -19.383  -0.043  15.106  1.00  0.00     0.026 C 
HETATM   21  C25 UNL     1     -18.037   2.056  15.876  1.00  0.00     0.012 C 
HETATM   22  C26 UNL     1     -19.058   2.897  15.088  1.00  0.00     0.007 C 
HETATM   23  C27 UNL     1     -18.630   4.364  14.992  1.00  0.00     0.011 C 
HETATM   24  C28 UNL     1     -17.245   4.583  14.326  1.00  0.00    -0.032 C 
HETATM   25  C29 UNL     1     -17.412   4.238  12.816  1.00  0.00     0.016 C 
HETATM   26  C30 UNL     1     -14.820   7.726  13.837  1.00  0.00     0.017 C 
ENDROOT
BRANCH   4  27
HETATM   27  C8  UNL     1     -15.994   8.310  11.522  1.00  0.00     0.149 C 
HETATM   28  O1  UNL     1     -16.352   9.121  10.678  1.00  0.00    -0.649 OA
BRANCH  27  29
HETATM   29  O2  UNL     1     -15.727   7.054  11.136  1.00  0.00    -0.776 OA
HETATM   30  H11 UNL     1     -15.901   7.062  10.172  1.00  0.00     0.167 HD
ENDBRANCH  27  29
ENDBRANCH   4  27
BRANCH   1  31
HETATM   31  C2  UNL     1     -12.200   7.922  14.210  1.00  0.00    -0.088 C 
HETATM   32  C1  UNL     1     -12.001   8.562  15.374  1.00  0.00     0.014 C 
HETATM   33  C3  UNL     1     -11.170   6.945  13.702  1.00  0.00     0.043 C 
ENDBRANCH   1  31
BRANCH  19  34
HETATM   34  C24 UNL     1     -19.425   0.706  17.518  1.00  0.00     0.181 C 
BRANCH  34  35
HETATM   35  O4  UNL     1     -19.408  -0.475  18.306  1.00  0.00    -0.400 OA
HETATM   36  H37 UNL     1     -19.825  -1.196  17.802  1.00  0.00     0.209 HD
ENDBRANCH  34  35
ENDBRANCH  19  34
TORSDOF 5
ENDMDL
MODEL 2
REMARK minimizedAffinity -7.23461008
REMARK CNNscore 0.456545621
REMARK CNNaffinity 6.36289597
REMARK  5 active torsions:
REMARK  status: ('A' for Active; 'I' for Inactive)
REMARK    1  A    between atoms: C2_2  and  C4_4 
REMARK    2  A    between atoms: C7_7  and  C8_8 
REMARK    3  A    between atoms: C8_8  and  O2_10 
REMARK    4  A    between atoms: C22_25  and  C24_27 
REMARK    5  A    between atoms: C24_27  and  O4_28 
ROOT
HETATM    1  C4  UNL     1       3.935  10.202  22.393  1.00  0.00     0.019 C 
HETATM    2  C5  UNL     1       5.289  10.491  23.098  1.00  0.00     0.011 C 
HETATM    3  C6  UNL     1       5.678  11.938  22.748  1.00  0.00     0.021 C 
HETATM    4  C7  UNL     1       4.932  12.218  21.441  1.00  0.00     0.050 C 
HETATM    5  C9  UNL     1       4.697  13.704  21.130  1.00  0.00     0.022 C 
HETATM    6  C10 UNL     1       3.736  13.865  19.932  1.00  0.00     0.011 C 
HETATM    7  C11 UNL     1       2.358  13.128  20.089  1.00  0.00    -0.032 C 
HETATM    8  C12 UNL     1       1.597  13.907  21.215  1.00  0.00     0.016 C 
HETATM    9  C13 UNL     1       2.619  11.631  20.534  1.00  0.00     0.000 C 
HETATM   10  C14 UNL     1       1.309  10.856  20.713  1.00  0.00     0.006 C 
HETATM   11  C15 UNL     1       0.442  10.880  19.451  1.00  0.00     0.006 C 
HETATM   12  C16 UNL     1       0.153  12.312  18.951  1.00  0.00     0.003 C 
HETATM   13  C17 UNL     1      -0.971  12.397  17.831  1.00  0.00    -0.035 C 
HETATM   14  C18 UNL     1      -0.659  11.512  16.601  1.00  0.00     0.016 C 
HETATM   15  C19 UNL     1      -2.312  11.848  18.446  1.00  0.00     0.017 C 
HETATM   16  C20 UNL     1      -3.591  12.511  17.944  1.00  0.00     0.080 C 
HETATM   17  C21 UNL     1      -3.410  13.076  16.561  1.00  0.00     0.137 C 
HETATM   18  O3  UNL     1      -4.091  12.669  15.620  1.00  0.00    -0.297 OA
HETATM   19  C22 UNL     1      -2.347  14.173  16.408  1.00  0.00     0.042 C 
HETATM   20  C23 UNL     1      -1.862  14.204  14.945  1.00  0.00     0.026 C 
HETATM   21  C25 UNL     1      -1.193  13.905  17.450  1.00  0.00     0.012 C 
HETATM   22  C26 UNL     1       0.126  14.616  17.096  1.00  0.00     0.007 C 
HETATM   23  C27 UNL     1       1.130  14.555  18.250  1.00  0.00     0.011 C 
HETATM   24  C28 UNL     1       1.494  13.116  18.705  1.00  0.00    -0.032 C 
HETATM   25  C29 UNL     1       2.339  12.482  17.561  1.00  0.00     0.016 C 
HETATM   26  C30 UNL     1       3.566  11.563  21.753  1.00  0.00     0.017 C 
ENDROOT
BRANCH   4  27
HETATM   27  C8  UNL     1       5.801  11.642  20.312  1.00  0.00     0.149 C 
HETATM   28  O1  UNL     1       5.417  10.861  19.451  1.00  0.00    -0.649 OA
BRANCH  27  29
HETATM   29  O2  UNL     1       7.070  12.073  20.271  1.00  0.00    -0.776 OA
HETATM   30  H11 UNL     1       7.448  11.618  19.489  1.00  0.00     0.167 HD
ENDBRANCH  27  29
ENDBRANCH   4  27
BRANCH   1  31
HETATM   31  C2  UNL     1       2.963   9.540  23.360  1.00  0.00    -0.088 C 
HETATM   32  C1  UNL     1       2.627  10.013  24.572  1.00  0.00     0.014 C 
HETATM   33  C3  UNL     1       2.364   8.248  22.864  1.00  0.00     0.043 C 
ENDBRANCH   1  31
BRANCH  19  34
HETATM   34  C24 UNL     1      -3.020  15.526  16.759  1.00  0.00     0.181 C 
BRANCH  34  35
HETATM   35  O4  UNL     1      -3.338  16.318  15.623  1.00  0.00    -0.400 OA
HETATM   36  H37 UNL     1      -2.512  16.580  15.181  1.00  0.00     0.209 HD
ENDBRANCH  34  35
ENDBRANCH  19  34
TORSDOF 5
ENDMDL
MODEL 3
REMARK minimizedAffinity -7.49179268
REMARK CNNscore 0.394801438
REMARK CNNaffinity 6.38205671
REMARK  5 active torsions:
REMARK  status: ('A' for Active; 'I' for Inactive)
REMARK    1  A    between atoms: C2_2  and  C4_4 
REMARK    2  A    between atoms: C7_7  and  C8_8 
REMARK    3  A    between atoms: C8_8  and  O2_10 
REMARK    4  A    between atoms: C22_25  and  C24_27 
REMARK    5  A    between atoms: C24_27  and  O4_28 
ROOT
HETATM    1  C4  UNL     1       0.225   6.905  11.388  1.00  0.00     0.019 C 
HETATM    2  C5  UNL     1       0.091   5.463  10.826  1.00  0.00     0.011 C 
HETATM    3  C6  UNL     1      -1.211   4.877  11.397  1.00  0.00     0.021 C 
HETATM    4  C7  UNL     1      -1.453   5.684  12.676  1.00  0.00     0.050 C 
HETATM    5  C9  UNL     1      -2.907   5.700  13.171  1.00  0.00     0.022 C 
HETATM    6  C10 UNL     1      -3.083   6.729  14.310  1.00  0.00     0.011 C 
HETATM    7  C11 UNL     1      -2.623   8.188  13.957  1.00  0.00    -0.032 C 
HETATM    8  C12 UNL     1      -3.656   8.705  12.899  1.00  0.00     0.016 C 
HETATM    9  C13 UNL     1      -1.170   8.135  13.329  1.00  0.00     0.000 C 
HETATM   10  C14 UNL     1      -0.663   9.533  12.954  1.00  0.00     0.006 C 
HETATM   11  C15 UNL     1      -0.682  10.497  14.144  1.00  0.00     0.006 C 
HETATM   12  C16 UNL     1      -2.069  10.592  14.815  1.00  0.00     0.003 C 
HETATM   13  C17 UNL     1      -2.209  11.786  15.855  1.00  0.00    -0.035 C 
HETATM   14  C18 UNL     1      -1.138  11.737  16.970  1.00  0.00     0.016 C 
HETATM   15  C19 UNL     1      -1.983  13.136  15.078  1.00  0.00     0.017 C 
HETATM   16  C20 UNL     1      -2.791  14.330  15.576  1.00  0.00     0.080 C 
HETATM   17  C21 UNL     1      -3.141  14.186  17.034  1.00  0.00     0.137 C 
HETATM   18  O3  UNL     1      -2.745  15.009  17.860  1.00  0.00    -0.297 OA
HETATM   19  C22 UNL     1      -4.008  12.977  17.410  1.00  0.00     0.042 C 
HETATM   20  C23 UNL     1      -3.772  12.631  18.893  1.00  0.00     0.026 C 
HETATM   21  C25 UNL     1      -3.674  11.792  16.423  1.00  0.00     0.012 C 
HETATM   22  C26 UNL     1      -4.095  10.413  16.963  1.00  0.00     0.007 C 
HETATM   23  C27 UNL     1      -4.004   9.331  15.884  1.00  0.00     0.011 C 
HETATM   24  C28 UNL     1      -2.591   9.166  15.262  1.00  0.00    -0.032 C 
HETATM   25  C29 UNL     1      -1.682   8.546  16.365  1.00  0.00     0.016 C 
HETATM   26  C30 UNL     1      -1.090   7.104  12.181  1.00  0.00     0.017 C 
ENDROOT
BRANCH   4  27
HETATM   27  C8  UNL     1      -0.599   5.028  13.772  1.00  0.00     0.149 C 
HETATM   28  O1  UNL     1       0.337   4.264  13.578  1.00  0.00    -0.649 OA
BRANCH  27  29
HETATM   29  O2  UNL     1      -0.906   5.365  15.033  1.00  0.00    -0.776 OA
HETATM   30  H11 UNL     1      -0.254   4.871  15.574  1.00  0.00     0.167 HD
ENDBRANCH  27  29
ENDBRANCH   4  27
BRANCH   1  31
HETATM   31  C2  UNL     1       0.582   7.879  10.273  1.00  0.00    -0.088 C 
HETATM   32  C1  UNL     1      -0.299   8.531   9.496  1.00  0.00     0.014 C 
HETATM   33  C3  UNL     1       2.062   8.085  10.068  1.00  0.00     0.043 C 
ENDBRANCH   1  31
BRANCH  19  34
HETATM   34  C24 UNL     1      -5.491  13.385  17.203  1.00  0.00     0.181 C 
BRANCH  34  35
HETATM   35  O4  UNL     1      -6.001  13.048  15.920  1.00  0.00    -0.400 OA
HETATM   36  H37 UNL     1      -5.525  13.564  15.247  1.00  0.00     0.209 HD
ENDBRANCH  34  35
ENDBRANCH  19  34
TORSDOF 5
ENDMDL
MODEL 4
REMARK minimizedAffinity -6.53515673
REMARK CNNscore 0.35101974
REMARK CNNaffinity 5.92752647
REMARK  5 active torsions:
REMARK  status: ('A' for Active; 'I' for Inactive)
REMARK    1  A    between atoms: C2_2  and  C4_4 
REMARK    2  A    between atoms: C7_7  and  C8_8 
REMARK    3  A    between atoms: C8_8  and  O2_10 
REMARK    4  A    between atoms: C22_25  and  C24_27 
REMARK    5  A    between atoms: C24_27  and  O4_28 
ROOT
HETATM    1  C4  UNL     1      -3.138   8.287  14.043  1.00  0.00     0.019 C 
HETATM    2  C5  UNL     1      -2.133   7.192  13.591  1.00  0.00     0.011 C 
HETATM    3  C6  UNL     1      -0.905   7.301  14.512  1.00  0.00     0.021 C 
HETATM    4  C7  UNL     1      -0.946   8.747  15.015  1.00  0.00     0.050 C 
HETATM    5  C9  UNL     1      -0.187   9.002  16.326  1.00  0.00     0.022 C 
HETATM    6  C10 UNL     1      -0.492  10.416  16.867  1.00  0.00     0.011 C 
HETATM    7  C11 UNL     1      -2.018  10.731  17.064  1.00  0.00    -0.032 C 
HETATM    8  C12 UNL     1      -2.477   9.827  18.258  1.00  0.00     0.016 C 
HETATM    9  C13 UNL     1      -2.802  10.340  15.744  1.00  0.00     0.000 C 
HETATM   10  C14 UNL     1      -4.304  10.617  15.875  1.00  0.00     0.006 C 
HETATM   11  C15 UNL     1      -4.598  12.074  16.243  1.00  0.00     0.006 C 
HETATM   12  C16 UNL     1      -3.856  12.529  17.519  1.00  0.00     0.003 C 
HETATM   13  C17 UNL     1      -4.353  13.924  18.099  1.00  0.00    -0.035 C 
HETATM   14  C18 UNL     1      -4.270  15.067  17.061  1.00  0.00     0.016 C 
HETATM   15  C19 UNL     1      -5.873  13.777  18.480  1.00  0.00     0.017 C 
HETATM   16  C20 UNL     1      -6.334  14.585  19.690  1.00  0.00     0.080 C 
HETATM   17  C21 UNL     1      -5.476  15.806  19.892  1.00  0.00     0.137 C 
HETATM   18  O3  UNL     1      -5.966  16.934  19.839  1.00  0.00    -0.297 OA
HETATM   19  C22 UNL     1      -3.988  15.554  20.167  1.00  0.00     0.042 C 
HETATM   20  C23 UNL     1      -3.181  16.800  19.753  1.00  0.00     0.026 C 
HETATM   21  C25 UNL     1      -3.551  14.239  19.413  1.00  0.00     0.012 C 
HETATM   22  C26 UNL     1      -2.029  14.132  19.206  1.00  0.00     0.007 C 
HETATM   23  C27 UNL     1      -1.621  12.739  18.718  1.00  0.00     0.011 C 
HETATM   24  C28 UNL     1      -2.295  12.305  17.388  1.00  0.00    -0.032 C 
HETATM   25  C29 UNL     1      -1.684  13.191  16.262  1.00  0.00     0.016 C 
HETATM   26  C30 UNL     1      -2.460   8.904  15.290  1.00  0.00     0.017 C 
ENDROOT
BRANCH   4  27
HETATM   27  C8  UNL     1      -0.287   9.606  13.925  1.00  0.00     0.149 C 
HETATM   28  O1  UNL     1       0.849   9.454  13.495  1.00  0.00    -0.649 OA
BRANCH  27  29
HETATM   29  O2  UNL     1      -1.052  10.572  13.398  1.00  0.00    -0.776 OA
HETATM   30  H11 UNL     1      -0.474  10.988  12.724  1.00  0.00     0.167 HD
ENDBRANCH  27  29
ENDBRANCH   4  27
BRANCH   1  31
HETATM   31  C2  UNL     1      -4.540   7.704  14.163  1.00  0.00    -0.088 C 
HETATM   32  C1  UNL     1      -5.584   8.017  13.378  1.00  0.00     0.014 C 
HETATM   33  C3  UNL     1      -4.711   6.701  15.277  1.00  0.00     0.043 C 
ENDBRANCH   1  31
BRANCH  19  34
HETATM   34  C24 UNL     1      -3.829  15.319  21.693  1.00  0.00     0.181 C 
BRANCH  34  35
HETATM   35  O4  UNL     1      -2.637  15.869  22.235  1.00  0.00    -0.400 OA
HETATM   36  H37 UNL     1      -1.873  15.405  21.851  1.00  0.00     0.209 HD
ENDBRANCH  34  35
ENDBRANCH  19  34
TORSDOF 5
ENDMDL
MODEL 5
REMARK minimizedAffinity -6.16529942
REMARK CNNscore 0.303413957
REMARK CNNaffinity 6.28961372
REMARK  5 active torsions:
REMARK  status: ('A' for Active; 'I' for Inactive)
REMARK    1  A    between atoms: C2_2  and  C4_4 
REMARK    2  A    between atoms: C7_7  and  C8_8 
REMARK    3  A    between atoms: C8_8  and  O2_10 
REMARK    4  A    between atoms: C22_25  and  C24_27 
REMARK    5  A    between atoms: C24_27  and  O4_28 
ROOT
HETATM    1  C4  UNL     1     -13.639   3.075  27.671  1.00  0.00     0.019 C 
HETATM    2  C5  UNL     1     -12.601   1.927  27.809  1.00  0.00     0.011 C 
HETATM    3  C6  UNL     1     -11.998   1.697  26.413  1.00  0.00     0.021 C 
HETATM    4  C7  UNL     1     -13.067   2.227  25.454  1.00  0.00     0.050 C 
HETATM    5  C9  UNL     1     -12.555   2.617  24.058  1.00  0.00     0.022 C 
HETATM    6  C10 UNL     1     -13.652   3.359  23.263  1.00  0.00     0.011 C 
HETATM    7  C11 UNL     1     -14.248   4.620  23.984  1.00  0.00    -0.032 C 
HETATM    8  C12 UNL     1     -13.093   5.678  23.996  1.00  0.00     0.016 C 
HETATM    9  C13 UNL     1     -14.652   4.228  25.464  1.00  0.00     0.000 C 
HETATM   10  C14 UNL     1     -15.237   5.422  26.228  1.00  0.00     0.006 C 
HETATM   11  C15 UNL     1     -16.438   6.041  25.507  1.00  0.00     0.006 C 
HETATM   12  C16 UNL     1     -16.120   6.441  24.050  1.00  0.00     0.003 C 
HETATM   13  C17 UNL     1     -17.234   7.345  23.364  1.00  0.00    -0.035 C 
HETATM   14  C18 UNL     1     -18.635   6.690  23.389  1.00  0.00     0.016 C 
HETATM   15  C19 UNL     1     -17.351   8.680  24.190  1.00  0.00     0.017 C 
HETATM   16  C20 UNL     1     -17.686   9.931  23.383  1.00  0.00     0.080 C 
HETATM   17  C21 UNL     1     -18.444   9.587  22.129  1.00  0.00     0.137 C 
HETATM   18  O3  UNL     1     -19.581  10.020  21.942  1.00  0.00    -0.297 OA
HETATM   19  C22 UNL     1     -17.720   8.685  21.120  1.00  0.00     0.042 C 
HETATM   20  C23 UNL     1     -18.765   7.955  20.255  1.00  0.00     0.026 C 
HETATM   21  C25 UNL     1     -16.762   7.712  21.911  1.00  0.00     0.012 C 
HETATM   22  C26 UNL     1     -16.351   6.469  21.101  1.00  0.00     0.007 C 
HETATM   23  C27 UNL     1     -15.226   5.692  21.788  1.00  0.00     0.011 C 
HETATM   24  C28 UNL     1     -15.566   5.210  23.224  1.00  0.00    -0.032 C 
HETATM   25  C29 UNL     1     -16.638   4.089  23.081  1.00  0.00     0.016 C 
HETATM   26  C30 UNL     1     -13.491   3.517  26.195  1.00  0.00     0.017 C 
ENDROOT
BRANCH   4  27
HETATM   27  C8  UNL     1     -14.088   1.094  25.271  1.00  0.00     0.149 C 
HETATM   28  O1  UNL     1     -15.249   1.119  25.658  1.00  0.00    -0.649 OA
BRANCH  27  29
HETATM   29  O2  UNL     1     -13.656   0.017  24.600  1.00  0.00    -0.776 OA
HETATM   30  H11 UNL     1     -14.439  -0.572  24.572  1.00  0.00     0.167 HD
ENDBRANCH  27  29
ENDBRANCH   4  27
BRANCH   1  31
HETATM   31  C2  UNL     1     -13.450   4.098  28.783  1.00  0.00    -0.088 C 
HETATM   32  C1  UNL     1     -14.372   4.988  29.188  1.00  0.00     0.014 C 
HETATM   33  C3  UNL     1     -12.094   4.067  29.443  1.00  0.00     0.043 C 
ENDBRANCH   1  31
BRANCH  19  34
HETATM   34  C24 UNL     1     -16.850   9.601  20.217  1.00  0.00     0.181 C 
BRANCH  34  35
HETATM   35  O4  UNL     1     -16.815   9.195  18.857  1.00  0.00    -0.400 OA
HETATM   36  H37 UNL     1     -16.374   8.329  18.798  1.00  0.00     0.209 HD
ENDBRANCH  34  35
ENDBRANCH  19  34
TORSDOF 5
ENDMDL
MODEL 6
REMARK minimizedAffinity -8.44575691
REMARK CNNscore 0.301498741
REMARK CNNaffinity 6.56813288
REMARK  5 active torsions:
REMARK  status: ('A' for Active; 'I' for Inactive)
REMARK    1  A    between atoms: C2_2  and  C4_4 
REMARK    2  A    between atoms: C7_7  and  C8_8 
REMARK    3  A    between atoms: C8_8  and  O2_10 
REMARK    4  A    between atoms: C22_25  and  C24_27 
REMARK    5  A    between atoms: C24_27  and  O4_28 
ROOT
HETATM    1  C4  UNL     1      -5.958   4.080  11.864  1.00  0.00     0.019 C 
HETATM    2  C5  UNL     1      -6.030   2.632  11.305  1.00  0.00     0.011 C 
HETATM    3  C6  UNL     1      -4.663   1.978  11.571  1.00  0.00     0.021 C 
HETATM    4  C7  UNL     1      -3.701   3.163  11.688  1.00  0.00     0.050 C 
HETATM    5  C9  UNL     1      -2.403   2.876  12.458  1.00  0.00     0.022 C 
HETATM    6  C10 UNL     1      -1.627   4.184  12.727  1.00  0.00     0.011 C 
HETATM    7  C11 UNL     1      -2.449   5.299  13.466  1.00  0.00    -0.032 C 
HETATM    8  C12 UNL     1      -2.672   4.757  14.919  1.00  0.00     0.016 C 
HETATM    9  C13 UNL     1      -3.839   5.490  12.730  1.00  0.00     0.000 C 
HETATM   10  C14 UNL     1      -4.697   6.564  13.409  1.00  0.00     0.006 C 
HETATM   11  C15 UNL     1      -3.972   7.909  13.511  1.00  0.00     0.006 C 
HETATM   12  C16 UNL     1      -2.600   7.797  14.211  1.00  0.00     0.003 C 
HETATM   13  C17 UNL     1      -1.951   9.196  14.598  1.00  0.00    -0.035 C 
HETATM   14  C18 UNL     1      -1.796  10.141  13.384  1.00  0.00     0.016 C 
HETATM   15  C19 UNL     1      -2.921   9.919  15.605  1.00  0.00     0.017 C 
HETATM   16  C20 UNL     1      -2.248  10.783  16.667  1.00  0.00     0.080 C 
HETATM   17  C21 UNL     1      -0.911  11.289  16.197  1.00  0.00     0.137 C 
HETATM   18  O3  UNL     1      -0.697  12.497  16.089  1.00  0.00    -0.297 OA
HETATM   19  C22 UNL     1       0.145  10.223  15.873  1.00  0.00     0.042 C 
HETATM   20  C23 UNL     1       1.164  10.810  14.877  1.00  0.00     0.026 C 
HETATM   21  C25 UNL     1      -0.590   8.933  15.339  1.00  0.00     0.012 C 
HETATM   22  C26 UNL     1       0.333   7.991  14.544  1.00  0.00     0.007 C 
HETATM   23  C27 UNL     1      -0.334   6.640  14.274  1.00  0.00     0.011 C 
HETATM   24  C28 UNL     1      -1.674   6.734  13.494  1.00  0.00    -0.032 C 
HETATM   25  C29 UNL     1      -1.320   7.171  12.041  1.00  0.00     0.016 C 
HETATM   26  C30 UNL     1      -4.560   4.138  12.528  1.00  0.00     0.017 C 
ENDROOT
BRANCH   4  27
HETATM   27  C8  UNL     1      -3.310   3.550  10.254  1.00  0.00     0.149 C 
HETATM   28  O1  UNL     1      -2.174   3.800   9.873  1.00  0.00    -0.649 OA
BRANCH  27  29
HETATM   29  O2  UNL     1      -4.309   3.576   9.360  1.00  0.00    -0.776 OA
HETATM   30  H11 UNL     1      -3.867   3.820   8.520  1.00  0.00     0.167 HD
ENDBRANCH  27  29
ENDBRANCH   4  27
BRANCH   1  31
HETATM   31  C2  UNL     1      -7.195   4.391  12.696  1.00  0.00    -0.088 C 
HETATM   32  C1  UNL     1      -8.069   5.382  12.452  1.00  0.00     0.014 C 
HETATM   33  C3  UNL     1      -7.402   3.480  13.880  1.00  0.00     0.043 C 
ENDBRANCH   1  31
BRANCH  19  34
HETATM   34  C24 UNL     1       0.866   9.863  17.199  1.00  0.00     0.181 C 
BRANCH  34  35
HETATM   35  O4  UNL     1       2.266   9.676  17.055  1.00  0.00    -0.400 OA
HETATM   36  H37 UNL     1       2.423   8.899  16.491  1.00  0.00     0.209 HD
ENDBRANCH  34  35
ENDBRANCH  19  34
TORSDOF 5
ENDMDL
MODEL 7
REMARK minimizedAffinity -6.01410532
REMARK CNNscore 0.296402961
REMARK CNNaffinity 5.95620489
REMARK  5 active torsions:
REMARK  status: ('A' for Active; 'I' for Inactive)
REMARK    1  A    between atoms: C2_2  and  C4_4 
REMARK    2  A    between atoms: C7_7  and  C8_8 
REMARK    3  A    between atoms: C8_8  and  O2_10 
REMARK    4  A    between atoms: C22_25  and  C24_27 
REMARK    5  A    between atoms: C24_27  and  O4_28 
ROOT
HETATM    1  C4  UNL     1     -14.665   3.229  28.366  1.00  0.00     0.019 C 
HETATM    2  C5  UNL     1     -14.942   1.735  28.687  1.00  0.00     0.011 C 
HETATM    3  C6  UNL     1     -14.929   0.977  27.349  1.00  0.00     0.021 C 
HETATM    4  C7  UNL     1     -15.256   2.052  26.309  1.00  0.00     0.050 C 
HETATM    5  C9  UNL     1     -14.805   1.733  24.876  1.00  0.00     0.022 C 
HETATM    6  C10 UNL     1     -14.961   2.971  23.966  1.00  0.00     0.011 C 
HETATM    7  C11 UNL     1     -14.230   4.263  24.480  1.00  0.00    -0.032 C 
HETATM    8  C12 UNL     1     -12.700   3.957  24.342  1.00  0.00     0.016 C 
HETATM    9  C13 UNL     1     -14.610   4.503  25.999  1.00  0.00     0.000 C 
HETATM   10  C14 UNL     1     -13.921   5.749  26.566  1.00  0.00     0.006 C 
HETATM   11  C15 UNL     1     -14.228   7.007  25.747  1.00  0.00     0.006 C 
HETATM   12  C16 UNL     1     -13.892   6.842  24.249  1.00  0.00     0.003 C 
HETATM   13  C17 UNL     1     -13.917   8.200  23.423  1.00  0.00    -0.035 C 
HETATM   14  C18 UNL     1     -15.269   8.943  23.533  1.00  0.00     0.016 C 
HETATM   15  C19 UNL     1     -12.830   9.160  24.034  1.00  0.00     0.017 C 
HETATM   16  C20 UNL     1     -12.130  10.085  23.042  1.00  0.00     0.080 C 
HETATM   17  C21 UNL     1     -13.001  10.368  21.848  1.00  0.00     0.137 C 
HETATM   18  O3  UNL     1     -13.356  11.517  21.586  1.00  0.00    -0.297 OA
HETATM   19  C22 UNL     1     -13.403   9.157  20.995  1.00  0.00     0.042 C 
HETATM   20  C23 UNL     1     -14.708   9.482  20.242  1.00  0.00     0.026 C 
HETATM   21  C25 UNL     1     -13.514   7.894  21.935  1.00  0.00     0.012 C 
HETATM   22  C26 UNL     1     -14.351   6.754  21.328  1.00  0.00     0.007 C 
HETATM   23  C27 UNL     1     -14.218   5.461  22.137  1.00  0.00     0.011 C 
HETATM   24  C28 UNL     1     -14.636   5.592  23.626  1.00  0.00    -0.032 C 
HETATM   25  C29 UNL     1     -16.182   5.780  23.645  1.00  0.00     0.016 C 
HETATM   26  C30 UNL     1     -14.398   3.224  26.841  1.00  0.00     0.017 C 
ENDROOT
BRANCH   4  27
HETATM   27  C8  UNL     1     -16.786   2.189  26.291  1.00  0.00     0.149 C 
HETATM   28  O1  UNL     1     -17.430   3.023  26.915  1.00  0.00    -0.649 OA
BRANCH  27  29
HETATM   29  O2  UNL     1     -17.442   1.334  25.493  1.00  0.00    -0.776 OA
HETATM   30  H11 UNL     1     -18.383   1.585  25.602  1.00  0.00     0.167 HD
ENDBRANCH  27  29
ENDBRANCH   4  27
BRANCH   1  31
HETATM   31  C2  UNL     1     -13.609   3.789  29.310  1.00  0.00    -0.088 C 
HETATM   32  C1  UNL     1     -13.832   4.687  30.284  1.00  0.00     0.014 C 
HETATM   33  C3  UNL     1     -12.216   3.258  29.081  1.00  0.00     0.043 C 
ENDBRANCH   1  31
BRANCH  19  34
HETATM   34  C24 UNL     1     -12.263   8.908  19.972  1.00  0.00     0.181 C 
BRANCH  34  35
HETATM   35  O4  UNL     1     -12.703   8.885  18.622  1.00  0.00    -0.400 OA
HETATM   36  H37 UNL     1     -13.294   8.122  18.496  1.00  0.00     0.209 HD
ENDBRANCH  34  35
ENDBRANCH  19  34
TORSDOF 5
ENDMDL
MODEL 8
REMARK minimizedAffinity -6.60457182
REMARK CNNscore 0.265451491
REMARK CNNaffinity 5.93502855
REMARK  5 active torsions:
REMARK  status: ('A' for Active; 'I' for Inactive)
REMARK    1  A    between atoms: C2_2  and  C4_4 
REMARK    2  A    between atoms: C7_7  and  C8_8 
REMARK    3  A    between atoms: C8_8  and  O2_10 
REMARK    4  A    between atoms: C22_25  and  C24_27 
REMARK    5  A    between atoms: C24_27  and  O4_28 
ROOT
HETATM    1  C4  UNL     1     -18.310  -2.566  15.543  1.00  0.00     0.019 C 
HETATM    2  C5  UNL     1     -18.259  -1.413  16.583  1.00  0.00     0.011 C 
HETATM    3  C6  UNL     1     -17.390  -0.298  15.976  1.00  0.00     0.021 C 
HETATM    4  C7  UNL     1     -16.504  -1.028  14.962  1.00  0.00     0.050 C 
HETATM    5  C9  UNL     1     -15.922  -0.143  13.849  1.00  0.00     0.022 C 
HETATM    6  C10 UNL     1     -15.256  -1.008  12.757  1.00  0.00     0.011 C 
HETATM    7  C11 UNL     1     -16.183  -2.110  12.132  1.00  0.00    -0.032 C 
HETATM    8  C12 UNL     1     -17.260  -1.328  11.306  1.00  0.00     0.016 C 
HETATM    9  C13 UNL     1     -16.873  -2.929  13.300  1.00  0.00     0.000 C 
HETATM   10  C14 UNL     1     -17.801  -4.021  12.755  1.00  0.00     0.006 C 
HETATM   11  C15 UNL     1     -17.078  -4.979  11.804  1.00  0.00     0.006 C 
HETATM   12  C16 UNL     1     -16.371  -4.247  10.642  1.00  0.00     0.003 C 
HETATM   13  C17 UNL     1     -15.862  -5.207   9.481  1.00  0.00    -0.035 C 
HETATM   14  C18 UNL     1     -14.918  -6.319   9.995  1.00  0.00     0.016 C 
HETATM   15  C19 UNL     1     -17.116  -5.935   8.869  1.00  0.00     0.017 C 
HETATM   16  C20 UNL     1     -17.045  -6.233   7.374  1.00  0.00     0.080 C 
HETATM   17  C21 UNL     1     -15.619  -6.366   6.909  1.00  0.00     0.137 C 
HETATM   18  O3  UNL     1     -15.213  -7.421   6.421  1.00  0.00    -0.297 OA
HETATM   19  C22 UNL     1     -14.729  -5.128   7.077  1.00  0.00     0.042 C 
HETATM   20  C23 UNL     1     -13.255  -5.572   7.146  1.00  0.00     0.026 C 
HETATM   21  C25 UNL     1     -15.209  -4.331   8.352  1.00  0.00     0.012 C 
HETATM   22  C26 UNL     1     -14.144  -3.367   8.905  1.00  0.00     0.007 C 
HETATM   23  C27 UNL     1     -14.727  -2.427   9.964  1.00  0.00     0.011 C 
HETATM   24  C28 UNL     1     -15.364  -3.151  11.180  1.00  0.00    -0.032 C 
HETATM   25  C29 UNL     1     -14.196  -3.795  11.984  1.00  0.00     0.016 C 
HETATM   26  C30 UNL     1     -17.538  -1.989  14.331  1.00  0.00     0.017 C 
ENDROOT
BRANCH   4  27
HETATM   27  C8  UNL     1     -15.323  -1.608  15.755  1.00  0.00     0.149 C 
HETATM   28  O1  UNL     1     -15.283  -2.729  16.246  1.00  0.00    -0.649 OA
BRANCH  27  29
HETATM   29  O2  UNL     1     -14.249  -0.814  15.873  1.00  0.00    -0.776 OA
HETATM   30  H11 UNL     1     -13.611  -1.356  16.383  1.00  0.00     0.167 HD
ENDBRANCH  27  29
ENDBRANCH   4  27
BRANCH   1  31
HETATM   31  C2  UNL     1     -19.741  -3.051  15.357  1.00  0.00    -0.088 C 
HETATM   32  C1  UNL     1     -20.146  -3.954  14.448  1.00  0.00     0.014 C 
HETATM   33  C3  UNL     1     -20.744  -2.428  16.296  1.00  0.00     0.043 C 
ENDBRANCH   1  31
BRANCH  19  34
HETATM   34  C24 UNL     1     -14.941  -4.229   5.830  1.00  0.00     0.181 C 
BRANCH  34  35
HETATM   35  O4  UNL     1     -13.871  -4.286   4.897  1.00  0.00    -0.400 OA
HETATM   36  H37 UNL     1     -13.072  -3.918   5.312  1.00  0.00     0.209 HD
ENDBRANCH  34  35
ENDBRANCH  19  34
TORSDOF 5
ENDMDL
MODEL 9
REMARK minimizedAffinity -8.20040894
REMARK CNNscore 0.260131538
REMARK CNNaffinity 6.54781103
REMARK  5 active torsions:
REMARK  status: ('A' for Active; 'I' for Inactive)
REMARK    1  A    between atoms: C2_2  and  C4_4 
REMARK    2  A    between atoms: C7_7  and  C8_8 
REMARK    3  A    between atoms: C8_8  and  O2_10 
REMARK    4  A    between atoms: C22_25  and  C24_27 
REMARK    5  A    between atoms: C24_27  and  O4_28 
ROOT
HETATM    1  C4  UNL     1      -5.687   4.961  12.651  1.00  0.00     0.019 C 
HETATM    2  C5  UNL     1      -4.170   4.843  12.963  1.00  0.00     0.011 C 
HETATM    3  C6  UNL     1      -3.932   5.543  14.313  1.00  0.00     0.021 C 
HETATM    4  C7  UNL     1      -5.100   6.526  14.432  1.00  0.00     0.050 C 
HETATM    5  C9  UNL     1      -5.431   6.975  15.863  1.00  0.00     0.022 C 
HETATM    6  C10 UNL     1      -6.760   7.761  15.895  1.00  0.00     0.011 C 
HETATM    7  C11 UNL     1      -7.989   7.003  15.276  1.00  0.00    -0.032 C 
HETATM    8  C12 UNL     1      -8.292   5.826  16.264  1.00  0.00     0.016 C 
HETATM    9  C13 UNL     1      -7.585   6.438  13.852  1.00  0.00     0.000 C 
HETATM   10  C14 UNL     1      -8.743   5.678  13.195  1.00  0.00     0.006 C 
HETATM   11  C15 UNL     1     -10.007   6.534  13.076  1.00  0.00     0.006 C 
HETATM   12  C16 UNL     1     -10.456   7.129  14.429  1.00  0.00     0.003 C 
HETATM   13  C17 UNL     1     -11.909   7.773  14.407  1.00  0.00    -0.035 C 
HETATM   14  C18 UNL     1     -12.063   8.868  13.325  1.00  0.00     0.016 C 
HETATM   15  C19 UNL     1     -12.937   6.638  14.041  1.00  0.00     0.017 C 
HETATM   16  C20 UNL     1     -14.311   6.754  14.695  1.00  0.00     0.080 C 
HETATM   17  C21 UNL     1     -14.641   8.185  15.028  1.00  0.00     0.137 C 
HETATM   18  O3  UNL     1     -15.617   8.740  14.522  1.00  0.00    -0.297 OA
HETATM   19  C22 UNL     1     -13.705   8.886  16.022  1.00  0.00     0.042 C 
HETATM   20  C23 UNL     1     -13.782  10.408  15.797  1.00  0.00     0.026 C 
HETATM   21  C25 UNL     1     -12.253   8.293  15.849  1.00  0.00     0.012 C 
HETATM   22  C26 UNL     1     -11.151   9.207  16.416  1.00  0.00     0.007 C 
HETATM   23  C27 UNL     1      -9.798   8.493  16.474  1.00  0.00     0.011 C 
HETATM   24  C28 UNL     1      -9.294   7.966  15.103  1.00  0.00    -0.032 C 
HETATM   25  C29 UNL     1      -8.920   9.214  14.250  1.00  0.00     0.016 C 
HETATM   26  C30 UNL     1      -6.262   5.643  13.917  1.00  0.00     0.017 C 
ENDROOT
BRANCH   4  27
HETATM   27  C8  UNL     1      -4.698   7.778  13.638  1.00  0.00     0.149 C 
HETATM   28  O1  UNL     1      -3.784   7.837  12.826  1.00  0.00    -0.649 OA
BRANCH  27  29
HETATM   29  O2  UNL     1      -5.447   8.870  13.846  1.00  0.00    -0.776 OA
HETATM   30  H11 UNL     1      -5.054   9.542  13.249  1.00  0.00     0.167 HD
ENDBRANCH  27  29
ENDBRANCH   4  27
BRANCH   1  31
HETATM   31  C2  UNL     1      -6.245   3.615  12.207  1.00  0.00    -0.088 C 
HETATM   32  C1  UNL     1      -7.155   2.889  12.877  1.00  0.00     0.014 C 
HETATM   33  C3  UNL     1      -5.688   3.104  10.902  1.00  0.00     0.043 C 
ENDBRANCH   1  31
BRANCH  19  34
HETATM   34  C24 UNL     1     -14.205   8.548  17.451  1.00  0.00     0.181 C 
BRANCH  34  35
HETATM   35  O4  UNL     1     -14.539   7.179  17.630  1.00  0.00    -0.400 OA
HETATM   36  H37 UNL     1     -15.301   6.964  17.064  1.00  0.00     0.209 HD
ENDBRANCH  34  35
ENDBRANCH  19  34
TORSDOF 5
ENDMDL
