MODEL 1
REMARK minimizedAffinity -6.83511877
REMARK CNNscore 0.877744079
REMARK CNNaffinity 7.19364929
REMARK  9 active torsions:
REMARK  status: ('A' for Active; 'I' for Inactive)
REMARK    1  A    between atoms: C2_2  and  C3_3 
REMARK    2  A    between atoms: C2_2  and  C9_12 
REMARK    3  A    between atoms: C3_3  and  C4_4 
REMARK    4  A    between atoms: C4_4  and  C5_5 
REMARK    5  A    between atoms: C5_5  and  O1_6 
REMARK    6  A    between atoms: C5_5  and  C6_7 
REMARK    7  A    between atoms: C6_7  and  O2_9 
REMARK    8  A    between atoms: C6_7  and  C8_10 
REMARK    9  A    between atoms: C8_10  and  O3_11 
ROOT
HETATM    1  C9  UNL     1      -1.698  52.552 -10.301  1.00  0.00    -0.002 C 
HETATM    2  C10 UNL     1      -1.087  51.127 -10.401  1.00  0.00     0.007 C 
HETATM    3  C11 UNL     1       0.399  51.244 -10.007  1.00  0.00     0.015 C 
HETATM    4  C12 UNL     1       0.522  52.614  -9.309  1.00  0.00    -0.005 C 
HETATM    5  C13 UNL     1       0.050  52.415  -7.834  1.00  0.00     0.021 C 
HETATM    6  C14 UNL     1       1.870  53.309  -9.177  1.00  0.00    -0.000 C 
HETATM    7  C15 UNL     1       1.957  54.666  -9.127  1.00  0.00    -0.060 C 
HETATM    8  C16 UNL     1       0.704  55.537  -9.274  1.00  0.00     0.036 C 
HETATM    9  C17 UNL     1      -0.640  54.829  -9.538  1.00  0.00     0.015 C 
HETATM   10  C18 UNL     1      -0.445  53.473 -10.223  1.00  0.00    -0.028 C 
HETATM   11  C19 UNL     1       0.129  53.725 -11.647  1.00  0.00     0.016 C 
HETATM   12  C20 UNL     1       3.309  55.414  -8.975  1.00  0.00    -0.014 C 
HETATM   13  C21 UNL     1       3.787  55.709 -10.415  1.00  0.00     0.020 C 
HETATM   14  C22 UNL     1       3.147  56.750  -8.204  1.00  0.00     0.021 C 
HETATM   15  C23 UNL     1       4.466  57.441  -7.901  1.00  0.00     0.080 C 
HETATM   16  C24 UNL     1       5.359  56.536  -7.094  1.00  0.00     0.135 C 
HETATM   17  O4  UNL     1       5.906  56.963  -6.076  1.00  0.00    -0.297 OA
HETATM   18  C25 UNL     1       5.620  55.125  -7.641  1.00  0.00     0.018 C 
HETATM   19  C26 UNL     1       6.180  54.267  -6.477  1.00  0.00     0.023 C 
HETATM   20  C27 UNL     1       6.726  55.219  -8.702  1.00  0.00     0.023 C 
HETATM   21  C28 UNL     1       4.269  54.499  -8.138  1.00  0.00     0.020 C 
HETATM   22  C29 UNL     1       4.438  53.145  -8.835  1.00  0.00     0.090 C 
HETATM   23  C30 UNL     1       3.106  52.467  -9.051  1.00  0.00     0.157 C 
HETATM   24  O5  UNL     1       3.057  51.243  -9.144  1.00  0.00    -0.293 OA
ENDROOT
BRANCH   1  25
HETATM   25  C2  UNL     1      -2.884  52.798 -11.283  1.00  0.00    -0.014 C 
HETATM   26  C1  UNL     1      -4.189  53.306 -10.665  1.00  0.00     0.010 C 
BRANCH  25  27
HETATM   27  C3  UNL     1      -3.130  51.570 -12.191  1.00  0.00     0.007 C 
BRANCH  27  28
HETATM   28  C4  UNL     1      -2.710  51.760 -13.661  1.00  0.00     0.035 C 
BRANCH  28  29
HETATM   29  C5  UNL     1      -1.689  50.729 -14.165  1.00  0.00     0.154 C 
BRANCH  29  30
HETATM   30  O1  UNL     1      -0.525  51.425 -14.640  1.00  0.00    -0.392 OA
HETATM   31  H10 UNL     1       0.010  50.728 -15.079  1.00  0.00     0.210 HD
ENDBRANCH  29  30
BRANCH  29  32
HETATM   32  C6  UNL     1      -2.206  49.799 -15.295  1.00  0.00     0.101 C 
HETATM   33  C7  UNL     1      -2.567  48.393 -14.796  1.00  0.00     0.051 C 
BRANCH  32  34
HETATM   34  O2  UNL     1      -3.439  50.389 -15.775  1.00  0.00    -0.385 OA
HETATM   35  H14 UNL     1      -3.545  50.058 -16.691  1.00  0.00     0.210 HD
ENDBRANCH  32  34
BRANCH  32  36
HETATM   36  C8  UNL     1      -1.220  49.741 -16.478  1.00  0.00     0.204 C 
BRANCH  36  37
HETATM   37  O3  UNL     1      -0.561  48.469 -16.498  1.00  0.00    -0.398 OA
HETATM   38  H17 UNL     1       0.185  48.516 -15.875  1.00  0.00     0.209 HD
ENDBRANCH  36  37
ENDBRANCH  32  36
ENDBRANCH  29  32
ENDBRANCH  28  29
ENDBRANCH  27  28
ENDBRANCH  25  27
ENDBRANCH   1  25
TORSDOF 9
ENDMDL
MODEL 2
REMARK minimizedAffinity -7.15648985
REMARK CNNscore 0.861208975
REMARK CNNaffinity 7.46410608
REMARK  9 active torsions:
REMARK  status: ('A' for Active; 'I' for Inactive)
REMARK    1  A    between atoms: C2_2  and  C3_3 
REMARK    2  A    between atoms: C2_2  and  C9_12 
REMARK    3  A    between atoms: C3_3  and  C4_4 
REMARK    4  A    between atoms: C4_4  and  C5_5 
REMARK    5  A    between atoms: C5_5  and  O1_6 
REMARK    6  A    between atoms: C5_5  and  C6_7 
REMARK    7  A    between atoms: C6_7  and  O2_9 
REMARK    8  A    between atoms: C6_7  and  C8_10 
REMARK    9  A    between atoms: C8_10  and  O3_11 
ROOT
HETATM    1  C9  UNL     1      -1.752  52.250 -10.211  1.00  0.00    -0.002 C 
HETATM    2  C10 UNL     1      -1.094  50.859 -10.420  1.00  0.00     0.007 C 
HETATM    3  C11 UNL     1       0.410  51.021 -10.118  1.00  0.00     0.015 C 
HETATM    4  C12 UNL     1       0.525  52.361  -9.363  1.00  0.00    -0.005 C 
HETATM    5  C13 UNL     1       0.160  52.074  -7.872  1.00  0.00     0.021 C 
HETATM    6  C14 UNL     1       1.850  53.106  -9.285  1.00  0.00    -0.000 C 
HETATM    7  C15 UNL     1       1.887  54.462  -9.175  1.00  0.00    -0.060 C 
HETATM    8  C16 UNL     1       0.593  55.285  -9.197  1.00  0.00     0.036 C 
HETATM    9  C17 UNL     1      -0.737  54.533  -9.407  1.00  0.00     0.015 C 
HETATM   10  C18 UNL     1      -0.534  53.219 -10.169  1.00  0.00    -0.028 C 
HETATM   11  C19 UNL     1      -0.067  53.562 -11.613  1.00  0.00     0.016 C 
HETATM   12  C20 UNL     1       3.214  55.258  -9.074  1.00  0.00    -0.014 C 
HETATM   13  C21 UNL     1       3.584  55.641 -10.526  1.00  0.00     0.020 C 
HETATM   14  C22 UNL     1       3.052  56.549  -8.230  1.00  0.00     0.021 C 
HETATM   15  C23 UNL     1       4.360  57.282  -7.979  1.00  0.00     0.080 C 
HETATM   16  C24 UNL     1       5.340  56.379  -7.277  1.00  0.00     0.135 C 
HETATM   17  O4  UNL     1       5.937  56.782  -6.277  1.00  0.00    -0.297 OA
HETATM   18  C25 UNL     1       5.619  55.007  -7.908  1.00  0.00     0.018 C 
HETATM   19  C26 UNL     1       6.289  54.121  -6.826  1.00  0.00     0.023 C 
HETATM   20  C27 UNL     1       6.647  55.197  -9.032  1.00  0.00     0.023 C 
HETATM   21  C28 UNL     1       4.264  54.348  -8.347  1.00  0.00     0.020 C 
HETATM   22  C29 UNL     1       4.440  53.036  -9.119  1.00  0.00     0.090 C 
HETATM   23  C30 UNL     1       3.124  52.313  -9.281  1.00  0.00     0.157 C 
HETATM   24  O5  UNL     1       3.117  51.093  -9.431  1.00  0.00    -0.293 OA
ENDROOT
BRANCH   1  25
HETATM   25  C2  UNL     1      -3.011  52.491 -11.100  1.00  0.00    -0.014 C 
HETATM   26  C1  UNL     1      -4.044  53.488 -10.569  1.00  0.00     0.010 C 
BRANCH  25  27
HETATM   27  C3  UNL     1      -3.674  51.156 -11.514  1.00  0.00     0.007 C 
BRANCH  27  28
HETATM   28  C4  UNL     1      -4.661  50.578 -10.481  1.00  0.00     0.035 C 
BRANCH  28  29
HETATM   29  C5  UNL     1      -5.123  49.145 -10.782  1.00  0.00     0.154 C 
BRANCH  29  30
HETATM   30  O1  UNL     1      -4.914  48.874 -12.177  1.00  0.00    -0.392 OA
HETATM   31  H10 UNL     1      -5.364  48.015 -12.326  1.00  0.00     0.210 HD
ENDBRANCH  29  30
BRANCH  29  32
HETATM   32  C6  UNL     1      -6.608  48.854 -10.439  1.00  0.00     0.101 C 
HETATM   33  C7  UNL     1      -6.789  48.209  -9.058  1.00  0.00     0.051 C 
BRANCH  32  34
HETATM   34  O2  UNL     1      -7.271  50.141 -10.376  1.00  0.00    -0.385 OA
HETATM   35  H14 UNL     1      -8.217  49.954 -10.553  1.00  0.00     0.210 HD
ENDBRANCH  32  34
BRANCH  32  36
HETATM   36  C8  UNL     1      -7.294  48.024 -11.542  1.00  0.00     0.204 C 
BRANCH  36  37
HETATM   37  O3  UNL     1      -6.304  47.370 -12.343  1.00  0.00    -0.398 OA
HETATM   38  H17 UNL     1      -5.999  48.010 -13.011  1.00  0.00     0.209 HD
ENDBRANCH  36  37
ENDBRANCH  32  36
ENDBRANCH  29  32
ENDBRANCH  28  29
ENDBRANCH  27  28
ENDBRANCH  25  27
ENDBRANCH   1  25
TORSDOF 9
ENDMDL
MODEL 3
REMARK minimizedAffinity -7.28243065
REMARK CNNscore 0.790947258
REMARK CNNaffinity 7.11978722
REMARK  9 active torsions:
REMARK  status: ('A' for Active; 'I' for Inactive)
REMARK    1  A    between atoms: C2_2  and  C3_3 
REMARK    2  A    between atoms: C2_2  and  C9_12 
REMARK    3  A    between atoms: C3_3  and  C4_4 
REMARK    4  A    between atoms: C4_4  and  C5_5 
REMARK    5  A    between atoms: C5_5  and  O1_6 
REMARK    6  A    between atoms: C5_5  and  C6_7 
REMARK    7  A    between atoms: C6_7  and  O2_9 
REMARK    8  A    between atoms: C6_7  and  C8_10 
REMARK    9  A    between atoms: C8_10  and  O3_11 
ROOT
HETATM    1  C9  UNL     1       3.963  56.107  -8.147  1.00  0.00    -0.002 C 
HETATM    2  C10 UNL     1       4.949  55.184  -8.915  1.00  0.00     0.007 C 
HETATM    3  C11 UNL     1       4.096  54.209  -9.751  1.00  0.00     0.015 C 
HETATM    4  C12 UNL     1       2.684  54.828  -9.773  1.00  0.00    -0.005 C 
HETATM    5  C13 UNL     1       2.688  55.924 -10.886  1.00  0.00     0.021 C 
HETATM    6  C14 UNL     1       1.460  53.980 -10.092  1.00  0.00    -0.000 C 
HETATM    7  C15 UNL     1       0.240  54.291  -9.577  1.00  0.00    -0.060 C 
HETATM    8  C16 UNL     1       0.075  55.464  -8.603  1.00  0.00     0.036 C 
HETATM    9  C17 UNL     1       1.342  56.237  -8.184  1.00  0.00     0.015 C 
HETATM   10  C18 UNL     1       2.600  55.368  -8.287  1.00  0.00    -0.028 C 
HETATM   11  C19 UNL     1       2.492  54.230  -7.232  1.00  0.00     0.016 C 
HETATM   12  C20 UNL     1      -1.036  53.464  -9.890  1.00  0.00    -0.014 C 
HETATM   13  C21 UNL     1      -1.135  52.407  -8.767  1.00  0.00     0.020 C 
HETATM   14  C22 UNL     1      -2.313  54.346  -9.879  1.00  0.00     0.021 C 
HETATM   15  C23 UNL     1      -3.564  53.608 -10.327  1.00  0.00     0.080 C 
HETATM   16  C24 UNL     1      -3.380  53.062 -11.719  1.00  0.00     0.135 C 
HETATM   17  O4  UNL     1      -4.247  53.255 -12.573  1.00  0.00    -0.297 OA
HETATM   18  C25 UNL     1      -2.139  52.197 -11.983  1.00  0.00     0.018 C 
HETATM   19  C26 UNL     1      -1.941  52.118 -13.519  1.00  0.00     0.023 C 
HETATM   20  C27 UNL     1      -2.436  50.772 -11.496  1.00  0.00     0.023 C 
HETATM   21  C28 UNL     1      -0.881  52.876 -11.335  1.00  0.00     0.020 C 
HETATM   22  C29 UNL     1       0.388  52.023 -11.417  1.00  0.00     0.090 C 
HETATM   23  C30 UNL     1       1.612  52.818 -11.029  1.00  0.00     0.157 C 
HETATM   24  O5  UNL     1       2.713  52.489 -11.466  1.00  0.00    -0.293 OA
ENDROOT
BRANCH   1  25
HETATM   25  C2  UNL     1       4.520  56.630  -6.787  1.00  0.00    -0.014 C 
HETATM   26  C1  UNL     1       3.927  57.940  -6.263  1.00  0.00     0.010 C 
BRANCH  25  27
HETATM   27  C3  UNL     1       6.066  56.671  -6.789  1.00  0.00     0.007 C 
BRANCH  27  28
HETATM   28  C4  UNL     1       6.691  57.524  -5.668  1.00  0.00     0.035 C 
BRANCH  28  29
HETATM   29  C5  UNL     1       8.116  57.106  -5.276  1.00  0.00     0.154 C 
BRANCH  29  30
HETATM   30  O1  UNL     1       8.039  55.978  -4.389  1.00  0.00    -0.392 OA
HETATM   31  H10 UNL     1       8.959  55.863  -4.064  1.00  0.00     0.210 HD
ENDBRANCH  29  30
BRANCH  29  32
HETATM   32  C6  UNL     1       8.955  58.217  -4.590  1.00  0.00     0.101 C 
HETATM   33  C7  UNL     1       8.471  59.633  -4.935  1.00  0.00     0.051 C 
BRANCH  32  34
HETATM   34  O2  UNL     1       8.756  58.056  -3.164  1.00  0.00    -0.385 OA
HETATM   35  H14 UNL     1       9.544  58.461  -2.745  1.00  0.00     0.210 HD
ENDBRANCH  32  34
BRANCH  32  36
HETATM   36  C8  UNL     1      10.460  58.052  -4.878  1.00  0.00     0.204 C 
BRANCH  36  37
HETATM   37  O3  UNL     1      10.714  56.742  -5.396  1.00  0.00    -0.398 OA
HETATM   38  H17 UNL     1      10.790  56.136  -4.637  1.00  0.00     0.209 HD
ENDBRANCH  36  37
ENDBRANCH  32  36
ENDBRANCH  29  32
ENDBRANCH  28  29
ENDBRANCH  27  28
ENDBRANCH  25  27
ENDBRANCH   1  25
TORSDOF 9
ENDMDL
MODEL 4
REMARK minimizedAffinity -9.18248081
REMARK CNNscore 0.608959138
REMARK CNNaffinity 7.03858376
REMARK  9 active torsions:
REMARK  status: ('A' for Active; 'I' for Inactive)
REMARK    1  A    between atoms: C2_2  and  C3_3 
REMARK    2  A    between atoms: C2_2  and  C9_12 
REMARK    3  A    between atoms: C3_3  and  C4_4 
REMARK    4  A    between atoms: C4_4  and  C5_5 
REMARK    5  A    between atoms: C5_5  and  O1_6 
REMARK    6  A    between atoms: C5_5  and  C6_7 
REMARK    7  A    between atoms: C6_7  and  O2_9 
REMARK    8  A    between atoms: C6_7  and  C8_10 
REMARK    9  A    between atoms: C8_10  and  O3_11 
ROOT
HETATM    1  C9  UNL     1      -5.838  49.012 -24.076  1.00  0.00    -0.002 C 
HETATM    2  C10 UNL     1      -6.738  49.124 -22.814  1.00  0.00     0.007 C 
HETATM    3  C11 UNL     1      -5.886  49.784 -21.711  1.00  0.00     0.015 C 
HETATM    4  C12 UNL     1      -4.680  50.399 -22.448  1.00  0.00    -0.005 C 
HETATM    5  C13 UNL     1      -5.155  51.768 -23.029  1.00  0.00     0.021 C 
HETATM    6  C14 UNL     1      -3.395  50.737 -21.705  1.00  0.00    -0.000 C 
HETATM    7  C15 UNL     1      -2.191  50.712 -22.339  1.00  0.00    -0.060 C 
HETATM    8  C16 UNL     1      -2.087  50.273 -23.805  1.00  0.00     0.036 C 
HETATM    9  C17 UNL     1      -3.375  49.808 -24.512  1.00  0.00     0.015 C 
HETATM   10  C18 UNL     1      -4.407  49.264 -23.518  1.00  0.00    -0.028 C 
HETATM   11  C19 UNL     1      -3.836  47.961 -22.889  1.00  0.00     0.016 C 
HETATM   12  C20 UNL     1      -0.860  51.066 -21.624  1.00  0.00    -0.014 C 
HETATM   13  C21 UNL     1      -0.301  49.726 -21.094  1.00  0.00     0.020 C 
HETATM   14  C22 UNL     1       0.167  51.702 -22.597  1.00  0.00     0.021 C 
HETATM   15  C23 UNL     1       1.427  52.202 -21.909  1.00  0.00     0.080 C 
HETATM   16  C24 UNL     1       1.080  53.222 -20.856  1.00  0.00     0.135 C 
HETATM   17  O4  UNL     1       1.686  54.294 -20.819  1.00  0.00    -0.297 OA
HETATM   18  C25 UNL     1       0.031  52.829 -19.807  1.00  0.00     0.018 C 
HETATM   19  C26 UNL     1      -0.462  54.132 -19.126  1.00  0.00     0.023 C 
HETATM   20  C27 UNL     1       0.726  51.993 -18.723  1.00  0.00     0.023 C 
HETATM   21  C28 UNL     1      -1.181  52.128 -20.516  1.00  0.00     0.020 C 
HETATM   22  C29 UNL     1      -2.223  51.568 -19.543  1.00  0.00     0.090 C 
HETATM   23  C30 UNL     1      -3.482  51.150 -20.265  1.00  0.00     0.157 C 
HETATM   24  O5  UNL     1      -4.551  51.131 -19.658  1.00  0.00    -0.293 OA
ENDROOT
BRANCH   1  25
HETATM   25  C2  UNL     1      -6.200  47.810 -25.002  1.00  0.00    -0.014 C 
HETATM   26  C1  UNL     1      -5.909  47.983 -26.494  1.00  0.00     0.010 C 
BRANCH  25  27
HETATM   27  C3  UNL     1      -7.650  47.328 -24.761  1.00  0.00     0.007 C 
BRANCH  27  28
HETATM   28  C4  UNL     1      -8.707  48.448 -24.735  1.00  0.00     0.035 C 
BRANCH  28  29
HETATM   29  C5  UNL     1      -9.278  48.809 -26.114  1.00  0.00     0.154 C 
BRANCH  29  30
HETATM   30  O1  UNL     1      -9.532  50.223 -26.154  1.00  0.00    -0.392 OA
HETATM   31  H10 UNL     1     -10.028  50.356 -26.990  1.00  0.00     0.210 HD
ENDBRANCH  29  30
BRANCH  29  32
HETATM   32  C6  UNL     1     -10.585  48.062 -26.494  1.00  0.00     0.101 C 
HETATM   33  C7  UNL     1     -11.087  47.130 -25.382  1.00  0.00     0.051 C 
BRANCH  32  34
HETATM   34  O2  UNL     1     -11.602  49.081 -26.660  1.00  0.00    -0.385 OA
HETATM   35  H14 UNL     1     -12.272  48.683 -27.254  1.00  0.00     0.210 HD
ENDBRANCH  32  34
BRANCH  32  36
HETATM   36  C8  UNL     1     -10.443  47.314 -27.834  1.00  0.00     0.204 C 
BRANCH  36  37
HETATM   37  O3  UNL     1     -10.511  48.246 -28.919  1.00  0.00    -0.398 OA
HETATM   38  H17 UNL     1     -11.452  48.410 -29.107  1.00  0.00     0.209 HD
ENDBRANCH  36  37
ENDBRANCH  32  36
ENDBRANCH  29  32
ENDBRANCH  28  29
ENDBRANCH  27  28
ENDBRANCH  25  27
ENDBRANCH   1  25
TORSDOF 9
ENDMDL
MODEL 5
REMARK minimizedAffinity -7.67785931
REMARK CNNscore 0.527141094
REMARK CNNaffinity 6.93067122
REMARK  9 active torsions:
REMARK  status: ('A' for Active; 'I' for Inactive)
REMARK    1  A    between atoms: C2_2  and  C3_3 
REMARK    2  A    between atoms: C2_2  and  C9_12 
REMARK    3  A    between atoms: C3_3  and  C4_4 
REMARK    4  A    between atoms: C4_4  and  C5_5 
REMARK    5  A    between atoms: C5_5  and  O1_6 
REMARK    6  A    between atoms: C5_5  and  C6_7 
REMARK    7  A    between atoms: C6_7  and  O2_9 
REMARK    8  A    between atoms: C6_7  and  C8_10 
REMARK    9  A    between atoms: C8_10  and  O3_11 
ROOT
HETATM    1  C9  UNL     1      -2.818  49.098 -19.917  1.00  0.00    -0.002 C 
HETATM    2  C10 UNL     1      -1.476  49.526 -19.261  1.00  0.00     0.007 C 
HETATM    3  C11 UNL     1      -0.679  50.302 -20.329  1.00  0.00     0.015 C 
HETATM    4  C12 UNL     1      -1.709  50.656 -21.420  1.00  0.00    -0.005 C 
HETATM    5  C13 UNL     1      -2.469  51.929 -20.928  1.00  0.00     0.021 C 
HETATM    6  C14 UNL     1      -1.265  51.012 -22.832  1.00  0.00    -0.000 C 
HETATM    7  C15 UNL     1      -2.066  50.759 -23.902  1.00  0.00    -0.060 C 
HETATM    8  C16 UNL     1      -3.411  50.045 -23.723  1.00  0.00     0.036 C 
HETATM    9  C17 UNL     1      -3.795  49.572 -22.307  1.00  0.00     0.015 C 
HETATM   10  C18 UNL     1      -2.559  49.321 -21.436  1.00  0.00    -0.028 C 
HETATM   11  C19 UNL     1      -1.781  48.113 -22.034  1.00  0.00     0.016 C 
HETATM   12  C20 UNL     1      -1.660  51.121 -25.356  1.00  0.00    -0.014 C 
HETATM   13  C21 UNL     1      -0.969  49.860 -25.923  1.00  0.00     0.020 C 
HETATM   14  C22 UNL     1      -2.893  51.467 -26.231  1.00  0.00     0.021 C 
HETATM   15  C23 UNL     1      -2.532  51.972 -27.619  1.00  0.00     0.080 C 
HETATM   16  C24 UNL     1      -1.663  53.200 -27.520  1.00  0.00     0.135 C 
HETATM   17  O4  UNL     1      -1.940  54.201 -28.183  1.00  0.00    -0.297 OA
HETATM   18  C25 UNL     1      -0.402  53.108 -26.650  1.00  0.00     0.018 C 
HETATM   19  C26 UNL     1       0.073  54.555 -26.359  1.00  0.00     0.023 C 
HETATM   20  C27 UNL     1       0.702  52.431 -27.476  1.00  0.00     0.023 C 
HETATM   21  C28 UNL     1      -0.752  52.397 -25.294  1.00  0.00     0.020 C 
HETATM   22  C29 UNL     1       0.469  52.126 -24.409  1.00  0.00     0.090 C 
HETATM   23  C30 UNL     1       0.058  51.694 -23.022  1.00  0.00     0.157 C 
HETATM   24  O5  UNL     1       0.819  51.886 -22.076  1.00  0.00    -0.293 OA
ENDROOT
BRANCH   1  25
HETATM   25  C2  UNL     1      -3.412  47.780 -19.332  1.00  0.00    -0.014 C 
HETATM   26  C1  UNL     1      -4.526  47.113 -20.142  1.00  0.00     0.010 C 
BRANCH  25  27
HETATM   27  C3  UNL     1      -3.818  47.953 -17.850  1.00  0.00     0.007 C 
BRANCH  27  28
HETATM   28  C4  UNL     1      -2.685  47.704 -16.836  1.00  0.00     0.035 C 
BRANCH  28  29
HETATM   29  C5  UNL     1      -2.641  48.711 -15.677  1.00  0.00     0.154 C 
BRANCH  29  30
HETATM   30  O1  UNL     1      -3.517  49.808 -15.984  1.00  0.00    -0.392 OA
HETATM   31  H10 UNL     1      -3.326  50.471 -15.286  1.00  0.00     0.210 HD
ENDBRANCH  29  30
BRANCH  29  32
HETATM   32  C6  UNL     1      -1.232  49.277 -15.359  1.00  0.00     0.101 C 
HETATM   33  C7  UNL     1      -1.107  50.778 -15.657  1.00  0.00     0.051 C 
BRANCH  32  34
HETATM   34  O2  UNL     1      -1.048  49.130 -13.929  1.00  0.00    -0.385 OA
HETATM   35  H14 UNL     1      -0.078  49.109 -13.793  1.00  0.00     0.210 HD
ENDBRANCH  32  34
BRANCH  32  36
HETATM   36  C8  UNL     1      -0.123  48.470 -16.062  1.00  0.00     0.204 C 
BRANCH  36  37
HETATM   37  O3  UNL     1       0.328  47.415 -15.204  1.00  0.00    -0.398 OA
HETATM   38  H17 UNL     1       0.986  47.794 -14.594  1.00  0.00     0.209 HD
ENDBRANCH  36  37
ENDBRANCH  32  36
ENDBRANCH  29  32
ENDBRANCH  28  29
ENDBRANCH  27  28
ENDBRANCH  25  27
ENDBRANCH   1  25
TORSDOF 9
ENDMDL
MODEL 6
REMARK minimizedAffinity -8.41837883
REMARK CNNscore 0.502622724
REMARK CNNaffinity 7.1854229
REMARK  9 active torsions:
REMARK  status: ('A' for Active; 'I' for Inactive)
REMARK    1  A    between atoms: C2_2  and  C3_3 
REMARK    2  A    between atoms: C2_2  and  C9_12 
REMARK    3  A    between atoms: C3_3  and  C4_4 
REMARK    4  A    between atoms: C4_4  and  C5_5 
REMARK    5  A    between atoms: C5_5  and  O1_6 
REMARK    6  A    between atoms: C5_5  and  C6_7 
REMARK    7  A    between atoms: C6_7  and  O2_9 
REMARK    8  A    between atoms: C6_7  and  C8_10 
REMARK    9  A    between atoms: C8_10  and  O3_11 
ROOT
HETATM    1  C9  UNL     1      -1.849  50.368 -22.795  1.00  0.00    -0.002 C 
HETATM    2  C10 UNL     1      -1.448  51.841 -23.082  1.00  0.00     0.007 C 
HETATM    3  C11 UNL     1      -0.805  52.392 -21.793  1.00  0.00     0.015 C 
HETATM    4  C12 UNL     1      -0.479  51.148 -20.943  1.00  0.00    -0.005 C 
HETATM    5  C13 UNL     1       0.869  50.572 -21.480  1.00  0.00     0.021 C 
HETATM    6  C14 UNL     1      -0.262  51.259 -19.440  1.00  0.00    -0.000 C 
HETATM    7  C15 UNL     1      -0.552  50.220 -18.611  1.00  0.00    -0.060 C 
HETATM    8  C16 UNL     1      -1.173  48.930 -19.160  1.00  0.00     0.036 C 
HETATM    9  C17 UNL     1      -1.510  48.874 -20.664  1.00  0.00     0.015 C 
HETATM   10  C18 UNL     1      -1.762  50.269 -21.243  1.00  0.00    -0.028 C 
HETATM   11  C19 UNL     1      -3.055  50.840 -20.593  1.00  0.00     0.016 C 
HETATM   12  C20 UNL     1      -0.330  50.285 -17.077  1.00  0.00    -0.014 C 
HETATM   13  C21 UNL     1      -1.669  50.777 -16.481  1.00  0.00     0.020 C 
HETATM   14  C22 UNL     1       0.016  48.894 -16.483  1.00  0.00     0.021 C 
HETATM   15  C23 UNL     1       0.389  48.938 -15.010  1.00  0.00     0.080 C 
HETATM   16  C24 UNL     1       1.569  49.849 -14.794  1.00  0.00     0.135 C 
HETATM   17  O4  UNL     1       2.529  49.462 -14.126  1.00  0.00    -0.297 OA
HETATM   18  C25 UNL     1       1.474  51.276 -15.353  1.00  0.00     0.018 C 
HETATM   19  C26 UNL     1       2.910  51.859 -15.396  1.00  0.00     0.023 C 
HETATM   20  C27 UNL     1       0.673  52.128 -14.359  1.00  0.00     0.023 C 
HETATM   21  C28 UNL     1       0.894  51.229 -16.811  1.00  0.00     0.020 C 
HETATM   22  C29 UNL     1       0.624  52.613 -17.410  1.00  0.00     0.090 C 
HETATM   23  C30 UNL     1       0.327  52.524 -18.888  1.00  0.00     0.157 C 
HETATM   24  O5  UNL     1       0.549  53.494 -19.611  1.00  0.00    -0.293 OA
ENDROOT
BRANCH   1  25
HETATM   25  C2  UNL     1      -3.081  49.879 -23.618  1.00  0.00    -0.014 C 
HETATM   26  C1  UNL     1      -2.800  48.884 -24.746  1.00  0.00     0.010 C 
BRANCH  25  27
HETATM   27  C3  UNL     1      -3.936  51.069 -24.114  1.00  0.00     0.007 C 
BRANCH  27  28
HETATM   28  C4  UNL     1      -5.344  51.156 -23.494  1.00  0.00     0.035 C 
BRANCH  28  29
HETATM   29  C5  UNL     1      -6.119  49.830 -23.498  1.00  0.00     0.154 C 
BRANCH  29  30
HETATM   30  O1  UNL     1      -7.291  49.981 -24.315  1.00  0.00    -0.392 OA
HETATM   31  H10 UNL     1      -7.807  49.162 -24.150  1.00  0.00     0.210 HD
ENDBRANCH  29  30
BRANCH  29  32
HETATM   32  C6  UNL     1      -6.555  49.327 -22.096  1.00  0.00     0.101 C 
HETATM   33  C7  UNL     1      -5.571  48.316 -21.489  1.00  0.00     0.051 C 
BRANCH  32  34
HETATM   34  O2  UNL     1      -6.537  50.484 -21.224  1.00  0.00    -0.385 OA
HETATM   35  H14 UNL     1      -7.157  50.270 -20.497  1.00  0.00     0.210 HD
ENDBRANCH  32  34
BRANCH  32  36
HETATM   36  C8  UNL     1      -7.992  48.771 -22.113  1.00  0.00     0.204 C 
BRANCH  36  37
HETATM   37  O3  UNL     1      -8.044  47.583 -22.911  1.00  0.00    -0.398 OA
HETATM   38  H17 UNL     1      -8.137  47.859 -23.840  1.00  0.00     0.209 HD
ENDBRANCH  36  37
ENDBRANCH  32  36
ENDBRANCH  29  32
ENDBRANCH  28  29
ENDBRANCH  27  28
ENDBRANCH  25  27
ENDBRANCH   1  25
TORSDOF 9
ENDMDL
MODEL 7
REMARK minimizedAffinity -9.72921753
REMARK CNNscore 0.489393681
REMARK CNNaffinity 7.16006136
REMARK  9 active torsions:
REMARK  status: ('A' for Active; 'I' for Inactive)
REMARK    1  A    between atoms: C2_2  and  C3_3 
REMARK    2  A    between atoms: C2_2  and  C9_12 
REMARK    3  A    between atoms: C3_3  and  C4_4 
REMARK    4  A    between atoms: C4_4  and  C5_5 
REMARK    5  A    between atoms: C5_5  and  O1_6 
REMARK    6  A    between atoms: C5_5  and  C6_7 
REMARK    7  A    between atoms: C6_7  and  O2_9 
REMARK    8  A    between atoms: C6_7  and  C8_10 
REMARK    9  A    between atoms: C8_10  and  O3_11 
ROOT
HETATM    1  C9  UNL     1      -1.359  50.683 -23.050  1.00  0.00    -0.002 C 
HETATM    2  C10 UNL     1      -0.912  52.158 -23.242  1.00  0.00     0.007 C 
HETATM    3  C11 UNL     1      -0.365  52.644 -21.885  1.00  0.00     0.015 C 
HETATM    4  C12 UNL     1      -0.130  51.360 -21.064  1.00  0.00    -0.005 C 
HETATM    5  C13 UNL     1       1.247  50.779 -21.516  1.00  0.00     0.021 C 
HETATM    6  C14 UNL     1      -0.032  51.407 -19.545  1.00  0.00    -0.000 C 
HETATM    7  C15 UNL     1      -0.405  50.341 -18.786  1.00  0.00    -0.060 C 
HETATM    8  C16 UNL     1      -1.001  49.086 -19.436  1.00  0.00     0.036 C 
HETATM    9  C17 UNL     1      -1.218  49.098 -20.963  1.00  0.00     0.015 C 
HETATM   10  C18 UNL     1      -1.399  50.520 -21.502  1.00  0.00    -0.028 C 
HETATM   11  C19 UNL     1      -2.730  51.090 -20.933  1.00  0.00     0.016 C 
HETATM   12  C20 UNL     1      -0.306  50.340 -17.238  1.00  0.00    -0.014 C 
HETATM   13  C21 UNL     1      -1.680  50.833 -16.730  1.00  0.00     0.020 C 
HETATM   14  C22 UNL     1      -0.033  48.919 -16.677  1.00  0.00     0.021 C 
HETATM   15  C23 UNL     1       0.221  48.896 -15.178  1.00  0.00     0.080 C 
HETATM   16  C24 UNL     1       1.396  49.774 -14.832  1.00  0.00     0.135 C 
HETATM   17  O4  UNL     1       2.292  49.341 -14.106  1.00  0.00    -0.297 OA
HETATM   18  C25 UNL     1       1.370  51.224 -15.336  1.00  0.00     0.018 C 
HETATM   19  C26 UNL     1       2.814  51.779 -15.240  1.00  0.00     0.023 C 
HETATM   20  C27 UNL     1       0.506  52.051 -14.374  1.00  0.00     0.023 C 
HETATM   21  C28 UNL     1       0.908  51.247 -16.836  1.00  0.00     0.020 C 
HETATM   22  C29 UNL     1       0.711  52.659 -17.397  1.00  0.00     0.090 C 
HETATM   23  C30 UNL     1       0.532  52.636 -18.896  1.00  0.00     0.157 C 
HETATM   24  O5  UNL     1       0.828  53.629 -19.558  1.00  0.00    -0.293 OA
ENDROOT
BRANCH   1  25
HETATM   25  C2  UNL     1      -2.529  50.253 -23.988  1.00  0.00    -0.014 C 
HETATM   26  C1  UNL     1      -3.075  48.836 -23.797  1.00  0.00     0.010 C 
BRANCH  25  27
HETATM   27  C3  UNL     1      -2.195  50.534 -25.472  1.00  0.00     0.007 C 
BRANCH  27  28
HETATM   28  C4  UNL     1      -2.439  51.986 -25.925  1.00  0.00     0.035 C 
BRANCH  28  29
HETATM   29  C5  UNL     1      -2.014  52.276 -27.372  1.00  0.00     0.154 C 
BRANCH  29  30
HETATM   30  O1  UNL     1      -2.275  51.113 -28.174  1.00  0.00    -0.392 OA
HETATM   31  H10 UNL     1      -1.847  51.311 -29.034  1.00  0.00     0.210 HD
ENDBRANCH  29  30
BRANCH  29  32
HETATM   32  C6  UNL     1      -0.523  52.672 -27.546  1.00  0.00     0.101 C 
HETATM   33  C7  UNL     1       0.413  51.458 -27.630  1.00  0.00     0.051 C 
BRANCH  32  34
HETATM   34  O2  UNL     1      -0.428  53.347 -28.825  1.00  0.00    -0.385 OA
HETATM   35  H14 UNL     1       0.367  53.916 -28.759  1.00  0.00     0.210 HD
ENDBRANCH  32  34
BRANCH  32  36
HETATM   36  C8  UNL     1      -0.066  53.661 -26.456  1.00  0.00     0.204 C 
BRANCH  36  37
HETATM   37  O3  UNL     1      -0.090  54.996 -26.972  1.00  0.00    -0.398 OA
HETATM   38  H17 UNL     1       0.744  55.139 -27.455  1.00  0.00     0.209 HD
ENDBRANCH  36  37
ENDBRANCH  32  36
ENDBRANCH  29  32
ENDBRANCH  28  29
ENDBRANCH  27  28
ENDBRANCH  25  27
ENDBRANCH   1  25
TORSDOF 9
ENDMDL
MODEL 8
REMARK minimizedAffinity -7.06778479
REMARK CNNscore 0.405337214
REMARK CNNaffinity 6.0171566
REMARK  9 active torsions:
REMARK  status: ('A' for Active; 'I' for Inactive)
REMARK    1  A    between atoms: C2_2  and  C3_3 
REMARK    2  A    between atoms: C2_2  and  C9_12 
REMARK    3  A    between atoms: C3_3  and  C4_4 
REMARK    4  A    between atoms: C4_4  and  C5_5 
REMARK    5  A    between atoms: C5_5  and  O1_6 
REMARK    6  A    between atoms: C5_5  and  C6_7 
REMARK    7  A    between atoms: C6_7  and  O2_9 
REMARK    8  A    between atoms: C6_7  and  C8_10 
REMARK    9  A    between atoms: C8_10  and  O3_11 
ROOT
HETATM    1  C9  UNL     1     -13.530  46.016 -27.933  1.00  0.00    -0.002 C 
HETATM    2  C10 UNL     1     -13.257  47.147 -26.903  1.00  0.00     0.007 C 
HETATM    3  C11 UNL     1     -11.812  47.632 -27.138  1.00  0.00     0.015 C 
HETATM    4  C12 UNL     1     -11.423  47.080 -28.524  1.00  0.00    -0.005 C 
HETATM    5  C13 UNL     1     -12.023  48.056 -29.585  1.00  0.00     0.021 C 
HETATM    6  C14 UNL     1      -9.963  46.940 -28.931  1.00  0.00    -0.000 C 
HETATM    7  C15 UNL     1      -9.571  45.981 -29.812  1.00  0.00    -0.060 C 
HETATM    8  C16 UNL     1     -10.578  44.966 -30.366  1.00  0.00     0.036 C 
HETATM    9  C17 UNL     1     -12.029  45.033 -29.849  1.00  0.00     0.015 C 
HETATM   10  C18 UNL     1     -12.107  45.653 -28.450  1.00  0.00    -0.028 C 
HETATM   11  C19 UNL     1     -11.399  44.692 -27.452  1.00  0.00     0.016 C 
HETATM   12  C20 UNL     1      -8.096  45.815 -30.268  1.00  0.00    -0.014 C 
HETATM   13  C21 UNL     1      -7.471  44.790 -29.294  1.00  0.00     0.020 C 
HETATM   14  C22 UNL     1      -7.997  45.271 -31.718  1.00  0.00     0.021 C 
HETATM   15  C23 UNL     1      -6.576  45.236 -32.257  1.00  0.00     0.080 C 
HETATM   16  C24 UNL     1      -5.969  46.614 -32.228  1.00  0.00     0.135 C 
HETATM   17  O4  UNL     1      -5.406  47.058 -33.230  1.00  0.00    -0.297 OA
HETATM   18  C25 UNL     1      -6.005  47.376 -30.895  1.00  0.00     0.018 C 
HETATM   19  C26 UNL     1      -5.733  48.871 -31.202  1.00  0.00     0.023 C 
HETATM   20  C27 UNL     1      -4.841  46.878 -30.027  1.00  0.00     0.023 C 
HETATM   21  C28 UNL     1      -7.428  47.233 -30.249  1.00  0.00     0.020 C 
HETATM   22  C29 UNL     1      -7.529  47.838 -28.845  1.00  0.00     0.090 C 
HETATM   23  C30 UNL     1      -8.965  47.916 -28.381  1.00  0.00     0.157 C 
HETATM   24  O5  UNL     1      -9.287  48.758 -27.546  1.00  0.00    -0.293 OA
ENDROOT
BRANCH   1  25
HETATM   25  C2  UNL     1     -14.562  44.954 -27.444  1.00  0.00    -0.014 C 
HETATM   26  C1  UNL     1     -15.769  44.704 -28.350  1.00  0.00     0.010 C 
BRANCH  25  27
HETATM   27  C3  UNL     1     -14.997  45.222 -25.984  1.00  0.00     0.007 C 
BRANCH  27  28
HETATM   28  C4  UNL     1     -16.515  45.394 -25.783  1.00  0.00     0.035 C 
BRANCH  28  29
HETATM   29  C5  UNL     1     -16.901  46.515 -24.808  1.00  0.00     0.154 C 
BRANCH  29  30
HETATM   30  O1  UNL     1     -16.069  46.419 -23.640  1.00  0.00    -0.392 OA
HETATM   31  H10 UNL     1     -16.466  47.056 -23.008  1.00  0.00     0.210 HD
ENDBRANCH  29  30
BRANCH  29  32
HETATM   32  C6  UNL     1     -18.387  46.504 -24.358  1.00  0.00     0.101 C 
HETATM   33  C7  UNL     1     -18.551  46.451 -22.833  1.00  0.00     0.051 C 
BRANCH  32  34
HETATM   34  O2  UNL     1     -18.950  47.770 -24.784  1.00  0.00    -0.385 OA
HETATM   35  H14 UNL     1     -19.913  47.612 -24.862  1.00  0.00     0.210 HD
ENDBRANCH  32  34
BRANCH  32  36
HETATM   36  C8  UNL     1     -19.182  45.379 -25.049  1.00  0.00     0.204 C 
BRANCH  36  37
HETATM   37  O3  UNL     1     -20.368  45.918 -25.644  1.00  0.00    -0.398 OA
HETATM   38  H17 UNL     1     -21.046  45.973 -24.947  1.00  0.00     0.209 HD
ENDBRANCH  36  37
ENDBRANCH  32  36
ENDBRANCH  29  32
ENDBRANCH  28  29
ENDBRANCH  27  28
ENDBRANCH  25  27
ENDBRANCH   1  25
TORSDOF 9
ENDMDL
MODEL 9
REMARK minimizedAffinity -8.56752586
REMARK CNNscore 0.405151874
REMARK CNNaffinity 6.985569
REMARK  9 active torsions:
REMARK  status: ('A' for Active; 'I' for Inactive)
REMARK    1  A    between atoms: C2_2  and  C3_3 
REMARK    2  A    between atoms: C2_2  and  C9_12 
REMARK    3  A    between atoms: C3_3  and  C4_4 
REMARK    4  A    between atoms: C4_4  and  C5_5 
REMARK    5  A    between atoms: C5_5  and  O1_6 
REMARK    6  A    between atoms: C5_5  and  C6_7 
REMARK    7  A    between atoms: C6_7  and  O2_9 
REMARK    8  A    between atoms: C6_7  and  C8_10 
REMARK    9  A    between atoms: C8_10  and  O3_11 
ROOT
HETATM    1  C9  UNL     1      -2.167  50.665 -21.736  1.00  0.00    -0.002 C 
HETATM    2  C10 UNL     1      -1.675  52.110 -22.025  1.00  0.00     0.007 C 
HETATM    3  C11 UNL     1      -0.823  52.546 -20.816  1.00  0.00     0.015 C 
HETATM    4  C12 UNL     1      -0.502  51.242 -20.059  1.00  0.00    -0.005 C 
HETATM    5  C13 UNL     1       0.707  50.579 -20.791  1.00  0.00     0.021 C 
HETATM    6  C14 UNL     1      -0.082  51.267 -18.596  1.00  0.00    -0.000 C 
HETATM    7  C15 UNL     1      -0.353  50.220 -17.771  1.00  0.00    -0.060 C 
HETATM    8  C16 UNL     1      -1.154  49.013 -18.274  1.00  0.00     0.036 C 
HETATM    9  C17 UNL     1      -1.688  49.053 -19.720  1.00  0.00     0.015 C 
HETATM   10  C18 UNL     1      -1.887  50.490 -20.214  1.00  0.00    -0.028 C 
HETATM   11  C19 UNL     1      -3.028  51.138 -19.377  1.00  0.00     0.016 C 
HETATM   12  C20 UNL     1       0.072  50.197 -16.278  1.00  0.00    -0.014 C 
HETATM   13  C21 UNL     1      -1.128  50.773 -15.493  1.00  0.00     0.020 C 
HETATM   14  C22 UNL     1       0.366  48.757 -15.783  1.00  0.00     0.021 C 
HETATM   15  C23 UNL     1       0.930  48.702 -14.372  1.00  0.00     0.080 C 
HETATM   16  C24 UNL     1       2.206  49.500 -14.287  1.00  0.00     0.135 C 
HETATM   17  O4  UNL     1       3.205  49.003 -13.766  1.00  0.00    -0.297 OA
HETATM   18  C25 UNL     1       2.167  50.953 -14.780  1.00  0.00     0.018 C 
HETATM   19  C26 UNL     1       3.632  51.414 -14.995  1.00  0.00     0.023 C 
HETATM   20  C27 UNL     1       1.583  51.825 -13.660  1.00  0.00     0.023 C 
HETATM   21  C28 UNL     1       1.400  51.021 -16.148  1.00  0.00     0.020 C 
HETATM   22  C29 UNL     1       1.180  52.448 -16.659  1.00  0.00     0.090 C 
HETATM   23  C30 UNL     1       0.686  52.452 -18.086  1.00  0.00     0.157 C 
HETATM   24  O5  UNL     1       0.898  53.430 -18.799  1.00  0.00    -0.293 OA
ENDROOT
BRANCH   1  25
HETATM   25  C2  UNL     1      -3.534  50.320 -22.402  1.00  0.00    -0.014 C 
HETATM   26  C1  UNL     1      -3.698  48.894 -22.932  1.00  0.00     0.010 C 
BRANCH  25  27
HETATM   27  C3  UNL     1      -3.921  51.368 -23.472  1.00  0.00     0.007 C 
BRANCH  27  28
HETATM   28  C4  UNL     1      -2.867  51.584 -24.575  1.00  0.00     0.035 C 
BRANCH  28  29
HETATM   29  C5  UNL     1      -2.372  50.290 -25.239  1.00  0.00     0.154 C 
BRANCH  29  30
HETATM   30  O1  UNL     1      -0.990  50.452 -25.596  1.00  0.00    -0.392 OA
HETATM   31  H10 UNL     1      -0.787  49.662 -26.142  1.00  0.00     0.210 HD
ENDBRANCH  29  30
BRANCH  29  32
HETATM   32  C6  UNL     1      -3.163  49.864 -26.504  1.00  0.00     0.101 C 
HETATM   33  C7  UNL     1      -2.772  48.470 -27.014  1.00  0.00     0.051 C 
BRANCH  32  34
HETATM   34  O2  UNL     1      -4.553  49.774 -26.105  1.00  0.00    -0.385 OA
HETATM   35  H14 UNL     1      -5.068  49.897 -26.929  1.00  0.00     0.210 HD
ENDBRANCH  32  34
BRANCH  32  36
HETATM   36  C8  UNL     1      -3.061  50.921 -27.622  1.00  0.00     0.204 C 
BRANCH  36  37
HETATM   37  O3  UNL     1      -3.472  50.349 -28.869  1.00  0.00    -0.398 OA
HETATM   38  H17 UNL     1      -2.706  49.877 -29.241  1.00  0.00     0.209 HD
ENDBRANCH  36  37
ENDBRANCH  32  36
ENDBRANCH  29  32
ENDBRANCH  28  29
ENDBRANCH  27  28
ENDBRANCH  25  27
ENDBRANCH   1  25
TORSDOF 9
ENDMDL
