MODEL 1
REMARK minimizedAffinity -8.3084383
REMARK CNNscore 0.384029955
REMARK CNNaffinity 6.51140451
REMARK  9 active torsions:
REMARK  status: ('A' for Active; 'I' for Inactive)
REMARK    1  A    between atoms: C13_13  and  S1_14 
REMARK    2  A    between atoms: C25_30  and  O5_31 
REMARK    3  A    between atoms: C31_37  and  C32_38 
REMARK    4  A    between atoms: C32_38  and  O6_39 
REMARK    5  A    between atoms: C40_47  and  C41_48 
REMARK    6  A    between atoms: C40_47  and  N1_52 
REMARK    7  A    between atoms: C41_48  and  C42_49 
REMARK    8  A    between atoms: C42_49  and  C43_50 
REMARK    9  A    between atoms: C43_50  and  O7_51 
REMARK       I    between atoms: C44_54  and  N2_55 
REMARK       I    between atoms: C44_54  and  N3_56 
ROOT
HETATM    1  C1  UNL     1      -9.692  43.795 -22.744  1.00  0.00     0.010 C 
HETATM    2  C2  UNL     1      -9.522  44.161 -24.215  1.00  0.00    -0.010 C 
HETATM    3  C3  UNL     1      -8.258  45.067 -24.424  1.00  0.00     0.009 C 
HETATM    4  C4  UNL     1      -8.352  46.083 -25.599  1.00  0.00     0.039 C 
HETATM    5  C5  UNL     1      -9.158  45.527 -26.743  1.00  0.00    -0.049 C 
HETATM    6  C6  UNL     1      -8.952  45.868 -28.075  1.00  0.00     0.044 C 
HETATM    7  C7  UNL     1      -9.730  45.236 -29.037  1.00  0.00     0.072 C 
HETATM    8  C8  UNL     1     -10.483  44.104 -28.724  1.00  0.00     0.037 C 
HETATM    9  C9  UNL     1     -10.783  43.860 -27.392  1.00  0.00     0.011 C 
HETATM   10  C10 UNL     1     -10.245  44.696 -26.416  1.00  0.00    -0.047 C 
HETATM   11  C11 UNL     1     -10.720  44.794 -24.962  1.00  0.00     0.024 C 
HETATM   12  C12 UNL     1     -12.164  44.293 -24.736  1.00  0.00     0.033 C 
HETATM   13  C13 UNL     1     -13.158  45.133 -23.885  1.00  0.00     0.139 C 
HETATM   14  C14 UNL     1     -14.557  45.409 -24.531  1.00  0.00     0.038 C 
HETATM   15  C15 UNL     1     -15.528  44.229 -24.432  1.00  0.00    -0.014 C 
HETATM   16  C16 UNL     1     -16.846  44.494 -24.582  1.00  0.00    -0.050 C 
HETATM   17  C17 UNL     1     -17.202  45.911 -24.995  1.00  0.00     0.042 C 
HETATM   18  C18 UNL     1     -16.399  46.157 -26.290  1.00  0.00     0.001 C 
HETATM   19  C19 UNL     1     -16.773  45.093 -27.396  1.00  0.00     0.038 C 
HETATM   20  C20 UNL     1     -18.055  44.242 -27.197  1.00  0.00     0.130 C 
HETATM   21  O4  UNL     1     -17.696  43.208 -26.275  1.00  0.00    -0.371 OA
HETATM   22  C21 UNL     1     -17.934  43.508 -24.895  1.00  0.00     0.185 C 
HETATM   23  C22 UNL     1     -18.102  42.186 -24.159  1.00  0.00    -0.006 A 
HETATM   24  C23 UNL     1     -17.515  41.947 -22.908  1.00  0.00     0.014 A 
HETATM   25  C24 UNL     1     -17.743  40.742 -22.235  1.00  0.00     0.037 A 
HETATM   26  C25 UNL     1     -18.571  39.775 -22.796  1.00  0.00     0.067 A 
HETATM   27  C26 UNL     1     -19.194  39.988 -24.022  1.00  0.00     0.057 A 
HETATM   28  C27 UNL     1     -18.974  41.190 -24.698  1.00  0.00     0.029 A 
HETATM   29  C28 UNL     1     -19.629  41.419 -25.963  1.00  0.00    -0.066 C 
HETATM   30  C29 UNL     1     -19.913  41.894 -27.031  1.00  0.00    -0.101 C 
HETATM   31  C30 UNL     1     -19.931  42.766 -28.225  1.00  0.00     0.103 C 
HETATM   32  C31 UNL     1     -18.569  43.510 -28.475  1.00  0.00     0.049 C 
HETATM   33  C33 UNL     1     -14.836  46.268 -25.872  1.00  0.00     0.030 C 
HETATM   34  C34 UNL     1     -13.836  46.403 -27.034  1.00  0.00    -0.050 A 
HETATM   35  C35 UNL     1     -12.891  47.440 -26.999  1.00  0.00     0.006 A 
HETATM   36  C36 UNL     1     -11.943  47.643 -28.021  1.00  0.00     0.010 A 
HETATM   37  C37 UNL     1     -11.943  46.878 -29.197  1.00  0.00    -0.000 A 
HETATM   38  C38 UNL     1     -12.925  45.880 -29.266  1.00  0.00     0.138 A 
HETATM   39  C39 UNL     1     -13.800  45.616 -28.189  1.00  0.00     0.133 A 
HETATM   40  C40 UNL     1     -10.792  46.988 -30.268  1.00  0.00     0.169 C 
HETATM   41  O8  UNL     1      -9.928  45.779 -30.277  1.00  0.00    -0.316 OA
HETATM   42 NA1  UNL     1     -13.548  45.066 -26.962  1.00  0.00    -0.401 Na
ATOM     43  HA1 UNL     1     -13.581  44.688 -26.016  1.00  0.00     0.154 HD
ENDROOT
BRANCH  40  44
HETATM   44  C41 UNL     1     -11.401  46.969 -31.719  1.00  0.00     0.069 C 
BRANCH  44  45
HETATM   45  C42 UNL     1     -10.741  46.023 -32.738  1.00  0.00     0.031 C 
BRANCH  45  46
HETATM   46  C43 UNL     1     -11.535  44.775 -33.088  1.00  0.00     0.164 C 
BRANCH  46  47
HETATM   47  O7  UNL     1     -12.439  45.090 -34.146  1.00  0.00    -0.401 OA
HETATM   48  H46 UNL     1     -13.008  44.310 -34.258  1.00  0.00     0.209 HD
ENDBRANCH  46  47
ENDBRANCH  45  46
ENDBRANCH  44  45
ENDBRANCH  40  44
BRANCH  40  49
HETATM   49  N1  UNL     1      -9.995  48.231 -30.140  1.00  0.00    -0.336 N 
HETATM   50  C44 UNL     1      -8.823  48.402 -30.608  1.00  0.00     0.124 C 
HETATM   51  N2  UNL     1      -8.199  49.584 -30.399  1.00  0.00    -0.279 NA
HETATM   52  N3  UNL     1      -8.004  47.593 -31.316  1.00  0.00    -0.279 NA
HETATM   53  H47 UNL     1      -7.243  49.475 -30.089  1.00  0.00     0.126 HD
HETATM   54  H48 UNL     1      -8.738  50.160 -29.761  1.00  0.00     0.126 HD
HETATM   55  H49 UNL     1      -7.500  48.116 -32.025  1.00  0.00     0.126 HD
HETATM   56  H50 UNL     1      -8.485  46.821 -31.768  1.00  0.00     0.126 HD
ATOM     57  H1  UNL     1     -10.419  49.011 -29.638  1.00  0.00     0.165 HD
ENDBRANCH  40  49
BRANCH  13  58
HETATM   58  S1  UNL     1     -12.581  46.589 -22.972  1.00  0.00     0.106 S 
HETATM   59  O1  UNL     1     -13.782  47.377 -22.733  1.00  0.00    -0.595 OA
HETATM   60  O2  UNL     1     -11.950  46.063 -21.769  1.00  0.00    -0.595 OA
HETATM   61  O3  UNL     1     -11.647  47.236 -23.894  1.00  0.00    -0.595 OA
ENDBRANCH  13  58
BRANCH  32  62
HETATM   62  C32 UNL     1     -17.536  42.533 -29.056  1.00  0.00     0.172 C 
BRANCH  62  63
HETATM   63  O6  UNL     1     -16.957  41.757 -28.005  1.00  0.00    -0.400 OA
HETATM   64  H34 UNL     1     -17.623  41.104 -27.731  1.00  0.00     0.209 HD
ENDBRANCH  62  63
ENDBRANCH  32  62
BRANCH  26  65
HETATM   65  O5  UNL     1     -18.758  38.618 -22.097  1.00  0.00    -0.361 OA
HETATM   66  H27 UNL     1     -19.335  38.037 -22.619  1.00  0.00     0.217 HD
ENDBRANCH  26  65
TORSDOF 9
ENDMDL
MODEL 2
REMARK minimizedAffinity -7.68038702
REMARK CNNscore 0.219605565
REMARK CNNaffinity 6.25984049
REMARK  9 active torsions:
REMARK  status: ('A' for Active; 'I' for Inactive)
REMARK    1  A    between atoms: C13_13  and  S1_14 
REMARK    2  A    between atoms: C25_30  and  O5_31 
REMARK    3  A    between atoms: C31_37  and  C32_38 
REMARK    4  A    between atoms: C32_38  and  O6_39 
REMARK    5  A    between atoms: C40_47  and  C41_48 
REMARK    6  A    between atoms: C40_47  and  N1_52 
REMARK    7  A    between atoms: C41_48  and  C42_49 
REMARK    8  A    between atoms: C42_49  and  C43_50 
REMARK    9  A    between atoms: C43_50  and  O7_51 
REMARK       I    between atoms: C44_54  and  N2_55 
REMARK       I    between atoms: C44_54  and  N3_56 
ROOT
HETATM    1  C1  UNL     1     -11.999  41.665 -15.189  1.00  0.00     0.010 C 
HETATM    2  C2  UNL     1     -10.867  42.316 -15.975  1.00  0.00    -0.010 C 
HETATM    3  C3  UNL     1      -9.602  42.523 -15.069  1.00  0.00     0.009 C 
HETATM    4  C4  UNL     1      -8.719  43.753 -15.427  1.00  0.00     0.039 C 
HETATM    5  C5  UNL     1      -8.713  44.013 -16.910  1.00  0.00    -0.049 C 
HETATM    6  C6  UNL     1      -7.646  44.587 -17.593  1.00  0.00     0.044 C 
HETATM    7  C7  UNL     1      -7.751  44.717 -18.972  1.00  0.00     0.072 C 
HETATM    8  C8  UNL     1      -8.746  44.048 -19.685  1.00  0.00     0.037 C 
HETATM    9  C9  UNL     1      -9.863  43.600 -18.995  1.00  0.00     0.011 C 
HETATM   10  C10 UNL     1      -9.904  43.750 -17.610  1.00  0.00    -0.047 C 
HETATM   11  C11 UNL     1     -11.157  43.632 -16.736  1.00  0.00     0.024 C 
HETATM   12  C12 UNL     1     -12.482  43.843 -17.503  1.00  0.00     0.033 C 
HETATM   13  C13 UNL     1     -13.587  44.765 -16.914  1.00  0.00     0.139 C 
HETATM   14  C14 UNL     1     -14.166  45.851 -17.881  1.00  0.00     0.038 C 
HETATM   15  C15 UNL     1     -15.199  45.310 -18.872  1.00  0.00    -0.014 C 
HETATM   16  C16 UNL     1     -16.032  46.204 -19.452  1.00  0.00    -0.050 C 
HETATM   17  C17 UNL     1     -15.743  47.668 -19.175  1.00  0.00     0.042 C 
HETATM   18  C18 UNL     1     -14.274  47.867 -19.605  1.00  0.00     0.001 C 
HETATM   19  C19 UNL     1     -14.075  47.489 -21.125  1.00  0.00     0.038 C 
HETATM   20  C20 UNL     1     -15.335  47.339 -22.019  1.00  0.00     0.130 C 
HETATM   21  O4  UNL     1     -15.865  46.042 -21.730  1.00  0.00    -0.371 OA
HETATM   22  C21 UNL     1     -16.852  46.000 -20.693  1.00  0.00     0.185 C 
HETATM   23  C22 UNL     1     -17.719  44.771 -20.931  1.00  0.00    -0.006 A 
HETATM   24  C23 UNL     1     -18.120  43.926 -19.886  1.00  0.00     0.014 A 
HETATM   25  C24 UNL     1     -18.966  42.841 -20.137  1.00  0.00     0.037 A 
HETATM   26  C25 UNL     1     -19.431  42.600 -21.426  1.00  0.00     0.067 A 
HETATM   27  C26 UNL     1     -19.077  43.433 -22.483  1.00  0.00     0.057 A 
HETATM   28  C27 UNL     1     -18.236  44.520 -22.240  1.00  0.00     0.029 A 
HETATM   29  C28 UNL     1     -17.877  45.394 -23.332  1.00  0.00    -0.066 C 
HETATM   30  C29 UNL     1     -17.316  46.236 -23.982  1.00  0.00    -0.101 C 
HETATM   31  C30 UNL     1     -16.393  47.316 -24.392  1.00  0.00     0.103 C 
HETATM   32  C31 UNL     1     -15.063  47.353 -23.554  1.00  0.00     0.049 C 
HETATM   33  C33 UNL     1     -13.348  47.088 -18.524  1.00  0.00     0.030 C 
HETATM   34  C34 UNL     1     -11.840  47.062 -18.825  1.00  0.00    -0.050 A 
HETATM   35  C35 UNL     1     -10.940  47.458 -17.823  1.00  0.00     0.006 A 
HETATM   36  C36 UNL     1      -9.544  47.472 -18.012  1.00  0.00     0.010 A 
HETATM   37  C37 UNL     1      -8.960  47.182 -19.254  1.00  0.00    -0.000 A 
HETATM   38  C38 UNL     1      -9.857  46.846 -20.278  1.00  0.00     0.138 A 
HETATM   39  C39 UNL     1     -11.246  46.731 -20.047  1.00  0.00     0.133 A 
HETATM   40  C40 UNL     1      -7.402  47.036 -19.434  1.00  0.00     0.169 C 
HETATM   41  O8  UNL     1      -7.002  45.624 -19.671  1.00  0.00    -0.316 OA
HETATM   42 NA1  UNL     1     -11.947  45.797 -19.337  1.00  0.00    -0.401 Na
ATOM     43  HA1 UNL     1     -12.648  45.222 -18.870  1.00  0.00     0.154 HD
ENDROOT
BRANCH  40  44
HETATM   44  C41 UNL     1      -6.942  47.736 -20.767  1.00  0.00     0.069 C 
BRANCH  44  45
HETATM   45  C42 UNL     1      -5.846  48.810 -20.647  1.00  0.00     0.031 C 
BRANCH  45  46
HETATM   46  C43 UNL     1      -6.315  50.248 -20.793  1.00  0.00     0.164 C 
BRANCH  46  47
HETATM   47  O7  UNL     1      -7.187  50.332 -21.919  1.00  0.00    -0.401 OA
HETATM   48  H46 UNL     1      -7.368  51.279 -22.052  1.00  0.00     0.209 HD
ENDBRANCH  46  47
ENDBRANCH  45  46
ENDBRANCH  44  45
ENDBRANCH  40  44
BRANCH  40  49
HETATM   49  N1  UNL     1      -6.628  47.646 -18.326  1.00  0.00    -0.336 N 
HETATM   50  C44 UNL     1      -5.449  47.311 -17.983  1.00  0.00     0.124 C 
HETATM   51  N2  UNL     1      -4.866  47.939 -16.935  1.00  0.00    -0.279 NA
HETATM   52  N3  UNL     1      -4.591  46.390 -18.474  1.00  0.00    -0.279 NA
HETATM   53  H47 UNL     1      -4.425  47.298 -16.289  1.00  0.00     0.126 HD
HETATM   54  H48 UNL     1      -5.536  48.542 -16.469  1.00  0.00     0.126 HD
HETATM   55  H49 UNL     1      -3.637  46.738 -18.464  1.00  0.00     0.126 HD
HETATM   56  H50 UNL     1      -4.812  46.089 -19.419  1.00  0.00     0.126 HD
ATOM     57  H1  UNL     1      -7.077  48.394 -17.797  1.00  0.00     0.165 HD
ENDBRANCH  40  49
BRANCH  13  58
HETATM   58  S1  UNL     1     -13.431  45.427 -15.234  1.00  0.00     0.106 S 
HETATM   59  O1  UNL     1     -13.902  44.355 -14.366  1.00  0.00    -0.595 OA
HETATM   60  O2  UNL     1     -12.021  45.757 -15.080  1.00  0.00    -0.595 OA
HETATM   61  O3  UNL     1     -14.315  46.593 -15.231  1.00  0.00    -0.595 OA
ENDBRANCH  13  58
BRANCH  32  62
HETATM   62  C32 UNL     1     -14.128  46.219 -24.002  1.00  0.00     0.172 C 
BRANCH  62  63
HETATM   63  O6  UNL     1     -13.948  46.269 -25.419  1.00  0.00    -0.400 OA
HETATM   64  H34 UNL     1     -13.354  47.016 -25.605  1.00  0.00     0.209 HD
ENDBRANCH  62  63
ENDBRANCH  32  62
BRANCH  26  65
HETATM   65  O5  UNL     1     -20.253  41.527 -21.614  1.00  0.00    -0.361 OA
HETATM   66  H27 UNL     1     -20.475  41.475 -22.558  1.00  0.00     0.217 HD
ENDBRANCH  26  65
TORSDOF 9
ENDMDL
MODEL 3
REMARK minimizedAffinity -7.19327974
REMARK CNNscore 0.209170789
REMARK CNNaffinity 6.0786109
REMARK  9 active torsions:
REMARK  status: ('A' for Active; 'I' for Inactive)
REMARK    1  A    between atoms: C13_13  and  S1_14 
REMARK    2  A    between atoms: C25_30  and  O5_31 
REMARK    3  A    between atoms: C31_37  and  C32_38 
REMARK    4  A    between atoms: C32_38  and  O6_39 
REMARK    5  A    between atoms: C40_47  and  C41_48 
REMARK    6  A    between atoms: C40_47  and  N1_52 
REMARK    7  A    between atoms: C41_48  and  C42_49 
REMARK    8  A    between atoms: C42_49  and  C43_50 
REMARK    9  A    between atoms: C43_50  and  O7_51 
REMARK       I    between atoms: C44_54  and  N2_55 
REMARK       I    between atoms: C44_54  and  N3_56 
ROOT
HETATM    1  C1  UNL     1     -12.484  44.997 -20.832  1.00  0.00     0.010 C 
HETATM    2  C2  UNL     1     -11.732  44.617 -22.103  1.00  0.00    -0.010 C 
HETATM    3  C3  UNL     1     -10.352  45.360 -22.181  1.00  0.00     0.009 C 
HETATM    4  C4  UNL     1      -9.848  45.681 -23.618  1.00  0.00     0.039 C 
HETATM    5  C5  UNL     1     -10.257  44.612 -24.596  1.00  0.00    -0.049 C 
HETATM    6  C6  UNL     1      -9.527  44.278 -25.731  1.00  0.00     0.044 C 
HETATM    7  C7  UNL     1      -9.989  43.231 -26.518  1.00  0.00     0.072 C 
HETATM    8  C8  UNL     1     -10.974  42.360 -26.051  1.00  0.00     0.037 C 
HETATM    9  C9  UNL     1     -11.775  42.775 -24.998  1.00  0.00     0.011 C 
HETATM   10  C10 UNL     1     -11.506  43.998 -24.388  1.00  0.00    -0.047 C 
HETATM   11  C11 UNL     1     -12.457  44.764 -23.462  1.00  0.00     0.024 C 
HETATM   12  C12 UNL     1     -13.944  44.376 -23.627  1.00  0.00     0.033 C 
HETATM   13  C13 UNL     1     -15.032  45.482 -23.726  1.00  0.00     0.139 C 
HETATM   14  C14 UNL     1     -16.035  45.357 -24.921  1.00  0.00     0.038 C 
HETATM   15  C15 UNL     1     -17.150  44.333 -24.689  1.00  0.00    -0.014 C 
HETATM   16  C16 UNL     1     -18.261  44.440 -25.453  1.00  0.00    -0.050 C 
HETATM   17  C17 UNL     1     -18.212  45.469 -26.569  1.00  0.00     0.042 C 
HETATM   18  C18 UNL     1     -16.963  45.094 -27.395  1.00  0.00     0.001 C 
HETATM   19  C19 UNL     1     -17.070  43.615 -27.940  1.00  0.00     0.038 C 
HETATM   20  C20 UNL     1     -18.455  42.914 -27.902  1.00  0.00     0.130 C 
HETATM   21  O4  UNL     1     -18.627  42.466 -26.554  1.00  0.00    -0.371 OA
HETATM   22  C21 UNL     1     -19.302  43.383 -25.685  1.00  0.00     0.185 C 
HETATM   23  C22 UNL     1     -19.936  42.573 -24.563  1.00  0.00    -0.006 A 
HETATM   24  C23 UNL     1     -19.893  42.988 -23.224  1.00  0.00     0.014 A 
HETATM   25  C24 UNL     1     -20.540  42.247 -22.230  1.00  0.00     0.037 A 
HETATM   26  C25 UNL     1     -21.247  41.098 -22.564  1.00  0.00     0.067 A 
HETATM   27  C26 UNL     1     -21.337  40.670 -23.885  1.00  0.00     0.057 A 
HETATM   28  C27 UNL     1     -20.697  41.406 -24.884  1.00  0.00     0.029 A 
HETATM   29  C28 UNL     1     -20.798  40.972 -26.257  1.00  0.00    -0.066 C 
HETATM   30  C29 UNL     1     -20.593  40.863 -27.437  1.00  0.00    -0.101 C 
HETATM   31  C30 UNL     1     -20.034  41.053 -28.793  1.00  0.00     0.103 C 
HETATM   32  C31 UNL     1     -18.575  41.638 -28.791  1.00  0.00     0.049 C 
HETATM   33  C33 UNL     1     -15.665  45.454 -26.491  1.00  0.00     0.030 C 
HETATM   34  C34 UNL     1     -14.302  45.053 -27.082  1.00  0.00    -0.050 A 
HETATM   35  C35 UNL     1     -13.283  46.015 -27.152  1.00  0.00     0.006 A 
HETATM   36  C36 UNL     1     -12.007  45.740 -27.683  1.00  0.00     0.010 A 
HETATM   37  C37 UNL     1     -11.699  44.504 -28.271  1.00  0.00    -0.000 A 
HETATM   38  C38 UNL     1     -12.733  43.558 -28.262  1.00  0.00     0.138 A 
HETATM   39  C39 UNL     1     -13.971  43.810 -27.630  1.00  0.00     0.133 A 
HETATM   40  C40 UNL     1     -10.235  44.131 -28.718  1.00  0.00     0.169 C 
HETATM   41  O8  UNL     1      -9.631  43.102 -27.832  1.00  0.00    -0.316 OA
HETATM   42 NA1  UNL     1     -14.276  43.928 -26.302  1.00  0.00    -0.401 Na
ATOM     43  HA1 UNL     1     -14.712  44.050 -25.389  1.00  0.00     0.154 HD
ENDROOT
BRANCH  40  44
HETATM   44  C41 UNL     1     -10.265  43.392 -30.108  1.00  0.00     0.069 C 
BRANCH  44  45
HETATM   45  C42 UNL     1     -10.931  44.137 -31.278  1.00  0.00     0.031 C 
BRANCH  45  46
HETATM   46  C43 UNL     1      -9.985  44.865 -32.219  1.00  0.00     0.164 C 
BRANCH  46  47
HETATM   47  O7  UNL     1     -10.264  46.263 -32.157  1.00  0.00    -0.401 OA
HETATM   48  H46 UNL     1      -9.728  46.677 -32.855  1.00  0.00     0.209 HD
ENDBRANCH  46  47
ENDBRANCH  45  46
ENDBRANCH  44  45
ENDBRANCH  40  44
BRANCH  40  49
HETATM   49  N1  UNL     1      -9.352  45.313 -28.867  1.00  0.00    -0.336 N 
HETATM   50  C44 UNL     1      -8.081  45.276 -28.932  1.00  0.00     0.124 C 
HETATM   51  N2  UNL     1      -7.395  46.437 -29.046  1.00  0.00    -0.279 NA
HETATM   52  N3  UNL     1      -7.203  44.249 -28.905  1.00  0.00    -0.279 NA
HETATM   53  H47 UNL     1      -6.608  46.492 -28.413  1.00  0.00     0.126 HD
HETATM   54  H48 UNL     1      -8.021  47.228 -28.938  1.00  0.00     0.126 HD
HETATM   55  H49 UNL     1      -6.436  44.409 -29.550  1.00  0.00     0.126 HD
HETATM   56  H50 UNL     1      -7.622  43.349 -29.121  1.00  0.00     0.126 HD
ATOM     57  H1  UNL     1      -9.799  46.228 -28.920  1.00  0.00     0.165 HD
ENDBRANCH  40  49
BRANCH  13  58
HETATM   58  S1  UNL     1     -14.606  47.219 -23.432  1.00  0.00     0.106 S 
HETATM   59  O1  UNL     1     -15.587  47.977 -24.198  1.00  0.00    -0.595 OA
HETATM   60  O2  UNL     1     -14.692  47.398 -21.989  1.00  0.00    -0.595 OA
HETATM   61  O3  UNL     1     -13.248  47.343 -23.963  1.00  0.00    -0.595 OA
ENDBRANCH  13  58
BRANCH  32  62
HETATM   62  C32 UNL     1     -17.571  40.544 -28.398  1.00  0.00     0.172 C 
BRANCH  62  63
HETATM   63  O6  UNL     1     -16.291  41.127 -28.146  1.00  0.00    -0.400 OA
HETATM   64  H34 UNL     1     -16.346  41.576 -27.285  1.00  0.00     0.209 HD
ENDBRANCH  62  63
ENDBRANCH  32  62
BRANCH  26  65
HETATM   65  O5  UNL     1     -21.859  40.413 -21.555  1.00  0.00    -0.361 OA
HETATM   66  H27 UNL     1     -22.289  39.630 -21.935  1.00  0.00     0.217 HD
ENDBRANCH  26  65
TORSDOF 9
ENDMDL
MODEL 4
REMARK minimizedAffinity -6.95206738
REMARK CNNscore 0.14617607
REMARK CNNaffinity 6.40910006
REMARK  9 active torsions:
REMARK  status: ('A' for Active; 'I' for Inactive)
REMARK    1  A    between atoms: C13_13  and  S1_14 
REMARK    2  A    between atoms: C25_30  and  O5_31 
REMARK    3  A    between atoms: C31_37  and  C32_38 
REMARK    4  A    between atoms: C32_38  and  O6_39 
REMARK    5  A    between atoms: C40_47  and  C41_48 
REMARK    6  A    between atoms: C40_47  and  N1_52 
REMARK    7  A    between atoms: C41_48  and  C42_49 
REMARK    8  A    between atoms: C42_49  and  C43_50 
REMARK    9  A    between atoms: C43_50  and  O7_51 
REMARK       I    between atoms: C44_54  and  N2_55 
REMARK       I    between atoms: C44_54  and  N3_56 
ROOT
HETATM    1  C1  UNL     1       6.479  49.054  -9.460  1.00  0.00     0.010 C 
HETATM    2  C2  UNL     1       6.531  50.524  -9.058  1.00  0.00    -0.010 C 
HETATM    3  C3  UNL     1       7.754  50.804  -8.116  1.00  0.00     0.009 C 
HETATM    4  C4  UNL     1       7.549  51.945  -7.078  1.00  0.00     0.039 C 
HETATM    5  C5  UNL     1       6.675  53.039  -7.629  1.00  0.00    -0.049 C 
HETATM    6  C6  UNL     1       6.774  54.374  -7.254  1.00  0.00     0.044 C 
HETATM    7  C7  UNL     1       5.943  55.291  -7.885  1.00  0.00     0.072 C 
HETATM    8  C8  UNL     1       5.242  54.950  -9.042  1.00  0.00     0.037 C 
HETATM    9  C9  UNL     1       5.047  53.606  -9.323  1.00  0.00     0.011 C 
HETATM   10  C10 UNL     1       5.635  52.653  -8.494  1.00  0.00    -0.047 C 
HETATM   11  C11 UNL     1       5.267  51.166  -8.441  1.00  0.00     0.024 C 
HETATM   12  C12 UNL     1       3.855  50.847  -8.983  1.00  0.00     0.033 C 
HETATM   13  C13 UNL     1       2.907  49.907  -8.187  1.00  0.00     0.139 C 
HETATM   14  C14 UNL     1       1.458  50.442  -7.934  1.00  0.00     0.038 C 
HETATM   15  C15 UNL     1       0.526  50.299  -9.140  1.00  0.00    -0.014 C 
HETATM   16  C16 UNL     1      -0.806  50.347  -8.906  1.00  0.00    -0.050 C 
HETATM   17  C17 UNL     1      -1.225  50.699  -7.490  1.00  0.00     0.042 C 
HETATM   18  C18 UNL     1      -0.527  52.043  -7.195  1.00  0.00     0.001 C 
HETATM   19  C19 UNL     1      -0.955  53.144  -8.244  1.00  0.00     0.038 C 
HETATM   20  C20 UNL     1      -2.198  52.872  -9.132  1.00  0.00     0.130 C 
HETATM   21  O4  UNL     1      -1.748  52.003 -10.176  1.00  0.00    -0.371 OA
HETATM   22  C21 UNL     1      -1.890  50.602  -9.912  1.00  0.00     0.185 C 
HETATM   23  C22 UNL     1      -1.972  49.887 -11.254  1.00  0.00    -0.006 A 
HETATM   24  C23 UNL     1      -1.288  48.688 -11.505  1.00  0.00     0.014 A 
HETATM   25  C24 UNL     1      -1.438  48.029 -12.729  1.00  0.00     0.037 A 
HETATM   26  C25 UNL     1      -2.281  48.550 -13.705  1.00  0.00     0.067 A 
HETATM   27  C26 UNL     1      -2.997  49.722 -13.482  1.00  0.00     0.057 A 
HETATM   28  C27 UNL     1      -2.857  50.384 -12.260  1.00  0.00     0.029 A 
HETATM   29  C28 UNL     1      -3.608  51.593 -12.021  1.00  0.00    -0.066 C 
HETATM   30  C29 UNL     1      -3.982  52.625 -11.530  1.00  0.00    -0.101 C 
HETATM   31  C30 UNL     1      -4.108  53.794 -10.633  1.00  0.00     0.103 C 
HETATM   32  C31 UNL     1      -2.787  54.125  -9.849  1.00  0.00     0.049 C 
HETATM   33  C33 UNL     1       1.061  51.738  -7.054  1.00  0.00     0.030 C 
HETATM   34  C34 UNL     1       1.968  52.966  -6.868  1.00  0.00    -0.050 A 
HETATM   35  C35 UNL     1       2.888  52.976  -5.808  1.00  0.00     0.006 A 
HETATM   36  C36 UNL     1       3.753  54.059  -5.558  1.00  0.00     0.010 A 
HETATM   37  C37 UNL     1       3.685  55.250  -6.297  1.00  0.00    -0.000 A 
HETATM   38  C38 UNL     1       2.725  55.271  -7.319  1.00  0.00     0.138 A 
HETATM   39  C39 UNL     1       1.938  54.139  -7.628  1.00  0.00     0.133 A 
HETATM   40  C40 UNL     1       4.751  56.399  -6.135  1.00  0.00     0.169 C 
HETATM   41  O8  UNL     1       5.641  56.501  -7.321  1.00  0.00    -0.316 OA
HETATM   42 NA1  UNL     1       2.293  52.948  -8.197  1.00  0.00    -0.401 Na
ATOM     43  HA1 UNL     1       2.339  52.011  -8.597  1.00  0.00     0.154 HD
ENDROOT
BRANCH  40  44
HETATM   44  C41 UNL     1       4.038  57.803  -6.138  1.00  0.00     0.069 C 
BRANCH  44  45
HETATM   45  C42 UNL     1       2.670  57.890  -5.437  1.00  0.00     0.031 C 
BRANCH  45  46
HETATM   46  C43 UNL     1       2.688  58.455  -4.026  1.00  0.00     0.164 C 
BRANCH  46  47
HETATM   47  O7  UNL     1       1.455  58.128  -3.388  1.00  0.00    -0.401 OA
HETATM   48  H46 UNL     1       1.454  58.605  -2.540  1.00  0.00     0.209 HD
ENDBRANCH  46  47
ENDBRANCH  45  46
ENDBRANCH  44  45
ENDBRANCH  40  44
BRANCH  40  49
HETATM   49  N1  UNL     1       5.525  56.301  -4.875  1.00  0.00    -0.336 N 
HETATM   50  C44 UNL     1       6.625  56.900  -4.640  1.00  0.00     0.124 C 
HETATM   51  N2  UNL     1       7.239  56.704  -3.451  1.00  0.00    -0.279 NA
HETATM   52  N3  UNL     1       7.369  57.748  -5.383  1.00  0.00    -0.279 NA
HETATM   53  H47 UNL     1       8.229  56.520  -3.545  1.00  0.00     0.126 HD
HETATM   54  H48 UNL     1       6.769  55.972  -2.928  1.00  0.00     0.126 HD
HETATM   55  H49 UNL     1       7.767  58.484  -4.808  1.00  0.00     0.126 HD
HETATM   56  H50 UNL     1       6.855  58.180  -6.146  1.00  0.00     0.126 HD
ATOM     57  H1  UNL     1       5.148  55.708  -4.137  1.00  0.00     0.165 HD
ENDBRANCH  40  49
BRANCH  13  58
HETATM   58  S1  UNL     1       3.514  49.004  -6.738  1.00  0.00     0.106 S 
HETATM   59  O1  UNL     1       2.313  48.617  -6.010  1.00  0.00    -0.595 OA
HETATM   60  O2  UNL     1       4.285  47.890  -7.273  1.00  0.00    -0.595 OA
HETATM   61  O3  UNL     1       4.323  49.991  -6.021  1.00  0.00    -0.595 OA
ENDBRANCH  13  58
BRANCH  32  62
HETATM   62  C32 UNL     1      -1.776  54.802 -10.787  1.00  0.00     0.172 C 
BRANCH  62  63
HETATM   63  O6  UNL     1      -0.960  53.814 -11.417  1.00  0.00    -0.400 OA
HETATM   64  H34 UNL     1      -1.506  53.382 -12.096  1.00  0.00     0.209 HD
ENDBRANCH  62  63
ENDBRANCH  32  62
BRANCH  26  65
HETATM   65  O5  UNL     1      -2.388  47.868 -14.881  1.00  0.00    -0.361 OA
HETATM   66  H27 UNL     1      -2.988  48.360 -15.466  1.00  0.00     0.217 HD
ENDBRANCH  26  65
TORSDOF 9
ENDMDL
MODEL 5
REMARK minimizedAffinity -9.04003811
REMARK CNNscore 0.132544279
REMARK CNNaffinity 6.70168686
REMARK  9 active torsions:
REMARK  status: ('A' for Active; 'I' for Inactive)
REMARK    1  A    between atoms: C13_13  and  S1_14 
REMARK    2  A    between atoms: C25_30  and  O5_31 
REMARK    3  A    between atoms: C31_37  and  C32_38 
REMARK    4  A    between atoms: C32_38  and  O6_39 
REMARK    5  A    between atoms: C40_47  and  C41_48 
REMARK    6  A    between atoms: C40_47  and  N1_52 
REMARK    7  A    between atoms: C41_48  and  C42_49 
REMARK    8  A    between atoms: C42_49  and  C43_50 
REMARK    9  A    between atoms: C43_50  and  O7_51 
REMARK       I    between atoms: C44_54  and  N2_55 
REMARK       I    between atoms: C44_54  and  N3_56 
ROOT
HETATM    1  C1  UNL     1      -9.475  47.050 -28.781  1.00  0.00     0.010 C 
HETATM    2  C2  UNL     1      -8.635  47.605 -27.636  1.00  0.00    -0.010 C 
HETATM    3  C3  UNL     1      -7.106  47.548 -27.982  1.00  0.00     0.009 C 
HETATM    4  C4  UNL     1      -6.153  47.353 -26.767  1.00  0.00     0.039 C 
HETATM    5  C5  UNL     1      -6.687  48.033 -25.535  1.00  0.00    -0.049 C 
HETATM    6  C6  UNL     1      -5.884  48.549 -24.524  1.00  0.00     0.044 C 
HETATM    7  C7  UNL     1      -6.506  49.204 -23.468  1.00  0.00     0.072 C 
HETATM    8  C8  UNL     1      -7.846  49.586 -23.548  1.00  0.00     0.037 C 
HETATM    9  C9  UNL     1      -8.656  48.959 -24.482  1.00  0.00     0.011 C 
HETATM   10  C10 UNL     1      -8.084  48.045 -25.365  1.00  0.00    -0.047 C 
HETATM   11  C11 UNL     1      -8.848  47.026 -26.216  1.00  0.00     0.024 C 
HETATM   12  C12 UNL     1     -10.262  46.695 -25.686  1.00  0.00     0.033 C 
HETATM   13  C13 UNL     1     -10.735  45.217 -25.595  1.00  0.00     0.139 C 
HETATM   14  C14 UNL     1     -11.346  44.773 -24.224  1.00  0.00     0.038 C 
HETATM   15  C15 UNL     1     -12.799  45.211 -24.021  1.00  0.00    -0.014 C 
HETATM   16  C16 UNL     1     -13.524  44.552 -23.089  1.00  0.00    -0.050 C 
HETATM   17  C17 UNL     1     -12.765  43.553 -22.233  1.00  0.00     0.042 C 
HETATM   18  C18 UNL     1     -11.608  44.365 -21.614  1.00  0.00     0.001 C 
HETATM   19  C19 UNL     1     -12.160  45.585 -20.775  1.00  0.00     0.038 C 
HETATM   20  C20 UNL     1     -13.666  45.599 -20.397  1.00  0.00     0.130 C 
HETATM   21  O4  UNL     1     -14.356  46.046 -21.567  1.00  0.00    -0.371 OA
HETATM   22  C21 UNL     1     -14.802  45.010 -22.450  1.00  0.00     0.185 C 
HETATM   23  C22 UNL     1     -15.985  45.555 -23.240  1.00  0.00    -0.006 A 
HETATM   24  C23 UNL     1     -16.132  45.328 -24.616  1.00  0.00     0.014 A 
HETATM   25  C24 UNL     1     -17.263  45.793 -25.294  1.00  0.00     0.037 A 
HETATM   26  C25 UNL     1     -18.262  46.473 -24.604  1.00  0.00     0.067 A 
HETATM   27  C26 UNL     1     -18.164  46.692 -23.233  1.00  0.00     0.057 A 
HETATM   28  C27 UNL     1     -17.040  46.227 -22.549  1.00  0.00     0.029 A 
HETATM   29  C28 UNL     1     -16.941  46.441 -21.125  1.00  0.00    -0.066 C 
HETATM   30  C29 UNL     1     -16.493  46.519 -20.011  1.00  0.00    -0.101 C 
HETATM   31  C30 UNL     1     -15.568  46.473 -18.859  1.00  0.00     0.103 C 
HETATM   32  C31 UNL     1     -14.055  46.599 -19.266  1.00  0.00     0.049 C 
HETATM   33  C33 UNL     1     -10.566  44.705 -22.810  1.00  0.00     0.030 C 
HETATM   34  C34 UNL     1      -9.382  45.613 -22.433  1.00  0.00    -0.050 A 
HETATM   35  C35 UNL     1      -8.081  45.201 -22.760  1.00  0.00     0.006 A 
HETATM   36  C36 UNL     1      -6.938  45.963 -22.449  1.00  0.00     0.010 A 
HETATM   37  C37 UNL     1      -7.016  47.147 -21.700  1.00  0.00    -0.000 A 
HETATM   38  C38 UNL     1      -8.308  47.533 -21.316  1.00  0.00     0.138 A 
HETATM   39  C39 UNL     1      -9.455  46.816 -21.726  1.00  0.00     0.133 A 
HETATM   40  C40 UNL     1      -5.771  48.088 -21.487  1.00  0.00     0.169 C 
HETATM   41  O8  UNL     1      -5.898  49.356 -22.253  1.00  0.00    -0.316 OA
HETATM   42 NA1  UNL     1     -10.025  46.699 -22.963  1.00  0.00    -0.401 Na
ATOM     43  HA1 UNL     1     -10.599  46.481 -23.778  1.00  0.00     0.154 HD
ENDROOT
BRANCH  40  44
HETATM   44  C41 UNL     1      -5.730  48.604 -20.001  1.00  0.00     0.069 C 
BRANCH  44  45
HETATM   45  C42 UNL     1      -7.054  49.113 -19.404  1.00  0.00     0.031 C 
BRANCH  45  46
HETATM   46  C43 UNL     1      -7.395  48.591 -18.018  1.00  0.00     0.164 C 
BRANCH  46  47
HETATM   47  O7  UNL     1      -8.555  49.273 -17.545  1.00  0.00    -0.401 OA
HETATM   48  H46 UNL     1      -8.670  49.003 -16.618  1.00  0.00     0.209 HD
ENDBRANCH  46  47
ENDBRANCH  45  46
ENDBRANCH  44  45
ENDBRANCH  40  44
BRANCH  40  49
HETATM   49  N1  UNL     1      -4.478  47.413 -21.755  1.00  0.00    -0.336 N 
HETATM   50  C44 UNL     1      -3.359  48.002 -21.899  1.00  0.00     0.124 C 
HETATM   51  N2  UNL     1      -2.256  47.263 -22.162  1.00  0.00    -0.279 NA
HETATM   52  N3  UNL     1      -3.009  49.306 -21.846  1.00  0.00    -0.279 NA
HETATM   53  H47 UNL     1      -1.698  47.643 -22.915  1.00  0.00     0.126 HD
HETATM   54  H48 UNL     1      -2.513  46.297 -22.335  1.00  0.00     0.126 HD
HETATM   55  H49 UNL     1      -2.109  49.425 -21.392  1.00  0.00     0.126 HD
HETATM   56  H50 UNL     1      -3.689  49.892 -21.370  1.00  0.00     0.126 HD
ATOM     57  H1  UNL     1      -4.487  46.396 -21.830  1.00  0.00     0.165 HD
ENDBRANCH  40  49
BRANCH  13  58
HETATM   58  S1  UNL     1      -9.733  43.886 -26.307  1.00  0.00     0.106 S 
HETATM   59  O1  UNL     1     -10.004  43.940 -27.737  1.00  0.00    -0.595 OA
HETATM   60  O2  UNL     1      -8.359  44.199 -25.937  1.00  0.00    -0.595 OA
HETATM   61  O3  UNL     1     -10.253  42.674 -25.672  1.00  0.00    -0.595 OA
ENDBRANCH  13  58
BRANCH  32  62
HETATM   62  C32 UNL     1     -13.728  48.057 -19.625  1.00  0.00     0.172 C 
BRANCH  62  63
HETATM   63  O6  UNL     1     -14.111  48.323 -20.975  1.00  0.00    -0.400 OA
HETATM   64  H34 UNL     1     -15.080  48.395 -20.989  1.00  0.00     0.209 HD
ENDBRANCH  62  63
ENDBRANCH  32  62
BRANCH  26  65
HETATM   65  O5  UNL     1     -19.343  46.905 -25.315  1.00  0.00    -0.361 OA
HETATM   66  H27 UNL     1     -19.938  47.377 -24.710  1.00  0.00     0.217 HD
ENDBRANCH  26  65
TORSDOF 9
ENDMDL
MODEL 6
REMARK minimizedAffinity -9.3272047
REMARK CNNscore 0.130301043
REMARK CNNaffinity 6.04621887
REMARK  9 active torsions:
REMARK  status: ('A' for Active; 'I' for Inactive)
REMARK    1  A    between atoms: C13_13  and  S1_14 
REMARK    2  A    between atoms: C25_30  and  O5_31 
REMARK    3  A    between atoms: C31_37  and  C32_38 
REMARK    4  A    between atoms: C32_38  and  O6_39 
REMARK    5  A    between atoms: C40_47  and  C41_48 
REMARK    6  A    between atoms: C40_47  and  N1_52 
REMARK    7  A    between atoms: C41_48  and  C42_49 
REMARK    8  A    between atoms: C42_49  and  C43_50 
REMARK    9  A    between atoms: C43_50  and  O7_51 
REMARK       I    between atoms: C44_54  and  N2_55 
REMARK       I    between atoms: C44_54  and  N3_56 
ROOT
HETATM    1  C1  UNL     1     -16.010  44.686 -23.911  1.00  0.00     0.010 C 
HETATM    2  C2  UNL     1     -15.434  45.256 -25.203  1.00  0.00    -0.010 C 
HETATM    3  C3  UNL     1     -16.166  44.657 -26.455  1.00  0.00     0.009 C 
HETATM    4  C4  UNL     1     -15.294  44.525 -27.738  1.00  0.00     0.039 C 
HETATM    5  C5  UNL     1     -14.287  45.641 -27.835  1.00  0.00    -0.049 C 
HETATM    6  C6  UNL     1     -13.808  46.149 -29.037  1.00  0.00     0.044 C 
HETATM    7  C7  UNL     1     -12.923  47.220 -28.984  1.00  0.00     0.072 C 
HETATM    8  C8  UNL     1     -12.740  47.944 -27.806  1.00  0.00     0.037 C 
HETATM    9  C9  UNL     1     -13.111  47.357 -26.606  1.00  0.00     0.011 C 
HETATM   10  C10 UNL     1     -13.735  46.111 -26.630  1.00  0.00    -0.047 C 
HETATM   11  C11 UNL     1     -13.905  45.173 -25.430  1.00  0.00     0.024 C 
HETATM   12  C12 UNL     1     -12.906  45.433 -24.281  1.00  0.00     0.033 C 
HETATM   13  C13 UNL     1     -12.160  44.244 -23.611  1.00  0.00     0.139 C 
HETATM   14  C14 UNL     1     -10.607  44.389 -23.484  1.00  0.00     0.038 C 
HETATM   15  C15 UNL     1     -10.161  45.276 -22.318  1.00  0.00    -0.014 C 
HETATM   16  C16 UNL     1      -8.888  45.139 -21.883  1.00  0.00    -0.050 C 
HETATM   17  C17 UNL     1      -7.992  44.232 -22.708  1.00  0.00     0.042 C 
HETATM   18  C18 UNL     1      -8.068  44.801 -24.141  1.00  0.00     0.001 C 
HETATM   19  C19 UNL     1      -7.598  46.309 -24.175  1.00  0.00     0.038 C 
HETATM   20  C20 UNL     1      -6.829  46.870 -22.948  1.00  0.00     0.130 C 
HETATM   21  O4  UNL     1      -7.827  47.167 -21.967  1.00  0.00    -0.371 OA
HETATM   22  C21 UNL     1      -8.112  46.111 -21.042  1.00  0.00     0.185 C 
HETATM   23  C22 UNL     1      -8.664  46.746 -19.773  1.00  0.00    -0.006 A 
HETATM   24  C23 UNL     1      -9.762  46.209 -19.085  1.00  0.00     0.014 A 
HETATM   25  C24 UNL     1     -10.202  46.786 -17.890  1.00  0.00     0.037 A 
HETATM   26  C25 UNL     1      -9.541  47.891 -17.363  1.00  0.00     0.067 A 
HETATM   27  C26 UNL     1      -8.431  48.434 -18.002  1.00  0.00     0.057 A 
HETATM   28  C27 UNL     1      -7.983  47.861 -19.194  1.00  0.00     0.029 A 
HETATM   29  C28 UNL     1      -6.824  48.414 -19.852  1.00  0.00    -0.066 C 
HETATM   30  C29 UNL     1      -5.994  48.655 -20.688  1.00  0.00    -0.101 C 
HETATM   31  C30 UNL     1      -5.223  48.651 -21.950  1.00  0.00     0.103 C 
HETATM   32  C31 UNL     1      -6.069  48.208 -23.198  1.00  0.00     0.049 C 
HETATM   33  C33 UNL     1      -9.554  44.480 -24.706  1.00  0.00     0.030 C 
HETATM   34  C34 UNL     1      -9.887  45.062 -26.091  1.00  0.00    -0.050 A 
HETATM   35  C35 UNL     1     -10.409  44.211 -27.078  1.00  0.00     0.006 A 
HETATM   36  C36 UNL     1     -10.737  44.655 -28.374  1.00  0.00     0.010 A 
HETATM   37  C37 UNL     1     -10.471  45.965 -28.799  1.00  0.00    -0.000 A 
HETATM   38  C38 UNL     1      -9.892  46.805 -27.837  1.00  0.00     0.138 A 
HETATM   39  C39 UNL     1      -9.668  46.378 -26.509  1.00  0.00     0.133 A 
HETATM   40  C40 UNL     1     -10.980  46.517 -30.184  1.00  0.00     0.169 C 
HETATM   41  O8  UNL     1     -12.075  47.508 -30.018  1.00  0.00    -0.316 OA
HETATM   42 NA1  UNL     1     -10.559  46.104 -25.509  1.00  0.00    -0.401 Na
ATOM     43  HA1 UNL     1     -11.037  45.854 -24.644  1.00  0.00     0.154 HD
ENDROOT
BRANCH  40  44
HETATM   44  C41 UNL     1      -9.856  47.380 -30.869  1.00  0.00     0.069 C 
BRANCH  44  45
HETATM   45  C42 UNL     1      -9.771  48.861 -30.462  1.00  0.00     0.031 C 
BRANCH  45  46
HETATM   46  C43 UNL     1      -8.491  49.581 -30.858  1.00  0.00     0.164 C 
BRANCH  46  47
HETATM   47  O7  UNL     1      -8.728  50.987 -30.818  1.00  0.00    -0.401 OA
HETATM   48  H46 UNL     1      -7.933  51.406 -31.191  1.00  0.00     0.209 HD
ENDBRANCH  46  47
ENDBRANCH  45  46
ENDBRANCH  44  45
ENDBRANCH  40  44
BRANCH  40  49
HETATM   49  N1  UNL     1     -11.352  45.443 -31.137  1.00  0.00    -0.336 N 
HETATM   50  C44 UNL     1     -10.531  44.687 -31.749  1.00  0.00     0.124 C 
HETATM   51  N2  UNL     1     -11.008  43.759 -32.610  1.00  0.00    -0.279 NA
HETATM   52  N3  UNL     1      -9.182  44.611 -31.726  1.00  0.00    -0.279 NA
HETATM   53  H47 UNL     1     -10.511  43.747 -33.490  1.00  0.00     0.126 HD
HETATM   54  H48 UNL     1     -12.006  43.882 -32.743  1.00  0.00     0.126 HD
HETATM   55  H49 UNL     1      -8.870  43.646 -31.769  1.00  0.00     0.126 HD
HETATM   56  H50 UNL     1      -8.762  45.047 -30.909  1.00  0.00     0.126 HD
ATOM     57  H1  UNL     1     -12.346  45.298 -31.316  1.00  0.00     0.165 HD
ENDBRANCH  40  49
BRANCH  13  58
HETATM   58  S1  UNL     1     -12.609  42.535 -24.014  1.00  0.00     0.106 S 
HETATM   59  O1  UNL     1     -11.456  41.742 -23.607  1.00  0.00    -0.595 OA
HETATM   60  O2  UNL     1     -13.826  42.269 -23.259  1.00  0.00    -0.595 OA
HETATM   61  O3  UNL     1     -12.806  42.554 -25.464  1.00  0.00    -0.595 OA
ENDBRANCH  13  58
BRANCH  32  62
HETATM   62  C32 UNL     1      -7.003  49.349 -23.631  1.00  0.00     0.172 C 
BRANCH  62  63
HETATM   63  O6  UNL     1      -6.233  50.442 -24.134  1.00  0.00    -0.400 OA
HETATM   64  H34 UNL     1      -5.914  50.186 -25.016  1.00  0.00     0.209 HD
ENDBRANCH  62  63
ENDBRANCH  32  62
BRANCH  26  65
HETATM   65  O5  UNL     1     -10.012  48.415 -16.195  1.00  0.00    -0.361 OA
HETATM   66  H27 UNL     1      -9.470  49.187 -15.966  1.00  0.00     0.217 HD
ENDBRANCH  26  65
TORSDOF 9
ENDMDL
MODEL 7
REMARK minimizedAffinity -11.1761703
REMARK CNNscore 0.119023196
REMARK CNNaffinity 6.44797659
REMARK  9 active torsions:
REMARK  status: ('A' for Active; 'I' for Inactive)
REMARK    1  A    between atoms: C13_13  and  S1_14 
REMARK    2  A    between atoms: C25_30  and  O5_31 
REMARK    3  A    between atoms: C31_37  and  C32_38 
REMARK    4  A    between atoms: C32_38  and  O6_39 
REMARK    5  A    between atoms: C40_47  and  C41_48 
REMARK    6  A    between atoms: C40_47  and  N1_52 
REMARK    7  A    between atoms: C41_48  and  C42_49 
REMARK    8  A    between atoms: C42_49  and  C43_50 
REMARK    9  A    between atoms: C43_50  and  O7_51 
REMARK       I    between atoms: C44_54  and  N2_55 
REMARK       I    between atoms: C44_54  and  N3_56 
ROOT
HETATM    1  C1  UNL     1      -6.280  46.105 -15.022  1.00  0.00     0.010 C 
HETATM    2  C2  UNL     1      -7.204  46.259 -16.225  1.00  0.00    -0.010 C 
HETATM    3  C3  UNL     1      -8.310  45.146 -16.228  1.00  0.00     0.009 C 
HETATM    4  C4  UNL     1      -8.807  44.702 -17.634  1.00  0.00     0.039 C 
HETATM    5  C5  UNL     1      -8.801  45.852 -18.607  1.00  0.00    -0.049 C 
HETATM    6  C6  UNL     1      -9.681  45.967 -19.677  1.00  0.00     0.044 C 
HETATM    7  C7  UNL     1      -9.605  47.109 -20.464  1.00  0.00     0.072 C 
HETATM    8  C8  UNL     1      -8.883  48.226 -20.041  1.00  0.00     0.037 C 
HETATM    9  C9  UNL     1      -7.918  48.056 -19.060  1.00  0.00     0.011 C 
HETATM   10  C10 UNL     1      -7.773  46.802 -18.469  1.00  0.00    -0.047 C 
HETATM   11  C11 UNL     1      -6.573  46.341 -17.635  1.00  0.00     0.024 C 
HETATM   12  C12 UNL     1      -5.280  47.147 -17.893  1.00  0.00     0.033 C 
HETATM   13  C13 UNL     1      -3.928  46.408 -18.100  1.00  0.00     0.139 C 
HETATM   14  C14 UNL     1      -3.098  46.831 -19.359  1.00  0.00     0.038 C 
HETATM   15  C15 UNL     1      -2.315  48.134 -19.176  1.00  0.00    -0.014 C 
HETATM   16  C16 UNL     1      -1.282  48.362 -20.018  1.00  0.00    -0.050 C 
HETATM   17  C17 UNL     1      -1.115  47.373 -21.158  1.00  0.00     0.042 C 
HETATM   18  C18 UNL     1      -2.477  47.373 -21.882  1.00  0.00     0.001 C 
HETATM   19  C19 UNL     1      -2.846  48.823 -22.389  1.00  0.00     0.038 C 
HETATM   20  C20 UNL     1      -1.727  49.898 -22.428  1.00  0.00     0.130 C 
HETATM   21  O4  UNL     1      -1.591  50.366 -21.083  1.00  0.00    -0.371 OA
HETATM   22  C21 UNL     1      -0.615  49.679 -20.291  1.00  0.00     0.185 C 
HETATM   23  C22 UNL     1      -0.161  50.631 -19.193  1.00  0.00    -0.006 A 
HETATM   24  C23 UNL     1       0.020  50.210 -17.867  1.00  0.00     0.014 A 
HETATM   25  C24 UNL     1       0.497  51.100 -16.899  1.00  0.00     0.037 A 
HETATM   26  C25 UNL     1       0.812  52.409 -17.248  1.00  0.00     0.067 A 
HETATM   27  C26 UNL     1       0.673  52.855 -18.559  1.00  0.00     0.057 A 
HETATM   28  C27 UNL     1       0.201  51.971 -19.532  1.00  0.00     0.029 A 
HETATM   29  C28 UNL     1       0.067  52.427 -20.895  1.00  0.00    -0.066 C 
HETATM   30  C29 UNL     1      -0.249  52.480 -22.054  1.00  0.00    -0.101 C 
HETATM   31  C30 UNL     1      -0.830  52.146 -23.372  1.00  0.00     0.103 C 
HETATM   32  C31 UNL     1      -2.051  51.160 -23.285  1.00  0.00     0.049 C 
HETATM   33  C33 UNL     1      -3.543  46.642 -20.901  1.00  0.00     0.030 C 
HETATM   34  C34 UNL     1      -5.004  46.632 -21.383  1.00  0.00    -0.050 A 
HETATM   35  C35 UNL     1      -5.701  45.414 -21.410  1.00  0.00     0.006 A 
HETATM   36  C36 UNL     1      -7.038  45.309 -21.841  1.00  0.00     0.010 A 
HETATM   37  C37 UNL     1      -7.736  46.405 -22.369  1.00  0.00    -0.000 A 
HETATM   38  C38 UNL     1      -7.025  47.613 -22.404  1.00  0.00     0.138 A 
HETATM   39  C39 UNL     1      -5.722  47.728 -21.869  1.00  0.00     0.133 A 
HETATM   40  C40 UNL     1      -9.275  46.338 -22.701  1.00  0.00     0.169 C 
HETATM   41  O8  UNL     1     -10.083  47.138 -21.745  1.00  0.00    -0.316 OA
HETATM   42 NA1  UNL     1      -5.297  47.694 -20.570  1.00  0.00    -0.401 Na
ATOM     43  HA1 UNL     1      -4.776  47.697 -19.693  1.00  0.00     0.154 HD
ENDROOT
BRANCH  40  44
HETATM   44  C41 UNL     1      -9.566  47.064 -24.067  1.00  0.00     0.069 C 
BRANCH  44  45
HETATM   45  C42 UNL     1      -8.773  48.351 -24.354  1.00  0.00     0.031 C 
BRANCH  45  46
HETATM   46  C43 UNL     1      -8.855  48.871 -25.780  1.00  0.00     0.164 C 
BRANCH  46  47
HETATM   47  O7  UNL     1      -9.647  50.058 -25.788  1.00  0.00    -0.401 OA
HETATM   48  H46 UNL     1      -9.776  50.290 -26.724  1.00  0.00     0.209 HD
ENDBRANCH  46  47
ENDBRANCH  45  46
ENDBRANCH  44  45
ENDBRANCH  40  44
BRANCH  40  49
HETATM   49  N1  UNL     1      -9.784  44.951 -22.822  1.00  0.00    -0.336 N 
HETATM   50  C44 UNL     1      -9.534  44.158 -23.787  1.00  0.00     0.124 C 
HETATM   51  N2  UNL     1     -10.084  42.922 -23.782  1.00  0.00    -0.279 NA
HETATM   52  N3  UNL     1      -8.784  44.300 -24.903  1.00  0.00    -0.279 NA
HETATM   53  H47 UNL     1     -10.492  42.670 -24.672  1.00  0.00     0.126 HD
HETATM   54  H48 UNL     1     -10.753  42.837 -23.024  1.00  0.00     0.126 HD
HETATM   55  H49 UNL     1      -8.286  43.443 -25.118  1.00  0.00     0.126 HD
HETATM   56  H50 UNL     1      -8.110  45.058 -24.848  1.00  0.00     0.126 HD
ATOM     57  H1  UNL     1     -10.383  44.603 -22.073  1.00  0.00     0.165 HD
ENDBRANCH  40  49
BRANCH  13  58
HETATM   58  S1  UNL     1      -3.807  44.621 -17.829  1.00  0.00     0.106 S 
HETATM   59  O1  UNL     1      -2.610  44.448 -17.017  1.00  0.00    -0.595 OA
HETATM   60  O2  UNL     1      -5.050  44.247 -17.167  1.00  0.00    -0.595 OA
HETATM   61  O3  UNL     1      -3.667  44.068 -19.177  1.00  0.00    -0.595 OA
ENDBRANCH  13  58
BRANCH  32  62
HETATM   62  C32 UNL     1      -3.297  51.910 -22.791  1.00  0.00     0.172 C 
BRANCH  62  63
HETATM   63  O6  UNL     1      -4.319  51.863 -23.788  1.00  0.00    -0.400 OA
HETATM   64  H34 UNL     1      -4.689  50.964 -23.777  1.00  0.00     0.209 HD
ENDBRANCH  62  63
ENDBRANCH  32  62
BRANCH  26  65
HETATM   65  O5  UNL     1       1.273  53.234 -16.265  1.00  0.00    -0.361 OA
HETATM   66  H27 UNL     1       1.427  54.112 -16.650  1.00  0.00     0.217 HD
ENDBRANCH  26  65
TORSDOF 9
ENDMDL
MODEL 8
REMARK minimizedAffinity -8.95959282
REMARK CNNscore 0.108717151
REMARK CNNaffinity 5.35628891
REMARK  9 active torsions:
REMARK  status: ('A' for Active; 'I' for Inactive)
REMARK    1  A    between atoms: C13_13  and  S1_14 
REMARK    2  A    between atoms: C25_30  and  O5_31 
REMARK    3  A    between atoms: C31_37  and  C32_38 
REMARK    4  A    between atoms: C32_38  and  O6_39 
REMARK    5  A    between atoms: C40_47  and  C41_48 
REMARK    6  A    between atoms: C40_47  and  N1_52 
REMARK    7  A    between atoms: C41_48  and  C42_49 
REMARK    8  A    between atoms: C42_49  and  C43_50 
REMARK    9  A    between atoms: C43_50  and  O7_51 
REMARK       I    between atoms: C44_54  and  N2_55 
REMARK       I    between atoms: C44_54  and  N3_56 
ROOT
HETATM    1  C1  UNL     1      -9.551  41.200 -21.377  1.00  0.00     0.010 C 
HETATM    2  C2  UNL     1      -9.400  41.705 -22.808  1.00  0.00    -0.010 C 
HETATM    3  C3  UNL     1      -7.887  41.861 -23.191  1.00  0.00     0.009 C 
HETATM    4  C4  UNL     1      -7.571  42.988 -24.216  1.00  0.00     0.039 C 
HETATM    5  C5  UNL     1      -8.688  43.155 -25.212  1.00  0.00    -0.049 C 
HETATM    6  C6  UNL     1      -8.503  43.594 -26.518  1.00  0.00     0.044 C 
HETATM    7  C7  UNL     1      -9.614  43.647 -27.351  1.00  0.00     0.072 C 
HETATM    8  C8  UNL     1     -10.810  43.021 -26.996  1.00  0.00     0.037 C 
HETATM    9  C9  UNL     1     -11.021  42.711 -25.661  1.00  0.00     0.011 C 
HETATM   10  C10 UNL     1      -9.998  42.949 -24.744  1.00  0.00    -0.047 C 
HETATM   11  C11 UNL     1     -10.156  42.991 -23.221  1.00  0.00     0.024 C 
HETATM   12  C12 UNL     1     -11.601  43.263 -22.744  1.00  0.00     0.033 C 
HETATM   13  C13 UNL     1     -11.869  44.309 -21.625  1.00  0.00     0.139 C 
HETATM   14  C14 UNL     1     -12.971  45.378 -21.931  1.00  0.00     0.038 C 
HETATM   15  C15 UNL     1     -14.401  44.864 -21.743  1.00  0.00    -0.014 C 
HETATM   16  C16 UNL     1     -15.378  45.787 -21.586  1.00  0.00    -0.050 C 
HETATM   17  C17 UNL     1     -14.967  47.236 -21.775  1.00  0.00     0.042 C 
HETATM   18  C18 UNL     1     -14.331  47.285 -23.180  1.00  0.00     0.001 C 
HETATM   19  C19 UNL     1     -15.355  46.798 -24.280  1.00  0.00     0.038 C 
HETATM   20  C20 UNL     1     -16.856  46.699 -23.898  1.00  0.00     0.130 C 
HETATM   21  O4  UNL     1     -16.994  45.471 -23.177  1.00  0.00    -0.371 OA
HETATM   22  C21 UNL     1     -16.854  45.576 -21.755  1.00  0.00     0.185 C 
HETATM   23  C22 UNL     1     -17.610  44.411 -21.131  1.00  0.00    -0.006 A 
HETATM   24  C23 UNL     1     -17.088  43.668 -20.061  1.00  0.00     0.014 A 
HETATM   25  C24 UNL     1     -17.839  42.644 -19.475  1.00  0.00     0.037 A 
HETATM   26  C25 UNL     1     -19.120  42.364 -19.939  1.00  0.00     0.067 A 
HETATM   27  C26 UNL     1     -19.683  43.098 -20.980  1.00  0.00     0.057 A 
HETATM   28  C27 UNL     1     -18.941  44.124 -21.567  1.00  0.00     0.029 A 
HETATM   29  C28 UNL     1     -19.526  44.895 -22.638  1.00  0.00    -0.066 C 
HETATM   30  C29 UNL     1     -19.645  45.646 -23.570  1.00  0.00    -0.101 C 
HETATM   31  C30 UNL     1     -19.344  46.617 -24.644  1.00  0.00     0.103 C 
HETATM   32  C31 UNL     1     -17.841  46.596 -25.102  1.00  0.00     0.049 C 
HETATM   33  C33 UNL     1     -12.914  46.500 -23.093  1.00  0.00     0.030 C 
HETATM   34  C34 UNL     1     -12.157  46.329 -24.421  1.00  0.00    -0.050 A 
HETATM   35  C35 UNL     1     -10.808  46.710 -24.487  1.00  0.00     0.006 A 
HETATM   36  C36 UNL     1     -10.038  46.596 -25.662  1.00  0.00     0.010 A 
HETATM   37  C37 UNL     1     -10.599  46.182 -26.879  1.00  0.00    -0.000 A 
HETATM   38  C38 UNL     1     -11.963  45.859 -26.836  1.00  0.00     0.138 A 
HETATM   39  C39 UNL     1     -12.696  45.875 -25.629  1.00  0.00     0.133 A 
HETATM   40  C40 UNL     1      -9.718  45.895 -28.154  1.00  0.00     0.169 C 
HETATM   41  O8  UNL     1      -9.647  44.443 -28.463  1.00  0.00    -0.316 OA
HETATM   42 NA1  UNL     1     -12.624  45.048 -24.542  1.00  0.00    -0.401 Na
ATOM     43  HA1 UNL     1     -12.734  44.564 -23.652  1.00  0.00     0.154 HD
ENDROOT
BRANCH  40  44
HETATM   44  C41 UNL     1     -10.421  46.471 -29.439  1.00  0.00     0.069 C 
BRANCH  44  45
HETATM   45  C42 UNL     1     -10.912  47.928 -29.370  1.00  0.00     0.031 C 
BRANCH  45  46
HETATM   46  C43 UNL     1     -12.410  48.110 -29.182  1.00  0.00     0.164 C 
BRANCH  46  47
HETATM   47  O7  UNL     1     -12.633  48.848 -27.982  1.00  0.00    -0.401 OA
HETATM   48  H46 UNL     1     -13.594  48.840 -27.833  1.00  0.00     0.209 HD
ENDBRANCH  46  47
ENDBRANCH  45  46
ENDBRANCH  44  45
ENDBRANCH  40  44
BRANCH  40  49
HETATM   49  N1  UNL     1      -8.369  46.507 -28.078  1.00  0.00    -0.336 N 
HETATM   50  C44 UNL     1      -8.134  47.744 -27.890  1.00  0.00     0.124 C 
HETATM   51  N2  UNL     1      -6.850  48.172 -27.865  1.00  0.00    -0.279 NA
HETATM   52  N3  UNL     1      -8.952  48.802 -27.702  1.00  0.00    -0.279 NA
HETATM   53  H47 UNL     1      -6.701  49.001 -28.423  1.00  0.00     0.126 HD
HETATM   54  H48 UNL     1      -6.223  47.420 -28.133  1.00  0.00     0.126 HD
HETATM   55  H49 UNL     1      -8.568  49.442 -27.014  1.00  0.00     0.126 HD
HETATM   56  H50 UNL     1      -9.891  48.545 -27.411  1.00  0.00     0.126 HD
ATOM     57  H1  UNL     1      -7.567  45.887 -28.186  1.00  0.00     0.165 HD
ENDBRANCH  40  49
BRANCH  13  58
HETATM   58  S1  UNL     1     -10.491  45.058 -20.718  1.00  0.00     0.106 S 
HETATM   59  O1  UNL     1     -11.047  46.270 -20.132  1.00  0.00    -0.595 OA
HETATM   60  O2  UNL     1     -10.074  44.051 -19.751  1.00  0.00    -0.595 OA
HETATM   61  O3  UNL     1      -9.493  45.330 -21.754  1.00  0.00    -0.595 OA
ENDBRANCH  13  58
BRANCH  32  62
HETATM   62  C32 UNL     1     -17.578  45.362 -25.980  1.00  0.00     0.172 C 
BRANCH  62  63
HETATM   63  O6  UNL     1     -18.441  45.382 -27.118  1.00  0.00    -0.400 OA
HETATM   64  H34 UNL     1     -18.097  46.058 -27.727  1.00  0.00     0.209 HD
ENDBRANCH  62  63
ENDBRANCH  32  62
BRANCH  26  65
HETATM   65  O5  UNL     1     -19.808  41.354 -19.332  1.00  0.00    -0.361 OA
HETATM   66  H27 UNL     1     -20.668  41.262 -19.774  1.00  0.00     0.217 HD
ENDBRANCH  26  65
TORSDOF 9
ENDMDL
MODEL 9
REMARK minimizedAffinity -7.43174362
REMARK CNNscore 0.103411689
REMARK CNNaffinity 6.44893885
REMARK  9 active torsions:
REMARK  status: ('A' for Active; 'I' for Inactive)
REMARK    1  A    between atoms: C13_13  and  S1_14 
REMARK    2  A    between atoms: C25_30  and  O5_31 
REMARK    3  A    between atoms: C31_37  and  C32_38 
REMARK    4  A    between atoms: C32_38  and  O6_39 
REMARK    5  A    between atoms: C40_47  and  C41_48 
REMARK    6  A    between atoms: C40_47  and  N1_52 
REMARK    7  A    between atoms: C41_48  and  C42_49 
REMARK    8  A    between atoms: C42_49  and  C43_50 
REMARK    9  A    between atoms: C43_50  and  O7_51 
REMARK       I    between atoms: C44_54  and  N2_55 
REMARK       I    between atoms: C44_54  and  N3_56 
ROOT
HETATM    1  C1  UNL     1       4.657  54.396   0.724  1.00  0.00     0.010 C 
HETATM    2  C2  UNL     1       6.057  54.269   0.133  1.00  0.00    -0.010 C 
HETATM    3  C3  UNL     1       7.150  54.649   1.193  1.00  0.00     0.009 C 
HETATM    4  C4  UNL     1       8.451  55.278   0.614  1.00  0.00     0.039 C 
HETATM    5  C5  UNL     1       8.787  54.701  -0.735  1.00  0.00    -0.049 C 
HETATM    6  C6  UNL     1      10.082  54.579  -1.226  1.00  0.00     0.044 C 
HETATM    7  C7  UNL     1      10.255  53.974  -2.465  1.00  0.00     0.072 C 
HETATM    8  C8  UNL     1       9.219  53.261  -3.068  1.00  0.00     0.037 C 
HETATM    9  C9  UNL     1       7.920  53.499  -2.645  1.00  0.00     0.011 C 
HETATM   10  C10 UNL     1       7.709  54.367  -1.575  1.00  0.00    -0.047 C 
HETATM   11  C11 UNL     1       6.369  55.005  -1.192  1.00  0.00     0.024 C 
HETATM   12  C12 UNL     1       5.342  55.053  -2.347  1.00  0.00     0.033 C 
HETATM   13  C13 UNL     1       4.546  56.359  -2.628  1.00  0.00     0.139 C 
HETATM   14  C14 UNL     1       4.545  56.859  -4.112  1.00  0.00     0.038 C 
HETATM   15  C15 UNL     1       3.564  56.109  -5.017  1.00  0.00    -0.014 C 
HETATM   16  C16 UNL     1       3.198  56.711  -6.171  1.00  0.00    -0.050 C 
HETATM   17  C17 UNL     1       3.928  57.997  -6.518  1.00  0.00     0.042 C 
HETATM   18  C18 UNL     1       5.424  57.617  -6.500  1.00  0.00     0.001 C 
HETATM   19  C19 UNL     1       5.723  56.455  -7.527  1.00  0.00     0.038 C 
HETATM   20  C20 UNL     1       4.652  56.127  -8.602  1.00  0.00     0.130 C 
HETATM   21  O4  UNL     1       3.666  55.332  -7.938  1.00  0.00    -0.371 OA
HETATM   22  C21 UNL     1       2.571  56.060  -7.370  1.00  0.00     0.185 C 
HETATM   23  C22 UNL     1       1.383  55.112  -7.282  1.00  0.00    -0.006 A 
HETATM   24  C23 UNL     1       0.549  55.061  -6.155  1.00  0.00     0.014 A 
HETATM   25  C24 UNL     1      -0.568  54.221  -6.136  1.00  0.00     0.037 A 
HETATM   26  C25 UNL     1      -0.872  53.438  -7.245  1.00  0.00     0.067 A 
HETATM   27  C26 UNL     1      -0.084  53.482  -8.392  1.00  0.00     0.057 A 
HETATM   28  C27 UNL     1       1.031  54.322  -8.419  1.00  0.00     0.029 A 
HETATM   29  C28 UNL     1       1.842  54.380  -9.611  1.00  0.00    -0.066 C 
HETATM   30  C29 UNL     1       2.758  54.604 -10.358  1.00  0.00    -0.101 C 
HETATM   31  C30 UNL     1       4.052  55.072 -10.899  1.00  0.00     0.103 C 
HETATM   32  C31 UNL     1       5.157  55.264  -9.798  1.00  0.00     0.049 C 
HETATM   33  C33 UNL     1       5.834  57.355  -4.952  1.00  0.00     0.030 C 
HETATM   34  C34 UNL     1       7.267  56.849  -4.712  1.00  0.00    -0.050 A 
HETATM   35  C35 UNL     1       8.073  57.514  -3.774  1.00  0.00     0.006 A 
HETATM   36  C36 UNL     1       9.398  57.126  -3.494  1.00  0.00     0.010 A 
HETATM   37  C37 UNL     1      10.038  56.103  -4.209  1.00  0.00    -0.000 A 
HETATM   38  C38 UNL     1       9.259  55.475  -5.191  1.00  0.00     0.138 A 
HETATM   39  C39 UNL     1       7.899  55.802  -5.387  1.00  0.00     0.133 A 
HETATM   40  C40 UNL     1      11.456  55.554  -3.797  1.00  0.00     0.169 C 
HETATM   41  O8  UNL     1      11.375  54.185  -3.222  1.00  0.00    -0.316 OA
HETATM   42 NA1  UNL     1       6.812  55.564  -4.593  1.00  0.00    -0.401 Na
ATOM     43  HA1 UNL     1       5.889  55.491  -4.166  1.00  0.00     0.154 HD
ENDROOT
BRANCH  40  44
HETATM   44  C41 UNL     1      12.340  55.320  -5.078  1.00  0.00     0.069 C 
BRANCH  44  45
HETATM   45  C42 UNL     1      13.028  53.950  -5.209  1.00  0.00     0.031 C 
BRANCH  45  46
HETATM   46  C43 UNL     1      14.036  53.824  -6.340  1.00  0.00     0.164 C 
BRANCH  46  47
HETATM   47  O7  UNL     1      15.284  54.357  -5.901  1.00  0.00    -0.401 OA
HETATM   48  H46 UNL     1      15.863  54.370  -6.683  1.00  0.00     0.209 HD
ENDBRANCH  46  47
ENDBRANCH  45  46
ENDBRANCH  44  45
ENDBRANCH  40  44
BRANCH  40  49
HETATM   49  N1  UNL     1      12.203  56.477  -2.909  1.00  0.00    -0.336 N 
HETATM   50  C44 UNL     1      12.688  57.601  -3.261  1.00  0.00     0.124 C 
HETATM   51  N2  UNL     1      13.369  58.336  -2.351  1.00  0.00    -0.279 NA
HETATM   52  N3  UNL     1      12.674  58.264  -4.438  1.00  0.00    -0.279 NA
HETATM   53  H47 UNL     1      14.242  58.697  -2.711  1.00  0.00     0.126 HD
HETATM   54  H48 UNL     1      13.506  57.803  -1.499  1.00  0.00     0.126 HD
HETATM   55  H49 UNL     1      12.555  59.262  -4.292  1.00  0.00     0.126 HD
HETATM   56  H50 UNL     1      11.952  57.945  -5.077  1.00  0.00     0.126 HD
ATOM     57  H1  UNL     1      12.339  56.190  -1.940  1.00  0.00     0.165 HD
ENDBRANCH  40  49
BRANCH  13  58
HETATM   58  S1  UNL     1       4.647  57.761  -1.485  1.00  0.00     0.106 S 
HETATM   59  O1  UNL     1       6.027  57.762  -1.018  1.00  0.00    -0.595 OA
HETATM   60  O2  UNL     1       4.271  58.928  -2.273  1.00  0.00    -0.595 OA
HETATM   61  O3  UNL     1       3.688  57.427  -0.431  1.00  0.00    -0.595 OA
ENDBRANCH  13  58
BRANCH  32  62
HETATM   62  C32 UNL     1       5.700  53.896  -9.356  1.00  0.00     0.172 C 
BRANCH  62  63
HETATM   63  O6  UNL     1       7.128  53.921  -9.345  1.00  0.00    -0.400 OA
HETATM   64  H34 UNL     1       7.400  54.434  -8.564  1.00  0.00     0.209 HD
ENDBRANCH  62  63
ENDBRANCH  32  62
BRANCH  26  65
HETATM   65  O5  UNL     1      -1.973  52.635  -7.173  1.00  0.00    -0.361 OA
HETATM   66  H27 UNL     1      -2.043  52.137  -8.004  1.00  0.00     0.217 HD
ENDBRANCH  26  65
TORSDOF 9
ENDMDL
