MODEL 1
REMARK minimizedAffinity -9.66576767
REMARK CNNscore 0.589290679
REMARK CNNaffinity 7.35895395
REMARK  4 active torsions:
REMARK  status: ('A' for Active; 'I' for Inactive)
REMARK    1  A    between atoms: C2_2  and  C4_4 
REMARK    2  A    between atoms: C4_4  and  C5_5 
REMARK    3  A    between atoms: C5_5  and  O1_6 
REMARK    4  A    between atoms: C8_9  and  C9_10 
ROOT
HETATM    1  C9  UNL     1       0.550   6.207  13.181  1.00  0.00     0.001 C 
HETATM    2  C10 UNL     1       0.871   6.945  14.508  1.00  0.00     0.007 C 
HETATM    3  C11 UNL     1      -0.470   7.187  15.226  1.00  0.00     0.011 C 
HETATM    4  C12 UNL     1      -1.486   6.280  14.503  1.00  0.00    -0.032 C 
HETATM    5  C13 UNL     1      -1.334   4.861  15.138  1.00  0.00     0.016 C 
HETATM    6  C14 UNL     1      -2.960   6.756  14.590  1.00  0.00     0.004 C 
HETATM    7  C15 UNL     1      -3.590   6.607  15.984  1.00  0.00     0.007 C 
HETATM    8  C16 UNL     1      -5.003   7.188  15.989  1.00  0.00     0.007 C 
HETATM    9  C17 UNL     1      -5.938   6.314  15.139  1.00  0.00     0.010 C 
HETATM   10  C18 UNL     1      -7.410   6.833  15.028  1.00  0.00     0.018 C 
HETATM   11  C19 UNL     1      -7.517   8.331  14.699  1.00  0.00     0.023 C 
HETATM   12  C20 UNL     1      -8.163   6.567  16.345  1.00  0.00     0.023 C 
HETATM   13  C21 UNL     1      -8.137   6.035  13.930  1.00  0.00     0.135 C 
HETATM   14  O2  UNL     1      -9.179   6.428  13.402  1.00  0.00    -0.297 OA
HETATM   15  C22 UNL     1      -7.563   4.684  13.586  1.00  0.00     0.080 C 
HETATM   16  C23 UNL     1      -6.133   4.830  13.080  1.00  0.00     0.018 C 
HETATM   17  C24 UNL     1      -5.370   5.968  13.756  1.00  0.00    -0.026 A 
HETATM   18  C25 UNL     1      -4.852   7.061  12.852  1.00  0.00     0.021 A 
HETATM   19  C26 UNL     1      -3.846   6.120  13.490  1.00  0.00    -0.027 A 
HETATM   20  C27 UNL     1      -3.184   5.095  12.564  1.00  0.00     0.011 C 
HETATM   21  C28 UNL     1      -1.712   5.332  12.177  1.00  0.00     0.011 C 
HETATM   22  C29 UNL     1      -0.991   6.399  13.011  1.00  0.00    -0.032 C 
HETATM   23  C30 UNL     1      -1.283   7.782  12.362  1.00  0.00     0.016 C 
ENDROOT
BRANCH   1  24
HETATM   24  C8  UNL     1       1.558   6.500  12.037  1.00  0.00     0.014 C 
HETATM   25  C7  UNL     1       1.511   5.489  10.891  1.00  0.00     0.010 C 
HETATM   26  C6  UNL     1       2.699   5.726   9.964  1.00  0.00     0.041 C 
HETATM   27  C4  UNL     1       2.807   7.204   9.494  1.00  0.00     0.085 C 
HETATM   28  O3  UNL     1       1.766   8.014  10.080  1.00  0.00    -0.377 OA
HETATM   29  C31 UNL     1       1.618   7.938  11.500  1.00  0.00     0.174 C 
BRANCH  27  30
HETATM   30  C2  UNL     1       2.610   7.280   7.935  1.00  0.00     0.014 C 
HETATM   31  C1  UNL     1       1.308   7.960   7.487  1.00  0.00     0.012 C 
HETATM   32  C3  UNL     1       2.652   5.889   7.275  1.00  0.00     0.012 C 
ENDBRANCH  27  30
BRANCH  27  33
HETATM   33  C5  UNL     1       4.191   7.769   9.927  1.00  0.00     0.202 C 
BRANCH  33  34
HETATM   34  O1  UNL     1       5.124   6.735  10.233  1.00  0.00    -0.398 OA
HETATM   35  H10 UNL     1       4.867   5.973   9.681  1.00  0.00     0.209 HD
ENDBRANCH  33  34
ENDBRANCH  27  33
ENDBRANCH   1  24
TORSDOF 4
ENDMDL
MODEL 2
REMARK minimizedAffinity -6.23192215
REMARK CNNscore 0.567232311
REMARK CNNaffinity 6.64550447
REMARK  4 active torsions:
REMARK  status: ('A' for Active; 'I' for Inactive)
REMARK    1  A    between atoms: C2_2  and  C4_4 
REMARK    2  A    between atoms: C4_4  and  C5_5 
REMARK    3  A    between atoms: C5_5  and  O1_6 
REMARK    4  A    between atoms: C8_9  and  C9_10 
ROOT
HETATM    1  C9  UNL     1     -15.469   6.866  20.712  1.00  0.00     0.001 C 
HETATM    2  C10 UNL     1     -15.760   8.224  21.406  1.00  0.00     0.007 C 
HETATM    3  C11 UNL     1     -15.504   8.025  22.912  1.00  0.00     0.011 C 
HETATM    4  C12 UNL     1     -14.730   6.695  23.019  1.00  0.00    -0.032 C 
HETATM    5  C13 UNL     1     -13.231   7.040  22.749  1.00  0.00     0.016 C 
HETATM    6  C14 UNL     1     -14.881   5.965  24.379  1.00  0.00     0.004 C 
HETATM    7  C15 UNL     1     -14.160   6.653  25.548  1.00  0.00     0.007 C 
HETATM    8  C16 UNL     1     -14.445   5.911  26.854  1.00  0.00     0.007 C 
HETATM    9  C17 UNL     1     -13.760   4.537  26.843  1.00  0.00     0.010 C 
HETATM   10  C18 UNL     1     -14.017   3.658  28.112  1.00  0.00     0.018 C 
HETATM   11  C19 UNL     1     -15.494   3.594  28.534  1.00  0.00     0.023 C 
HETATM   12  C20 UNL     1     -13.193   4.192  29.298  1.00  0.00     0.023 C 
HETATM   13  C21 UNL     1     -13.523   2.227  27.835  1.00  0.00     0.135 C 
HETATM   14  O2  UNL     1     -13.880   1.258  28.508  1.00  0.00    -0.297 OA
HETATM   15  C22 UNL     1     -12.492   2.068  26.747  1.00  0.00     0.080 C 
HETATM   16  C23 UNL     1     -13.050   2.552  25.414  1.00  0.00     0.018 C 
HETATM   17  C24 UNL     1     -14.008   3.734  25.559  1.00  0.00    -0.026 A 
HETATM   18  C25 UNL     1     -15.416   3.525  25.053  1.00  0.00     0.021 A 
HETATM   19  C26 UNL     1     -14.508   4.464  24.280  1.00  0.00    -0.027 A 
HETATM   20  C27 UNL     1     -13.991   3.959  22.929  1.00  0.00     0.011 C 
HETATM   21  C28 UNL     1     -14.601   4.577  21.658  1.00  0.00     0.011 C 
HETATM   22  C29 UNL     1     -15.433   5.845  21.893  1.00  0.00    -0.032 C 
HETATM   23  C30 UNL     1     -16.879   5.400  22.253  1.00  0.00     0.016 C 
ENDROOT
BRANCH   1  24
HETATM   24  C8  UNL     1     -16.306   6.624  19.426  1.00  0.00     0.014 C 
HETATM   25  C7  UNL     1     -15.504   6.747  18.130  1.00  0.00     0.010 C 
HETATM   26  C6  UNL     1     -16.464   6.745  16.944  1.00  0.00     0.041 C 
HETATM   27  C4  UNL     1     -17.441   5.535  16.966  1.00  0.00     0.085 C 
HETATM   28  O3  UNL     1     -17.225   4.715  18.134  1.00  0.00    -0.377 OA
HETATM   29  C31 UNL     1     -17.212   5.385  19.397  1.00  0.00     0.174 C 
BRANCH  27  30
HETATM   30  C2  UNL     1     -17.176   4.618  15.717  1.00  0.00     0.014 C 
HETATM   31  C1  UNL     1     -16.898   3.145  16.053  1.00  0.00     0.012 C 
HETATM   32  C3  UNL     1     -15.997   5.124  14.863  1.00  0.00     0.012 C 
ENDBRANCH  27  30
BRANCH  27  33
HETATM   33  C5  UNL     1     -18.902   6.071  16.987  1.00  0.00     0.202 C 
BRANCH  33  34
HETATM   34  O1  UNL     1     -19.862   5.017  17.005  1.00  0.00    -0.398 OA
HETATM   35  H10 UNL     1     -19.428   4.269  17.457  1.00  0.00     0.209 HD
ENDBRANCH  33  34
ENDBRANCH  27  33
ENDBRANCH   1  24
TORSDOF 4
ENDMDL
MODEL 3
REMARK minimizedAffinity -6.38698769
REMARK CNNscore 0.53712827
REMARK CNNaffinity 6.49909925
REMARK  4 active torsions:
REMARK  status: ('A' for Active; 'I' for Inactive)
REMARK    1  A    between atoms: C2_2  and  C4_4 
REMARK    2  A    between atoms: C4_4  and  C5_5 
REMARK    3  A    between atoms: C5_5  and  O1_6 
REMARK    4  A    between atoms: C8_9  and  C9_10 
ROOT
HETATM    1  C9  UNL     1     -14.059   6.309  23.030  1.00  0.00     0.001 C 
HETATM    2  C10 UNL     1     -15.377   6.778  22.356  1.00  0.00     0.007 C 
HETATM    3  C11 UNL     1     -15.256   8.298  22.138  1.00  0.00     0.011 C 
HETATM    4  C12 UNL     1     -13.761   8.618  22.341  1.00  0.00    -0.032 C 
HETATM    5  C13 UNL     1     -13.060   8.307  20.981  1.00  0.00     0.016 C 
HETATM    6  C14 UNL     1     -13.464  10.075  22.782  1.00  0.00     0.004 C 
HETATM    7  C15 UNL     1     -13.695  11.126  21.685  1.00  0.00     0.007 C 
HETATM    8  C16 UNL     1     -13.466  12.530  22.243  1.00  0.00     0.007 C 
HETATM    9  C17 UNL     1     -11.977  12.741  22.554  1.00  0.00     0.010 C 
HETATM   10  C18 UNL     1     -11.620  14.131  23.177  1.00  0.00     0.018 C 
HETATM   11  C19 UNL     1     -12.545  14.549  24.333  1.00  0.00     0.023 C 
HETATM   12  C20 UNL     1     -11.671  15.224  22.092  1.00  0.00     0.023 C 
HETATM   13  C21 UNL     1     -10.172  14.087  23.697  1.00  0.00     0.135 C 
HETATM   14  O2  UNL     1      -9.732  14.901  24.510  1.00  0.00    -0.297 OA
HETATM   15  C22 UNL     1      -9.269  13.043  23.090  1.00  0.00     0.080 C 
HETATM   16  C23 UNL     1      -9.821  11.648  23.353  1.00  0.00     0.018 C 
HETATM   17  C24 UNL     1     -11.349  11.598  23.361  1.00  0.00    -0.026 A 
HETATM   18  C25 UNL     1     -11.999  11.123  24.639  1.00  0.00     0.021 A 
HETATM   19  C26 UNL     1     -12.060  10.217  23.423  1.00  0.00    -0.027 A 
HETATM   20  C27 UNL     1     -11.177   8.966  23.456  1.00  0.00     0.011 C 
HETATM   21  C28 UNL     1     -11.872   7.609  23.671  1.00  0.00     0.011 C 
HETATM   22  C29 UNL     1     -13.399   7.636  23.519  1.00  0.00    -0.032 C 
HETATM   23  C30 UNL     1     -14.001   8.053  24.891  1.00  0.00     0.016 C 
ENDROOT
BRANCH   1  24
HETATM   24  C8  UNL     1     -14.230   5.072  23.953  1.00  0.00     0.014 C 
HETATM   25  C7  UNL     1     -12.995   4.173  24.023  1.00  0.00     0.010 C 
HETATM   26  C6  UNL     1     -13.359   2.877  24.741  1.00  0.00     0.041 C 
HETATM   27  C4  UNL     1     -14.034   3.125  26.120  1.00  0.00     0.085 C 
HETATM   28  O3  UNL     1     -14.188   4.537  26.376  1.00  0.00    -0.377 OA
HETATM   29  C31 UNL     1     -14.817   5.311  25.352  1.00  0.00     0.174 C 
BRANCH  27  30
HETATM   30  C2  UNL     1     -13.121   2.557  27.267  1.00  0.00     0.014 C 
HETATM   31  C1  UNL     1     -11.936   1.709  26.781  1.00  0.00     0.012 C 
HETATM   32  C3  UNL     1     -13.915   1.701  28.272  1.00  0.00     0.012 C 
ENDBRANCH  27  30
BRANCH  27  33
HETATM   33  C5  UNL     1     -15.439   2.455  26.118  1.00  0.00     0.202 C 
BRANCH  33  34
HETATM   34  O1  UNL     1     -15.681   1.712  24.925  1.00  0.00    -0.398 OA
HETATM   35  H10 UNL     1     -14.806   1.408  24.619  1.00  0.00     0.209 HD
ENDBRANCH  33  34
ENDBRANCH  27  33
ENDBRANCH   1  24
TORSDOF 4
ENDMDL
MODEL 4
REMARK minimizedAffinity -9.88109398
REMARK CNNscore 0.520078301
REMARK CNNaffinity 7.2868371
REMARK  4 active torsions:
REMARK  status: ('A' for Active; 'I' for Inactive)
REMARK    1  A    between atoms: C2_2  and  C4_4 
REMARK    2  A    between atoms: C4_4  and  C5_5 
REMARK    3  A    between atoms: C5_5  and  O1_6 
REMARK    4  A    between atoms: C8_9  and  C9_10 
ROOT
HETATM    1  C9  UNL     1      -3.372   8.136  15.075  1.00  0.00     0.001 C 
HETATM    2  C10 UNL     1      -2.460   7.762  16.274  1.00  0.00     0.007 C 
HETATM    3  C11 UNL     1      -1.060   7.467  15.702  1.00  0.00     0.011 C 
HETATM    4  C12 UNL     1      -1.086   8.022  14.264  1.00  0.00    -0.032 C 
HETATM    5  C13 UNL     1      -0.782   9.549  14.379  1.00  0.00     0.016 C 
HETATM    6  C14 UNL     1      -0.087   7.344  13.289  1.00  0.00     0.004 C 
HETATM    7  C15 UNL     1       1.387   7.686  13.556  1.00  0.00     0.007 C 
HETATM    8  C16 UNL     1       2.291   6.900  12.608  1.00  0.00     0.007 C 
HETATM    9  C17 UNL     1       2.119   7.408  11.169  1.00  0.00     0.010 C 
HETATM   10  C18 UNL     1       2.962   6.647  10.092  1.00  0.00     0.018 C 
HETATM   11  C19 UNL     1       2.880   5.116  10.207  1.00  0.00     0.023 C 
HETATM   12  C20 UNL     1       4.441   7.065  10.189  1.00  0.00     0.023 C 
HETATM   13  C21 UNL     1       2.473   7.061   8.692  1.00  0.00     0.135 C 
HETATM   14  O2  UNL     1       2.717   6.402   7.680  1.00  0.00    -0.297 OA
HETATM   15  C22 UNL     1       1.751   8.381   8.594  1.00  0.00     0.080 C 
HETATM   16  C23 UNL     1       0.495   8.363   9.456  1.00  0.00     0.018 C 
HETATM   17  C24 UNL     1       0.654   7.535  10.731  1.00  0.00    -0.026 A 
HETATM   18  C25 UNL     1      -0.293   6.371  10.900  1.00  0.00     0.021 A 
HETATM   19  C26 UNL     1      -0.469   7.577  11.805  1.00  0.00    -0.027 A 
HETATM   20  C27 UNL     1      -1.682   8.471  11.527  1.00  0.00     0.011 C 
HETATM   21  C28 UNL     1      -2.862   8.397  12.513  1.00  0.00     0.011 C 
HETATM   22  C29 UNL     1      -2.558   7.665  13.828  1.00  0.00    -0.032 C 
HETATM   23  C30 UNL     1      -2.791   6.147  13.586  1.00  0.00     0.016 C 
ENDROOT
BRANCH   1  24
HETATM   24  C8  UNL     1      -4.866   7.769  15.282  1.00  0.00     0.014 C 
HETATM   25  C7  UNL     1      -5.844   8.766  14.659  1.00  0.00     0.010 C 
HETATM   26  C6  UNL     1      -7.257   8.448  15.137  1.00  0.00     0.041 C 
HETATM   27  C4  UNL     1      -7.647   6.960  14.911  1.00  0.00     0.085 C 
HETATM   28  O3  UNL     1      -6.554   6.220  14.326  1.00  0.00    -0.377 OA
HETATM   29  C31 UNL     1      -5.287   6.323  14.980  1.00  0.00     0.174 C 
BRANCH  27  30
HETATM   30  C2  UNL     1      -8.842   6.875  13.892  1.00  0.00     0.014 C 
HETATM   31  C1  UNL     1     -10.236   6.923  14.536  1.00  0.00     0.012 C 
HETATM   32  C3  UNL     1      -8.780   5.601  13.028  1.00  0.00     0.012 C 
ENDBRANCH  27  30
BRANCH  27  33
HETATM   33  C5  UNL     1      -8.013   6.323  16.282  1.00  0.00     0.202 C 
BRANCH  33  34
HETATM   34  O1  UNL     1      -8.158   4.907  16.198  1.00  0.00    -0.398 OA
HETATM   35  H10 UNL     1      -7.567   4.622  15.476  1.00  0.00     0.209 HD
ENDBRANCH  33  34
ENDBRANCH  27  33
ENDBRANCH   1  24
TORSDOF 4
ENDMDL
MODEL 5
REMARK minimizedAffinity -7.32094049
REMARK CNNscore 0.50608623
REMARK CNNaffinity 6.54907465
REMARK  4 active torsions:
REMARK  status: ('A' for Active; 'I' for Inactive)
REMARK    1  A    between atoms: C2_2  and  C4_4 
REMARK    2  A    between atoms: C4_4  and  C5_5 
REMARK    3  A    between atoms: C5_5  and  O1_6 
REMARK    4  A    between atoms: C8_9  and  C9_10 
ROOT
HETATM    1  C9  UNL     1     -14.505   7.162  24.254  1.00  0.00     0.001 C 
HETATM    2  C10 UNL     1     -14.793   7.888  25.596  1.00  0.00     0.007 C 
HETATM    3  C11 UNL     1     -14.041   9.232  25.553  1.00  0.00     0.011 C 
HETATM    4  C12 UNL     1     -13.642   9.425  24.076  1.00  0.00    -0.032 C 
HETATM    5  C13 UNL     1     -14.891  10.034  23.362  1.00  0.00     0.016 C 
HETATM    6  C14 UNL     1     -12.399  10.325  23.851  1.00  0.00     0.004 C 
HETATM    7  C15 UNL     1     -12.639  11.815  24.139  1.00  0.00     0.007 C 
HETATM    8  C16 UNL     1     -11.337  12.599  23.980  1.00  0.00     0.007 C 
HETATM    9  C17 UNL     1     -10.920  12.640  22.502  1.00  0.00     0.010 C 
HETATM   10  C18 UNL     1      -9.570  13.379  22.215  1.00  0.00     0.018 C 
HETATM   11  C19 UNL     1      -8.425  12.969  23.156  1.00  0.00     0.023 C 
HETATM   12  C20 UNL     1      -9.770  14.902  22.324  1.00  0.00     0.023 C 
HETATM   13  C21 UNL     1      -9.142  13.088  20.766  1.00  0.00     0.135 C 
HETATM   14  O2  UNL     1      -7.989  13.258  20.365  1.00  0.00    -0.297 OA
HETATM   15  C22 UNL     1     -10.232  12.667  19.812  1.00  0.00     0.080 C 
HETATM   16  C23 UNL     1     -10.886  11.378  20.292  1.00  0.00     0.018 C 
HETATM   17  C24 UNL     1     -10.953  11.269  21.815  1.00  0.00    -0.026 A 
HETATM   18  C25 UNL     1     -10.246  10.089  22.437  1.00  0.00     0.021 A 
HETATM   19  C26 UNL     1     -11.763  10.107  22.455  1.00  0.00    -0.027 A 
HETATM   20  C27 UNL     1     -12.471   9.132  21.509  1.00  0.00     0.011 C 
HETATM   21  C28 UNL     1     -13.144   7.896  22.134  1.00  0.00     0.011 C 
HETATM   22  C29 UNL     1     -13.292   7.945  23.661  1.00  0.00    -0.032 C 
HETATM   23  C30 UNL     1     -11.967   7.416  24.280  1.00  0.00     0.016 C 
ENDROOT
BRANCH   1  24
HETATM   24  C8  UNL     1     -14.528   5.613  24.359  1.00  0.00     0.014 C 
HETATM   25  C7  UNL     1     -13.420   4.919  23.567  1.00  0.00     0.010 C 
HETATM   26  C6  UNL     1     -13.690   3.418  23.535  1.00  0.00     0.041 C 
HETATM   27  C4  UNL     1     -13.918   2.820  24.952  1.00  0.00     0.085 C 
HETATM   28  O3  UNL     1     -13.852   3.845  25.965  1.00  0.00    -0.377 OA
HETATM   29  C31 UNL     1     -14.666   5.003  25.762  1.00  0.00     0.174 C 
BRANCH  27  30
HETATM   30  C2  UNL     1     -12.777   1.788  25.281  1.00  0.00     0.014 C 
HETATM   31  C1  UNL     1     -12.290   1.817  26.738  1.00  0.00     0.012 C 
HETATM   32  C3  UNL     1     -11.542   1.981  24.381  1.00  0.00     0.012 C 
ENDBRANCH  27  30
BRANCH  27  33
HETATM   33  C5  UNL     1     -15.325   2.155  24.996  1.00  0.00     0.202 C 
BRANCH  33  34
HETATM   34  O1  UNL     1     -15.334   0.964  25.778  1.00  0.00    -0.398 OA
HETATM   35  H10 UNL     1     -14.641   1.084  26.454  1.00  0.00     0.209 HD
ENDBRANCH  33  34
ENDBRANCH  27  33
ENDBRANCH   1  24
TORSDOF 4
ENDMDL
MODEL 6
REMARK minimizedAffinity -6.9508357
REMARK CNNscore 0.473980367
REMARK CNNaffinity 5.81374598
REMARK  4 active torsions:
REMARK  status: ('A' for Active; 'I' for Inactive)
REMARK    1  A    between atoms: C2_2  and  C4_4 
REMARK    2  A    between atoms: C4_4  and  C5_5 
REMARK    3  A    between atoms: C5_5  and  O1_6 
REMARK    4  A    between atoms: C8_9  and  C9_10 
ROOT
HETATM    1  C9  UNL     1      -5.477 -10.404   9.276  1.00  0.00     0.001 C 
HETATM    2  C10 UNL     1      -4.852  -9.839  10.580  1.00  0.00     0.007 C 
HETATM    3  C11 UNL     1      -6.018  -9.455  11.511  1.00  0.00     0.011 C 
HETATM    4  C12 UNL     1      -7.262 -10.131  10.900  1.00  0.00    -0.032 C 
HETATM    5  C13 UNL     1      -7.256 -11.604  11.418  1.00  0.00     0.016 C 
HETATM    6  C14 UNL     1      -8.609  -9.442  11.244  1.00  0.00     0.004 C 
HETATM    7  C15 UNL     1      -9.048  -9.609  12.707  1.00  0.00     0.007 C 
HETATM    8  C16 UNL     1     -10.331  -8.821  12.966  1.00  0.00     0.007 C 
HETATM    9  C17 UNL     1     -11.509  -9.465  12.221  1.00  0.00     0.010 C 
HETATM   10  C18 UNL     1     -12.876  -8.718  12.371  1.00  0.00     0.018 C 
HETATM   11  C19 UNL     1     -12.781  -7.199  12.153  1.00  0.00     0.023 C 
HETATM   12  C20 UNL     1     -13.466  -8.975  13.770  1.00  0.00     0.023 C 
HETATM   13  C21 UNL     1     -13.875  -9.298  11.353  1.00  0.00     0.135 C 
HETATM   14  O2  UNL     1     -14.903  -8.707  11.018  1.00  0.00    -0.297 OA
HETATM   15  C22 UNL     1     -13.587 -10.688  10.843  1.00  0.00     0.080 C 
HETATM   16  C23 UNL     1     -12.240 -10.722  10.131  1.00  0.00     0.018 C 
HETATM   17  C24 UNL     1     -11.211  -9.777  10.748  1.00  0.00    -0.026 A 
HETATM   18  C25 UNL     1     -10.654  -8.704   9.842  1.00  0.00     0.021 A 
HETATM   19  C26 UNL     1      -9.737  -9.839  10.258  1.00  0.00    -0.027 A 
HETATM   20  C27 UNL     1      -9.392 -10.872   9.180  1.00  0.00     0.011 C 
HETATM   21  C28 UNL     1      -7.973 -10.832   8.585  1.00  0.00     0.011 C 
HETATM   22  C29 UNL     1      -6.973  -9.963   9.360  1.00  0.00    -0.032 C 
HETATM   23  C30 UNL     1      -7.123  -8.502   8.848  1.00  0.00     0.016 C 
ENDROOT
BRANCH   1  24
HETATM   24  C8  UNL     1      -4.609 -10.174   8.010  1.00  0.00     0.014 C 
HETATM   25  C7  UNL     1      -3.933 -11.439   7.480  1.00  0.00     0.010 C 
HETATM   26  C6  UNL     1      -2.918 -11.054   6.407  1.00  0.00     0.041 C 
HETATM   27  C4  UNL     1      -3.534 -10.158   5.295  1.00  0.00     0.085 C 
HETATM   28  O3  UNL     1      -4.923  -9.875   5.566  1.00  0.00    -0.377 OA
HETATM   29  C31 UNL     1      -5.233  -9.363   6.865  1.00  0.00     0.174 C 
BRANCH  27  30
HETATM   30  C2  UNL     1      -3.490 -10.918   3.919  1.00  0.00     0.014 C 
HETATM   31  C1  UNL     1      -2.643 -12.199   3.922  1.00  0.00     0.012 C 
HETATM   32  C3  UNL     1      -2.967 -10.024   2.778  1.00  0.00     0.012 C 
ENDBRANCH  27  30
BRANCH  27  33
HETATM   33  C5  UNL     1      -2.746  -8.818   5.238  1.00  0.00     0.202 C 
BRANCH  33  34
HETATM   34  O1  UNL     1      -2.450  -8.310   6.537  1.00  0.00    -0.398 OA
HETATM   35  H10 UNL     1      -2.381  -9.090   7.118  1.00  0.00     0.209 HD
ENDBRANCH  33  34
ENDBRANCH  27  33
ENDBRANCH   1  24
TORSDOF 4
ENDMDL
MODEL 7
REMARK minimizedAffinity -7.27576637
REMARK CNNscore 0.442828178
REMARK CNNaffinity 6.35230827
REMARK  4 active torsions:
REMARK  status: ('A' for Active; 'I' for Inactive)
REMARK    1  A    between atoms: C2_2  and  C4_4 
REMARK    2  A    between atoms: C4_4  and  C5_5 
REMARK    3  A    between atoms: C5_5  and  O1_6 
REMARK    4  A    between atoms: C8_9  and  C9_10 
ROOT
HETATM    1  C9  UNL     1      -0.821   9.486  16.745  1.00  0.00     0.001 C 
HETATM    2  C10 UNL     1       0.377  10.405  16.384  1.00  0.00     0.007 C 
HETATM    3  C11 UNL     1       0.046  11.810  16.923  1.00  0.00     0.011 C 
HETATM    4  C12 UNL     1      -1.138  11.603  17.889  1.00  0.00    -0.032 C 
HETATM    5  C13 UNL     1      -0.518  11.162  19.253  1.00  0.00     0.016 C 
HETATM    6  C14 UNL     1      -2.041  12.850  18.085  1.00  0.00     0.004 C 
HETATM    7  C15 UNL     1      -1.386  13.984  18.889  1.00  0.00     0.007 C 
HETATM    8  C16 UNL     1      -2.315  15.195  18.946  1.00  0.00     0.007 C 
HETATM    9  C17 UNL     1      -3.544  14.881  19.812  1.00  0.00     0.010 C 
HETATM   10  C18 UNL     1      -4.598  16.034  19.910  1.00  0.00     0.018 C 
HETATM   11  C19 UNL     1      -4.958  16.662  18.553  1.00  0.00     0.023 C 
HETATM   12  C20 UNL     1      -4.078  17.146  20.840  1.00  0.00     0.023 C 
HETATM   13  C21 UNL     1      -5.883  15.481  20.552  1.00  0.00     0.135 C 
HETATM   14  O2  UNL     1      -6.971  16.052  20.462  1.00  0.00    -0.297 OA
HETATM   15  C22 UNL     1      -5.735  14.236  21.390  1.00  0.00     0.080 C 
HETATM   16  C23 UNL     1      -5.196  13.089  20.545  1.00  0.00     0.018 C 
HETATM   17  C24 UNL     1      -4.218  13.547  19.465  1.00  0.00    -0.026 A 
HETATM   18  C25 UNL     1      -4.598  13.237  18.037  1.00  0.00     0.021 A 
HETATM   19  C26 UNL     1      -3.435  12.479  18.650  1.00  0.00    -0.027 A 
HETATM   20  C27 UNL     1      -3.682  11.007  18.993  1.00  0.00     0.011 C 
HETATM   21  C28 UNL     1      -3.028   9.946  18.089  1.00  0.00     0.011 C 
HETATM   22  C29 UNL     1      -1.954  10.487  17.134  1.00  0.00    -0.032 C 
HETATM   23  C30 UNL     1      -2.675  10.994  15.853  1.00  0.00     0.016 C 
ENDROOT
BRANCH   1  24
HETATM   24  C8  UNL     1      -1.044   8.321  15.743  1.00  0.00     0.014 C 
HETATM   25  C7  UNL     1      -2.298   7.491  16.022  1.00  0.00     0.010 C 
HETATM   26  C6  UNL     1      -2.278   6.241  15.147  1.00  0.00     0.041 C 
HETATM   27  C4  UNL     1      -2.063   6.567  13.642  1.00  0.00     0.085 C 
HETATM   28  O3  UNL     1      -1.898   7.986  13.436  1.00  0.00    -0.377 OA
HETATM   29  C31 UNL     1      -0.921   8.644  14.247  1.00  0.00     0.174 C 
BRANCH  27  30
HETATM   30  C2  UNL     1      -3.334   6.139  12.820  1.00  0.00     0.014 C 
HETATM   31  C1  UNL     1      -4.636   6.830  13.250  1.00  0.00     0.012 C 
HETATM   32  C3  UNL     1      -3.579   4.619  12.880  1.00  0.00     0.012 C 
ENDBRANCH  27  30
BRANCH  27  33
HETATM   33  C5  UNL     1      -0.783   5.833  13.147  1.00  0.00     0.202 C 
BRANCH  33  34
HETATM   34  O1  UNL     1      -0.065   5.222  14.216  1.00  0.00    -0.398 OA
HETATM   35  H10 UNL     1      -0.732   4.999  14.893  1.00  0.00     0.209 HD
ENDBRANCH  33  34
ENDBRANCH  27  33
ENDBRANCH   1  24
TORSDOF 4
ENDMDL
MODEL 8
REMARK minimizedAffinity -6.6685214
REMARK CNNscore 0.435166359
REMARK CNNaffinity 6.45795441
REMARK  4 active torsions:
REMARK  status: ('A' for Active; 'I' for Inactive)
REMARK    1  A    between atoms: C2_2  and  C4_4 
REMARK    2  A    between atoms: C4_4  and  C5_5 
REMARK    3  A    between atoms: C5_5  and  O1_6 
REMARK    4  A    between atoms: C8_9  and  C9_10 
ROOT
HETATM    1  C9  UNL     1     -10.127  -7.794  -4.341  1.00  0.00     0.001 C 
HETATM    2  C10 UNL     1     -10.512  -8.942  -5.313  1.00  0.00     0.007 C 
HETATM    3  C11 UNL     1      -9.715 -10.187  -4.880  1.00  0.00     0.011 C 
HETATM    4  C12 UNL     1      -9.177  -9.854  -3.473  1.00  0.00    -0.032 C 
HETATM    5  C13 UNL     1     -10.335 -10.175  -2.476  1.00  0.00     0.016 C 
HETATM    6  C14 UNL     1      -7.890 -10.621  -3.073  1.00  0.00     0.004 C 
HETATM    7  C15 UNL     1      -8.106 -12.118  -2.801  1.00  0.00     0.007 C 
HETATM    8  C16 UNL     1      -6.770 -12.799  -2.507  1.00  0.00     0.007 C 
HETATM    9  C17 UNL     1      -6.219 -12.323  -1.155  1.00  0.00     0.010 C 
HETATM   10  C18 UNL     1      -4.825 -12.917  -0.762  1.00  0.00     0.018 C 
HETATM   11  C19 UNL     1      -3.785 -12.862  -1.893  1.00  0.00     0.023 C 
HETATM   12  C20 UNL     1      -4.984 -14.383  -0.316  1.00  0.00     0.023 C 
HETATM   13  C21 UNL     1      -4.276 -12.141   0.449  1.00  0.00     0.135 C 
HETATM   14  O2  UNL     1      -3.087 -12.162   0.770  1.00  0.00    -0.297 OA
HETATM   15  C22 UNL     1      -5.288 -11.413   1.298  1.00  0.00     0.080 C 
HETATM   16  C23 UNL     1      -6.025 -10.370   0.467  1.00  0.00     0.018 C 
HETATM   17  C24 UNL     1      -6.235 -10.798  -0.985  1.00  0.00    -0.026 A 
HETATM   18  C25 UNL     1      -5.625  -9.910  -2.043  1.00  0.00     0.021 A 
HETATM   19  C26 UNL     1      -7.137  -9.931  -1.907  1.00  0.00    -0.027 A 
HETATM   20  C27 UNL     1      -7.787  -8.687  -1.294  1.00  0.00     0.011 C 
HETATM   21  C28 UNL     1      -8.554  -7.745  -2.240  1.00  0.00     0.011 C 
HETATM   22  C29 UNL     1      -8.839  -8.323  -3.633  1.00  0.00    -0.032 C 
HETATM   23  C30 UNL     1      -7.594  -8.044  -4.522  1.00  0.00     0.016 C 
ENDROOT
BRANCH   1  24
HETATM   24  C8  UNL     1     -10.209  -6.379  -4.973  1.00  0.00     0.014 C 
HETATM   25  C7  UNL     1     -11.601  -6.005  -5.484  1.00  0.00     0.010 C 
HETATM   26  C6  UNL     1     -11.508  -4.721  -6.302  1.00  0.00     0.041 C 
HETATM   27  C4  UNL     1     -10.791  -3.573  -5.536  1.00  0.00     0.085 C 
HETATM   28  O3  UNL     1     -10.351  -4.013  -4.233  1.00  0.00    -0.377 OA
HETATM   29  C31 UNL     1      -9.581  -5.217  -4.189  1.00  0.00     0.174 C 
BRANCH  27  30
HETATM   30  C2  UNL     1     -11.797  -2.389  -5.293  1.00  0.00     0.014 C 
HETATM   31  C1  UNL     1     -12.748  -2.107  -6.467  1.00  0.00     0.012 C 
HETATM   32  C3  UNL     1     -11.073  -1.070  -4.962  1.00  0.00     0.012 C 
ENDBRANCH  27  30
BRANCH  27  33
HETATM   33  C5  UNL     1      -9.553  -3.117  -6.360  1.00  0.00     0.202 C 
BRANCH  33  34
HETATM   34  O1  UNL     1      -8.401  -2.923  -5.542  1.00  0.00    -0.398 OA
HETATM   35  H10 UNL     1      -8.502  -3.537  -4.791  1.00  0.00     0.209 HD
ENDBRANCH  33  34
ENDBRANCH  27  33
ENDBRANCH   1  24
TORSDOF 4
ENDMDL
MODEL 9
REMARK minimizedAffinity -6.49512243
REMARK CNNscore 0.433078229
REMARK CNNaffinity 5.47751856
REMARK  4 active torsions:
REMARK  status: ('A' for Active; 'I' for Inactive)
REMARK    1  A    between atoms: C2_2  and  C4_4 
REMARK    2  A    between atoms: C4_4  and  C5_5 
REMARK    3  A    between atoms: C5_5  and  O1_6 
REMARK    4  A    between atoms: C8_9  and  C9_10 
ROOT
HETATM    1  C9  UNL     1      -8.675  -9.143  12.020  1.00  0.00     0.001 C 
HETATM    2  C10 UNL     1      -7.184  -9.402  12.367  1.00  0.00     0.007 C 
HETATM    3  C11 UNL     1      -6.444  -9.632  11.035  1.00  0.00     0.011 C 
HETATM    4  C12 UNL     1      -7.418  -9.145   9.943  1.00  0.00    -0.032 C 
HETATM    5  C13 UNL     1      -7.230  -7.597   9.849  1.00  0.00     0.016 C 
HETATM    6  C14 UNL     1      -7.212  -9.800   8.551  1.00  0.00     0.004 C 
HETATM    7  C15 UNL     1      -5.934  -9.352   7.825  1.00  0.00     0.007 C 
HETATM    8  C16 UNL     1      -5.775 -10.120   6.514  1.00  0.00     0.007 C 
HETATM    9  C17 UNL     1      -6.858  -9.689   5.514  1.00  0.00     0.010 C 
HETATM   10  C18 UNL     1      -6.829 -10.442   4.142  1.00  0.00     0.018 C 
HETATM   11  C19 UNL     1      -6.700 -11.968   4.273  1.00  0.00     0.023 C 
HETATM   12  C20 UNL     1      -5.661  -9.925   3.281  1.00  0.00     0.023 C 
HETATM   13  C21 UNL     1      -8.124 -10.123   3.372  1.00  0.00     0.135 C 
HETATM   14  O2  UNL     1      -8.525 -10.810   2.431  1.00  0.00    -0.297 OA
HETATM   15  C22 UNL     1      -8.846  -8.859   3.762  1.00  0.00     0.080 C 
HETATM   16  C23 UNL     1      -9.267  -8.919   5.225  1.00  0.00     0.018 C 
HETATM   17  C24 UNL     1      -8.274  -9.677   6.105  1.00  0.00    -0.026 A 
HETATM   18  C25 UNL     1      -8.805 -10.890   6.829  1.00  0.00     0.021 A 
HETATM   19  C26 UNL     1      -8.463  -9.659   7.648  1.00  0.00    -0.027 A 
HETATM   20  C27 UNL     1      -9.643  -8.858   8.207  1.00  0.00     0.011 C 
HETATM   21  C28 UNL     1      -9.922  -8.964   9.718  1.00  0.00     0.011 C 
HETATM   22  C29 UNL     1      -8.799  -9.615  10.537  1.00  0.00    -0.032 C 
HETATM   23  C30 UNL     1      -9.013 -11.155  10.488  1.00  0.00     0.016 C 
ENDROOT
BRANCH   1  24
HETATM   24  C8  UNL     1      -9.666  -9.595  13.126  1.00  0.00     0.014 C 
HETATM   25  C7  UNL     1      -9.005 -10.331  14.292  1.00  0.00     0.010 C 
HETATM   26  C6  UNL     1     -10.087 -10.944  15.176  1.00  0.00     0.041 C 
HETATM   27  C4  UNL     1     -11.160  -9.907  15.615  1.00  0.00     0.085 C 
HETATM   28  O3  UNL     1     -10.891  -8.608  15.046  1.00  0.00    -0.377 OA
HETATM   29  C31 UNL     1     -10.678  -8.557  13.633  1.00  0.00     0.174 C 
BRANCH  27  30
HETATM   30  C2  UNL     1     -11.118  -9.731  17.178  1.00  0.00     0.014 C 
HETATM   31  C1  UNL     1      -9.824  -9.101  17.716  1.00  0.00     0.012 C 
HETATM   32  C3  UNL     1     -11.321 -11.066  17.919  1.00  0.00     0.012 C 
ENDBRANCH  27  30
BRANCH  27  33
HETATM   33  C5  UNL     1     -12.556 -10.393  15.128  1.00  0.00     0.202 C 
BRANCH  33  34
HETATM   34  O1  UNL     1     -13.586  -9.452  15.419  1.00  0.00    -0.398 OA
HETATM   35  H10 UNL     1     -13.156  -8.576  15.417  1.00  0.00     0.209 HD
ENDBRANCH  33  34
ENDBRANCH  27  33
ENDBRANCH   1  24
TORSDOF 4
ENDMDL
