MODEL 1
REMARK minimizedAffinity -10.7622681
REMARK CNNscore 0.70850265
REMARK CNNaffinity 8.58834743
REMARK  8 active torsions:
REMARK  status: ('A' for Active; 'I' for Inactive)
REMARK    1  A    between atoms: C3_4  and  O2_5 
REMARK    2  A    between atoms: O2_5  and  C4_6 
REMARK    3  A    between atoms: C7_10  and  O4_11 
REMARK    4  A    between atoms: O4_11  and  C8_12 
REMARK    5  A    between atoms: C11_16  and  O6_17 
REMARK    6  A    between atoms: O6_17  and  C12_18 
REMARK    7  A    between atoms: C26_33  and  C27_34 
REMARK    8  A    between atoms: C33_42  and  O10_43 
ROOT
HETATM    1  C12 UNL     1      -0.970  50.813 -12.727  1.00  0.00     0.125 C 
HETATM    2  C13 UNL     1      -1.771  51.863 -13.430  1.00  0.00     0.033 C 
HETATM    3  C14 UNL     1      -2.202  52.952 -12.482  1.00  0.00     0.012 C 
HETATM    4  C15 UNL     1      -2.706  52.454 -11.066  1.00  0.00    -0.036 C 
HETATM    5  C16 UNL     1      -4.006  53.206 -10.694  1.00  0.00     0.016 C 
HETATM    6  C17 UNL     1      -2.918  50.906 -11.110  1.00  0.00    -0.004 C 
HETATM    7  C18 UNL     1      -3.388  50.426  -9.710  1.00  0.00     0.006 C 
HETATM    8  C19 UNL     1      -2.364  50.674  -8.616  1.00  0.00     0.008 C 
HETATM    9  C20 UNL     1      -1.649  52.083  -8.624  1.00  0.00     0.026 C 
HETATM   10  C21 UNL     1      -1.595  52.756 -10.023  1.00  0.00     0.008 C 
HETATM   11  C22 UNL     1      -1.275  54.256  -9.831  1.00  0.00     0.085 C 
HETATM   12  C23 UNL     1      -0.289  54.554  -8.722  1.00  0.00     0.139 C 
HETATM   13  O7  UNL     1      -0.283  55.632  -8.114  1.00  0.00    -0.297 OA
HETATM   14  C24 UNL     1       0.692  53.434  -8.396  1.00  0.00     0.055 C 
HETATM   15  C25 UNL     1       1.723  53.892  -7.307  1.00  0.00     0.027 C 
HETATM   16  C26 UNL     1       1.490  52.941  -9.650  1.00  0.00     0.035 C 
HETATM   17  C31 UNL     1       1.950  51.518  -9.244  1.00  0.00     0.013 C 
HETATM   18  C32 UNL     1       0.759  50.938  -8.511  1.00  0.00     0.040 C 
HETATM   19  C33 UNL     1      -0.152  52.133  -8.005  1.00  0.00     0.077 C 
HETATM   20  C34 UNL     1      -1.662  50.158 -11.559  1.00  0.00     0.037 C 
ENDROOT
BRANCH   1  21
HETATM   21  O6  UNL     1       0.125  50.222 -13.130  1.00  0.00    -0.355 OA
BRANCH  21  22
HETATM   22  C11 UNL     1       0.647  50.385 -14.300  1.00  0.00     0.274 C 
HETATM   23  C10 UNL     1       0.094  49.636 -15.476  1.00  0.00     0.147 C 
HETATM   24  C9  UNL     1      -0.423  50.768 -16.412  1.00  0.00     0.190 C 
HETATM   25  C8  UNL     1       0.487  51.744 -16.599  1.00  0.00     0.150 C 
HETATM   26  O5  UNL     1      -1.577  50.586 -16.854  1.00  0.00    -0.290 OA
HETATM   27  C35 UNL     1       1.698  51.705 -15.765  1.00  0.00     0.100 C 
HETATM   28  O11 UNL     1       1.461  51.358 -14.403  1.00  0.00    -0.318 OA
HETATM   29  C36 UNL     1       2.860  52.249 -16.107  1.00  0.00     0.054 C 
BRANCH  25  30
HETATM   30  O4  UNL     1       0.301  52.849 -17.473  1.00  0.00    -0.313 OA
BRANCH  30  31
HETATM   31  C7  UNL     1       0.455  52.525 -18.785  1.00  0.00     0.280 C 
HETATM   32  C6  UNL     1       1.170  53.624 -19.569  1.00  0.00     0.147 C 
HETATM   33  C5  UNL     1       1.304  53.380 -21.078  1.00  0.00     0.190 C 
HETATM   34  C4  UNL     1       0.886  52.182 -21.539  1.00  0.00     0.150 C 
HETATM   35  O3  UNL     1       1.781  54.380 -21.698  1.00  0.00    -0.290 OA
HETATM   36  C37 UNL     1       0.283  51.189 -20.650  1.00  0.00     0.100 C 
HETATM   37  O12 UNL     1      -0.089  51.473 -19.323  1.00  0.00    -0.318 OA
HETATM   38  C38 UNL     1      -0.108  49.958 -21.019  1.00  0.00     0.054 C 
BRANCH  34  39
HETATM   39  O2  UNL     1       1.022  51.753 -22.902  1.00  0.00    -0.313 OA
BRANCH  39  40
HETATM   40  C3  UNL     1       0.110  52.331 -23.724  1.00  0.00     0.280 C 
HETATM   41  O1  UNL     1       0.470  53.057 -24.747  1.00  0.00    -0.316 OA
HETATM   42  C2  UNL     1      -0.496  53.264 -25.738  1.00  0.00     0.116 C 
HETATM   43  C1  UNL     1       0.014  53.889 -26.809  1.00  0.00     0.055 C 
HETATM   44  C41 UNL     1      -1.903  52.819 -25.691  1.00  0.00     0.249 C 
HETATM   45  C40 UNL     1      -2.327  52.469 -24.294  1.00  0.00     0.206 C 
HETATM   46  O14 UNL     1      -2.701  52.781 -26.609  1.00  0.00    -0.281 OA
HETATM   47  C39 UNL     1      -1.285  52.215 -23.275  1.00  0.00     0.149 C 
HETATM   48  O13 UNL     1      -3.502  52.523 -23.981  1.00  0.00    -0.289 OA
ENDBRANCH  39  40
ENDBRANCH  34  39
ENDBRANCH  30  31
ENDBRANCH  25  30
ENDBRANCH  21  22
ENDBRANCH   1  21
BRANCH  19  49
HETATM   49  O10 UNL     1      -0.273  51.978  -6.708  1.00  0.00    -0.388 OA
ATOM     50  H10 UNL     1       0.604  52.006  -6.345  1.00  0.00     0.210 HD
ENDBRANCH  19  49
BRANCH  16  51
HETATM   51  C27 UNL     1       2.590  53.698 -10.358  1.00  0.00    -0.045 C 
HETATM   52  C28 UNL     1       2.562  54.971 -10.493  1.00  0.00     0.087 C 
HETATM   53  C29 UNL     1       3.634  55.693 -10.269  1.00  0.00     0.283 C 
HETATM   54  O8  UNL     1       3.511  56.941 -10.312  1.00  0.00    -0.260 OA
HETATM   55  O9  UNL     1       4.706  54.792 -10.210  1.00  0.00    -0.314 OA
HETATM   56  C30 UNL     1       4.062  53.420 -10.163  1.00  0.00     0.213 C 
ENDBRANCH  16  51
TORSDOF 8
ENDMDL
MODEL 2
REMARK minimizedAffinity -11.5712986
REMARK CNNscore 0.478534609
REMARK CNNaffinity 7.66700888
REMARK  8 active torsions:
REMARK  status: ('A' for Active; 'I' for Inactive)
REMARK    1  A    between atoms: C3_4  and  O2_5 
REMARK    2  A    between atoms: O2_5  and  C4_6 
REMARK    3  A    between atoms: C7_10  and  O4_11 
REMARK    4  A    between atoms: O4_11  and  C8_12 
REMARK    5  A    between atoms: C11_16  and  O6_17 
REMARK    6  A    between atoms: O6_17  and  C12_18 
REMARK    7  A    between atoms: C26_33  and  C27_34 
REMARK    8  A    between atoms: C33_42  and  O10_43 
ROOT
HETATM    1  C12 UNL     1      -1.571  50.247 -19.761  1.00  0.00     0.125 C 
HETATM    2  C13 UNL     1      -1.140  48.815 -19.700  1.00  0.00     0.033 C 
HETATM    3  C14 UNL     1      -1.742  48.012 -20.823  1.00  0.00     0.012 C 
HETATM    4  C15 UNL     1      -3.264  48.320 -21.133  1.00  0.00    -0.036 C 
HETATM    5  C16 UNL     1      -4.028  46.986 -21.311  1.00  0.00     0.016 C 
HETATM    6  C17 UNL     1      -3.860  49.185 -19.976  1.00  0.00    -0.004 C 
HETATM    7  C18 UNL     1      -5.345  49.500 -20.302  1.00  0.00     0.006 C 
HETATM    8  C19 UNL     1      -5.520  50.323 -21.567  1.00  0.00     0.008 C 
HETATM    9  C20 UNL     1      -4.648  49.894 -22.813  1.00  0.00     0.026 C 
HETATM   10  C21 UNL     1      -3.333  49.156 -22.441  1.00  0.00     0.008 C 
HETATM   11  C22 UNL     1      -2.804  48.435 -23.701  1.00  0.00     0.085 C 
HETATM   12  C23 UNL     1      -2.996  49.200 -24.993  1.00  0.00     0.139 C 
HETATM   13  O7  UNL     1      -3.098  48.634 -26.089  1.00  0.00    -0.297 OA
HETATM   14  C24 UNL     1      -3.062  50.717 -24.854  1.00  0.00     0.055 C 
HETATM   15  C25 UNL     1      -3.159  51.403 -26.262  1.00  0.00     0.027 C 
HETATM   16  C26 UNL     1      -1.825  51.313 -24.102  1.00  0.00     0.035 C 
HETATM   17  C31 UNL     1      -2.345  52.680 -23.587  1.00  0.00     0.013 C 
HETATM   18  C32 UNL     1      -3.761  52.391 -23.135  1.00  0.00     0.040 C 
HETATM   19  C33 UNL     1      -4.262  51.072 -23.859  1.00  0.00     0.077 C 
HETATM   20  C34 UNL     1      -3.062  50.467 -19.735  1.00  0.00     0.037 C 
ENDROOT
BRANCH   1  21
HETATM   21  O6  UNL     1      -0.846  51.322 -19.585  1.00  0.00    -0.355 OA
BRANCH  21  22
HETATM   22  C11 UNL     1      -0.401  51.715 -18.437  1.00  0.00     0.274 C 
HETATM   23  C10 UNL     1      -1.220  51.487 -17.201  1.00  0.00     0.147 C 
HETATM   24  C9  UNL     1      -0.323  50.545 -16.346  1.00  0.00     0.190 C 
HETATM   25  C8  UNL     1       0.946  50.987 -16.244  1.00  0.00     0.150 C 
HETATM   26  O5  UNL     1      -0.918  49.553 -15.875  1.00  0.00    -0.290 OA
HETATM   27  C35 UNL     1       1.333  52.125 -17.090  1.00  0.00     0.100 C 
HETATM   28  O11 UNL     1       0.821  52.071 -18.419  1.00  0.00    -0.318 OA
HETATM   29  C36 UNL     1       2.320  52.967 -16.806  1.00  0.00     0.054 C 
BRANCH  25  30
HETATM   30  O4  UNL     1       1.946  50.359 -15.452  1.00  0.00    -0.313 OA
BRANCH  30  31
HETATM   31  C7  UNL     1       1.939  50.772 -14.157  1.00  0.00     0.280 C 
HETATM   32  C6  UNL     1       0.795  51.745 -13.871  1.00  0.00     0.147 C 
HETATM   33  C5  UNL     1       0.766  52.333 -12.454  1.00  0.00     0.190 C 
HETATM   34  C4  UNL     1       1.672  51.851 -11.577  1.00  0.00     0.150 C 
HETATM   35  O3  UNL     1      -0.117  53.234 -12.313  1.00  0.00    -0.290 OA
HETATM   36  C37 UNL     1       2.669  50.857 -11.977  1.00  0.00     0.100 C 
HETATM   37  O12 UNL     1       2.890  50.489 -13.317  1.00  0.00    -0.318 OA
HETATM   38  C38 UNL     1       3.566  50.289 -11.155  1.00  0.00     0.054 C 
BRANCH  34  39
HETATM   39  O2  UNL     1       1.726  52.220 -10.191  1.00  0.00    -0.313 OA
BRANCH  39  40
HETATM   40  C3  UNL     1       2.610  53.222  -9.953  1.00  0.00     0.280 C 
HETATM   41  O1  UNL     1       2.784  54.199 -10.800  1.00  0.00    -0.316 OA
HETATM   42  C2  UNL     1       3.391  55.359 -10.302  1.00  0.00     0.116 C 
HETATM   43  C1  UNL     1       3.387  56.350 -11.203  1.00  0.00     0.055 C 
HETATM   44  C41 UNL     1       3.931  55.543  -8.940  1.00  0.00     0.249 C 
HETATM   45  C40 UNL     1       4.142  54.230  -8.245  1.00  0.00     0.206 C 
HETATM   46  O14 UNL     1       4.255  56.588  -8.405  1.00  0.00    -0.281 OA
HETATM   47  C39 UNL     1       3.458  53.028  -8.769  1.00  0.00     0.149 C 
HETATM   48  O13 UNL     1       4.963  54.137  -7.351  1.00  0.00    -0.289 OA
ENDBRANCH  39  40
ENDBRANCH  34  39
ENDBRANCH  30  31
ENDBRANCH  25  30
ENDBRANCH  21  22
ENDBRANCH   1  21
BRANCH  19  49
HETATM   49  O10 UNL     1      -5.366  51.396 -24.489  1.00  0.00    -0.388 OA
ATOM     50  H10 UNL     1      -5.139  52.086 -25.101  1.00  0.00     0.210 HD
ENDBRANCH  19  49
BRANCH  16  51
HETATM   51  C27 UNL     1      -0.420  51.425 -24.650  1.00  0.00    -0.045 C 
HETATM   52  C28 UNL     1      -0.127  51.079 -25.847  1.00  0.00     0.087 C 
HETATM   53  C29 UNL     1       0.636  51.838 -26.597  1.00  0.00     0.283 C 
HETATM   54  O8  UNL     1       0.796  51.497 -27.794  1.00  0.00    -0.260 OA
HETATM   55  O9  UNL     1       1.222  52.775 -25.735  1.00  0.00    -0.314 OA
HETATM   56  C30 UNL     1       0.477  52.619 -24.422  1.00  0.00     0.213 C 
ENDBRANCH  16  51
TORSDOF 8
ENDMDL
MODEL 3
REMARK minimizedAffinity -11.9961958
REMARK CNNscore 0.440776527
REMARK CNNaffinity 7.73090982
REMARK  8 active torsions:
REMARK  status: ('A' for Active; 'I' for Inactive)
REMARK    1  A    between atoms: C3_4  and  O2_5 
REMARK    2  A    between atoms: O2_5  and  C4_6 
REMARK    3  A    between atoms: C7_10  and  O4_11 
REMARK    4  A    between atoms: O4_11  and  C8_12 
REMARK    5  A    between atoms: C11_16  and  O6_17 
REMARK    6  A    between atoms: O6_17  and  C12_18 
REMARK    7  A    between atoms: C26_33  and  C27_34 
REMARK    8  A    between atoms: C33_42  and  O10_43 
ROOT
HETATM    1  C12 UNL     1      -1.750  50.031 -19.925  1.00  0.00     0.125 C 
HETATM    2  C13 UNL     1      -1.364  48.585 -19.942  1.00  0.00     0.033 C 
HETATM    3  C14 UNL     1      -1.963  47.870 -21.125  1.00  0.00     0.012 C 
HETATM    4  C15 UNL     1      -3.467  48.243 -21.450  1.00  0.00    -0.036 C 
HETATM    5  C16 UNL     1      -4.266  46.947 -21.725  1.00  0.00     0.016 C 
HETATM    6  C17 UNL     1      -4.065  49.056 -20.256  1.00  0.00    -0.004 C 
HETATM    7  C18 UNL     1      -5.531  49.437 -20.596  1.00  0.00     0.006 C 
HETATM    8  C19 UNL     1      -5.650  50.339 -21.813  1.00  0.00     0.008 C 
HETATM    9  C20 UNL     1      -4.761  49.958 -23.063  1.00  0.00     0.026 C 
HETATM   10  C21 UNL     1      -3.478  49.158 -22.705  1.00  0.00     0.008 C 
HETATM   11  C22 UNL     1      -2.941  48.497 -23.995  1.00  0.00     0.085 C 
HETATM   12  C23 UNL     1      -3.078  49.344 -25.242  1.00  0.00     0.139 C 
HETATM   13  O7  UNL     1      -3.170  48.847 -26.372  1.00  0.00    -0.297 OA
HETATM   14  C24 UNL     1      -3.102  50.850 -25.014  1.00  0.00     0.055 C 
HETATM   15  C25 UNL     1      -3.143  51.622 -26.379  1.00  0.00     0.027 C 
HETATM   16  C26 UNL     1      -1.866  51.361 -24.199  1.00  0.00     0.035 C 
HETATM   17  C31 UNL     1      -2.356  52.710 -23.615  1.00  0.00     0.013 C 
HETATM   18  C32 UNL     1      -3.791  52.440 -23.213  1.00  0.00     0.040 C 
HETATM   19  C33 UNL     1      -4.313  51.184 -24.026  1.00  0.00     0.077 C 
HETATM   20  C34 UNL     1      -3.234  50.295 -19.920  1.00  0.00     0.037 C 
ENDROOT
BRANCH   1  21
HETATM   21  O6  UNL     1      -0.997  51.069 -19.669  1.00  0.00    -0.355 OA
BRANCH  21  22
HETATM   22  C11 UNL     1      -0.592  51.395 -18.486  1.00  0.00     0.274 C 
HETATM   23  C10 UNL     1      -1.463  51.118 -17.295  1.00  0.00     0.147 C 
HETATM   24  C9  UNL     1      -0.615  50.117 -16.457  1.00  0.00     0.190 C 
HETATM   25  C8  UNL     1       0.656  50.530 -16.283  1.00  0.00     0.150 C 
HETATM   26  O5  UNL     1      -1.244  49.112 -16.062  1.00  0.00    -0.290 OA
HETATM   27  C35 UNL     1       1.094  51.704 -17.053  1.00  0.00     0.100 C 
HETATM   28  O11 UNL     1       0.634  51.727 -18.402  1.00  0.00    -0.318 OA
HETATM   29  C36 UNL     1       2.082  52.512 -16.688  1.00  0.00     0.054 C 
BRANCH  25  30
HETATM   30  O4  UNL     1       1.614  49.845 -15.488  1.00  0.00    -0.313 OA
BRANCH  30  31
HETATM   31  C7  UNL     1       1.767  50.388 -14.251  1.00  0.00     0.280 C 
HETATM   32  C6  UNL     1       3.023  49.873 -13.548  1.00  0.00     0.147 C 
HETATM   33  C5  UNL     1       3.225  50.364 -12.109  1.00  0.00     0.190 C 
HETATM   34  C4  UNL     1       2.347  51.283 -11.652  1.00  0.00     0.150 C 
HETATM   35  O3  UNL     1       4.203  49.802 -11.529  1.00  0.00    -0.290 OA
HETATM   36  C37 UNL     1       1.225  51.743 -12.472  1.00  0.00     0.100 C 
HETATM   37  O12 UNL     1       0.862  51.131 -13.685  1.00  0.00    -0.318 OA
HETATM   38  C38 UNL     1       0.343  52.689 -12.113  1.00  0.00     0.054 C 
BRANCH  34  39
HETATM   39  O2  UNL     1       2.441  51.917 -10.367  1.00  0.00    -0.313 OA
BRANCH  39  40
HETATM   40  C3  UNL     1       3.420  52.855 -10.321  1.00  0.00     0.280 C 
HETATM   41  O1  UNL     1       3.279  54.024 -10.884  1.00  0.00    -0.316 OA
HETATM   42  C2  UNL     1       4.142  55.037 -10.449  1.00  0.00     0.116 C 
HETATM   43  C1  UNL     1       3.819  56.226 -10.974  1.00  0.00     0.055 C 
HETATM   44  C41 UNL     1       5.250  54.883  -9.486  1.00  0.00     0.249 C 
HETATM   45  C40 UNL     1       5.637  53.444  -9.311  1.00  0.00     0.206 C 
HETATM   46  O14 UNL     1       5.869  55.766  -8.919  1.00  0.00    -0.281 OA
HETATM   47  C39 UNL     1       4.689  52.393  -9.742  1.00  0.00     0.149 C 
HETATM   48  O13 UNL     1       6.761  53.154  -8.943  1.00  0.00    -0.289 OA
ENDBRANCH  39  40
ENDBRANCH  34  39
ENDBRANCH  30  31
ENDBRANCH  25  30
ENDBRANCH  21  22
ENDBRANCH   1  21
BRANCH  19  49
HETATM   49  O10 UNL     1      -5.391  51.579 -24.660  1.00  0.00    -0.388 OA
ATOM     50  H10 UNL     1      -5.129  52.297 -25.224  1.00  0.00     0.210 HD
ENDBRANCH  19  49
BRANCH  16  51
HETATM   51  C27 UNL     1      -0.445  51.461 -24.707  1.00  0.00    -0.045 C 
HETATM   52  C28 UNL     1      -0.117  51.090 -25.887  1.00  0.00     0.087 C 
HETATM   53  C29 UNL     1       0.669  51.833 -26.630  1.00  0.00     0.283 C 
HETATM   54  O8  UNL     1       0.863  51.466 -27.815  1.00  0.00    -0.260 OA
HETATM   55  O9  UNL     1       1.230  52.787 -25.771  1.00  0.00    -0.314 OA
HETATM   56  C30 UNL     1       0.447  52.659 -24.478  1.00  0.00     0.213 C 
ENDBRANCH  16  51
TORSDOF 8
ENDMDL
MODEL 4
REMARK minimizedAffinity -10.5685482
REMARK CNNscore 0.390365332
REMARK CNNaffinity 6.87357473
REMARK  8 active torsions:
REMARK  status: ('A' for Active; 'I' for Inactive)
REMARK    1  A    between atoms: C3_4  and  O2_5 
REMARK    2  A    between atoms: O2_5  and  C4_6 
REMARK    3  A    between atoms: C7_10  and  O4_11 
REMARK    4  A    between atoms: O4_11  and  C8_12 
REMARK    5  A    between atoms: C11_16  and  O6_17 
REMARK    6  A    between atoms: O6_17  and  C12_18 
REMARK    7  A    between atoms: C26_33  and  C27_34 
REMARK    8  A    between atoms: C33_42  and  O10_43 
ROOT
HETATM    1  C12 UNL     1      -3.649  49.151 -19.227  1.00  0.00     0.125 C 
HETATM    2  C13 UNL     1      -3.339  47.696 -19.393  1.00  0.00     0.033 C 
HETATM    3  C14 UNL     1      -3.613  47.234 -20.801  1.00  0.00     0.012 C 
HETATM    4  C15 UNL     1      -4.946  47.790 -21.448  1.00  0.00    -0.036 C 
HETATM    5  C16 UNL     1      -5.693  46.632 -22.152  1.00  0.00     0.016 C 
HETATM    6  C17 UNL     1      -5.819  48.456 -20.335  1.00  0.00    -0.004 C 
HETATM    7  C18 UNL     1      -7.112  49.019 -20.985  1.00  0.00     0.006 C 
HETATM    8  C19 UNL     1      -6.844  50.108 -22.010  1.00  0.00     0.008 C 
HETATM    9  C20 UNL     1      -5.657  49.848 -23.021  1.00  0.00     0.026 C 
HETATM   10  C21 UNL     1      -4.564  48.887 -22.478  1.00  0.00     0.008 C 
HETATM   11  C22 UNL     1      -3.716  48.390 -23.671  1.00  0.00     0.085 C 
HETATM   12  C23 UNL     1      -3.458  49.431 -24.740  1.00  0.00     0.139 C 
HETATM   13  O7  UNL     1      -3.252  49.129 -25.922  1.00  0.00    -0.297 OA
HETATM   14  C24 UNL     1      -3.479  50.879 -24.265  1.00  0.00     0.055 C 
HETATM   15  C25 UNL     1      -3.101  51.856 -25.432  1.00  0.00     0.027 C 
HETATM   16  C26 UNL     1      -2.500  51.141 -23.070  1.00  0.00     0.035 C 
HETATM   17  C31 UNL     1      -3.074  52.420 -22.411  1.00  0.00     0.013 C 
HETATM   18  C32 UNL     1      -4.575  52.223 -22.465  1.00  0.00     0.040 C 
HETATM   19  C33 UNL     1      -4.903  51.163 -23.597  1.00  0.00     0.077 C 
HETATM   20  C34 UNL     1      -5.062  49.546 -19.575  1.00  0.00     0.037 C 
ENDROOT
BRANCH   1  21
HETATM   21  O6  UNL     1      -2.953  50.063 -18.598  1.00  0.00    -0.355 OA
BRANCH  21  22
HETATM   22  C11 UNL     1      -2.616  49.986 -17.353  1.00  0.00     0.274 C 
HETATM   23  C10 UNL     1      -1.708  48.885 -16.893  1.00  0.00     0.147 C 
HETATM   24  C9  UNL     1      -0.454  49.648 -16.373  1.00  0.00     0.190 C 
HETATM   25  C8  UNL     1      -0.769  50.658 -15.539  1.00  0.00     0.150 C 
HETATM   26  O5  UNL     1       0.634  49.197 -16.788  1.00  0.00    -0.290 OA
HETATM   27  C35 UNL     1      -2.192  51.009 -15.414  1.00  0.00     0.100 C 
HETATM   28  O11 UNL     1      -2.909  51.002 -16.645  1.00  0.00    -0.318 OA
HETATM   29  C36 UNL     1      -2.726  51.603 -14.352  1.00  0.00     0.054 C 
BRANCH  25  30
HETATM   30  O4  UNL     1       0.189  51.458 -14.859  1.00  0.00    -0.313 OA
BRANCH  30  31
HETATM   31  C7  UNL     1       0.968  50.746 -14.002  1.00  0.00     0.280 C 
HETATM   32  C6  UNL     1       2.454  50.869 -14.339  1.00  0.00     0.147 C 
HETATM   33  C5  UNL     1       3.399  50.022 -13.477  1.00  0.00     0.190 C 
HETATM   34  C4  UNL     1       2.844  49.351 -12.445  1.00  0.00     0.150 C 
HETATM   35  O3  UNL     1       4.601  50.057 -13.885  1.00  0.00    -0.290 OA
HETATM   36  C37 UNL     1       1.402  49.386 -12.198  1.00  0.00     0.100 C 
HETATM   37  O12 UNL     1       0.482  49.935 -13.109  1.00  0.00    -0.318 OA
HETATM   38  C38 UNL     1       0.781  48.792 -11.167  1.00  0.00     0.054 C 
BRANCH  34  39
HETATM   39  O2  UNL     1       3.592  48.587 -11.487  1.00  0.00    -0.313 OA
BRANCH  39  40
HETATM   40  C3  UNL     1       4.378  49.365 -10.701  1.00  0.00     0.280 C 
HETATM   41  O1  UNL     1       5.521  48.940 -10.238  1.00  0.00    -0.316 OA
HETATM   42  C2  UNL     1       6.421  49.917  -9.795  1.00  0.00     0.116 C 
HETATM   43  C1  UNL     1       7.613  49.392  -9.482  1.00  0.00     0.055 C 
HETATM   44  C41 UNL     1       6.162  51.368  -9.718  1.00  0.00     0.249 C 
HETATM   45  C40 UNL     1       4.693  51.673  -9.776  1.00  0.00     0.206 C 
HETATM   46  O14 UNL     1       6.975  52.260  -9.556  1.00  0.00    -0.281 OA
HETATM   47  C39 UNL     1       3.769  50.637 -10.286  1.00  0.00     0.149 C 
HETATM   48  O13 UNL     1       4.264  52.703  -9.290  1.00  0.00    -0.289 OA
ENDBRANCH  39  40
ENDBRANCH  34  39
ENDBRANCH  30  31
ENDBRANCH  25  30
ENDBRANCH  21  22
ENDBRANCH   1  21
BRANCH  19  49
HETATM   49  O10 UNL     1      -5.741  51.750 -24.418  1.00  0.00    -0.388 OA
ATOM     50  H10 UNL     1      -5.299  52.521 -24.755  1.00  0.00     0.210 HD
ENDBRANCH  19  49
BRANCH  16  51
HETATM   51  C27 UNL     1      -0.991  51.188 -23.151  1.00  0.00    -0.045 C 
HETATM   52  C28 UNL     1      -0.379  51.784 -24.105  1.00  0.00     0.087 C 
HETATM   53  C29 UNL     1       0.649  52.562 -23.860  1.00  0.00     0.283 C 
HETATM   54  O8  UNL     1       1.134  53.201 -24.825  1.00  0.00    -0.260 OA
HETATM   55  O9  UNL     1       1.030  52.301 -22.537  1.00  0.00    -0.314 OA
HETATM   56  C30 UNL     1      -0.094  51.457 -21.965  1.00  0.00     0.213 C 
ENDBRANCH  16  51
TORSDOF 8
ENDMDL
MODEL 5
REMARK minimizedAffinity -10.5633879
REMARK CNNscore 0.36025244
REMARK CNNaffinity 7.43141747
REMARK  8 active torsions:
REMARK  status: ('A' for Active; 'I' for Inactive)
REMARK    1  A    between atoms: C3_4  and  O2_5 
REMARK    2  A    between atoms: O2_5  and  C4_6 
REMARK    3  A    between atoms: C7_10  and  O4_11 
REMARK    4  A    between atoms: O4_11  and  C8_12 
REMARK    5  A    between atoms: C11_16  and  O6_17 
REMARK    6  A    between atoms: O6_17  and  C12_18 
REMARK    7  A    between atoms: C26_33  and  C27_34 
REMARK    8  A    between atoms: C33_42  and  O10_43 
ROOT
HETATM    1  C12 UNL     1      -2.740  50.154 -13.654  1.00  0.00     0.125 C 
HETATM    2  C13 UNL     1      -3.144  51.490 -14.196  1.00  0.00     0.033 C 
HETATM    3  C14 UNL     1      -2.900  52.587 -13.193  1.00  0.00     0.012 C 
HETATM    4  C15 UNL     1      -3.297  52.238 -11.701  1.00  0.00    -0.036 C 
HETATM    5  C16 UNL     1      -4.073  53.428 -11.088  1.00  0.00     0.016 C 
HETATM    6  C17 UNL     1      -4.139  50.921 -11.687  1.00  0.00    -0.004 C 
HETATM    7  C18 UNL     1      -4.502  50.576 -10.217  1.00  0.00     0.006 C 
HETATM    8  C19 UNL     1      -3.287  50.301  -9.347  1.00  0.00     0.008 C 
HETATM    9  C20 UNL     1      -2.064  51.289  -9.511  1.00  0.00     0.026 C 
HETATM   10  C21 UNL     1      -1.991  51.980 -10.900  1.00  0.00     0.008 C 
HETATM   11  C22 UNL     1      -1.046  53.197 -10.790  1.00  0.00     0.085 C 
HETATM   12  C23 UNL     1       0.159  52.982  -9.899  1.00  0.00     0.139 C 
HETATM   13  O7  UNL     1       0.725  53.916  -9.315  1.00  0.00    -0.297 OA
HETATM   14  C24 UNL     1       0.625  51.538  -9.761  1.00  0.00     0.055 C 
HETATM   15  C25 UNL     1       1.934  51.452  -8.901  1.00  0.00     0.027 C 
HETATM   16  C26 UNL     1       0.901  50.853 -11.143  1.00  0.00     0.035 C 
HETATM   17  C31 UNL     1       0.791  49.341 -10.821  1.00  0.00     0.013 C 
HETATM   18  C32 UNL     1      -0.377  49.250  -9.862  1.00  0.00     0.040 C 
HETATM   19  C33 UNL     1      -0.597  50.674  -9.199  1.00  0.00     0.077 C 
HETATM   20  C34 UNL     1      -3.416  49.758 -12.366  1.00  0.00     0.037 C 
ENDROOT
BRANCH   1  21
HETATM   21  O6  UNL     1      -2.085  49.197 -14.258  1.00  0.00    -0.355 OA
BRANCH  21  22
HETATM   22  C11 UNL     1      -1.685  49.256 -15.485  1.00  0.00     0.274 C 
HETATM   23  C10 UNL     1      -2.368  48.431 -16.535  1.00  0.00     0.147 C 
HETATM   24  C9  UNL     1      -2.962  49.499 -17.500  1.00  0.00     0.190 C 
HETATM   25  C8  UNL     1      -2.061  50.435 -17.857  1.00  0.00     0.150 C 
HETATM   26  O5  UNL     1      -4.158  49.310 -17.806  1.00  0.00    -0.290 OA
HETATM   27  C35 UNL     1      -0.772  50.433 -17.150  1.00  0.00     0.100 C 
HETATM   28  O11 UNL     1      -0.871  50.199 -15.747  1.00  0.00    -0.318 OA
HETATM   29  C36 UNL     1       0.357  50.922 -17.651  1.00  0.00     0.054 C 
BRANCH  25  30
HETATM   30  O4  UNL     1      -2.320  51.473 -18.793  1.00  0.00    -0.313 OA
BRANCH  30  31
HETATM   31  C7  UNL     1      -2.185  51.073 -20.085  1.00  0.00     0.280 C 
HETATM   32  C6  UNL     1      -1.044  51.799 -20.796  1.00  0.00     0.147 C 
HETATM   33  C5  UNL     1      -0.879  51.474 -22.286  1.00  0.00     0.190 C 
HETATM   34  C4  UNL     1      -1.675  50.505 -22.789  1.00  0.00     0.150 C 
HETATM   35  O3  UNL     1      -0.010  52.202 -22.856  1.00  0.00    -0.290 OA
HETATM   36  C37 UNL     1      -2.682  49.839 -21.962  1.00  0.00     0.100 C 
HETATM   37  O12 UNL     1      -3.035  50.285 -20.675  1.00  0.00    -0.318 OA
HETATM   38  C38 UNL     1      -3.473  48.833 -22.369  1.00  0.00     0.054 C 
BRANCH  34  39
HETATM   39  O2  UNL     1      -1.591  50.013 -24.134  1.00  0.00    -0.313 OA
BRANCH  39  40
HETATM   40  C3  UNL     1      -1.042  50.914 -24.985  1.00  0.00     0.280 C 
HETATM   41  O1  UNL     1       0.251  51.042 -25.111  1.00  0.00    -0.316 OA
HETATM   42  C2  UNL     1       0.708  51.684 -26.268  1.00  0.00     0.116 C 
HETATM   43  C1  UNL     1       2.042  51.630 -26.374  1.00  0.00     0.055 C 
HETATM   44  C41 UNL     1      -0.134  52.308 -27.308  1.00  0.00     0.249 C 
HETATM   45  C40 UNL     1      -1.531  52.555 -26.817  1.00  0.00     0.206 C 
HETATM   46  O14 UNL     1       0.205  52.671 -28.420  1.00  0.00    -0.281 OA
HETATM   47  C39 UNL     1      -2.002  51.832 -25.615  1.00  0.00     0.149 C 
HETATM   48  O13 UNL     1      -2.211  53.429 -27.323  1.00  0.00    -0.289 OA
ENDBRANCH  39  40
ENDBRANCH  34  39
ENDBRANCH  30  31
ENDBRANCH  25  30
ENDBRANCH  21  22
ENDBRANCH   1  21
BRANCH  19  49
HETATM   49  O10 UNL     1      -0.532  50.487  -7.902  1.00  0.00    -0.388 OA
ATOM     50  H10 UNL     1       0.327  50.127  -7.719  1.00  0.00     0.210 HD
ENDBRANCH  19  49
BRANCH  16  51
HETATM   51  C27 UNL     1       2.066  51.142 -12.061  1.00  0.00    -0.045 C 
HETATM   52  C28 UNL     1       2.987  50.280 -12.282  1.00  0.00     0.087 C 
HETATM   53  C29 UNL     1       3.426  50.065 -13.500  1.00  0.00     0.283 C 
HETATM   54  O8  UNL     1       4.250  49.132 -13.662  1.00  0.00    -0.260 OA
HETATM   55  O9  UNL     1       2.939  51.121 -14.283  1.00  0.00    -0.314 OA
HETATM   56  C30 UNL     1       1.931  51.831 -13.399  1.00  0.00     0.213 C 
ENDBRANCH  16  51
TORSDOF 8
ENDMDL
MODEL 6
REMARK minimizedAffinity -9.94254303
REMARK CNNscore 0.359757245
REMARK CNNaffinity 6.89764786
REMARK  8 active torsions:
REMARK  status: ('A' for Active; 'I' for Inactive)
REMARK    1  A    between atoms: C3_4  and  O2_5 
REMARK    2  A    between atoms: O2_5  and  C4_6 
REMARK    3  A    between atoms: C7_10  and  O4_11 
REMARK    4  A    between atoms: O4_11  and  C8_12 
REMARK    5  A    between atoms: C11_16  and  O6_17 
REMARK    6  A    between atoms: O6_17  and  C12_18 
REMARK    7  A    between atoms: C26_33  and  C27_34 
REMARK    8  A    between atoms: C33_42  and  O10_43 
ROOT
HETATM    1  C12 UNL     1       0.350  53.893 -10.095  1.00  0.00     0.125 C 
HETATM    2  C13 UNL     1       0.972  52.538 -10.237  1.00  0.00     0.033 C 
HETATM    3  C14 UNL     1       2.262  52.442  -9.465  1.00  0.00     0.012 C 
HETATM    4  C15 UNL     1       3.205  53.709  -9.565  1.00  0.00    -0.036 C 
HETATM    5  C16 UNL     1       4.660  53.243  -9.812  1.00  0.00     0.016 C 
HETATM    6  C17 UNL     1       2.690  54.645 -10.706  1.00  0.00    -0.004 C 
HETATM    7  C18 UNL     1       3.608  55.896 -10.778  1.00  0.00     0.006 C 
HETATM    8  C19 UNL     1       3.584  56.733  -9.511  1.00  0.00     0.008 C 
HETATM    9  C20 UNL     1       3.650  55.944  -8.143  1.00  0.00     0.026 C 
HETATM   10  C21 UNL     1       3.111  54.490  -8.225  1.00  0.00     0.008 C 
HETATM   11  C22 UNL     1       3.611  53.714  -6.985  1.00  0.00     0.085 C 
HETATM   12  C23 UNL     1       3.643  54.522  -5.706  1.00  0.00     0.139 C 
HETATM   13  O7  UNL     1       4.426  54.266  -4.781  1.00  0.00    -0.297 OA
HETATM   14  C24 UNL     1       2.654  55.679  -5.635  1.00  0.00     0.055 C 
HETATM   15  C25 UNL     1       2.708  56.376  -4.230  1.00  0.00     0.027 C 
HETATM   16  C26 UNL     1       1.177  55.233  -5.903  1.00  0.00     0.035 C 
HETATM   17  C31 UNL     1       0.480  56.546  -6.340  1.00  0.00     0.013 C 
HETATM   18  C32 UNL     1       1.504  57.234  -7.218  1.00  0.00     0.040 C 
HETATM   19  C33 UNL     1       2.938  56.653  -6.870  1.00  0.00     0.077 C 
HETATM   20  C34 UNL     1       1.226  55.044 -10.517  1.00  0.00     0.037 C 
ENDROOT
BRANCH   1  21
HETATM   21  O6  UNL     1      -0.908  54.192  -9.895  1.00  0.00    -0.355 OA
BRANCH  21  22
HETATM   22  C11 UNL     1      -1.865  53.324  -9.883  1.00  0.00     0.274 C 
HETATM   23  C10 UNL     1      -3.271  53.758 -10.174  1.00  0.00     0.147 C 
HETATM   24  C9  UNL     1      -3.629  52.970 -11.468  1.00  0.00     0.190 C 
HETATM   25  C8  UNL     1      -3.331  51.659 -11.378  1.00  0.00     0.150 C 
HETATM   26  O5  UNL     1      -4.149  53.664 -12.367  1.00  0.00    -0.290 OA
HETATM   27  C35 UNL     1      -2.554  51.224 -10.207  1.00  0.00     0.100 C 
HETATM   28  O11 UNL     1      -1.496  52.106  -9.844  1.00  0.00    -0.318 OA
HETATM   29  C36 UNL     1      -2.576  49.992  -9.711  1.00  0.00     0.054 C 
BRANCH  25  30
HETATM   30  O4  UNL     1      -3.633  50.703 -12.385  1.00  0.00    -0.313 OA
BRANCH  30  31
HETATM   31  C7  UNL     1      -2.653  50.583 -13.319  1.00  0.00     0.280 C 
HETATM   32  C6  UNL     1      -3.101  51.085 -14.691  1.00  0.00     0.147 C 
HETATM   33  C5  UNL     1      -2.087  50.902 -15.827  1.00  0.00     0.190 C 
HETATM   34  C4  UNL     1      -0.869  50.429 -15.484  1.00  0.00     0.150 C 
HETATM   35  O3  UNL     1      -2.560  51.209 -16.964  1.00  0.00    -0.290 OA
HETATM   36  C37 UNL     1      -0.555  50.057 -14.104  1.00  0.00     0.100 C 
HETATM   37  O12 UNL     1      -1.530  49.967 -13.094  1.00  0.00    -0.318 OA
HETATM   38  C38 UNL     1       0.643  49.631 -13.673  1.00  0.00     0.054 C 
BRANCH  34  39
HETATM   39  O2  UNL     1       0.226  50.285 -16.401  1.00  0.00    -0.313 OA
BRANCH  39  40
HETATM   40  C3  UNL     1      -0.087  50.699 -17.654  1.00  0.00     0.280 C 
HETATM   41  O1  UNL     1      -0.052  51.959 -17.990  1.00  0.00    -0.316 OA
HETATM   42  C2  UNL     1       0.007  52.242 -19.360  1.00  0.00     0.116 C 
HETATM   43  C1  UNL     1       0.191  53.548 -19.593  1.00  0.00     0.055 C 
HETATM   44  C41 UNL     1      -0.058  51.255 -20.456  1.00  0.00     0.249 C 
HETATM   45  C40 UNL     1      -0.606  49.939 -19.986  1.00  0.00     0.206 C 
HETATM   46  O14 UNL     1       0.211  51.430 -21.631  1.00  0.00    -0.281 OA
HETATM   47  C39 UNL     1      -0.620  49.650 -18.535  1.00  0.00     0.149 C 
HETATM   48  O13 UNL     1      -1.146  49.185 -20.775  1.00  0.00    -0.289 OA
ENDBRANCH  39  40
ENDBRANCH  34  39
ENDBRANCH  30  31
ENDBRANCH  25  30
ENDBRANCH  21  22
ENDBRANCH   1  21
BRANCH  19  49
HETATM   49  O10 UNL     1       3.682  57.682  -6.544  1.00  0.00    -0.388 OA
ATOM     50  H10 UNL     1       3.265  58.097  -5.799  1.00  0.00     0.210 HD
ENDBRANCH  19  49
BRANCH  16  51
HETATM   51  C27 UNL     1       0.306  54.429  -4.964  1.00  0.00    -0.045 C 
HETATM   52  C28 UNL     1      -0.859  54.826  -4.610  1.00  0.00     0.087 C 
HETATM   53  C29 UNL     1      -1.874  53.995  -4.593  1.00  0.00     0.283 C 
HETATM   54  O8  UNL     1      -3.008  54.471  -4.342  1.00  0.00    -0.260 OA
HETATM   55  O9  UNL     1      -1.328  52.709  -4.701  1.00  0.00    -0.314 OA
HETATM   56  C30 UNL     1       0.131  52.932  -5.055  1.00  0.00     0.213 C 
ENDBRANCH  16  51
TORSDOF 8
ENDMDL
MODEL 7
REMARK minimizedAffinity -12.0958862
REMARK CNNscore 0.354313999
REMARK CNNaffinity 7.16022301
REMARK  8 active torsions:
REMARK  status: ('A' for Active; 'I' for Inactive)
REMARK    1  A    between atoms: C3_4  and  O2_5 
REMARK    2  A    between atoms: O2_5  and  C4_6 
REMARK    3  A    between atoms: C7_10  and  O4_11 
REMARK    4  A    between atoms: O4_11  and  C8_12 
REMARK    5  A    between atoms: C11_16  and  O6_17 
REMARK    6  A    between atoms: O6_17  and  C12_18 
REMARK    7  A    between atoms: C26_33  and  C27_34 
REMARK    8  A    between atoms: C33_42  and  O10_43 
ROOT
HETATM    1  C12 UNL     1      -1.406  49.653 -20.341  1.00  0.00     0.125 C 
HETATM    2  C13 UNL     1      -1.204  48.176 -20.480  1.00  0.00     0.033 C 
HETATM    3  C14 UNL     1      -1.981  47.623 -21.646  1.00  0.00     0.012 C 
HETATM    4  C15 UNL     1      -3.448  48.194 -21.812  1.00  0.00    -0.036 C 
HETATM    5  C16 UNL     1      -4.421  47.024 -22.093  1.00  0.00     0.016 C 
HETATM    6  C17 UNL     1      -3.842  48.984 -20.522  1.00  0.00    -0.004 C 
HETATM    7  C18 UNL     1      -5.272  49.559 -20.706  1.00  0.00     0.006 C 
HETATM    8  C19 UNL     1      -5.377  50.553 -21.850  1.00  0.00     0.008 C 
HETATM    9  C20 UNL     1      -4.646  50.160 -23.195  1.00  0.00     0.026 C 
HETATM   10  C21 UNL     1      -3.448  49.190 -23.003  1.00  0.00     0.008 C 
HETATM   11  C22 UNL     1      -3.104  48.564 -24.374  1.00  0.00     0.085 C 
HETATM   12  C23 UNL     1      -3.235  49.507 -25.550  1.00  0.00     0.139 C 
HETATM   13  O7  UNL     1      -3.480  49.107 -26.695  1.00  0.00    -0.297 OA
HETATM   14  C24 UNL     1      -3.054  50.986 -25.229  1.00  0.00     0.055 C 
HETATM   15  C25 UNL     1      -3.110  51.853 -26.535  1.00  0.00     0.027 C 
HETATM   16  C26 UNL     1      -1.702  51.289 -24.499  1.00  0.00     0.035 C 
HETATM   17  C31 UNL     1      -1.973  52.641 -23.791  1.00  0.00     0.013 C 
HETATM   18  C32 UNL     1      -3.392  52.514 -23.280  1.00  0.00     0.040 C 
HETATM   19  C33 UNL     1      -4.131  51.389 -24.119  1.00  0.00     0.077 C 
HETATM   20  C34 UNL     1      -2.840  50.089 -20.187  1.00  0.00     0.037 C 
ENDROOT
BRANCH   1  21
HETATM   21  O6  UNL     1      -0.511  50.574 -20.090  1.00  0.00    -0.355 OA
BRANCH  21  22
HETATM   22  C11 UNL     1      -0.453  51.245 -18.987  1.00  0.00     0.274 C 
HETATM   23  C10 UNL     1      -1.714  51.561 -18.237  1.00  0.00     0.147 C 
HETATM   24  C9  UNL     1      -1.520  50.820 -16.881  1.00  0.00     0.190 C 
HETATM   25  C8  UNL     1      -0.321  51.068 -16.321  1.00  0.00     0.150 C 
HETATM   26  O5  UNL     1      -2.503  50.139 -16.520  1.00  0.00    -0.290 OA
HETATM   27  C35 UNL     1       0.666  51.795 -17.133  1.00  0.00     0.100 C 
HETATM   28  O11 UNL     1       0.714  51.392 -18.500  1.00  0.00    -0.318 OA
HETATM   29  C36 UNL     1       1.660  52.519 -16.632  1.00  0.00     0.054 C 
BRANCH  25  30
HETATM   30  O4  UNL     1       0.077  50.584 -15.044  1.00  0.00    -0.313 OA
BRANCH  30  31
HETATM   31  C7  UNL     1      -0.465  51.287 -14.015  1.00  0.00     0.280 C 
HETATM   32  C6  UNL     1       0.541  52.248 -13.382  1.00  0.00     0.147 C 
HETATM   33  C5  UNL     1       0.040  53.017 -12.153  1.00  0.00     0.190 C 
HETATM   34  C4  UNL     1      -1.260  52.857 -11.825  1.00  0.00     0.150 C 
HETATM   35  O3  UNL     1       0.953  53.694 -11.589  1.00  0.00    -0.290 OA
HETATM   36  C37 UNL     1      -2.132  51.951 -12.574  1.00  0.00     0.100 C 
HETATM   37  O12 UNL     1      -1.650  51.044 -13.535  1.00  0.00    -0.318 OA
HETATM   38  C38 UNL     1      -3.444  51.777 -12.346  1.00  0.00     0.054 C 
BRANCH  34  39
HETATM   39  O2  UNL     1      -1.916  53.569 -10.764  1.00  0.00    -0.313 OA
BRANCH  39  40
HETATM   40  C3  UNL     1      -1.133  53.701  -9.665  1.00  0.00     0.280 C 
HETATM   41  O1  UNL     1      -0.763  52.670  -8.956  1.00  0.00    -0.316 OA
HETATM   42  C2  UNL     1       0.338  52.852  -8.112  1.00  0.00     0.116 C 
HETATM   43  C1  UNL     1       0.729  51.702  -7.546  1.00  0.00     0.055 C 
HETATM   44  C41 UNL     1       1.059  54.120  -7.882  1.00  0.00     0.249 C 
HETATM   45  C40 UNL     1       0.253  55.305  -8.326  1.00  0.00     0.206 C 
HETATM   46  O14 UNL     1       2.140  54.272  -7.342  1.00  0.00    -0.281 OA
HETATM   47  C39 UNL     1      -0.882  55.089  -9.250  1.00  0.00     0.149 C 
HETATM   48  O13 UNL     1       0.451  56.399  -7.831  1.00  0.00    -0.289 OA
ENDBRANCH  39  40
ENDBRANCH  34  39
ENDBRANCH  30  31
ENDBRANCH  25  30
ENDBRANCH  21  22
ENDBRANCH   1  21
BRANCH  19  49
HETATM   49  O10 UNL     1      -5.199  51.954 -24.629  1.00  0.00    -0.388 OA
ATOM     50  H10 UNL     1      -4.897  52.674 -25.169  1.00  0.00     0.210 HD
ENDBRANCH  19  49
BRANCH  16  51
HETATM   51  C27 UNL     1      -0.326  51.256 -25.124  1.00  0.00    -0.045 C 
HETATM   52  C28 UNL     1      -0.151  51.017 -26.369  1.00  0.00     0.087 C 
HETATM   53  C29 UNL     1       0.684  51.740 -27.080  1.00  0.00     0.283 C 
HETATM   54  O8  UNL     1       0.728  51.525 -28.316  1.00  0.00    -0.260 OA
HETATM   55  O9  UNL     1       1.450  52.468 -26.160  1.00  0.00    -0.314 OA
HETATM   56  C30 UNL     1       0.757  52.266 -24.826  1.00  0.00     0.213 C 
ENDBRANCH  16  51
TORSDOF 8
ENDMDL
MODEL 8
REMARK minimizedAffinity -10.047411
REMARK CNNscore 0.30955711
REMARK CNNaffinity 6.29618597
REMARK  8 active torsions:
REMARK  status: ('A' for Active; 'I' for Inactive)
REMARK    1  A    between atoms: C3_4  and  O2_5 
REMARK    2  A    between atoms: O2_5  and  C4_6 
REMARK    3  A    between atoms: C7_10  and  O4_11 
REMARK    4  A    between atoms: O4_11  and  C8_12 
REMARK    5  A    between atoms: C11_16  and  O6_17 
REMARK    6  A    between atoms: O6_17  and  C12_18 
REMARK    7  A    between atoms: C26_33  and  C27_34 
REMARK    8  A    between atoms: C33_42  and  O10_43 
ROOT
HETATM    1  C12 UNL     1      -6.791  48.052 -22.695  1.00  0.00     0.125 C 
HETATM    2  C13 UNL     1      -7.778  48.794 -21.848  1.00  0.00     0.033 C 
HETATM    3  C14 UNL     1      -7.119  49.387 -20.630  1.00  0.00     0.012 C 
HETATM    4  C15 UNL     1      -6.071  48.449 -19.904  1.00  0.00    -0.036 C 
HETATM    5  C16 UNL     1      -6.313  48.499 -18.377  1.00  0.00     0.016 C 
HETATM    6  C17 UNL     1      -6.202  46.997 -20.469  1.00  0.00    -0.004 C 
HETATM    7  C18 UNL     1      -5.152  46.092 -19.768  1.00  0.00     0.006 C 
HETATM    8  C19 UNL     1      -3.719  46.515 -20.038  1.00  0.00     0.008 C 
HETATM    9  C20 UNL     1      -3.413  48.063 -19.957  1.00  0.00     0.026 C 
HETATM   10  C21 UNL     1      -4.645  48.967 -20.239  1.00  0.00     0.008 C 
HETATM   11  C22 UNL     1      -4.334  50.390 -19.723  1.00  0.00     0.085 C 
HETATM   12  C23 UNL     1      -2.903  50.839 -19.934  1.00  0.00     0.139 C 
HETATM   13  O7  UNL     1      -2.357  51.674 -19.201  1.00  0.00    -0.297 OA
HETATM   14  C24 UNL     1      -2.176  50.187 -21.104  1.00  0.00     0.055 C 
HETATM   15  C25 UNL     1      -0.744  50.802 -21.284  1.00  0.00     0.027 C 
HETATM   16  C26 UNL     1      -2.947  50.337 -22.458  1.00  0.00     0.035 C 
HETATM   17  C31 UNL     1      -2.377  49.184 -23.323  1.00  0.00     0.013 C 
HETATM   18  C32 UNL     1      -2.246  48.026 -22.357  1.00  0.00     0.040 C 
HETATM   19  C33 UNL     1      -2.195  48.604 -20.882  1.00  0.00     0.077 C 
HETATM   20  C34 UNL     1      -6.048  46.947 -21.989  1.00  0.00     0.037 C 
ENDROOT
BRANCH   1  21
HETATM   21  O6  UNL     1      -6.667  48.066 -23.997  1.00  0.00    -0.355 OA
BRANCH  21  22
HETATM   22  C11 UNL     1      -7.558  47.608 -24.813  1.00  0.00     0.274 C 
HETATM   23  C10 UNL     1      -8.023  46.186 -24.691  1.00  0.00     0.147 C 
HETATM   24  C9  UNL     1      -9.537  46.332 -24.358  1.00  0.00     0.190 C 
HETATM   25  C8  UNL     1     -10.172  47.182 -25.188  1.00  0.00     0.150 C 
HETATM   26  O5  UNL     1      -9.925  45.630 -23.400  1.00  0.00    -0.290 OA
HETATM   27  C35 UNL     1      -9.342  47.973 -26.108  1.00  0.00     0.100 C 
HETATM   28  O11 UNL     1      -8.144  48.484 -25.528  1.00  0.00    -0.318 OA
HETATM   29  C36 UNL     1      -9.769  48.470 -27.263  1.00  0.00     0.054 C 
BRANCH  25  30
HETATM   30  O4  UNL     1     -11.572  47.430 -25.155  1.00  0.00    -0.313 OA
BRANCH  30  31
HETATM   31  C7  UNL     1     -12.296  46.487 -25.816  1.00  0.00     0.280 C 
HETATM   32  C6  UNL     1     -12.987  45.517 -24.857  1.00  0.00     0.147 C 
HETATM   33  C5  UNL     1     -13.753  44.365 -25.520  1.00  0.00     0.190 C 
HETATM   34  C4  UNL     1     -13.836  44.387 -26.868  1.00  0.00     0.150 C 
HETATM   35  O3  UNL     1     -14.190  43.518 -24.682  1.00  0.00    -0.290 OA
HETATM   36  C37 UNL     1     -13.180  45.429 -27.657  1.00  0.00     0.100 C 
HETATM   37  O12 UNL     1     -12.264  46.345 -27.108  1.00  0.00    -0.318 OA
HETATM   38  C38 UNL     1     -13.259  45.552 -28.992  1.00  0.00     0.054 C 
BRANCH  34  39
HETATM   39  O2  UNL     1     -14.589  43.441 -27.642  1.00  0.00    -0.313 OA
BRANCH  39  40
HETATM   40  C3  UNL     1     -15.870  43.839 -27.847  1.00  0.00     0.280 C 
HETATM   41  O1  UNL     1     -16.527  43.512 -28.926  1.00  0.00    -0.316 OA
HETATM   42  C2  UNL     1     -17.921  43.615 -28.866  1.00  0.00     0.116 C 
HETATM   43  C1  UNL     1     -18.506  43.116 -29.964  1.00  0.00     0.055 C 
HETATM   44  C41 UNL     1     -18.708  44.145 -27.735  1.00  0.00     0.249 C 
HETATM   45  C40 UNL     1     -17.856  44.949 -26.796  1.00  0.00     0.206 C 
HETATM   46  O14 UNL     1     -19.908  44.046 -27.553  1.00  0.00    -0.281 OA
HETATM   47  C39 UNL     1     -16.386  44.790 -26.853  1.00  0.00     0.149 C 
HETATM   48  O13 UNL     1     -18.362  45.807 -26.096  1.00  0.00    -0.289 OA
ENDBRANCH  39  40
ENDBRANCH  34  39
ENDBRANCH  30  31
ENDBRANCH  25  30
ENDBRANCH  21  22
ENDBRANCH   1  21
BRANCH  19  49
HETATM   49  O10 UNL     1      -1.085  48.153 -20.348  1.00  0.00    -0.388 OA
ATOM     50  H10 UNL     1      -0.372  48.469 -20.890  1.00  0.00     0.210 HD
ENDBRANCH  19  49
BRANCH  16  51
HETATM   51  C27 UNL     1      -3.098  51.609 -23.261  1.00  0.00    -0.045 C 
HETATM   52  C28 UNL     1      -2.087  52.282 -23.665  1.00  0.00     0.087 C 
HETATM   53  C29 UNL     1      -2.037  52.748 -24.891  1.00  0.00     0.283 C 
HETATM   54  O8  UNL     1      -0.973  53.304 -25.257  1.00  0.00    -0.260 OA
HETATM   55  O9  UNL     1      -3.334  52.627 -25.407  1.00  0.00    -0.314 OA
HETATM   56  C30 UNL     1      -4.080  51.775 -24.397  1.00  0.00     0.213 C 
ENDBRANCH  16  51
TORSDOF 8
ENDMDL
MODEL 9
REMARK minimizedAffinity -9.76379299
REMARK CNNscore 0.294427991
REMARK CNNaffinity 6.32315111
REMARK  8 active torsions:
REMARK  status: ('A' for Active; 'I' for Inactive)
REMARK    1  A    between atoms: C3_4  and  O2_5 
REMARK    2  A    between atoms: O2_5  and  C4_6 
REMARK    3  A    between atoms: C7_10  and  O4_11 
REMARK    4  A    between atoms: O4_11  and  C8_12 
REMARK    5  A    between atoms: C11_16  and  O6_17 
REMARK    6  A    between atoms: O6_17  and  C12_18 
REMARK    7  A    between atoms: C26_33  and  C27_34 
REMARK    8  A    between atoms: C33_42  and  O10_43 
ROOT
HETATM    1  C12 UNL     1      -6.835  47.569 -21.938  1.00  0.00     0.125 C 
HETATM    2  C13 UNL     1      -7.703  48.295 -20.958  1.00  0.00     0.033 C 
HETATM    3  C14 UNL     1      -6.884  48.933 -19.867  1.00  0.00     0.012 C 
HETATM    4  C15 UNL     1      -5.702  48.044 -19.301  1.00  0.00    -0.036 C 
HETATM    5  C16 UNL     1      -5.704  48.116 -17.756  1.00  0.00     0.016 C 
HETATM    6  C17 UNL     1      -5.868  46.578 -19.818  1.00  0.00    -0.004 C 
HETATM    7  C18 UNL     1      -4.691  45.722 -19.277  1.00  0.00     0.006 C 
HETATM    8  C19 UNL     1      -3.332  46.186 -19.774  1.00  0.00     0.008 C 
HETATM    9  C20 UNL     1      -3.073  47.745 -19.765  1.00  0.00     0.026 C 
HETATM   10  C21 UNL     1      -4.365  48.602 -19.863  1.00  0.00     0.008 C 
HETATM   11  C22 UNL     1      -4.028  50.045 -19.423  1.00  0.00     0.085 C 
HETATM   12  C23 UNL     1      -2.665  50.536 -19.861  1.00  0.00     0.139 C 
HETATM   13  O7  UNL     1      -2.040  51.402 -19.235  1.00  0.00    -0.297 OA
HETATM   14  C24 UNL     1      -2.106  49.885 -21.122  1.00  0.00     0.055 C 
HETATM   15  C25 UNL     1      -0.743  50.543 -21.533  1.00  0.00     0.027 C 
HETATM   16  C26 UNL     1      -3.085  49.983 -22.341  1.00  0.00     0.035 C 
HETATM   17  C31 UNL     1      -2.616  48.832 -23.268  1.00  0.00     0.013 C 
HETATM   18  C32 UNL     1      -2.294  47.699 -22.318  1.00  0.00     0.040 C 
HETATM   19  C33 UNL     1      -2.035  48.307 -20.877  1.00  0.00     0.077 C 
HETATM   20  C34 UNL     1      -5.952  46.503 -21.343  1.00  0.00     0.037 C 
ENDROOT
BRANCH   1  21
HETATM   21  O6  UNL     1      -6.917  47.561 -23.244  1.00  0.00    -0.355 OA
BRANCH  21  22
HETATM   22  C11 UNL     1      -8.001  47.308 -23.900  1.00  0.00     0.274 C 
HETATM   23  C10 UNL     1      -8.443  48.231 -24.998  1.00  0.00     0.147 C 
HETATM   24  C9  UNL     1      -8.398  47.327 -26.265  1.00  0.00     0.190 C 
HETATM   25  C8  UNL     1      -9.020  46.146 -26.083  1.00  0.00     0.150 C 
HETATM   26  O5  UNL     1      -7.819  47.841 -27.245  1.00  0.00    -0.290 OA
HETATM   27  C35 UNL     1      -9.445  45.811 -24.716  1.00  0.00     0.100 C 
HETATM   28  O11 UNL     1      -8.498  46.152 -23.706  1.00  0.00    -0.318 OA
HETATM   29  C36 UNL     1     -10.438  44.980 -24.423  1.00  0.00     0.054 C 
BRANCH  25  30
HETATM   30  O4  UNL     1      -9.196  45.173 -27.105  1.00  0.00    -0.313 OA
BRANCH  30  31
HETATM   31  C7  UNL     1     -10.470  45.122 -27.579  1.00  0.00     0.280 C 
HETATM   32  C6  UNL     1     -11.043  46.515 -27.840  1.00  0.00     0.147 C 
HETATM   33  C5  UNL     1     -12.508  46.554 -28.290  1.00  0.00     0.190 C 
HETATM   34  C4  UNL     1     -13.106  45.364 -28.519  1.00  0.00     0.150 C 
HETATM   35  O3  UNL     1     -12.971  47.733 -28.360  1.00  0.00    -0.290 OA
HETATM   36  C37 UNL     1     -12.403  44.100 -28.295  1.00  0.00     0.100 C 
HETATM   37  O12 UNL     1     -11.158  44.021 -27.644  1.00  0.00    -0.318 OA
HETATM   38  C38 UNL     1     -12.905  42.881 -28.550  1.00  0.00     0.054 C 
BRANCH  34  39
HETATM   39  O2  UNL     1     -14.438  45.218 -29.032  1.00  0.00    -0.313 OA
BRANCH  39  40
HETATM   40  C3  UNL     1     -15.367  45.126 -28.048  1.00  0.00     0.280 C 
HETATM   41  O1  UNL     1     -15.169  45.641 -26.865  1.00  0.00    -0.316 OA
HETATM   42  C2  UNL     1     -16.304  45.848 -26.073  1.00  0.00     0.116 C 
HETATM   43  C1  UNL     1     -16.013  46.514 -24.948  1.00  0.00     0.055 C 
HETATM   44  C41 UNL     1     -17.686  45.456 -26.413  1.00  0.00     0.249 C 
HETATM   45  C40 UNL     1     -17.720  44.441 -27.518  1.00  0.00     0.206 C 
HETATM   46  O14 UNL     1     -18.715  45.812 -25.867  1.00  0.00    -0.281 OA
HETATM   47  C39 UNL     1     -16.519  44.270 -28.365  1.00  0.00     0.149 C 
HETATM   48  O13 UNL     1     -18.668  43.686 -27.625  1.00  0.00    -0.289 OA
ENDBRANCH  39  40
ENDBRANCH  34  39
ENDBRANCH  30  31
ENDBRANCH  25  30
ENDBRANCH  21  22
ENDBRANCH   1  21
BRANCH  19  49
HETATM   49  O10 UNL     1      -0.840  47.903 -20.518  1.00  0.00    -0.388 OA
ATOM     50  H10 UNL     1      -0.232  48.232 -21.169  1.00  0.00     0.210 HD
ENDBRANCH  19  49
BRANCH  16  51
HETATM   51  C27 UNL     1      -3.404  51.234 -23.127  1.00  0.00    -0.045 C 
HETATM   52  C28 UNL     1      -2.497  52.065 -23.480  1.00  0.00     0.087 C 
HETATM   53  C29 UNL     1      -2.476  52.560 -24.695  1.00  0.00     0.283 C 
HETATM   54  O8  UNL     1      -1.499  53.284 -25.009  1.00  0.00    -0.260 OA
HETATM   55  O9  UNL     1      -3.718  52.249 -25.264  1.00  0.00    -0.314 OA
HETATM   56  C30 UNL     1      -4.357  51.269 -24.299  1.00  0.00     0.213 C 
ENDBRANCH  16  51
TORSDOF 8
ENDMDL
