MODEL 1
REMARK minimizedAffinity -7.399786
REMARK CNNscore 0.619244814
REMARK CNNaffinity 6.87979698
REMARK  9 active torsions:
REMARK  status: ('A' for Active; 'I' for Inactive)
REMARK    1  A    between atoms: C3_3  and  O1_4 
REMARK    2  A    between atoms: N1_14  and  O2_16 
REMARK    3  A    between atoms: O2_16  and  C13_17 
REMARK    4  A    between atoms: C13_17  and  C14_18 
REMARK       I    between atoms: C14_18  and  N2_20 
REMARK    5  A    between atoms: N2_20  and  C15_21 
REMARK    6  A    between atoms: C15_21  and  C16_22 
REMARK    7  A    between atoms: C15_21  and  C18_26 
REMARK    8  A    between atoms: C16_22  and  C17_23 
REMARK    9  A    between atoms: C17_23  and  O5_25 
ROOT
HETATM    1  C1  UNL     1     -12.499   3.061  30.333  1.00  0.00     0.015 C 
HETATM    2  C2  UNL     1     -12.907   2.628  29.289  1.00  0.00    -0.078 C 
HETATM    3  C3  UNL     1     -13.412   2.095  28.013  1.00  0.00     0.128 C 
HETATM    4  C4  UNL     1     -12.289   1.843  27.006  1.00  0.00     0.052 C 
HETATM    5  C5  UNL     1     -12.949   1.923  25.625  1.00  0.00     0.010 C 
HETATM    6  C6  UNL     1     -14.401   2.409  25.839  1.00  0.00     0.002 C 
HETATM    7  C7  UNL     1     -14.891   3.302  24.674  1.00  0.00    -0.004 C 
HETATM    8  C8  UNL     1     -16.434   3.262  24.554  1.00  0.00     0.010 C 
HETATM    9  C9  UNL     1     -17.072   4.549  24.040  1.00  0.00     0.035 C 
HETATM   10  C10 UNL     1     -16.189   5.182  23.007  1.00  0.00    -0.069 C 
HETATM   11  C11 UNL     1     -16.595   5.297  21.730  1.00  0.00     0.030 C 
HETATM   12  C12 UNL     1     -15.711   5.872  20.686  1.00  0.00     0.032 C 
HETATM   13  N1  UNL     1     -16.256   6.208  19.550  1.00  0.00    -0.271 N 
ATOM     14  H1  UNL     1     -17.245   6.088  19.331  1.00  0.00     0.194 HD
HETATM   15  C25 UNL     1     -14.241   6.078  21.009  1.00  0.00     0.060 C 
HETATM   16  C26 UNL     1     -13.818   5.392  22.307  1.00  0.00     0.020 C 
HETATM   17  C27 UNL     1     -14.808   5.615  23.487  1.00  0.00    -0.016 C 
HETATM   18  C28 UNL     1     -14.856   7.120  23.830  1.00  0.00     0.020 C 
HETATM   19  C29 UNL     1     -14.313   4.743  24.716  1.00  0.00     0.002 C 
HETATM   20  C30 UNL     1     -14.524   5.360  26.112  1.00  0.00     0.007 C 
HETATM   21  C31 UNL     1     -13.868   4.509  27.200  1.00  0.00     0.014 C 
HETATM   22  C32 UNL     1     -14.389   3.051  27.257  1.00  0.00     0.003 C 
HETATM   23  C33 UNL     1     -15.782   3.039  27.918  1.00  0.00     0.020 C 
ENDROOT
BRANCH   3  24
HETATM   24  O1  UNL     1     -14.052   0.838  28.261  1.00  0.00    -0.377 OA
HETATM   25  H2  UNL     1     -13.589   0.424  29.008  1.00  0.00     0.211 HD
ENDBRANCH   3  24
BRANCH  13  26
HETATM   26  O2  UNL     1     -15.314   6.754  18.665  1.00  0.00    -0.271 OA
BRANCH  26  27
HETATM   27  C13 UNL     1     -15.852   7.939  18.095  1.00  0.00     0.303 C 
BRANCH  27  28
HETATM   28  C14 UNL     1     -15.305   8.132  16.688  1.00  0.00     0.244 C 
HETATM   29  O3  UNL     1     -15.098   9.242  16.203  1.00  0.00    -0.271 OA
HETATM   30  N2  UNL     1     -15.138   6.954  15.985  1.00  0.00    -0.354 N 
HETATM   31  H16 UNL     1     -15.357   6.094  16.477  1.00  0.00     0.162 HD
BRANCH  30  32
HETATM   32  C15 UNL     1     -14.782   6.919  14.567  1.00  0.00     0.098 C 
BRANCH  32  33
HETATM   33  C16 UNL     1     -15.916   7.495  13.713  1.00  0.00     0.135 C 
BRANCH  33  34
HETATM   34  C17 UNL     1     -16.292   6.564  12.598  1.00  0.00     0.141 C 
HETATM   35  O4  UNL     1     -16.020   6.709  11.417  1.00  0.00    -0.650 OA
BRANCH  34  36
HETATM   36  O5  UNL     1     -16.962   5.476  13.023  1.00  0.00    -0.776 OA
HETATM   37  H20 UNL     1     -17.161   4.978  12.200  1.00  0.00     0.167 HD
ENDBRANCH  34  36
ENDBRANCH  33  34
ENDBRANCH  32  33
BRANCH  32  38
HETATM   38  C18 UNL     1     -13.434   7.647  14.282  1.00  0.00     0.014 C 
HETATM   39  C19 UNL     1     -13.512   8.563  13.053  1.00  0.00     0.033 C 
HETATM   40  C20 UNL     1     -12.183   9.259  12.802  1.00  0.00     0.169 C 
HETATM   41  O6  UNL     1     -11.130   8.309  12.649  1.00  0.00    -0.381 OA
HETATM   42  C21 UNL     1     -10.928   7.437  13.771  1.00  0.00     0.054 C 
HETATM   43  C22 UNL     1      -9.875   6.413  13.320  1.00  0.00     0.045 C 
HETATM   44  C23 UNL     1     -10.359   8.215  14.967  1.00  0.00     0.045 C 
HETATM   45  C24 UNL     1     -12.235   6.696  14.125  1.00  0.00     0.044 C 
ENDBRANCH  32  38
ENDBRANCH  30  32
ENDBRANCH  27  28
ENDBRANCH  26  27
ENDBRANCH  13  26
TORSDOF 9
ENDMDL
MODEL 2
REMARK minimizedAffinity -9.70606709
REMARK CNNscore 0.437673032
REMARK CNNaffinity 7.40427351
REMARK  9 active torsions:
REMARK  status: ('A' for Active; 'I' for Inactive)
REMARK    1  A    between atoms: C3_3  and  O1_4 
REMARK    2  A    between atoms: N1_14  and  O2_16 
REMARK    3  A    between atoms: O2_16  and  C13_17 
REMARK    4  A    between atoms: C13_17  and  C14_18 
REMARK       I    between atoms: C14_18  and  N2_20 
REMARK    5  A    between atoms: N2_20  and  C15_21 
REMARK    6  A    between atoms: C15_21  and  C16_22 
REMARK    7  A    between atoms: C15_21  and  C18_26 
REMARK    8  A    between atoms: C16_22  and  C17_23 
REMARK    9  A    between atoms: C17_23  and  O5_25 
ROOT
HETATM    1  C1  UNL     1      -9.997   7.876  14.180  1.00  0.00     0.015 C 
HETATM    2  C2  UNL     1      -9.108   7.121  14.466  1.00  0.00    -0.078 C 
HETATM    3  C3  UNL     1      -8.019   6.192  14.811  1.00  0.00     0.128 C 
HETATM    4  C4  UNL     1      -7.577   6.335  16.268  1.00  0.00     0.052 C 
HETATM    5  C5  UNL     1      -6.127   5.838  16.308  1.00  0.00     0.010 C 
HETATM    6  C6  UNL     1      -5.686   5.596  14.847  1.00  0.00     0.002 C 
HETATM    7  C7  UNL     1      -4.188   5.918  14.633  1.00  0.00    -0.004 C 
HETATM    8  C8  UNL     1      -3.612   5.121  13.436  1.00  0.00     0.010 C 
HETATM    9  C9  UNL     1      -2.498   5.827  12.670  1.00  0.00     0.035 C 
HETATM   10  C10 UNL     1      -1.639   6.608  13.618  1.00  0.00    -0.069 C 
HETATM   11  C11 UNL     1      -0.349   6.283  13.807  1.00  0.00     0.030 C 
HETATM   12  C12 UNL     1       0.499   7.014  14.782  1.00  0.00     0.032 C 
HETATM   13  N1  UNL     1       1.789   6.837  14.714  1.00  0.00    -0.271 N 
ATOM     14  H1  UNL     1       2.248   6.219  14.045  1.00  0.00     0.194 HD
HETATM   15  C25 UNL     1      -0.172   7.955  15.768  1.00  0.00     0.060 C 
HETATM   16  C26 UNL     1      -1.692   7.803  15.792  1.00  0.00     0.020 C 
HETATM   17  C27 UNL     1      -2.339   7.730  14.378  1.00  0.00    -0.016 C 
HETATM   18  C28 UNL     1      -2.085   9.061  13.637  1.00  0.00     0.020 C 
HETATM   19  C29 UNL     1      -3.887   7.440  14.560  1.00  0.00     0.002 C 
HETATM   20  C30 UNL     1      -4.827   8.119  13.545  1.00  0.00     0.007 C 
HETATM   21  C31 UNL     1      -6.294   7.899  13.913  1.00  0.00     0.014 C 
HETATM   22  C32 UNL     1      -6.705   6.407  13.995  1.00  0.00     0.003 C 
HETATM   23  C33 UNL     1      -6.854   5.847  12.566  1.00  0.00     0.020 C 
ENDROOT
BRANCH   3  24
HETATM   24  O1  UNL     1      -8.488   4.850  14.637  1.00  0.00    -0.377 OA
HETATM   25  H2  UNL     1      -9.438   4.851  14.838  1.00  0.00     0.211 HD
ENDBRANCH   3  24
BRANCH  13  26
HETATM   26  O2  UNL     1       2.468   7.599  15.677  1.00  0.00    -0.271 OA
BRANCH  26  27
HETATM   27  C13 UNL     1       3.784   7.863  15.210  1.00  0.00     0.303 C 
BRANCH  27  28
HETATM   28  C14 UNL     1       3.725   8.520  13.839  1.00  0.00     0.244 C 
HETATM   29  O3  UNL     1       2.974   9.458  13.585  1.00  0.00    -0.271 OA
HETATM   30  N2  UNL     1       4.532   7.917  12.893  1.00  0.00    -0.354 N 
HETATM   31  H16 UNL     1       5.099   7.136  13.207  1.00  0.00     0.162 HD
BRANCH  30  32
HETATM   32  C15 UNL     1       4.505   8.282  11.477  1.00  0.00     0.098 C 
BRANCH  32  33
HETATM   33  C16 UNL     1       5.917   8.232  10.883  1.00  0.00     0.135 C 
BRANCH  33  34
HETATM   34  C17 UNL     1       6.645   9.529  11.085  1.00  0.00     0.141 C 
HETATM   35  O4  UNL     1       7.771   9.659  11.536  1.00  0.00    -0.650 OA
BRANCH  34  36
HETATM   36  O5  UNL     1       5.937  10.599  10.677  1.00  0.00    -0.776 OA
HETATM   37  H20 UNL     1       6.514  11.366  10.889  1.00  0.00     0.167 HD
ENDBRANCH  34  36
ENDBRANCH  33  34
ENDBRANCH  32  33
BRANCH  32  38
HETATM   38  C18 UNL     1       3.517   7.397  10.660  1.00  0.00     0.014 C 
HETATM   39  C19 UNL     1       4.023   5.958  10.488  1.00  0.00     0.033 C 
HETATM   40  C20 UNL     1       3.036   5.121   9.689  1.00  0.00     0.169 C 
HETATM   41  O6  UNL     1       2.778   5.713   8.417  1.00  0.00    -0.381 OA
HETATM   42  C21 UNL     1       2.241   7.043   8.462  1.00  0.00     0.054 C 
HETATM   43  C22 UNL     1       2.201   7.528   7.004  1.00  0.00     0.045 C 
HETATM   44  C23 UNL     1       0.803   7.031   9.001  1.00  0.00     0.045 C 
HETATM   45  C24 UNL     1       3.163   7.974   9.278  1.00  0.00     0.044 C 
ENDBRANCH  32  38
ENDBRANCH  30  32
ENDBRANCH  27  28
ENDBRANCH  26  27
ENDBRANCH  13  26
TORSDOF 9
ENDMDL
MODEL 3
REMARK minimizedAffinity -7.23918056
REMARK CNNscore 0.414163053
REMARK CNNaffinity 6.44338751
REMARK  9 active torsions:
REMARK  status: ('A' for Active; 'I' for Inactive)
REMARK    1  A    between atoms: C3_3  and  O1_4 
REMARK    2  A    between atoms: N1_14  and  O2_16 
REMARK    3  A    between atoms: O2_16  and  C13_17 
REMARK    4  A    between atoms: C13_17  and  C14_18 
REMARK       I    between atoms: C14_18  and  N2_20 
REMARK    5  A    between atoms: N2_20  and  C15_21 
REMARK    6  A    between atoms: C15_21  and  C16_22 
REMARK    7  A    between atoms: C15_21  and  C18_26 
REMARK    8  A    between atoms: C16_22  and  C17_23 
REMARK    9  A    between atoms: C17_23  and  O5_25 
ROOT
HETATM    1  C1  UNL     1      -7.719  16.826  15.521  1.00  0.00     0.015 C 
HETATM    2  C2  UNL     1      -6.529  16.658  15.535  1.00  0.00    -0.078 C 
HETATM    3  C3  UNL     1      -5.071  16.457  15.559  1.00  0.00     0.128 C 
HETATM    4  C4  UNL     1      -4.508  16.144  14.172  1.00  0.00     0.052 C 
HETATM    5  C5  UNL     1      -3.211  15.365  14.420  1.00  0.00     0.010 C 
HETATM    6  C6  UNL     1      -3.139  15.069  15.936  1.00  0.00     0.002 C 
HETATM    7  C7  UNL     1      -2.470  13.705  16.229  1.00  0.00    -0.004 C 
HETATM    8  C8  UNL     1      -1.841  13.687  17.644  1.00  0.00     0.010 C 
HETATM    9  C9  UNL     1      -1.840  12.323  18.329  1.00  0.00     0.035 C 
HETATM   10  C10 UNL     1      -1.606  11.242  17.318  1.00  0.00    -0.069 C 
HETATM   11  C11 UNL     1      -0.495  10.485  17.362  1.00  0.00     0.030 C 
HETATM   12  C12 UNL     1      -0.225   9.446  16.337  1.00  0.00     0.032 C 
HETATM   13  N1  UNL     1       0.710   8.574  16.591  1.00  0.00    -0.271 N 
ATOM     14  H1  UNL     1       1.274   8.570  17.441  1.00  0.00     0.194 HD
HETATM   15  C25 UNL     1      -1.074   9.429  15.077  1.00  0.00     0.060 C 
HETATM   16  C26 UNL     1      -1.929  10.685  14.921  1.00  0.00     0.020 C 
HETATM   17  C27 UNL     1      -2.663  11.111  16.227  1.00  0.00    -0.016 C 
HETATM   18  C28 UNL     1      -3.657  10.002  16.634  1.00  0.00     0.020 C 
HETATM   19  C29 UNL     1      -3.396  12.490  15.950  1.00  0.00     0.002 C 
HETATM   20  C30 UNL     1      -4.754  12.687  16.651  1.00  0.00     0.007 C 
HETATM   21  C31 UNL     1      -5.437  13.974  16.188  1.00  0.00     0.014 C 
HETATM   22  C32 UNL     1      -4.601  15.253  16.437  1.00  0.00     0.003 C 
HETATM   23  C33 UNL     1      -4.667  15.615  17.935  1.00  0.00     0.020 C 
ENDROOT
BRANCH   3  24
HETATM   24  O1  UNL     1      -4.447  17.664  16.010  1.00  0.00    -0.377 OA
HETATM   25  H2  UNL     1      -5.003  18.402  15.710  1.00  0.00     0.211 HD
ENDBRANCH   3  24
BRANCH  13  26
HETATM   26  O2  UNL     1       0.847   7.643  15.550  1.00  0.00    -0.271 OA
BRANCH  26  27
HETATM   27  C13 UNL     1       2.192   7.184  15.519  1.00  0.00     0.303 C 
BRANCH  27  28
HETATM   28  C14 UNL     1       3.017   8.061  14.589  1.00  0.00     0.244 C 
HETATM   29  O3  UNL     1       3.220   9.252  14.807  1.00  0.00    -0.271 OA
HETATM   30  N2  UNL     1       3.448   7.416  13.445  1.00  0.00    -0.354 N 
HETATM   31  H16 UNL     1       3.208   6.433  13.357  1.00  0.00     0.162 HD
BRANCH  30  32
HETATM   32  C15 UNL     1       4.113   8.111  12.344  1.00  0.00     0.098 C 
BRANCH  32  33
HETATM   33  C16 UNL     1       5.453   7.443  12.018  1.00  0.00     0.135 C 
BRANCH  33  34
HETATM   34  C17 UNL     1       6.421   8.418  11.415  1.00  0.00     0.141 C 
HETATM   35  O4  UNL     1       6.522   9.600  11.700  1.00  0.00    -0.650 OA
BRANCH  34  36
HETATM   36  O5  UNL     1       7.240   7.855  10.506  1.00  0.00    -0.776 OA
HETATM   37  H20 UNL     1       7.791   8.601  10.183  1.00  0.00     0.167 HD
ENDBRANCH  34  36
ENDBRANCH  33  34
ENDBRANCH  32  33
BRANCH  32  38
HETATM   38  C18 UNL     1       3.208   8.209  11.079  1.00  0.00     0.014 C 
HETATM   39  C19 UNL     1       1.713   8.167  11.423  1.00  0.00     0.033 C 
HETATM   40  C20 UNL     1       0.858   8.266  10.169  1.00  0.00     0.169 C 
HETATM   41  O6  UNL     1       1.185   7.229   9.245  1.00  0.00    -0.381 OA
HETATM   42  C21 UNL     1       2.552   7.214   8.806  1.00  0.00     0.054 C 
HETATM   43  C22 UNL     1       2.706   5.938   7.963  1.00  0.00     0.045 C 
HETATM   44  C23 UNL     1       2.847   8.422   7.905  1.00  0.00     0.045 C 
HETATM   45  C24 UNL     1       3.510   7.139  10.014  1.00  0.00     0.044 C 
ENDBRANCH  32  38
ENDBRANCH  30  32
ENDBRANCH  27  28
ENDBRANCH  26  27
ENDBRANCH  13  26
TORSDOF 9
ENDMDL
MODEL 4
REMARK minimizedAffinity -7.22066498
REMARK CNNscore 0.375995994
REMARK CNNaffinity 6.63005972
REMARK  9 active torsions:
REMARK  status: ('A' for Active; 'I' for Inactive)
REMARK    1  A    between atoms: C3_3  and  O1_4 
REMARK    2  A    between atoms: N1_14  and  O2_16 
REMARK    3  A    between atoms: O2_16  and  C13_17 
REMARK    4  A    between atoms: C13_17  and  C14_18 
REMARK       I    between atoms: C14_18  and  N2_20 
REMARK    5  A    between atoms: N2_20  and  C15_21 
REMARK    6  A    between atoms: C15_21  and  C16_22 
REMARK    7  A    between atoms: C15_21  and  C18_26 
REMARK    8  A    between atoms: C16_22  and  C17_23 
REMARK    9  A    between atoms: C17_23  and  O5_25 
ROOT
HETATM    1  C1  UNL     1     -15.027   1.023  27.784  1.00  0.00     0.015 C 
HETATM    2  C2  UNL     1     -14.487   1.314  26.750  1.00  0.00    -0.078 C 
HETATM    3  C3  UNL     1     -13.833   1.669  25.480  1.00  0.00     0.128 C 
HETATM    4  C4  UNL     1     -12.326   1.874  25.644  1.00  0.00     0.052 C 
HETATM    5  C5  UNL     1     -11.911   2.808  24.502  1.00  0.00     0.010 C 
HETATM    6  C6  UNL     1     -13.207   3.286  23.809  1.00  0.00     0.002 C 
HETATM    7  C7  UNL     1     -13.084   4.738  23.287  1.00  0.00    -0.004 C 
HETATM    8  C8  UNL     1     -14.053   4.989  22.106  1.00  0.00     0.010 C 
HETATM    9  C9  UNL     1     -14.583   6.416  22.001  1.00  0.00     0.035 C 
HETATM   10  C10 UNL     1     -13.515   7.389  22.402  1.00  0.00    -0.069 C 
HETATM   11  C11 UNL     1     -13.006   8.258  21.512  1.00  0.00     0.030 C 
HETATM   12  C12 UNL     1     -11.911   9.192  21.880  1.00  0.00     0.032 C 
HETATM   13  N1  UNL     1     -11.661  10.180  21.069  1.00  0.00    -0.271 N 
ATOM     14  H1  UNL     1     -12.159  10.344  20.194  1.00  0.00     0.194 HD
HETATM   15  C25 UNL     1     -11.179   8.972  23.193  1.00  0.00     0.060 C 
HETATM   16  C26 UNL     1     -11.503   7.623  23.834  1.00  0.00     0.020 C 
HETATM   17  C27 UNL     1     -13.021   7.279  23.840  1.00  0.00    -0.016 C 
HETATM   18  C28 UNL     1     -13.772   8.318  24.700  1.00  0.00     0.020 C 
HETATM   19  C29 UNL     1     -13.189   5.808  24.408  1.00  0.00     0.002 C 
HETATM   20  C30 UNL     1     -14.441   5.554  25.269  1.00  0.00     0.007 C 
HETATM   21  C31 UNL     1     -14.415   4.157  25.889  1.00  0.00     0.014 C 
HETATM   22  C32 UNL     1     -14.329   3.010  24.852  1.00  0.00     0.003 C 
HETATM   23  C33 UNL     1     -15.710   2.823  24.192  1.00  0.00     0.020 C 
ENDROOT
BRANCH   3  24
HETATM   24  O1  UNL     1     -14.019   0.595  24.551  1.00  0.00    -0.377 OA
HETATM   25  H2  UNL     1     -14.048  -0.227  25.068  1.00  0.00     0.211 HD
ENDBRANCH   3  24
BRANCH  13  26
HETATM   26  O2  UNL     1     -10.621  10.992  21.546  1.00  0.00    -0.271 OA
BRANCH  26  27
HETATM   27  C13 UNL     1     -11.176  12.191  22.070  1.00  0.00     0.303 C 
BRANCH  27  28
HETATM   28  C14 UNL     1     -10.077  13.221  22.282  1.00  0.00     0.244 C 
HETATM   29  O3  UNL     1     -10.281  14.309  22.815  1.00  0.00    -0.271 OA
HETATM   30  N2  UNL     1      -8.854  12.854  21.752  1.00  0.00    -0.354 N 
HETATM   31  H16 UNL     1      -8.802  11.939  21.317  1.00  0.00     0.162 HD
BRANCH  30  32
HETATM   32  C15 UNL     1      -7.708  13.760  21.699  1.00  0.00     0.098 C 
BRANCH  32  33
HETATM   33  C16 UNL     1      -6.816  13.572  22.931  1.00  0.00     0.135 C 
BRANCH  33  34
HETATM   34  C17 UNL     1      -6.708  14.838  23.729  1.00  0.00     0.141 C 
HETATM   35  O4  UNL     1      -5.698  15.505  23.886  1.00  0.00    -0.650 OA
BRANCH  34  36
HETATM   36  O5  UNL     1      -7.881  15.225  24.265  1.00  0.00    -0.776 OA
HETATM   37  H20 UNL     1      -7.659  16.038  24.771  1.00  0.00     0.167 HD
ENDBRANCH  34  36
ENDBRANCH  33  34
ENDBRANCH  32  33
BRANCH  32  38
HETATM   38  C18 UNL     1      -6.892  13.599  20.381  1.00  0.00     0.014 C 
HETATM   39  C19 UNL     1      -5.438  13.180  20.639  1.00  0.00     0.033 C 
HETATM   40  C20 UNL     1      -4.670  13.030  19.335  1.00  0.00     0.169 C 
HETATM   41  O6  UNL     1      -4.713  14.237  18.576  1.00  0.00    -0.381 OA
HETATM   42  C21 UNL     1      -6.029  14.689  18.224  1.00  0.00     0.054 C 
HETATM   43  C22 UNL     1      -5.837  16.064  17.566  1.00  0.00     0.045 C 
HETATM   44  C23 UNL     1      -6.668  13.749  17.191  1.00  0.00     0.045 C 
HETATM   45  C24 UNL     1      -6.903  14.850  19.486  1.00  0.00     0.044 C 
ENDBRANCH  32  38
ENDBRANCH  30  32
ENDBRANCH  27  28
ENDBRANCH  26  27
ENDBRANCH  13  26
TORSDOF 9
ENDMDL
MODEL 5
REMARK minimizedAffinity -8.70368862
REMARK CNNscore 0.345407844
REMARK CNNaffinity 7.21402502
REMARK  9 active torsions:
REMARK  status: ('A' for Active; 'I' for Inactive)
REMARK    1  A    between atoms: C3_3  and  O1_4 
REMARK    2  A    between atoms: N1_14  and  O2_16 
REMARK    3  A    between atoms: O2_16  and  C13_17 
REMARK    4  A    between atoms: C13_17  and  C14_18 
REMARK       I    between atoms: C14_18  and  N2_20 
REMARK    5  A    between atoms: N2_20  and  C15_21 
REMARK    6  A    between atoms: C15_21  and  C16_22 
REMARK    7  A    between atoms: C15_21  and  C18_26 
REMARK    8  A    between atoms: C16_22  and  C17_23 
REMARK    9  A    between atoms: C17_23  and  O5_25 
ROOT
HETATM    1  C1  UNL     1       0.529   7.366  15.602  1.00  0.00     0.015 C 
HETATM    2  C2  UNL     1      -0.344   7.407  14.778  1.00  0.00    -0.078 C 
HETATM    3  C3  UNL     1      -1.412   7.449  13.765  1.00  0.00     0.128 C 
HETATM    4  C4  UNL     1      -1.955   8.864  13.557  1.00  0.00     0.052 C 
HETATM    5  C5  UNL     1      -3.381   8.683  13.025  1.00  0.00     0.010 C 
HETATM    6  C6  UNL     1      -3.715   7.177  13.115  1.00  0.00     0.002 C 
HETATM    7  C7  UNL     1      -5.208   6.932  13.437  1.00  0.00    -0.004 C 
HETATM    8  C8  UNL     1      -5.669   5.546  12.921  1.00  0.00     0.010 C 
HETATM    9  C9  UNL     1      -6.760   4.881  13.755  1.00  0.00     0.035 C 
HETATM   10  C10 UNL     1      -7.712   5.916  14.273  1.00  0.00    -0.069 C 
HETATM   11  C11 UNL     1      -8.997   5.930  13.879  1.00  0.00     0.030 C 
HETATM   12  C12 UNL     1      -9.938   6.981  14.343  1.00  0.00     0.032 C 
HETATM   13  N1  UNL     1     -11.211   6.780  14.151  1.00  0.00    -0.271 N 
ATOM     14  H1  UNL     1     -11.598   5.956  13.692  1.00  0.00     0.194 HD
HETATM   15  C25 UNL     1      -9.374   8.202  15.049  1.00  0.00     0.060 C 
HETATM   16  C26 UNL     1      -7.854   8.303  14.936  1.00  0.00     0.020 C 
HETATM   17  C27 UNL     1      -7.113   6.961  15.208  1.00  0.00    -0.016 C 
HETATM   18  C28 UNL     1      -7.375   6.526  16.667  1.00  0.00     0.020 C 
HETATM   19  C29 UNL     1      -5.568   7.186  14.926  1.00  0.00     0.002 C 
HETATM   20  C30 UNL     1      -4.595   6.424  15.845  1.00  0.00     0.007 C 
HETATM   21  C31 UNL     1      -3.146   6.839  15.586  1.00  0.00     0.014 C 
HETATM   22  C32 UNL     1      -2.678   6.609  14.127  1.00  0.00     0.003 C 
HETATM   23  C33 UNL     1      -2.412   5.105  13.915  1.00  0.00     0.020 C 
ENDROOT
BRANCH   3  24
HETATM   24  O1  UNL     1      -0.875   7.010  12.512  1.00  0.00    -0.377 OA
HETATM   25  H2  UNL     1       0.059   7.275  12.493  1.00  0.00     0.211 HD
ENDBRANCH   3  24
BRANCH  13  26
HETATM   26  O2  UNL     1     -11.984   7.838  14.653  1.00  0.00    -0.271 OA
BRANCH  26  27
HETATM   27  C13 UNL     1     -13.131   8.001  13.830  1.00  0.00     0.303 C 
BRANCH  27  28
HETATM   28  C14 UNL     1     -14.374   7.537  14.575  1.00  0.00     0.244 C 
HETATM   29  O3  UNL     1     -14.582   7.813  15.754  1.00  0.00    -0.271 OA
HETATM   30  N2  UNL     1     -15.200   6.716  13.832  1.00  0.00    -0.354 N 
HETATM   31  H16 UNL     1     -14.923   6.538  12.872  1.00  0.00     0.162 HD
BRANCH  30  32
HETATM   32  C15 UNL     1     -16.358   6.028  14.401  1.00  0.00     0.098 C 
BRANCH  32  33
HETATM   33  C16 UNL     1     -17.660   6.647  13.882  1.00  0.00     0.135 C 
BRANCH  33  34
HETATM   34  C17 UNL     1     -17.391   7.768  12.921  1.00  0.00     0.141 C 
HETATM   35  O4  UNL     1     -17.320   8.954  13.202  1.00  0.00    -0.650 OA
BRANCH  34  36
HETATM   36  O5  UNL     1     -17.188   7.344  11.660  1.00  0.00    -0.776 OA
HETATM   37  H20 UNL     1     -17.052   8.170  11.146  1.00  0.00     0.167 HD
ENDBRANCH  34  36
ENDBRANCH  33  34
ENDBRANCH  32  33
BRANCH  32  38
HETATM   38  C18 UNL     1     -16.317   4.493  14.139  1.00  0.00     0.014 C 
HETATM   39  C19 UNL     1     -17.454   4.026  13.219  1.00  0.00     0.033 C 
HETATM   40  C20 UNL     1     -17.386   2.525  12.981  1.00  0.00     0.169 C 
HETATM   41  O6  UNL     1     -17.419   1.811  14.215  1.00  0.00    -0.381 OA
HETATM   42  C21 UNL     1     -16.360   2.127  15.131  1.00  0.00     0.054 C 
HETATM   43  C22 UNL     1     -16.690   1.373  16.429  1.00  0.00     0.045 C 
HETATM   44  C23 UNL     1     -15.014   1.606  14.604  1.00  0.00     0.045 C 
HETATM   45  C24 UNL     1     -16.326   3.642  15.421  1.00  0.00     0.044 C 
ENDBRANCH  32  38
ENDBRANCH  30  32
ENDBRANCH  27  28
ENDBRANCH  26  27
ENDBRANCH  13  26
TORSDOF 9
ENDMDL
MODEL 6
REMARK minimizedAffinity -6.96693945
REMARK CNNscore 0.315130442
REMARK CNNaffinity 6.51208687
REMARK  9 active torsions:
REMARK  status: ('A' for Active; 'I' for Inactive)
REMARK    1  A    between atoms: C3_3  and  O1_4 
REMARK    2  A    between atoms: N1_14  and  O2_16 
REMARK    3  A    between atoms: O2_16  and  C13_17 
REMARK    4  A    between atoms: C13_17  and  C14_18 
REMARK       I    between atoms: C14_18  and  N2_20 
REMARK    5  A    between atoms: N2_20  and  C15_21 
REMARK    6  A    between atoms: C15_21  and  C16_22 
REMARK    7  A    between atoms: C15_21  and  C18_26 
REMARK    8  A    between atoms: C16_22  and  C17_23 
REMARK    9  A    between atoms: C17_23  and  O5_25 
ROOT
HETATM    1  C1  UNL     1     -12.403   1.641  27.858  1.00  0.00     0.015 C 
HETATM    2  C2  UNL     1     -12.645   1.680  26.682  1.00  0.00    -0.078 C 
HETATM    3  C3  UNL     1     -12.947   1.725  25.242  1.00  0.00     0.128 C 
HETATM    4  C4  UNL     1     -11.715   2.064  24.402  1.00  0.00     0.052 C 
HETATM    5  C5  UNL     1     -12.255   2.684  23.109  1.00  0.00     0.010 C 
HETATM    6  C6  UNL     1     -13.778   2.874  23.295  1.00  0.00     0.002 C 
HETATM    7  C7  UNL     1     -14.297   4.139  22.570  1.00  0.00    -0.004 C 
HETATM    8  C8  UNL     1     -15.799   4.002  22.217  1.00  0.00     0.010 C 
HETATM    9  C9  UNL     1     -16.581   5.311  22.219  1.00  0.00     0.035 C 
HETATM   10  C10 UNL     1     -15.720   6.424  21.702  1.00  0.00    -0.069 C 
HETATM   11  C11 UNL     1     -16.026   7.055  20.555  1.00  0.00     0.030 C 
HETATM   12  C12 UNL     1     -15.154   8.122  20.003  1.00  0.00     0.032 C 
HETATM   13  N1  UNL     1     -15.642   8.873  19.055  1.00  0.00    -0.271 N 
ATOM     14  H1  UNL     1     -16.577   8.763  18.663  1.00  0.00     0.194 HD
HETATM   15  C25 UNL     1     -13.768   8.309  20.596  1.00  0.00     0.060 C 
HETATM   16  C26 UNL     1     -13.359   7.162  21.519  1.00  0.00     0.020 C 
HETATM   17  C27 UNL     1     -14.471   6.734  22.520  1.00  0.00    -0.016 C 
HETATM   18  C28 UNL     1     -14.783   7.914  23.466  1.00  0.00     0.020 C 
HETATM   19  C29 UNL     1     -13.956   5.460  23.312  1.00  0.00     0.002 C 
HETATM   20  C30 UNL     1     -14.382   5.364  24.789  1.00  0.00     0.007 C 
HETATM   21  C31 UNL     1     -13.701   4.188  25.489  1.00  0.00     0.014 C 
HETATM   22  C32 UNL     1     -13.991   2.814  24.836  1.00  0.00     0.003 C 
HETATM   23  C33 UNL     1     -15.418   2.368  25.214  1.00  0.00     0.020 C 
ENDROOT
BRANCH   3  24
HETATM   24  O1  UNL     1     -13.403   0.432  24.827  1.00  0.00    -0.377 OA
HETATM   25  H2  UNL     1     -12.949  -0.222  25.382  1.00  0.00     0.211 HD
ENDBRANCH   3  24
BRANCH  13  26
HETATM   26  O2  UNL     1     -14.723   9.848  18.641  1.00  0.00    -0.271 OA
BRANCH  26  27
HETATM   27  C13 UNL     1     -15.395  10.794  17.821  1.00  0.00     0.303 C 
BRANCH  27  28
HETATM   28  C14 UNL     1     -14.401  11.464  16.882  1.00  0.00     0.244 C 
HETATM   29  O3  UNL     1     -14.645  12.519  16.302  1.00  0.00    -0.271 OA
HETATM   30  N2  UNL     1     -13.241  10.740  16.684  1.00  0.00    -0.354 N 
HETATM   31  H16 UNL     1     -13.151   9.871  17.201  1.00  0.00     0.162 HD
BRANCH  30  32
HETATM   32  C15 UNL     1     -12.228  11.117  15.700  1.00  0.00     0.098 C 
BRANCH  32  33
HETATM   33  C16 UNL     1     -10.827  11.045  16.316  1.00  0.00     0.135 C 
BRANCH  33  34
HETATM   34  C17 UNL     1      -9.768  11.409  15.317  1.00  0.00     0.141 C 
HETATM   35  O4  UNL     1      -9.675  12.471  14.722  1.00  0.00    -0.650 OA
BRANCH  34  36
HETATM   36  O5  UNL     1      -8.855  10.435  15.138  1.00  0.00    -0.776 OA
HETATM   37  H20 UNL     1      -8.250  10.795  14.452  1.00  0.00     0.167 HD
ENDBRANCH  34  36
ENDBRANCH  33  34
ENDBRANCH  32  33
BRANCH  32  38
HETATM   38  C18 UNL     1     -12.320  10.258  14.404  1.00  0.00     0.014 C 
HETATM   39  C19 UNL     1     -13.325  10.827  13.392  1.00  0.00     0.033 C 
HETATM   40  C20 UNL     1     -13.390   9.967  12.139  1.00  0.00     0.169 C 
HETATM   41  O6  UNL     1     -13.721   8.618  12.463  1.00  0.00    -0.381 OA
HETATM   42  C21 UNL     1     -12.808   7.965  13.358  1.00  0.00     0.054 C 
HETATM   43  C22 UNL     1     -13.445   6.605  13.686  1.00  0.00     0.045 C 
HETATM   44  C23 UNL     1     -11.460   7.709  12.667  1.00  0.00     0.045 C 
HETATM   45  C24 UNL     1     -12.651   8.777  14.661  1.00  0.00     0.044 C 
ENDBRANCH  32  38
ENDBRANCH  30  32
ENDBRANCH  27  28
ENDBRANCH  26  27
ENDBRANCH  13  26
TORSDOF 9
ENDMDL
MODEL 7
REMARK minimizedAffinity -8.66123199
REMARK CNNscore 0.295758843
REMARK CNNaffinity 6.04231501
REMARK  9 active torsions:
REMARK  status: ('A' for Active; 'I' for Inactive)
REMARK    1  A    between atoms: C3_3  and  O1_4 
REMARK    2  A    between atoms: N1_14  and  O2_16 
REMARK    3  A    between atoms: O2_16  and  C13_17 
REMARK    4  A    between atoms: C13_17  and  C14_18 
REMARK       I    between atoms: C14_18  and  N2_20 
REMARK    5  A    between atoms: N2_20  and  C15_21 
REMARK    6  A    between atoms: C15_21  and  C16_22 
REMARK    7  A    between atoms: C15_21  and  C18_26 
REMARK    8  A    between atoms: C16_22  and  C17_23 
REMARK    9  A    between atoms: C17_23  and  O5_25 
ROOT
HETATM    1  C1  UNL     1       1.972   7.278   7.209  1.00  0.00     0.015 C 
HETATM    2  C2  UNL     1       2.024   7.166   8.404  1.00  0.00    -0.078 C 
HETATM    3  C3  UNL     1       2.091   7.023   9.868  1.00  0.00     0.128 C 
HETATM    4  C4  UNL     1       1.182   8.020  10.588  1.00  0.00     0.052 C 
HETATM    5  C5  UNL     1       1.795   8.203  11.981  1.00  0.00     0.010 C 
HETATM    6  C6  UNL     1       3.152   7.463  11.984  1.00  0.00     0.002 C 
HETATM    7  C7  UNL     1       4.201   8.181  12.866  1.00  0.00    -0.004 C 
HETATM    8  C8  UNL     1       5.277   7.188  13.373  1.00  0.00     0.010 C 
HETATM    9  C9  UNL     1       6.665   7.788  13.568  1.00  0.00     0.035 C 
HETATM   10  C10 UNL     1       6.549   9.194  14.076  1.00  0.00    -0.069 C 
HETATM   11  C11 UNL     1       7.000   9.524  15.299  1.00  0.00     0.030 C 
HETATM   12  C12 UNL     1       6.844  10.899  15.837  1.00  0.00     0.032 C 
HETATM   13  N1  UNL     1       7.539  11.218  16.892  1.00  0.00    -0.271 N 
ATOM     14  H1  UNL     1       8.170  10.580  17.377  1.00  0.00     0.194 HD
HETATM   15  C25 UNL     1       5.924  11.864  15.109  1.00  0.00     0.060 C 
HETATM   16  C26 UNL     1       5.059  11.178  14.053  1.00  0.00     0.020 C 
HETATM   17  C27 UNL     1       5.843  10.179  13.152  1.00  0.00    -0.016 C 
HETATM   18  C28 UNL     1       6.910  10.953  12.348  1.00  0.00     0.020 C 
HETATM   19  C29 UNL     1       4.800   9.451  12.203  1.00  0.00     0.002 C 
HETATM   20  C30 UNL     1       5.293   9.126  10.780  1.00  0.00     0.007 C 
HETATM   21  C31 UNL     1       4.161   8.575   9.913  1.00  0.00     0.014 C 
HETATM   22  C32 UNL     1       3.504   7.291  10.478  1.00  0.00     0.003 C 
HETATM   23  C33 UNL     1       4.441   6.093  10.227  1.00  0.00     0.020 C 
ENDROOT
BRANCH   3  24
HETATM   24  O1  UNL     1       1.647   5.708  10.222  1.00  0.00    -0.377 OA
HETATM   25  H2  UNL     1       0.980   5.446   9.566  1.00  0.00     0.211 HD
ENDBRANCH   3  24
BRANCH  13  26
HETATM   26  O2  UNL     1       7.311  12.547  17.280  1.00  0.00    -0.271 OA
BRANCH  26  27
HETATM   27  C13 UNL     1       8.323  12.938  18.198  1.00  0.00     0.303 C 
BRANCH  27  28
HETATM   28  C14 UNL     1       8.144  12.195  19.514  1.00  0.00     0.244 C 
HETATM   29  O3  UNL     1       8.733  11.148  19.770  1.00  0.00    -0.271 OA
HETATM   30  N2  UNL     1       7.205  12.762  20.355  1.00  0.00    -0.354 N 
HETATM   31  H16 UNL     1       6.765  13.619  20.035  1.00  0.00     0.162 HD
BRANCH  30  32
HETATM   32  C15 UNL     1       6.760  12.124  21.593  1.00  0.00     0.098 C 
BRANCH  32  33
HETATM   33  C16 UNL     1       7.091  13.006  22.801  1.00  0.00     0.135 C 
BRANCH  33  34
HETATM   34  C17 UNL     1       8.528  12.859  23.211  1.00  0.00     0.141 C 
HETATM   35  O4  UNL     1       9.180  13.670  23.848  1.00  0.00    -0.650 OA
BRANCH  34  36
HETATM   36  O5  UNL     1       9.066  11.685  22.831  1.00  0.00    -0.776 OA
HETATM   37  H20 UNL     1       9.999  11.736  23.138  1.00  0.00     0.167 HD
ENDBRANCH  34  36
ENDBRANCH  33  34
ENDBRANCH  32  33
BRANCH  32  38
HETATM   38  C18 UNL     1       5.245  11.764  21.555  1.00  0.00     0.014 C 
HETATM   39  C19 UNL     1       4.347  13.008  21.501  1.00  0.00     0.033 C 
HETATM   40  C20 UNL     1       2.876  12.622  21.465  1.00  0.00     0.169 C 
HETATM   41  O6  UNL     1       2.533  11.810  22.586  1.00  0.00    -0.381 OA
HETATM   42  C21 UNL     1       3.272  10.585  22.700  1.00  0.00     0.054 C 
HETATM   43  C22 UNL     1       2.857   9.969  24.045  1.00  0.00     0.045 C 
HETATM   44  C23 UNL     1       2.878   9.607  21.583  1.00  0.00     0.045 C 
HETATM   45  C24 UNL     1       4.790  10.866  22.720  1.00  0.00     0.044 C 
ENDBRANCH  32  38
ENDBRANCH  30  32
ENDBRANCH  27  28
ENDBRANCH  26  27
ENDBRANCH  13  26
TORSDOF 9
ENDMDL
MODEL 8
REMARK minimizedAffinity -7.20810747
REMARK CNNscore 0.289810419
REMARK CNNaffinity 6.00854445
REMARK  9 active torsions:
REMARK  status: ('A' for Active; 'I' for Inactive)
REMARK    1  A    between atoms: C3_3  and  O1_4 
REMARK    2  A    between atoms: N1_14  and  O2_16 
REMARK    3  A    between atoms: O2_16  and  C13_17 
REMARK    4  A    between atoms: C13_17  and  C14_18 
REMARK       I    between atoms: C14_18  and  N2_20 
REMARK    5  A    between atoms: N2_20  and  C15_21 
REMARK    6  A    between atoms: C15_21  and  C16_22 
REMARK    7  A    between atoms: C15_21  and  C18_26 
REMARK    8  A    between atoms: C16_22  and  C17_23 
REMARK    9  A    between atoms: C17_23  and  O5_25 
ROOT
HETATM    1  C1  UNL     1      -6.534  19.123  25.331  1.00  0.00     0.015 C 
HETATM    2  C2  UNL     1      -6.361  17.999  24.944  1.00  0.00    -0.078 C 
HETATM    3  C3  UNL     1      -6.150  16.619  24.477  1.00  0.00     0.128 C 
HETATM    4  C4  UNL     1      -5.383  16.567  23.155  1.00  0.00     0.052 C 
HETATM    5  C5  UNL     1      -5.782  15.240  22.500  1.00  0.00     0.010 C 
HETATM    6  C6  UNL     1      -6.918  14.632  23.354  1.00  0.00     0.002 C 
HETATM    7  C7  UNL     1      -7.941  13.856  22.490  1.00  0.00    -0.004 C 
HETATM    8  C8  UNL     1      -8.665  12.771  23.324  1.00  0.00     0.010 C 
HETATM    9  C9  UNL     1     -10.102  12.485  22.898  1.00  0.00     0.035 C 
HETATM   10  C10 UNL     1     -10.223  12.583  21.407  1.00  0.00    -0.069 C 
HETATM   11  C11 UNL     1     -10.528  11.503  20.667  1.00  0.00     0.030 C 
HETATM   12  C12 UNL     1     -10.599  11.574  19.186  1.00  0.00     0.032 C 
HETATM   13  N1  UNL     1     -11.164  10.580  18.559  1.00  0.00    -0.271 N 
ATOM     14  H1  UNL     1     -11.546   9.754  19.021  1.00  0.00     0.194 HD
HETATM   15  C25 UNL     1     -10.055  12.809  18.490  1.00  0.00     0.060 C 
HETATM   16  C26 UNL     1      -9.244  13.707  19.423  1.00  0.00     0.020 C 
HETATM   17  C27 UNL     1      -9.920  13.950  20.804  1.00  0.00    -0.016 C 
HETATM   18  C28 UNL     1     -11.253  14.701  20.590  1.00  0.00     0.020 C 
HETATM   19  C29 UNL     1      -8.912  14.780  21.705  1.00  0.00     0.002 C 
HETATM   20  C30 UNL     1      -9.547  15.813  22.656  1.00  0.00     0.007 C 
HETATM   21  C31 UNL     1      -8.480  16.657  23.351  1.00  0.00     0.014 C 
HETATM   22  C32 UNL     1      -7.466  15.831  24.181  1.00  0.00     0.003 C 
HETATM   23  C33 UNL     1      -8.137  15.380  25.494  1.00  0.00     0.020 C 
ENDROOT
BRANCH   3  24
HETATM   24  O1  UNL     1      -5.369  15.918  25.451  1.00  0.00    -0.377 OA
HETATM   25  H2  UNL     1      -4.778  16.568  25.865  1.00  0.00     0.211 HD
ENDBRANCH   3  24
BRANCH  13  26
HETATM   26  O2  UNL     1     -11.180  10.785  17.171  1.00  0.00    -0.271 OA
BRANCH  26  27
HETATM   27  C13 UNL     1     -12.052   9.833  16.576  1.00  0.00     0.303 C 
BRANCH  27  28
HETATM   28  C14 UNL     1     -11.366   9.174  15.388  1.00  0.00     0.244 C 
HETATM   29  O3  UNL     1     -10.710   9.808  14.566  1.00  0.00    -0.271 OA
HETATM   30  N2  UNL     1     -11.613   7.819  15.279  1.00  0.00    -0.354 N 
HETATM   31  H16 UNL     1     -12.184   7.399  16.006  1.00  0.00     0.162 HD
BRANCH  30  32
HETATM   32  C15 UNL     1     -11.189   7.025  14.127  1.00  0.00     0.098 C 
BRANCH  32  33
HETATM   33  C16 UNL     1     -11.826   7.561  12.841  1.00  0.00     0.135 C 
BRANCH  33  34
HETATM   34  C17 UNL     1     -13.323   7.607  12.946  1.00  0.00     0.141 C 
HETATM   35  O4  UNL     1     -14.045   8.504  12.543  1.00  0.00    -0.650 OA
BRANCH  34  36
HETATM   36  O5  UNL     1     -13.844   6.507  13.522  1.00  0.00    -0.776 OA
HETATM   37  H20 UNL     1     -14.811   6.682  13.547  1.00  0.00     0.167 HD
ENDBRANCH  34  36
ENDBRANCH  33  34
ENDBRANCH  32  33
BRANCH  32  38
HETATM   38  C18 UNL     1      -9.638   6.952  14.001  1.00  0.00     0.014 C 
HETATM   39  C19 UNL     1      -9.182   5.934  12.947  1.00  0.00     0.033 C 
HETATM   40  C20 UNL     1      -7.665   5.889  12.848  1.00  0.00     0.169 C 
HETATM   41  O6  UNL     1      -7.080   5.590  14.114  1.00  0.00    -0.381 OA
HETATM   42  C21 UNL     1      -7.392   6.518  15.164  1.00  0.00     0.054 C 
HETATM   43  C22 UNL     1      -6.799   5.913  16.446  1.00  0.00     0.045 C 
HETATM   44  C23 UNL     1      -6.709   7.871  14.913  1.00  0.00     0.045 C 
HETATM   45  C24 UNL     1      -8.920   6.656  15.330  1.00  0.00     0.044 C 
ENDBRANCH  32  38
ENDBRANCH  30  32
ENDBRANCH  27  28
ENDBRANCH  26  27
ENDBRANCH  13  26
TORSDOF 9
ENDMDL
MODEL 9
REMARK minimizedAffinity -8.87028217
REMARK CNNscore 0.277860492
REMARK CNNaffinity 6.89355469
REMARK  9 active torsions:
REMARK  status: ('A' for Active; 'I' for Inactive)
REMARK    1  A    between atoms: C3_3  and  O1_4 
REMARK    2  A    between atoms: N1_14  and  O2_16 
REMARK    3  A    between atoms: O2_16  and  C13_17 
REMARK    4  A    between atoms: C13_17  and  C14_18 
REMARK       I    between atoms: C14_18  and  N2_20 
REMARK    5  A    between atoms: N2_20  and  C15_21 
REMARK    6  A    between atoms: C15_21  and  C16_22 
REMARK    7  A    between atoms: C15_21  and  C18_26 
REMARK    8  A    between atoms: C16_22  and  C17_23 
REMARK    9  A    between atoms: C17_23  and  O5_25 
ROOT
HETATM    1  C1  UNL     1      -9.188   5.827  11.706  1.00  0.00     0.015 C 
HETATM    2  C2  UNL     1      -8.510   5.650  12.682  1.00  0.00    -0.078 C 
HETATM    3  C3  UNL     1      -7.676   5.426  13.874  1.00  0.00     0.128 C 
HETATM    4  C4  UNL     1      -8.156   6.240  15.077  1.00  0.00     0.052 C 
HETATM    5  C5  UNL     1      -6.925   6.420  15.971  1.00  0.00     0.010 C 
HETATM    6  C6  UNL     1      -5.708   5.878  15.186  1.00  0.00     0.002 C 
HETATM    7  C7  UNL     1      -4.419   6.679  15.490  1.00  0.00    -0.004 C 
HETATM    8  C8  UNL     1      -3.156   5.816  15.246  1.00  0.00     0.010 C 
HETATM    9  C9  UNL     1      -1.929   6.592  14.778  1.00  0.00     0.035 C 
HETATM   10  C10 UNL     1      -1.884   7.933  15.446  1.00  0.00    -0.069 C 
HETATM   11  C11 UNL     1      -0.891   8.246  16.297  1.00  0.00     0.030 C 
HETATM   12  C12 UNL     1      -0.862   9.550  17.007  1.00  0.00     0.032 C 
HETATM   13  N1  UNL     1       0.251   9.897  17.589  1.00  0.00    -0.271 N 
ATOM     14  H1  UNL     1       1.096   9.324  17.598  1.00  0.00     0.194 HD
HETATM   15  C25 UNL     1      -2.106  10.421  16.979  1.00  0.00     0.060 C 
HETATM   16  C26 UNL     1      -3.332   9.687  16.438  1.00  0.00     0.020 C 
HETATM   17  C27 UNL     1      -3.052   8.865  15.145  1.00  0.00    -0.016 C 
HETATM   18  C28 UNL     1      -2.634   9.830  14.014  1.00  0.00     0.020 C 
HETATM   19  C29 UNL     1      -4.369   8.060  14.780  1.00  0.00     0.002 C 
HETATM   20  C30 UNL     1      -4.666   7.895  13.278  1.00  0.00     0.007 C 
HETATM   21  C31 UNL     1      -6.032   7.247  13.050  1.00  0.00     0.014 C 
HETATM   22  C32 UNL     1      -6.182   5.851  13.704  1.00  0.00     0.003 C 
HETATM   23  C33 UNL     1      -5.414   4.814  12.861  1.00  0.00     0.020 C 
ENDROOT
BRANCH   3  24
HETATM   24  O1  UNL     1      -7.753   4.043  14.237  1.00  0.00    -0.377 OA
HETATM   25  H2  UNL     1      -8.638   3.732  13.987  1.00  0.00     0.211 HD
ENDBRANCH   3  24
BRANCH  13  26
HETATM   26  O2  UNL     1       0.145  11.154  18.203  1.00  0.00    -0.271 OA
BRANCH  26  27
HETATM   27  C13 UNL     1       1.341  11.884  17.964  1.00  0.00     0.303 C 
BRANCH  27  28
HETATM   28  C14 UNL     1       2.546  11.059  18.390  1.00  0.00     0.244 C 
HETATM   29  O3  UNL     1       2.464   9.870  18.686  1.00  0.00    -0.271 OA
HETATM   30  N2  UNL     1       3.717  11.786  18.486  1.00  0.00    -0.354 N 
HETATM   31  H16 UNL     1       3.668  12.768  18.233  1.00  0.00     0.162 HD
BRANCH  30  32
HETATM   32  C15 UNL     1       4.954  11.230  19.033  1.00  0.00     0.098 C 
BRANCH  32  33
HETATM   33  C16 UNL     1       6.169  11.762  18.264  1.00  0.00     0.135 C 
BRANCH  33  34
HETATM   34  C17 UNL     1       7.454  11.246  18.842  1.00  0.00     0.141 C 
HETATM   35  O4  UNL     1       8.042  10.234  18.497  1.00  0.00    -0.650 OA
BRANCH  34  36
HETATM   36  O5  UNL     1       7.958  12.044  19.802  1.00  0.00    -0.776 OA
HETATM   37  H20 UNL     1       8.771  11.578  20.102  1.00  0.00     0.167 HD
ENDBRANCH  34  36
ENDBRANCH  33  34
ENDBRANCH  32  33
BRANCH  32  38
HETATM   38  C18 UNL     1       5.092  11.495  20.561  1.00  0.00     0.014 C 
HETATM   39  C19 UNL     1       4.444  10.392  21.409  1.00  0.00     0.033 C 
HETATM   40  C20 UNL     1       4.597  10.679  22.895  1.00  0.00     0.169 C 
HETATM   41  O6  UNL     1       4.045  11.951  23.228  1.00  0.00    -0.381 OA
HETATM   42  C21 UNL     1       4.623  13.067  22.535  1.00  0.00     0.054 C 
HETATM   43  C22 UNL     1       3.774  14.287  22.925  1.00  0.00     0.045 C 
HETATM   44  C23 UNL     1       6.063  13.314  23.011  1.00  0.00     0.045 C 
HETATM   45  C24 UNL     1       4.541  12.861  21.008  1.00  0.00     0.044 C 
ENDBRANCH  32  38
ENDBRANCH  30  32
ENDBRANCH  27  28
ENDBRANCH  26  27
ENDBRANCH  13  26
TORSDOF 9
ENDMDL
