MODEL 1
REMARK minimizedAffinity -9.31551743
REMARK  9 active torsions:
REMARK  status: ('A' for Active; 'I' for Inactive)
REMARK    1  A    between atoms: C3_3  and  O1_4 
REMARK    2  A    between atoms: N1_14  and  O2_16 
REMARK    3  A    between atoms: O2_16  and  C13_17 
REMARK    4  A    between atoms: C13_17  and  C14_18 
REMARK       I    between atoms: C14_18  and  N2_20 
REMARK    5  A    between atoms: N2_20  and  C15_21 
REMARK    6  A    between atoms: C15_21  and  C16_22 
REMARK    7  A    between atoms: C15_21  and  C17_25 
REMARK    8  A    between atoms: C16_22  and  O5_24 
REMARK    9  A    between atoms: C17_25  and  C19_27 
ROOT
HETATM    1  C1  UNL     1      -5.187  50.191 -10.451  1.00  0.00     0.015 C 
HETATM    2  C2  UNL     1      -4.285  50.797 -10.962  1.00  0.00    -0.078 C 
HETATM    3  C3  UNL     1      -3.196  51.560 -11.589  1.00  0.00     0.128 C 
HETATM    4  C4  UNL     1      -2.078  51.913 -10.572  1.00  0.00     0.052 C 
HETATM    5  C5  UNL     1      -0.749  51.885 -11.359  1.00  0.00     0.010 C 
HETATM    6  C6  UNL     1      -1.161  51.678 -12.814  1.00  0.00     0.002 C 
HETATM    7  C7  UNL     1      -0.126  51.129 -13.802  1.00  0.00    -0.004 C 
HETATM    8  C8  UNL     1       1.154  51.988 -13.823  1.00  0.00     0.010 C 
HETATM    9  C9  UNL     1       2.141  51.546 -14.905  1.00  0.00     0.035 C 
HETATM   10  C10 UNL     1       1.425  51.492 -16.232  1.00  0.00    -0.069 C 
HETATM   11  C11 UNL     1       1.751  52.362 -17.205  1.00  0.00     0.030 C 
HETATM   12  C12 UNL     1       0.885  52.549 -18.397  1.00  0.00     0.032 C 
HETATM   13  N1  UNL     1       1.304  53.352 -19.333  1.00  0.00    -0.271 N 
ATOM     14  H1  UNL     1       2.200  53.840 -19.310  1.00  0.00     0.194 HD
HETATM   15  C21 UNL     1      -0.465  51.860 -18.393  1.00  0.00     0.060 C 
HETATM   16  C22 UNL     1      -0.337  50.491 -17.744  1.00  0.00     0.020 C 
HETATM   17  C23 UNL     1       0.237  50.526 -16.301  1.00  0.00    -0.016 C 
HETATM   18  C24 UNL     1       0.694  49.074 -16.010  1.00  0.00     0.020 C 
HETATM   19  C25 UNL     1      -0.785  51.044 -15.226  1.00  0.00     0.002 C 
HETATM   20  C26 UNL     1      -2.131  50.277 -15.193  1.00  0.00     0.007 C 
HETATM   21  C27 UNL     1      -3.093  50.779 -14.100  1.00  0.00     0.014 C 
HETATM   22  C28 UNL     1      -2.430  50.796 -12.711  1.00  0.00     0.003 C 
HETATM   23  C29 UNL     1      -2.122  49.336 -12.271  1.00  0.00     0.020 C 
ENDROOT
BRANCH   3  24
HETATM   24  O1  UNL     1      -3.770  52.766 -12.099  1.00  0.00    -0.377 OA
HETATM   25  H2  UNL     1      -3.096  53.464 -12.088  1.00  0.00     0.211 HD
ENDBRANCH   3  24
BRANCH  13  26
HETATM   26  O2  UNL     1       0.377  53.464 -20.377  1.00  0.00    -0.271 OA
BRANCH  26  27
HETATM   27  C13 UNL     1       1.074  53.699 -21.599  1.00  0.00     0.303 C 
BRANCH  27  28
HETATM   28  C14 UNL     1       0.554  52.764 -22.687  1.00  0.00     0.244 C 
HETATM   29  O3  UNL     1       0.365  51.569 -22.484  1.00  0.00    -0.271 OA
HETATM   30  N2  UNL     1       0.281  53.398 -23.885  1.00  0.00    -0.344 N 
HETATM   31  H16 UNL     1       0.342  54.410 -23.864  1.00  0.00     0.163 HD
BRANCH  30  32
HETATM   32  C15 UNL     1      -0.430  52.782 -25.008  1.00  0.00     0.186 C 
BRANCH  32  33
HETATM   33  C16 UNL     1      -1.922  52.703 -24.635  1.00  0.00     0.163 C 
HETATM   34  O4  UNL     1      -2.417  52.533 -23.532  1.00  0.00    -0.648 OA
BRANCH  33  35
HETATM   35  O5  UNL     1      -2.733  52.893 -25.701  1.00  0.00    -0.775 OA
HETATM   36  H18 UNL     1      -3.632  52.813 -25.315  1.00  0.00     0.167 HD
ENDBRANCH  33  35
ENDBRANCH  32  33
BRANCH  32  37
HETATM   37  C17 UNL     1       0.178  51.460 -25.548  1.00  0.00     0.014 C 
HETATM   38  C18 UNL     1      -0.912  50.427 -25.884  1.00  0.00     0.012 C 
BRANCH  37  39
HETATM   39  C19 UNL     1       1.028  51.670 -26.827  1.00  0.00     0.002 C 
HETATM   40  C20 UNL     1       2.525  51.470 -26.655  1.00  0.00     0.005 C 
ENDBRANCH  37  39
ENDBRANCH  32  37
ENDBRANCH  30  32
ENDBRANCH  27  28
ENDBRANCH  26  27
ENDBRANCH  13  26
TORSDOF 9
ENDMDL
MODEL 2
REMARK minimizedAffinity -9.11451721
REMARK  9 active torsions:
REMARK  status: ('A' for Active; 'I' for Inactive)
REMARK    1  A    between atoms: C3_3  and  O1_4 
REMARK    2  A    between atoms: N1_14  and  O2_16 
REMARK    3  A    between atoms: O2_16  and  C13_17 
REMARK    4  A    between atoms: C13_17  and  C14_18 
REMARK       I    between atoms: C14_18  and  N2_20 
REMARK    5  A    between atoms: N2_20  and  C15_21 
REMARK    6  A    between atoms: C15_21  and  C16_22 
REMARK    7  A    between atoms: C15_21  and  C17_25 
REMARK    8  A    between atoms: C16_22  and  O5_24 
REMARK    9  A    between atoms: C17_25  and  C19_27 
ROOT
HETATM    1  C1  UNL     1      -3.417  51.191  -9.381  1.00  0.00     0.015 C 
HETATM    2  C2  UNL     1      -2.900  51.663 -10.356  1.00  0.00    -0.078 C 
HETATM    3  C3  UNL     1      -2.284  52.258 -11.551  1.00  0.00     0.128 C 
HETATM    4  C4  UNL     1      -1.024  53.091 -11.197  1.00  0.00     0.052 C 
HETATM    5  C5  UNL     1      -0.046  52.926 -12.382  1.00  0.00     0.010 C 
HETATM    6  C6  UNL     1      -0.833  52.145 -13.432  1.00  0.00     0.002 C 
HETATM    7  C7  UNL     1      -0.062  51.392 -14.520  1.00  0.00    -0.004 C 
HETATM    8  C8  UNL     1       0.896  52.323 -15.289  1.00  0.00     0.010 C 
HETATM    9  C9  UNL     1       1.568  51.627 -16.475  1.00  0.00     0.035 C 
HETATM   10  C10 UNL     1       0.505  51.000 -17.343  1.00  0.00    -0.069 C 
HETATM   11  C11 UNL     1       0.286  51.475 -18.582  1.00  0.00     0.030 C 
HETATM   12  C12 UNL     1      -0.931  51.103 -19.349  1.00  0.00     0.032 C 
HETATM   13  N1  UNL     1      -1.037  51.541 -20.571  1.00  0.00    -0.271 N 
ATOM     14  H1  UNL     1      -0.327  52.103 -21.041  1.00  0.00     0.194 HD
HETATM   15  C21 UNL     1      -1.999  50.313 -18.620  1.00  0.00     0.060 C 
HETATM   16  C22 UNL     1      -1.345  49.310 -17.685  1.00  0.00     0.020 C 
HETATM   17  C23 UNL     1      -0.371  49.947 -16.656  1.00  0.00    -0.016 C 
HETATM   18  C24 UNL     1       0.493  48.771 -16.132  1.00  0.00     0.020 C 
HETATM   19  C25 UNL     1      -1.095  50.706 -15.486  1.00  0.00     0.002 C 
HETATM   20  C26 UNL     1      -2.133  49.856 -14.710  1.00  0.00     0.007 C 
HETATM   21  C27 UNL     1      -2.792  50.614 -13.542  1.00  0.00     0.014 C 
HETATM   22  C28 UNL     1      -1.750  51.225 -12.588  1.00  0.00     0.003 C 
HETATM   23  C29 UNL     1      -0.973  50.080 -11.876  1.00  0.00     0.020 C 
ENDROOT
BRANCH   3  24
HETATM   24  O1  UNL     1      -3.264  53.111 -12.145  1.00  0.00    -0.377 OA
HETATM   25  H2  UNL     1      -2.813  53.836 -12.606  1.00  0.00     0.211 HD
ENDBRANCH   3  24
BRANCH  13  26
HETATM   26  O2  UNL     1      -2.244  51.148 -21.163  1.00  0.00    -0.271 OA
BRANCH  26  27
HETATM   27  C13 UNL     1      -2.397  51.827 -22.408  1.00  0.00     0.303 C 
BRANCH  27  28
HETATM   28  C14 UNL     1      -1.038  52.014 -23.075  1.00  0.00     0.244 C 
HETATM   29  O3  UNL     1       0.001  51.611 -22.560  1.00  0.00    -0.271 OA
HETATM   30  N2  UNL     1      -1.102  52.627 -24.312  1.00  0.00    -0.344 N 
HETATM   31  H16 UNL     1      -2.037  52.769 -24.678  1.00  0.00     0.163 HD
BRANCH  30  32
HETATM   32  C15 UNL     1       0.019  52.723 -25.251  1.00  0.00     0.186 C 
BRANCH  32  33
HETATM   33  C16 UNL     1      -0.217  53.958 -26.141  1.00  0.00     0.163 C 
HETATM   34  O4  UNL     1       0.389  55.017 -26.139  1.00  0.00    -0.648 OA
BRANCH  33  35
HETATM   35  O5  UNL     1      -1.207  53.765 -27.043  1.00  0.00    -0.775 OA
HETATM   36  H18 UNL     1      -1.241  54.619 -27.524  1.00  0.00     0.167 HD
ENDBRANCH  33  35
ENDBRANCH  32  33
BRANCH  32  37
HETATM   37  C17 UNL     1       0.366  51.421 -26.022  1.00  0.00     0.014 C 
HETATM   38  C18 UNL     1      -0.899  50.663 -26.458  1.00  0.00     0.012 C 
BRANCH  37  39
HETATM   39  C19 UNL     1       1.211  51.686 -27.294  1.00  0.00     0.002 C 
HETATM   40  C20 UNL     1       2.713  51.522 -27.125  1.00  0.00     0.005 C 
ENDBRANCH  37  39
ENDBRANCH  32  37
ENDBRANCH  30  32
ENDBRANCH  27  28
ENDBRANCH  26  27
ENDBRANCH  13  26
TORSDOF 9
ENDMDL
MODEL 3
REMARK minimizedAffinity -9.09564972
REMARK  9 active torsions:
REMARK  status: ('A' for Active; 'I' for Inactive)
REMARK    1  A    between atoms: C3_3  and  O1_4 
REMARK    2  A    between atoms: N1_14  and  O2_16 
REMARK    3  A    between atoms: O2_16  and  C13_17 
REMARK    4  A    between atoms: C13_17  and  C14_18 
REMARK       I    between atoms: C14_18  and  N2_20 
REMARK    5  A    between atoms: N2_20  and  C15_21 
REMARK    6  A    between atoms: C15_21  and  C16_22 
REMARK    7  A    between atoms: C15_21  and  C17_25 
REMARK    8  A    between atoms: C16_22  and  O5_24 
REMARK    9  A    between atoms: C17_25  and  C19_27 
ROOT
HETATM    1  C1  UNL     1      -4.874  51.037 -10.221  1.00  0.00     0.015 C 
HETATM    2  C2  UNL     1      -4.062  51.560 -10.934  1.00  0.00    -0.078 C 
HETATM    3  C3  UNL     1      -3.082  52.221 -11.809  1.00  0.00     0.128 C 
HETATM    4  C4  UNL     1      -1.877  52.780 -11.008  1.00  0.00     0.052 C 
HETATM    5  C5  UNL     1      -0.642  52.640 -11.925  1.00  0.00     0.010 C 
HETATM    6  C6  UNL     1      -1.201  52.159 -13.262  1.00  0.00     0.002 C 
HETATM    7  C7  UNL     1      -0.256  51.463 -14.247  1.00  0.00    -0.004 C 
HETATM    8  C8  UNL     1       0.974  52.333 -14.570  1.00  0.00     0.010 C 
HETATM    9  C9  UNL     1       1.856  51.723 -15.661  1.00  0.00     0.035 C 
HETATM   10  C10 UNL     1       1.003  51.409 -16.866  1.00  0.00    -0.069 C 
HETATM   11  C11 UNL     1       1.182  52.092 -18.010  1.00  0.00     0.030 C 
HETATM   12  C12 UNL     1       0.183  52.037 -19.109  1.00  0.00     0.032 C 
HETATM   13  N1  UNL     1       0.462  52.663 -20.216  1.00  0.00    -0.271 N 
ATOM     14  H1  UNL     1       1.332  53.168 -20.384  1.00  0.00     0.194 HD
HETATM   15  C21 UNL     1      -1.126  51.328 -18.824  1.00  0.00     0.060 C 
HETATM   16  C22 UNL     1      -0.868  50.106 -17.960  1.00  0.00     0.020 C 
HETATM   17  C23 UNL     1      -0.142  50.419 -16.622  1.00  0.00    -0.016 C 
HETATM   18  C24 UNL     1       0.408  49.056 -16.129  1.00  0.00     0.020 C 
HETATM   19  C25 UNL     1      -1.062  51.101 -15.548  1.00  0.00     0.002 C 
HETATM   20  C26 UNL     1      -2.362  50.322 -15.222  1.00  0.00     0.007 C 
HETATM   21  C27 UNL     1      -3.219  50.993 -14.133  1.00  0.00     0.014 C 
HETATM   22  C28 UNL     1      -2.410  51.281 -12.856  1.00  0.00     0.003 C 
HETATM   23  C29 UNL     1      -1.991  49.934 -12.198  1.00  0.00     0.020 C 
ENDROOT
BRANCH   3  24
HETATM   24  O1  UNL     1      -3.761  53.298 -12.458  1.00  0.00    -0.377 OA
HETATM   25  H2  UNL     1      -3.122  54.002 -12.651  1.00  0.00     0.211 HD
ENDBRANCH   3  24
BRANCH  13  26
HETATM   26  O2  UNL     1      -0.577  52.560 -21.149  1.00  0.00    -0.271 OA
BRANCH  26  27
HETATM   27  C13 UNL     1      -0.232  51.582 -22.128  1.00  0.00     0.303 C 
BRANCH  27  28
HETATM   28  C14 UNL     1      -0.923  51.898 -23.452  1.00  0.00     0.244 C 
HETATM   29  O3  UNL     1      -0.797  52.984 -24.008  1.00  0.00    -0.271 OA
HETATM   30  N2  UNL     1      -1.650  50.843 -23.969  1.00  0.00    -0.344 N 
HETATM   31  H16 UNL     1      -1.543  49.961 -23.480  1.00  0.00     0.163 HD
BRANCH  30  32
HETATM   32  C15 UNL     1      -2.218  50.807 -25.319  1.00  0.00     0.186 C 
BRANCH  32  33
HETATM   33  C16 UNL     1      -3.258  51.938 -25.423  1.00  0.00     0.163 C 
HETATM   34  O4  UNL     1      -4.308  52.057 -24.812  1.00  0.00    -0.648 OA
BRANCH  33  35
HETATM   35  O5  UNL     1      -2.883  52.909 -26.287  1.00  0.00    -0.775 OA
HETATM   36  H18 UNL     1      -3.631  53.544 -26.248  1.00  0.00     0.167 HD
ENDBRANCH  33  35
ENDBRANCH  32  33
BRANCH  32  37
HETATM   37  C17 UNL     1      -2.713  49.419 -25.807  1.00  0.00     0.014 C 
HETATM   38  C18 UNL     1      -3.470  48.664 -24.700  1.00  0.00     0.012 C 
BRANCH  37  39
HETATM   39  C19 UNL     1      -3.657  49.516 -27.032  1.00  0.00     0.002 C 
HETATM   40  C20 UNL     1      -3.980  48.195 -27.712  1.00  0.00     0.005 C 
ENDBRANCH  37  39
ENDBRANCH  32  37
ENDBRANCH  30  32
ENDBRANCH  27  28
ENDBRANCH  26  27
ENDBRANCH  13  26
TORSDOF 9
ENDMDL
MODEL 4
REMARK minimizedAffinity -9.07887554
REMARK  9 active torsions:
REMARK  status: ('A' for Active; 'I' for Inactive)
REMARK    1  A    between atoms: C3_3  and  O1_4 
REMARK    2  A    between atoms: N1_14  and  O2_16 
REMARK    3  A    between atoms: O2_16  and  C13_17 
REMARK    4  A    between atoms: C13_17  and  C14_18 
REMARK       I    between atoms: C14_18  and  N2_20 
REMARK    5  A    between atoms: N2_20  and  C15_21 
REMARK    6  A    between atoms: C15_21  and  C16_22 
REMARK    7  A    between atoms: C15_21  and  C17_25 
REMARK    8  A    between atoms: C16_22  and  O5_24 
REMARK    9  A    between atoms: C17_25  and  C19_27 
ROOT
HETATM    1  C1  UNL     1     -10.507  48.138 -18.699  1.00  0.00     0.015 C 
HETATM    2  C2  UNL     1      -9.307  48.130 -18.680  1.00  0.00    -0.078 C 
HETATM    3  C3  UNL     1      -7.837  48.136 -18.637  1.00  0.00     0.128 C 
HETATM    4  C4  UNL     1      -7.270  46.792 -18.108  1.00  0.00     0.052 C 
HETATM    5  C5  UNL     1      -5.940  46.556 -18.859  1.00  0.00     0.010 C 
HETATM    6  C6  UNL     1      -5.714  47.834 -19.664  1.00  0.00     0.002 C 
HETATM    7  C7  UNL     1      -4.774  47.785 -20.873  1.00  0.00    -0.004 C 
HETATM    8  C8  UNL     1      -3.380  47.250 -20.492  1.00  0.00     0.010 C 
HETATM    9  C9  UNL     1      -2.382  47.330 -21.649  1.00  0.00     0.035 C 
HETATM   10  C10 UNL     1      -2.365  48.740 -22.187  1.00  0.00    -0.069 C 
HETATM   11  C11 UNL     1      -1.265  49.499 -22.041  1.00  0.00     0.030 C 
HETATM   12  C12 UNL     1      -1.300  50.966 -22.274  1.00  0.00     0.032 C 
HETATM   13  N1  UNL     1      -0.178  51.622 -22.189  1.00  0.00    -0.271 N 
ATOM     14  H1  UNL     1       0.725  51.189 -21.996  1.00  0.00     0.194 HD
HETATM   15  C21 UNL     1      -2.656  51.602 -22.507  1.00  0.00     0.060 C 
HETATM   16  C22 UNL     1      -3.520  50.671 -23.341  1.00  0.00     0.020 C 
HETATM   17  C23 UNL     1      -3.704  49.257 -22.725  1.00  0.00    -0.016 C 
HETATM   18  C24 UNL     1      -4.206  48.368 -23.892  1.00  0.00     0.020 C 
HETATM   19  C25 UNL     1      -4.687  49.224 -21.500  1.00  0.00     0.002 C 
HETATM   20  C26 UNL     1      -6.091  49.815 -21.783  1.00  0.00     0.007 C 
HETATM   21  C27 UNL     1      -7.045  49.727 -20.577  1.00  0.00     0.014 C 
HETATM   22  C28 UNL     1      -7.148  48.294 -20.025  1.00  0.00     0.003 C 
HETATM   23  C29 UNL     1      -7.830  47.383 -21.086  1.00  0.00     0.020 C 
ENDROOT
BRANCH   3  24
HETATM   24  O1  UNL     1      -7.449  49.193 -17.755  1.00  0.00    -0.377 OA
HETATM   25  H2  UNL     1      -6.603  48.962 -17.340  1.00  0.00     0.211 HD
ENDBRANCH   3  24
BRANCH  13  26
HETATM   26  O2  UNL     1      -0.361  52.996 -22.393  1.00  0.00    -0.271 OA
BRANCH  26  27
HETATM   27  C13 UNL     1       0.730  53.504 -23.158  1.00  0.00     0.303 C 
BRANCH  27  28
HETATM   28  C14 UNL     1       0.296  53.732 -24.604  1.00  0.00     0.244 C 
HETATM   29  O3  UNL     1       0.555  54.770 -25.205  1.00  0.00    -0.271 OA
HETATM   30  N2  UNL     1      -0.364  52.656 -25.166  1.00  0.00    -0.344 N 
HETATM   31  H16 UNL     1      -0.376  51.812 -24.603  1.00  0.00     0.163 HD
BRANCH  30  32
HETATM   32  C15 UNL     1      -0.685  52.529 -26.590  1.00  0.00     0.186 C 
BRANCH  32  33
HETATM   33  C16 UNL     1      -2.217  52.445 -26.722  1.00  0.00     0.163 C 
HETATM   34  O4  UNL     1      -3.066  52.854 -25.947  1.00  0.00    -0.648 OA
BRANCH  33  35
HETATM   35  O5  UNL     1      -2.605  51.870 -27.884  1.00  0.00    -0.775 OA
HETATM   36  H18 UNL     1      -3.585  51.885 -27.824  1.00  0.00     0.167 HD
ENDBRANCH  33  35
ENDBRANCH  32  33
BRANCH  32  37
HETATM   37  C17 UNL     1       0.098  51.434 -27.363  1.00  0.00     0.014 C 
HETATM   38  C18 UNL     1       0.766  51.997 -28.629  1.00  0.00     0.012 C 
BRANCH  37  39
HETATM   39  C19 UNL     1       1.208  50.775 -26.506  1.00  0.00     0.002 C 
HETATM   40  C20 UNL     1       2.587  51.404 -26.631  1.00  0.00     0.005 C 
ENDBRANCH  37  39
ENDBRANCH  32  37
ENDBRANCH  30  32
ENDBRANCH  27  28
ENDBRANCH  26  27
ENDBRANCH  13  26
TORSDOF 9
ENDMDL
MODEL 5
REMARK minimizedAffinity -9.03271294
REMARK  9 active torsions:
REMARK  status: ('A' for Active; 'I' for Inactive)
REMARK    1  A    between atoms: C3_3  and  O1_4 
REMARK    2  A    between atoms: N1_14  and  O2_16 
REMARK    3  A    between atoms: O2_16  and  C13_17 
REMARK    4  A    between atoms: C13_17  and  C14_18 
REMARK       I    between atoms: C14_18  and  N2_20 
REMARK    5  A    between atoms: N2_20  and  C15_21 
REMARK    6  A    between atoms: C15_21  and  C16_22 
REMARK    7  A    between atoms: C15_21  and  C17_25 
REMARK    8  A    between atoms: C16_22  and  O5_24 
REMARK    9  A    between atoms: C17_25  and  C19_27 
ROOT
HETATM    1  C1  UNL     1      -1.688  69.365 -40.619  1.00  0.00     0.015 C 
HETATM    2  C2  UNL     1      -0.639  68.783 -40.653  1.00  0.00    -0.078 C 
HETATM    3  C3  UNL     1       0.635  68.050 -40.704  1.00  0.00     0.128 C 
HETATM    4  C4  UNL     1       1.568  68.591 -41.819  1.00  0.00     0.052 C 
HETATM    5  C5  UNL     1       3.011  68.443 -41.289  1.00  0.00     0.010 C 
HETATM    6  C6  UNL     1       2.867  67.684 -39.972  1.00  0.00     0.002 C 
HETATM    7  C7  UNL     1       4.001  67.770 -38.945  1.00  0.00    -0.004 C 
HETATM    8  C8  UNL     1       5.354  67.350 -39.552  1.00  0.00     0.010 C 
HETATM    9  C9  UNL     1       6.473  67.287 -38.509  1.00  0.00     0.035 C 
HETATM   10  C10 UNL     1       6.026  66.416 -37.361  1.00  0.00    -0.069 C 
HETATM   11  C11 UNL     1       6.636  65.239 -37.136  1.00  0.00     0.030 C 
HETATM   12  C12 UNL     1       6.046  64.223 -36.226  1.00  0.00     0.032 C 
HETATM   13  N1  UNL     1       6.732  63.140 -35.998  1.00  0.00    -0.271 N 
ATOM     14  H1  UNL     1       7.658  62.957 -36.386  1.00  0.00     0.194 HD
HETATM   15  C21 UNL     1       4.649  64.486 -35.702  1.00  0.00     0.060 C 
HETATM   16  C22 UNL     1       4.484  65.967 -35.407  1.00  0.00     0.020 C 
HETATM   17  C23 UNL     1       4.767  66.889 -36.625  1.00  0.00    -0.016 C 
HETATM   18  C24 UNL     1       4.981  68.302 -36.024  1.00  0.00     0.020 C 
HETATM   19  C25 UNL     1       3.625  66.880 -37.704  1.00  0.00     0.002 C 
HETATM   20  C26 UNL     1       2.216  67.221 -37.157  1.00  0.00     0.007 C 
HETATM   21  C27 UNL     1       1.128  67.249 -38.246  1.00  0.00     0.014 C 
HETATM   22  C28 UNL     1       1.506  68.173 -39.418  1.00  0.00     0.003 C 
HETATM   23  C29 UNL     1       1.546  69.646 -38.918  1.00  0.00     0.020 C 
ENDROOT
BRANCH   3  24
HETATM   24  O1  UNL     1       0.319  66.682 -40.973  1.00  0.00    -0.377 OA
HETATM   25  H2  UNL     1       1.056  66.278 -41.458  1.00  0.00     0.211 HD
ENDBRANCH   3  24
BRANCH  13  26
HETATM   26  O2  UNL     1       6.046  62.256 -35.157  1.00  0.00    -0.271 OA
BRANCH  26  27
HETATM   27  C13 UNL     1       6.987  61.552 -34.349  1.00  0.00     0.303 C 
BRANCH  27  28
HETATM   28  C14 UNL     1       8.220  62.418 -34.105  1.00  0.00     0.244 C 
HETATM   29  O3  UNL     1       8.138  63.554 -33.650  1.00  0.00    -0.271 OA
HETATM   30  N2  UNL     1       9.413  61.787 -34.400  1.00  0.00    -0.344 N 
HETATM   31  H16 UNL     1       9.339  60.800 -34.624  1.00  0.00     0.163 HD
BRANCH  30  32
HETATM   32  C15 UNL     1      10.738  62.307 -34.050  1.00  0.00     0.186 C 
BRANCH  32  33
HETATM   33  C16 UNL     1      10.746  62.594 -32.536  1.00  0.00     0.163 C 
HETATM   34  O4  UNL     1      11.043  61.838 -31.626  1.00  0.00    -0.648 OA
BRANCH  33  35
HETATM   35  O5  UNL     1      10.410  63.873 -32.251  1.00  0.00    -0.775 OA
HETATM   36  H18 UNL     1      10.456  63.902 -31.271  1.00  0.00     0.167 HD
ENDBRANCH  33  35
ENDBRANCH  32  33
BRANCH  32  37
HETATM   37  C17 UNL     1      11.263  63.467 -34.936  1.00  0.00     0.014 C 
HETATM   38  C18 UNL     1      12.801  63.524 -34.948  1.00  0.00     0.012 C 
BRANCH  37  39
HETATM   39  C19 UNL     1      10.792  63.357 -36.408  1.00  0.00     0.002 C 
HETATM   40  C20 UNL     1      11.214  62.089 -37.134  1.00  0.00     0.005 C 
ENDBRANCH  37  39
ENDBRANCH  32  37
ENDBRANCH  30  32
ENDBRANCH  27  28
ENDBRANCH  26  27
ENDBRANCH  13  26
TORSDOF 9
ENDMDL
MODEL 6
REMARK minimizedAffinity -8.7801342
REMARK  9 active torsions:
REMARK  status: ('A' for Active; 'I' for Inactive)
REMARK    1  A    between atoms: C3_3  and  O1_4 
REMARK    2  A    between atoms: N1_14  and  O2_16 
REMARK    3  A    between atoms: O2_16  and  C13_17 
REMARK    4  A    between atoms: C13_17  and  C14_18 
REMARK       I    between atoms: C14_18  and  N2_20 
REMARK    5  A    between atoms: N2_20  and  C15_21 
REMARK    6  A    between atoms: C15_21  and  C16_22 
REMARK    7  A    between atoms: C15_21  and  C17_25 
REMARK    8  A    between atoms: C16_22  and  O5_24 
REMARK    9  A    between atoms: C17_25  and  C19_27 
ROOT
HETATM    1  C1  UNL     1       0.258  53.287 -20.748  1.00  0.00     0.015 C 
HETATM    2  C2  UNL     1      -0.237  52.264 -21.137  1.00  0.00    -0.078 C 
HETATM    3  C3  UNL     1      -0.831  51.015 -21.636  1.00  0.00     0.128 C 
HETATM    4  C4  UNL     1      -0.149  49.765 -21.020  1.00  0.00     0.052 C 
HETATM    5  C5  UNL     1      -1.252  48.694 -20.873  1.00  0.00     0.010 C 
HETATM    6  C6  UNL     1      -2.479  49.303 -21.548  1.00  0.00     0.002 C 
HETATM    7  C7  UNL     1      -3.864  48.755 -21.188  1.00  0.00    -0.004 C 
HETATM    8  C8  UNL     1      -3.950  47.232 -21.406  1.00  0.00     0.010 C 
HETATM    9  C9  UNL     1      -5.364  46.686 -21.195  1.00  0.00     0.035 C 
HETATM   10  C10 UNL     1      -6.328  47.476 -22.045  1.00  0.00    -0.069 C 
HETATM   11  C11 UNL     1      -6.954  46.882 -23.077  1.00  0.00     0.030 C 
HETATM   12  C12 UNL     1      -7.664  47.675 -24.112  1.00  0.00     0.032 C 
HETATM   13  N1  UNL     1      -8.311  47.027 -25.038  1.00  0.00    -0.271 N 
ATOM     14  H1  UNL     1      -8.380  46.010 -25.082  1.00  0.00     0.194 HD
HETATM   15  C21 UNL     1      -7.508  49.182 -24.063  1.00  0.00     0.060 C 
HETATM   16  C22 UNL     1      -7.492  49.647 -22.617  1.00  0.00     0.020 C 
HETATM   17  C23 UNL     1      -6.390  48.979 -21.749  1.00  0.00    -0.016 C 
HETATM   18  C24 UNL     1      -6.818  49.232 -20.281  1.00  0.00     0.020 C 
HETATM   19  C25 UNL     1      -4.944  49.520 -22.038  1.00  0.00     0.002 C 
HETATM   20  C26 UNL     1      -4.792  51.057 -21.913  1.00  0.00     0.007 C 
HETATM   21  C27 UNL     1      -3.354  51.551 -22.157  1.00  0.00     0.014 C 
HETATM   22  C28 UNL     1      -2.333  50.819 -21.268  1.00  0.00     0.003 C 
HETATM   23  C29 UNL     1      -2.589  51.190 -19.778  1.00  0.00     0.020 C 
ENDROOT
BRANCH   3  24
HETATM   24  O1  UNL     1      -0.651  51.003 -23.054  1.00  0.00    -0.377 OA
HETATM   25  H2  UNL     1      -0.585  50.083 -23.355  1.00  0.00     0.211 HD
ENDBRANCH   3  24
BRANCH  13  26
HETATM   26  O2  UNL     1      -8.901  47.894 -25.966  1.00  0.00    -0.271 OA
BRANCH  26  27
HETATM   27  C13 UNL     1      -8.885  47.281 -27.254  1.00  0.00     0.303 C 
BRANCH  27  28
HETATM   28  C14 UNL     1      -7.900  48.005 -28.168  1.00  0.00     0.244 C 
HETATM   29  O3  UNL     1      -8.272  48.793 -29.032  1.00  0.00    -0.271 OA
HETATM   30  N2  UNL     1      -6.575  47.722 -27.897  1.00  0.00    -0.344 N 
HETATM   31  H16 UNL     1      -6.411  47.172 -27.061  1.00  0.00     0.163 HD
BRANCH  30  32
HETATM   32  C15 UNL     1      -5.437  48.445 -28.471  1.00  0.00     0.186 C 
BRANCH  32  33
HETATM   33  C16 UNL     1      -5.225  47.927 -29.906  1.00  0.00     0.163 C 
HETATM   34  O4  UNL     1      -5.347  46.787 -30.324  1.00  0.00    -0.648 OA
BRANCH  33  35
HETATM   35  O5  UNL     1      -4.904  48.917 -30.771  1.00  0.00    -0.775 OA
HETATM   36  H18 UNL     1      -4.800  48.444 -31.624  1.00  0.00     0.167 HD
ENDBRANCH  33  35
ENDBRANCH  32  33
BRANCH  32  37
HETATM   37  C17 UNL     1      -4.154  48.486 -27.597  1.00  0.00     0.014 C 
HETATM   38  C18 UNL     1      -3.379  49.802 -27.785  1.00  0.00     0.012 C 
BRANCH  37  39
HETATM   39  C19 UNL     1      -4.456  48.338 -26.084  1.00  0.00     0.002 C 
HETATM   40  C20 UNL     1      -3.280  48.598 -25.156  1.00  0.00     0.005 C 
ENDBRANCH  37  39
ENDBRANCH  32  37
ENDBRANCH  30  32
ENDBRANCH  27  28
ENDBRANCH  26  27
ENDBRANCH  13  26
TORSDOF 9
ENDMDL
MODEL 7
REMARK minimizedAffinity -8.75642109
REMARK  9 active torsions:
REMARK  status: ('A' for Active; 'I' for Inactive)
REMARK    1  A    between atoms: C3_3  and  O1_4 
REMARK    2  A    between atoms: N1_14  and  O2_16 
REMARK    3  A    between atoms: O2_16  and  C13_17 
REMARK    4  A    between atoms: C13_17  and  C14_18 
REMARK       I    between atoms: C14_18  and  N2_20 
REMARK    5  A    between atoms: N2_20  and  C15_21 
REMARK    6  A    between atoms: C15_21  and  C16_22 
REMARK    7  A    between atoms: C15_21  and  C17_25 
REMARK    8  A    between atoms: C16_22  and  O5_24 
REMARK    9  A    between atoms: C17_25  and  C19_27 
ROOT
HETATM    1  C1  UNL     1       0.701  48.854 -16.031  1.00  0.00     0.015 C 
HETATM    2  C2  UNL     1      -0.286  48.993 -16.701  1.00  0.00    -0.078 C 
HETATM    3  C3  UNL     1      -1.501  49.141 -17.516  1.00  0.00     0.128 C 
HETATM    4  C4  UNL     1      -2.559  50.035 -16.819  1.00  0.00     0.052 C 
HETATM    5  C5  UNL     1      -3.292  50.800 -17.943  1.00  0.00     0.010 C 
HETATM    6  C6  UNL     1      -2.745  50.207 -19.239  1.00  0.00     0.002 C 
HETATM    7  C7  UNL     1      -2.873  51.020 -20.532  1.00  0.00    -0.004 C 
HETATM    8  C8  UNL     1      -4.334  51.422 -20.812  1.00  0.00     0.010 C 
HETATM    9  C9  UNL     1      -4.506  52.107 -22.169  1.00  0.00     0.035 C 
HETATM   10  C10 UNL     1      -3.901  51.233 -23.241  1.00  0.00    -0.069 C 
HETATM   11  C11 UNL     1      -4.694  50.656 -24.161  1.00  0.00     0.030 C 
HETATM   12  C12 UNL     1      -4.197  49.562 -25.035  1.00  0.00     0.032 C 
HETATM   13  N1  UNL     1      -4.999  49.106 -25.954  1.00  0.00    -0.271 N 
ATOM     14  H1  UNL     1      -5.937  49.468 -26.126  1.00  0.00     0.194 HD
HETATM   15  C21 UNL     1      -2.823  49.000 -24.732  1.00  0.00     0.060 C 
HETATM   16  C22 UNL     1      -1.893  50.124 -24.305  1.00  0.00     0.020 C 
HETATM   17  C23 UNL     1      -2.405  50.938 -23.085  1.00  0.00    -0.016 C 
HETATM   18  C24 UNL     1      -1.583  52.252 -23.099  1.00  0.00     0.020 C 
HETATM   19  C25 UNL     1      -2.270  50.179 -21.716  1.00  0.00     0.002 C 
HETATM   20  C26 UNL     1      -0.840  49.675 -21.395  1.00  0.00     0.007 C 
HETATM   21  C27 UNL     1      -0.732  48.975 -20.027  1.00  0.00     0.014 C 
HETATM   22  C28 UNL     1      -1.280  49.850 -18.886  1.00  0.00     0.003 C 
HETATM   23  C29 UNL     1      -0.373  51.104 -18.718  1.00  0.00     0.020 C 
ENDROOT
BRANCH   3  24
HETATM   24  O1  UNL     1      -2.039  47.830 -17.706  1.00  0.00    -0.377 OA
HETATM   25  H2  UNL     1      -3.001  47.896 -17.804  1.00  0.00     0.211 HD
ENDBRANCH   3  24
BRANCH  13  26
HETATM   26  O2  UNL     1      -4.418  48.057 -26.677  1.00  0.00    -0.271 OA
BRANCH  26  27
HETATM   27  C13 UNL     1      -4.712  48.226 -28.063  1.00  0.00     0.303 C 
BRANCH  27  28
HETATM   28  C14 UNL     1      -6.157  47.826 -28.346  1.00  0.00     0.244 C 
HETATM   29  O3  UNL     1      -6.730  46.955 -27.700  1.00  0.00    -0.271 OA
HETATM   30  N2  UNL     1      -6.754  48.563 -29.352  1.00  0.00    -0.344 N 
HETATM   31  H16 UNL     1      -6.212  49.348 -29.695  1.00  0.00     0.163 HD
BRANCH  30  32
HETATM   32  C15 UNL     1      -8.185  48.535 -29.666  1.00  0.00     0.186 C 
BRANCH  32  33
HETATM   33  C16 UNL     1      -8.945  48.195 -28.370  1.00  0.00     0.163 C 
HETATM   34  O4  UNL     1      -9.506  47.153 -28.074  1.00  0.00    -0.648 OA
BRANCH  33  35
HETATM   35  O5  UNL     1      -8.915  49.207 -27.472  1.00  0.00    -0.775 OA
HETATM   36  H18 UNL     1      -9.431  48.852 -26.717  1.00  0.00     0.167 HD
ENDBRANCH  33  35
ENDBRANCH  32  33
BRANCH  32  37
HETATM   37  C17 UNL     1      -8.589  47.685 -30.900  1.00  0.00     0.014 C 
HETATM   38  C18 UNL     1      -8.135  46.222 -30.757  1.00  0.00     0.012 C 
BRANCH  37  39
HETATM   39  C19 UNL     1     -10.119  47.674 -31.145  1.00  0.00     0.002 C 
HETATM   40  C20 UNL     1     -10.692  46.352 -31.630  1.00  0.00     0.005 C 
ENDBRANCH  37  39
ENDBRANCH  32  37
ENDBRANCH  30  32
ENDBRANCH  27  28
ENDBRANCH  26  27
ENDBRANCH  13  26
TORSDOF 9
ENDMDL
MODEL 8
REMARK minimizedAffinity -8.57520199
REMARK  9 active torsions:
REMARK  status: ('A' for Active; 'I' for Inactive)
REMARK    1  A    between atoms: C3_3  and  O1_4 
REMARK    2  A    between atoms: N1_14  and  O2_16 
REMARK    3  A    between atoms: O2_16  and  C13_17 
REMARK    4  A    between atoms: C13_17  and  C14_18 
REMARK       I    between atoms: C14_18  and  N2_20 
REMARK    5  A    between atoms: N2_20  and  C15_21 
REMARK    6  A    between atoms: C15_21  and  C16_22 
REMARK    7  A    between atoms: C15_21  and  C17_25 
REMARK    8  A    between atoms: C16_22  and  O5_24 
REMARK    9  A    between atoms: C17_25  and  C19_27 
ROOT
HETATM    1  C1  UNL     1      -1.365  51.645 -27.430  1.00  0.00     0.015 C 
HETATM    2  C2  UNL     1      -1.841  51.859 -26.349  1.00  0.00    -0.078 C 
HETATM    3  C3  UNL     1      -2.415  52.144 -25.025  1.00  0.00     0.128 C 
HETATM    4  C4  UNL     1      -3.952  52.339 -25.093  1.00  0.00     0.052 C 
HETATM    5  C5  UNL     1      -4.521  51.782 -23.769  1.00  0.00     0.010 C 
HETATM    6  C6  UNL     1      -3.291  51.438 -22.931  1.00  0.00     0.002 C 
HETATM    7  C7  UNL     1      -3.442  50.440 -21.778  1.00  0.00    -0.004 C 
HETATM    8  C8  UNL     1      -4.543  50.872 -20.790  1.00  0.00     0.010 C 
HETATM    9  C9  UNL     1      -4.613  49.971 -19.555  1.00  0.00     0.035 C 
HETATM   10  C10 UNL     1      -3.241  49.882 -18.933  1.00  0.00    -0.069 C 
HETATM   11  C11 UNL     1      -3.017  50.424 -17.723  1.00  0.00     0.030 C 
HETATM   12  C12 UNL     1      -1.638  50.631 -17.210  1.00  0.00     0.032 C 
HETATM   13  N1  UNL     1      -1.503  51.089 -15.999  1.00  0.00    -0.271 N 
ATOM     14  H1  UNL     1      -2.283  51.292 -15.373  1.00  0.00     0.194 HD
HETATM   15  C21 UNL     1      -0.493  50.375 -18.169  1.00  0.00     0.060 C 
HETATM   16  C22 UNL     1      -0.816  49.173 -19.041  1.00  0.00     0.020 C 
HETATM   17  C23 UNL     1      -2.144  49.306 -19.836  1.00  0.00    -0.016 C 
HETATM   18  C24 UNL     1      -2.499  47.864 -20.279  1.00  0.00     0.020 C 
HETATM   19  C25 UNL     1      -2.052  50.287 -21.059  1.00  0.00     0.002 C 
HETATM   20  C26 UNL     1      -0.917  49.964 -22.064  1.00  0.00     0.007 C 
HETATM   21  C27 UNL     1      -0.883  50.916 -23.274  1.00  0.00     0.014 C 
HETATM   22  C28 UNL     1      -2.245  50.997 -23.985  1.00  0.00     0.003 C 
HETATM   23  C29 UNL     1      -2.573  49.617 -24.626  1.00  0.00     0.020 C 
ENDROOT
BRANCH   3  24
HETATM   24  O1  UNL     1      -1.805  53.348 -24.556  1.00  0.00    -0.377 OA
HETATM   25  H2  UNL     1      -2.428  53.811 -23.974  1.00  0.00     0.211 HD
ENDBRANCH   3  24
BRANCH  13  26
HETATM   26  O2  UNL     1      -0.157  51.271 -15.658  1.00  0.00    -0.271 OA
BRANCH  26  27
HETATM   27  C13 UNL     1      -0.078  51.934 -14.398  1.00  0.00     0.303 C 
BRANCH  27  28
HETATM   28  C14 UNL     1      -1.150  51.397 -13.454  1.00  0.00     0.244 C 
HETATM   29  O3  UNL     1      -1.231  50.205 -13.173  1.00  0.00    -0.271 OA
HETATM   30  N2  UNL     1      -1.970  52.375 -12.924  1.00  0.00    -0.344 N 
HETATM   31  H16 UNL     1      -1.694  53.330 -13.127  1.00  0.00     0.163 HD
BRANCH  30  32
HETATM   32  C15 UNL     1      -2.924  52.159 -11.833  1.00  0.00     0.186 C 
BRANCH  32  33
HETATM   33  C16 UNL     1      -3.933  53.322 -11.852  1.00  0.00     0.163 C 
HETATM   34  O4  UNL     1      -4.475  53.868 -10.905  1.00  0.00    -0.648 OA
BRANCH  33  35
HETATM   35  O5  UNL     1      -4.177  53.775 -13.104  1.00  0.00    -0.775 OA
HETATM   36  H18 UNL     1      -4.826  54.496 -12.958  1.00  0.00     0.167 HD
ENDBRANCH  33  35
ENDBRANCH  32  33
BRANCH  32  37
HETATM   37  C17 UNL     1      -2.301  51.860 -10.443  1.00  0.00     0.014 C 
HETATM   38  C18 UNL     1      -2.561  53.001  -9.444  1.00  0.00     0.012 C 
BRANCH  37  39
HETATM   39  C19 UNL     1      -2.849  50.556  -9.810  1.00  0.00     0.002 C 
HETATM   40  C20 UNL     1      -4.365  50.436  -9.774  1.00  0.00     0.005 C 
ENDBRANCH  37  39
ENDBRANCH  32  37
ENDBRANCH  30  32
ENDBRANCH  27  28
ENDBRANCH  26  27
ENDBRANCH  13  26
TORSDOF 9
ENDMDL
MODEL 9
REMARK minimizedAffinity -8.50207043
REMARK  9 active torsions:
REMARK  status: ('A' for Active; 'I' for Inactive)
REMARK    1  A    between atoms: C3_3  and  O1_4 
REMARK    2  A    between atoms: N1_14  and  O2_16 
REMARK    3  A    between atoms: O2_16  and  C13_17 
REMARK    4  A    between atoms: C13_17  and  C14_18 
REMARK       I    between atoms: C14_18  and  N2_20 
REMARK    5  A    between atoms: N2_20  and  C15_21 
REMARK    6  A    between atoms: C15_21  and  C16_22 
REMARK    7  A    between atoms: C15_21  and  C17_25 
REMARK    8  A    between atoms: C16_22  and  O5_24 
REMARK    9  A    between atoms: C17_25  and  C19_27 
ROOT
HETATM    1  C1  UNL     1      -1.504  51.552 -27.374  1.00  0.00     0.015 C 
HETATM    2  C2  UNL     1      -1.982  51.756 -26.291  1.00  0.00    -0.078 C 
HETATM    3  C3  UNL     1      -2.558  52.029 -24.966  1.00  0.00     0.128 C 
HETATM    4  C4  UNL     1      -4.085  52.291 -25.042  1.00  0.00     0.052 C 
HETATM    5  C5  UNL     1      -4.690  51.723 -23.740  1.00  0.00     0.010 C 
HETATM    6  C6  UNL     1      -3.486  51.304 -22.900  1.00  0.00     0.002 C 
HETATM    7  C7  UNL     1      -3.691  50.282 -21.777  1.00  0.00    -0.004 C 
HETATM    8  C8  UNL     1      -4.783  50.733 -20.788  1.00  0.00     0.010 C 
HETATM    9  C9  UNL     1      -4.904  49.802 -19.579  1.00  0.00     0.035 C 
HETATM   10  C10 UNL     1      -3.544  49.638 -18.947  1.00  0.00    -0.069 C 
HETATM   11  C11 UNL     1      -3.311  50.136 -17.720  1.00  0.00     0.030 C 
HETATM   12  C12 UNL     1      -1.930  50.270 -17.188  1.00  0.00     0.032 C 
HETATM   13  N1  UNL     1      -1.788  50.689 -15.963  1.00  0.00    -0.271 N 
ATOM     14  H1  UNL     1      -2.565  50.907 -15.340  1.00  0.00     0.194 HD
HETATM   15  C21 UNL     1      -0.786  49.992 -18.143  1.00  0.00     0.060 C 
HETATM   16  C22 UNL     1      -1.150  48.829 -19.051  1.00  0.00     0.020 C 
HETATM   17  C23 UNL     1      -2.463  49.041 -19.855  1.00  0.00    -0.016 C 
HETATM   18  C24 UNL     1      -2.874  47.627 -20.341  1.00  0.00     0.020 C 
HETATM   19  C25 UNL     1      -2.316  50.050 -21.050  1.00  0.00     0.002 C 
HETATM   20  C26 UNL     1      -1.186  49.706 -22.052  1.00  0.00     0.007 C 
HETATM   21  C27 UNL     1      -1.098  50.689 -23.235  1.00  0.00     0.014 C 
HETATM   22  C28 UNL     1      -2.448  50.847 -23.956  1.00  0.00     0.003 C 
HETATM   23  C29 UNL     1      -2.827  49.501 -24.639  1.00  0.00     0.020 C 
ENDROOT
BRANCH   3  24
HETATM   24  O1  UNL     1      -1.902  53.193 -24.457  1.00  0.00    -0.377 OA
HETATM   25  H2  UNL     1      -2.512  53.665 -23.868  1.00  0.00     0.211 HD
ENDBRANCH   3  24
BRANCH  13  26
HETATM   26  O2  UNL     1      -0.439  50.803 -15.605  1.00  0.00    -0.271 OA
BRANCH  26  27
HETATM   27  C13 UNL     1      -0.306  51.803 -14.597  1.00  0.00     0.303 C 
BRANCH  27  28
HETATM   28  C14 UNL     1      -1.216  51.482 -13.415  1.00  0.00     0.244 C 
HETATM   29  O3  UNL     1      -1.382  50.334 -13.014  1.00  0.00    -0.271 OA
HETATM   30  N2  UNL     1      -1.785  52.596 -12.829  1.00  0.00    -0.344 N 
HETATM   31  H16 UNL     1      -1.443  53.488 -13.169  1.00  0.00     0.163 HD
BRANCH  30  32
HETATM   32  C15 UNL     1      -2.512  52.587 -11.556  1.00  0.00     0.186 C 
BRANCH  32  33
HETATM   33  C16 UNL     1      -3.818  53.377 -11.753  1.00  0.00     0.163 C 
HETATM   34  O4  UNL     1      -4.562  53.832 -10.900  1.00  0.00    -0.648 OA
BRANCH  33  35
HETATM   35  O5  UNL     1      -4.099  53.596 -13.059  1.00  0.00    -0.775 OA
HETATM   36  H18 UNL     1      -4.942  54.096 -13.025  1.00  0.00     0.167 HD
ENDBRANCH  33  35
ENDBRANCH  32  33
BRANCH  32  37
HETATM   37  C17 UNL     1      -1.686  52.993 -10.305  1.00  0.00     0.014 C 
HETATM   38  C18 UNL     1      -0.775  51.848  -9.829  1.00  0.00     0.012 C 
BRANCH  37  39
HETATM   39  C19 UNL     1      -0.786  54.228 -10.558  1.00  0.00     0.002 C 
HETATM   40  C20 UNL     1      -1.376  55.563 -10.131  1.00  0.00     0.005 C 
ENDBRANCH  37  39
ENDBRANCH  32  37
ENDBRANCH  30  32
ENDBRANCH  27  28
ENDBRANCH  26  27
ENDBRANCH  13  26
TORSDOF 9
ENDMDL
