MODEL 1
REMARK minimizedAffinity -6.63584757
REMARK CNNscore 0.44005689
REMARK CNNaffinity 7.20151758
REMARK  13 active torsions:
REMARK  status: ('A' for Active; 'I' for Inactive)
REMARK    1  A    between atoms: O1_2  and  C2_3 
REMARK    2  A    between atoms: C12_14  and  C13_15 
REMARK    3  A    between atoms: C13_15  and  C15_17 
REMARK    4  A    between atoms: C15_17  and  C16_18 
REMARK    5  A    between atoms: C17_19  and  C18_20 
REMARK    6  A    between atoms: C18_20  and  O3_23 
REMARK    7  A    between atoms: C29_32  and  O4_33 
REMARK    8  A    between atoms: O4_33  and  C30_34 
REMARK    9  A    between atoms: C31_36  and  C32_37 
REMARK   10  A    between atoms: C32_37  and  O6_38 
REMARK   11  A    between atoms: C33_39  and  O7_40 
REMARK   12  A    between atoms: C34_41  and  O8_42 
REMARK   13  A    between atoms: C35_43  and  O9_44 
ROOT
HETATM    1  C2  UNL     1       0.855  14.325   2.117  1.00  0.00     0.270 C 
HETATM    2  O2  UNL     1       2.266  14.195   1.828  1.00  0.00    -0.344 OA
HETATM    3  C3  UNL     1       2.952  15.309   2.435  1.00  0.00     0.095 C 
HETATM    4  C4  UNL     1       3.262  14.834   3.850  1.00  0.00     0.008 C 
HETATM    5  C5  UNL     1       2.336  14.847   4.820  1.00  0.00    -0.021 C 
HETATM    6  C6  UNL     1       0.911  15.279   4.546  1.00  0.00     0.030 C 
HETATM    7  C7  UNL     1       0.671  15.606   3.007  1.00  0.00     0.024 C 
HETATM    8  C8  UNL     1      -0.730  16.210   2.765  1.00  0.00     0.016 C 
HETATM    9  C9  UNL     1      -1.244  17.231   3.796  1.00  0.00     0.011 C 
HETATM   10  C10 UNL     1      -1.097  16.724   5.243  1.00  0.00    -0.032 C 
HETATM   11  C11 UNL     1      -2.025  15.477   5.418  1.00  0.00     0.016 C 
HETATM   12  C12 UNL     1      -1.388  17.724   6.402  1.00  0.00    -0.002 C 
HETATM   13  C22 UNL     1      -0.604  17.088   7.597  1.00  0.00     0.006 C 
HETATM   14  C23 UNL     1       0.411  16.088   7.001  1.00  0.00     0.011 C 
HETATM   15  C24 UNL     1       0.434  16.426   5.497  1.00  0.00    -0.029 C 
HETATM   16  C25 UNL     1       1.358  17.694   5.376  1.00  0.00     0.016 C 
HETATM   17  C26 UNL     1       1.870  16.415   2.457  1.00  0.00     0.039 C 
HETATM   18  C27 UNL     1       1.621  17.063   1.085  1.00  0.00     0.011 C 
HETATM   19  C28 UNL     1       2.912  17.509   0.413  1.00  0.00     0.033 C 
HETATM   20  C29 UNL     1       3.898  16.349   0.265  1.00  0.00     0.136 C 
HETATM   21  C36 UNL     1       4.251  15.694   1.641  1.00  0.00     0.014 C 
HETATM   22  C37 UNL     1       5.149  14.448   1.388  1.00  0.00     0.021 C 
HETATM   23  C38 UNL     1       5.098  16.716   2.448  1.00  0.00     0.021 C 
ENDROOT
BRANCH  20  24
HETATM   24  O4  UNL     1       3.289  15.384  -0.605  1.00  0.00    -0.352 OA
BRANCH  24  25
HETATM   25  C30 UNL     1       3.163  15.843  -1.955  1.00  0.00     0.292 C 
HETATM   26  O5  UNL     1       1.827  15.627  -2.388  1.00  0.00    -0.348 OA
HETATM   27  C31 UNL     1       1.624  14.516  -3.262  1.00  0.00     0.179 C 
HETATM   28  C33 UNL     1       2.443  13.292  -2.825  1.00  0.00     0.180 C 
HETATM   29  C34 UNL     1       3.949  13.607  -2.783  1.00  0.00     0.183 C 
HETATM   30  C35 UNL     1       4.241  15.112  -2.777  1.00  0.00     0.204 C 
BRANCH  27  31
HETATM   31  C32 UNL     1       0.116  14.197  -3.282  1.00  0.00     0.198 C 
BRANCH  31  32
HETATM   32  O6  UNL     1      -0.314  13.414  -2.171  1.00  0.00    -0.398 OA
HETATM   33  H50 UNL     1       0.366  13.511  -1.465  1.00  0.00     0.209 HD
ENDBRANCH  31  32
ENDBRANCH  27  31
BRANCH  28  34
HETATM   34  O7  UNL     1       2.229  12.188  -3.735  1.00  0.00    -0.390 OA
HETATM   35  H52 UNL     1       2.695  11.430  -3.327  1.00  0.00     0.210 HD
ENDBRANCH  28  34
BRANCH  29  36
HETATM   36  O8  UNL     1       4.510  12.954  -1.633  1.00  0.00    -0.390 OA
HETATM   37  H54 UNL     1       4.410  13.572  -0.876  1.00  0.00     0.210 HD
ENDBRANCH  29  36
BRANCH  30  38
HETATM   38  O9  UNL     1       4.280  15.626  -4.113  1.00  0.00    -0.388 OA
HETATM   39  H56 UNL     1       5.057  15.243  -4.564  1.00  0.00     0.210 HD
ENDBRANCH  30  38
ENDBRANCH  24  25
ENDBRANCH  20  24
BRANCH   1  40
HETATM   40  O1  UNL     1       0.291  13.169   2.727  1.00  0.00    -0.365 OA
HETATM   41  C1  UNL     1      -1.051  12.940   2.321  1.00  0.00     0.204 C 
ENDBRANCH   1  40
BRANCH  12  42
HETATM   42  C13 UNL     1      -2.848  18.083   6.806  1.00  0.00    -0.010 C 
HETATM   43  C14 UNL     1      -3.237  17.527   8.182  1.00  0.00     0.010 C 
BRANCH  42  44
HETATM   44  C15 UNL     1      -3.839  17.564   5.725  1.00  0.00     0.031 C 
BRANCH  44  45
HETATM   45  C16 UNL     1      -5.261  17.470   6.210  1.00  0.00    -0.027 C 
HETATM   46  C17 UNL     1      -6.324  17.520   5.387  1.00  0.00     0.006 C 
BRANCH  46  47
HETATM   47  C18 UNL     1      -7.795  17.453   5.750  1.00  0.00     0.070 C 
HETATM   48  C19 UNL     1      -8.580  18.491   4.927  1.00  0.00     0.050 C 
HETATM   49  C20 UNL     1      -8.430  16.079   5.480  1.00  0.00     0.050 C 
BRANCH  47  50
HETATM   50  O3  UNL     1      -7.947  17.651   7.170  1.00  0.00    -0.382 OA
HETATM   51  C21 UNL     1      -9.265  17.837   7.664  1.00  0.00     0.202 C 
ENDBRANCH  47  50
ENDBRANCH  46  47
ENDBRANCH  44  45
ENDBRANCH  42  44
ENDBRANCH  12  42
TORSDOF 13
ENDMDL
MODEL 2
REMARK minimizedAffinity -9.01069927
REMARK CNNscore 0.393637121
REMARK CNNaffinity 7.03071594
REMARK  13 active torsions:
REMARK  status: ('A' for Active; 'I' for Inactive)
REMARK    1  A    between atoms: O1_2  and  C2_3 
REMARK    2  A    between atoms: C12_14  and  C13_15 
REMARK    3  A    between atoms: C13_15  and  C15_17 
REMARK    4  A    between atoms: C15_17  and  C16_18 
REMARK    5  A    between atoms: C17_19  and  C18_20 
REMARK    6  A    between atoms: C18_20  and  O3_23 
REMARK    7  A    between atoms: C29_32  and  O4_33 
REMARK    8  A    between atoms: O4_33  and  C30_34 
REMARK    9  A    between atoms: C31_36  and  C32_37 
REMARK   10  A    between atoms: C32_37  and  O6_38 
REMARK   11  A    between atoms: C33_39  and  O7_40 
REMARK   12  A    between atoms: C34_41  and  O8_42 
REMARK   13  A    between atoms: C35_43  and  O9_44 
ROOT
HETATM    1  C2  UNL     1      -0.524   9.099  14.536  1.00  0.00     0.270 C 
HETATM    2  O2  UNL     1       0.281   9.137  13.334  1.00  0.00    -0.344 OA
HETATM    3  C3  UNL     1      -0.187   8.098  12.450  1.00  0.00     0.095 C 
HETATM    4  C4  UNL     1      -1.303   8.760  11.649  1.00  0.00     0.008 C 
HETATM    5  C5  UNL     1      -2.536   8.919  12.150  1.00  0.00    -0.021 C 
HETATM    6  C6  UNL     1      -2.872   8.501  13.567  1.00  0.00     0.030 C 
HETATM    7  C7  UNL     1      -1.596   7.965  14.351  1.00  0.00     0.024 C 
HETATM    8  C8  UNL     1      -1.977   7.382  15.729  1.00  0.00     0.016 C 
HETATM    9  C9  UNL     1      -3.262   6.537  15.805  1.00  0.00     0.011 C 
HETATM   10  C10 UNL     1      -4.463   7.242  15.145  1.00  0.00    -0.032 C 
HETATM   11  C11 UNL     1      -4.783   8.533  15.969  1.00  0.00     0.016 C 
HETATM   12  C12 UNL     1      -5.780   6.429  14.966  1.00  0.00    -0.002 C 
HETATM   13  C22 UNL     1      -6.496   7.202  13.809  1.00  0.00     0.006 C 
HETATM   14  C23 UNL     1      -5.429   8.071  13.108  1.00  0.00     0.011 C 
HETATM   15  C24 UNL     1      -4.089   7.520  13.635  1.00  0.00    -0.029 C 
HETATM   16  C25 UNL     1      -3.823   6.217  12.794  1.00  0.00     0.016 C 
HETATM   17  C26 UNL     1      -0.767   7.045  13.423  1.00  0.00     0.039 C 
HETATM   18  C27 UNL     1       0.306   6.216  14.147  1.00  0.00     0.011 C 
HETATM   19  C28 UNL     1       1.334   5.633  13.186  1.00  0.00     0.033 C 
HETATM   20  C29 UNL     1       2.002   6.725  12.350  1.00  0.00     0.136 C 
HETATM   21  C36 UNL     1       0.964   7.558  11.528  1.00  0.00     0.014 C 
HETATM   22  C37 UNL     1       1.709   8.724  10.813  1.00  0.00     0.021 C 
HETATM   23  C38 UNL     1       0.386   6.634  10.421  1.00  0.00     0.021 C 
ENDROOT
BRANCH  20  24
HETATM   24  O4  UNL     1       2.718   7.576  13.257  1.00  0.00    -0.352 OA
BRANCH  24  25
HETATM   25  C30 UNL     1       3.677   8.415  12.605  1.00  0.00     0.292 C 
HETATM   26  O5  UNL     1       4.585   7.596  11.882  1.00  0.00    -0.348 OA
HETATM   27  C31 UNL     1       5.871   7.414  12.473  1.00  0.00     0.179 C 
HETATM   28  C33 UNL     1       5.775   7.209  13.993  1.00  0.00     0.180 C 
HETATM   29  C34 UNL     1       5.090   8.404  14.680  1.00  0.00     0.183 C 
HETATM   30  C35 UNL     1       4.317   9.292  13.698  1.00  0.00     0.204 C 
BRANCH  27  31
HETATM   31  C32 UNL     1       6.541   6.204  11.791  1.00  0.00     0.198 C 
BRANCH  31  32
HETATM   32  O6  UNL     1       5.737   5.606  10.776  1.00  0.00    -0.398 OA
HETATM   33  H50 UNL     1       5.067   6.276  10.502  1.00  0.00     0.209 HD
ENDBRANCH  31  32
ENDBRANCH  27  31
BRANCH  28  34
HETATM   34  O7  UNL     1       7.092   7.042  14.566  1.00  0.00    -0.390 OA
HETATM   35  H52 UNL     1       6.933   6.813  15.504  1.00  0.00     0.210 HD
ENDBRANCH  28  34
BRANCH  29  36
HETATM   36  O8  UNL     1       4.236   7.893  15.716  1.00  0.00    -0.390 OA
HETATM   37  H54 UNL     1       3.367   7.698  15.301  1.00  0.00     0.210 HD
ENDBRANCH  29  36
BRANCH  30  38
HETATM   38  O9  UNL     1       5.185  10.266  13.106  1.00  0.00    -0.388 OA
HETATM   39  H56 UNL     1       5.465  10.887  13.805  1.00  0.00     0.210 HD
ENDBRANCH  30  38
ENDBRANCH  24  25
ENDBRANCH  20  24
BRANCH   1  40
HETATM   40  O1  UNL     1      -1.122  10.348  14.859  1.00  0.00    -0.365 OA
HETATM   41  C1  UNL     1      -0.654  10.873  16.093  1.00  0.00     0.204 C 
ENDBRANCH   1  40
BRANCH  12  42
HETATM   42  C13 UNL     1      -6.742   6.183  16.166  1.00  0.00    -0.010 C 
HETATM   43  C14 UNL     1      -7.681   4.992  15.939  1.00  0.00     0.010 C 
BRANCH  42  44
HETATM   44  C15 UNL     1      -7.572   7.467  16.450  1.00  0.00     0.031 C 
BRANCH  44  45
HETATM   45  C16 UNL     1      -8.997   7.378  15.976  1.00  0.00    -0.027 C 
HETATM   46  C17 UNL     1      -9.552   8.272  15.137  1.00  0.00     0.006 C 
BRANCH  46  47
HETATM   47  C18 UNL     1     -10.971   8.303  14.603  1.00  0.00     0.070 C 
HETATM   48  C19 UNL     1     -11.418   6.876  14.235  1.00  0.00     0.050 C 
HETATM   49  C20 UNL     1     -11.991   8.858  15.611  1.00  0.00     0.050 C 
BRANCH  47  50
HETATM   50  O3  UNL     1     -11.039   9.206  13.481  1.00  0.00    -0.382 OA
HETATM   51  C21 UNL     1     -12.241   9.213  12.725  1.00  0.00     0.202 C 
ENDBRANCH  47  50
ENDBRANCH  46  47
ENDBRANCH  44  45
ENDBRANCH  42  44
ENDBRANCH  12  42
TORSDOF 13
ENDMDL
MODEL 3
REMARK minimizedAffinity -8.61736107
REMARK CNNscore 0.289463609
REMARK CNNaffinity 7.48321915
REMARK  13 active torsions:
REMARK  status: ('A' for Active; 'I' for Inactive)
REMARK    1  A    between atoms: O1_2  and  C2_3 
REMARK    2  A    between atoms: C12_14  and  C13_15 
REMARK    3  A    between atoms: C13_15  and  C15_17 
REMARK    4  A    between atoms: C15_17  and  C16_18 
REMARK    5  A    between atoms: C17_19  and  C18_20 
REMARK    6  A    between atoms: C18_20  and  O3_23 
REMARK    7  A    between atoms: C29_32  and  O4_33 
REMARK    8  A    between atoms: O4_33  and  C30_34 
REMARK    9  A    between atoms: C31_36  and  C32_37 
REMARK   10  A    between atoms: C32_37  and  O6_38 
REMARK   11  A    between atoms: C33_39  and  O7_40 
REMARK   12  A    between atoms: C34_41  and  O8_42 
REMARK   13  A    between atoms: C35_43  and  O9_44 
ROOT
HETATM    1  C2  UNL     1      -2.779   5.602  13.410  1.00  0.00     0.270 C 
HETATM    2  O2  UNL     1      -1.663   6.150  14.149  1.00  0.00    -0.344 OA
HETATM    3  C3  UNL     1      -2.131   7.307  14.872  1.00  0.00     0.095 C 
HETATM    4  C4  UNL     1      -2.648   6.743  16.191  1.00  0.00     0.008 C 
HETATM    5  C5  UNL     1      -3.854   6.166  16.290  1.00  0.00    -0.021 C 
HETATM    6  C6  UNL     1      -4.747   5.991  15.079  1.00  0.00     0.030 C 
HETATM    7  C7  UNL     1      -4.041   6.478  13.740  1.00  0.00     0.024 C 
HETATM    8  C8  UNL     1      -5.015   6.457  12.542  1.00  0.00     0.016 C 
HETATM    9  C9  UNL     1      -6.456   6.935  12.798  1.00  0.00     0.011 C 
HETATM   10  C10 UNL     1      -7.080   6.266  14.038  1.00  0.00    -0.032 C 
HETATM   11  C11 UNL     1      -7.211   4.734  13.750  1.00  0.00     0.016 C 
HETATM   12  C12 UNL     1      -8.457   6.795  14.539  1.00  0.00    -0.002 C 
HETATM   13  C22 UNL     1      -8.468   6.336  16.035  1.00  0.00     0.006 C 
HETATM   14  C23 UNL     1      -7.010   6.006  16.424  1.00  0.00     0.011 C 
HETATM   15  C24 UNL     1      -6.170   6.609  15.282  1.00  0.00    -0.029 C 
HETATM   16  C25 UNL     1      -6.085   8.148  15.604  1.00  0.00     0.016 C 
HETATM   17  C26 UNL     1      -3.304   7.814  14.000  1.00  0.00     0.039 C 
HETATM   18  C27 UNL     1      -2.854   8.548  12.726  1.00  0.00     0.011 C 
HETATM   19  C28 UNL     1      -1.820   9.628  13.015  1.00  0.00     0.033 C 
HETATM   20  C29 UNL     1      -0.600   9.057  13.740  1.00  0.00     0.136 C 
HETATM   21  C36 UNL     1      -0.985   8.360  15.086  1.00  0.00     0.014 C 
HETATM   22  C37 UNL     1       0.287   7.696  15.690  1.00  0.00     0.021 C 
HETATM   23  C38 UNL     1      -1.442   9.465  16.078  1.00  0.00     0.021 C 
ENDROOT
BRANCH  20  24
HETATM   24  O4  UNL     1       0.019   8.116  12.851  1.00  0.00    -0.352 OA
BRANCH  24  25
HETATM   25  C30 UNL     1       1.213   8.618  12.240  1.00  0.00     0.292 C 
HETATM   26  O5  UNL     1       0.953   8.867  10.866  1.00  0.00    -0.348 OA
HETATM   27  C31 UNL     1       1.471   7.905   9.947  1.00  0.00     0.179 C 
HETATM   28  C33 UNL     1       1.287   6.470  10.463  1.00  0.00     0.180 C 
HETATM   29  C34 UNL     1       1.982   6.266  11.821  1.00  0.00     0.183 C 
HETATM   30  C35 UNL     1       2.323   7.587  12.518  1.00  0.00     0.204 C 
BRANCH  27  31
HETATM   31  C32 UNL     1       0.755   8.105   8.596  1.00  0.00     0.198 C 
BRANCH  31  32
HETATM   32  O6  UNL     1      -0.211   9.155   8.614  1.00  0.00    -0.398 OA
HETATM   33  H50 UNL     1       0.007   9.738   9.379  1.00  0.00     0.209 HD
ENDBRANCH  31  32
ENDBRANCH  27  31
BRANCH  28  34
HETATM   34  O7  UNL     1       1.832   5.518   9.520  1.00  0.00    -0.390 OA
HETATM   35  H52 UNL     1       1.580   4.641   9.871  1.00  0.00     0.210 HD
ENDBRANCH  28  34
BRANCH  29  36
HETATM   36  O8  UNL     1       1.135   5.440  12.636  1.00  0.00    -0.390 OA
HETATM   37  H54 UNL     1       0.512   6.040  13.101  1.00  0.00     0.210 HD
ENDBRANCH  29  36
BRANCH  30  38
HETATM   38  O9  UNL     1       3.587   8.087  12.067  1.00  0.00    -0.388 OA
HETATM   39  H56 UNL     1       4.283   7.478  12.378  1.00  0.00     0.210 HD
ENDBRANCH  30  38
ENDBRANCH  24  25
ENDBRANCH  20  24
BRANCH   1  40
HETATM   40  O1  UNL     1      -3.009   4.222  13.666  1.00  0.00    -0.365 OA
HETATM   41  C1  UNL     1      -3.365   3.502  12.495  1.00  0.00     0.204 C 
ENDBRANCH   1  40
BRANCH  12  42
HETATM   42  C13 UNL     1      -9.780   6.406  13.815  1.00  0.00    -0.010 C 
HETATM   43  C14 UNL     1      -9.593   6.197  12.307  1.00  0.00     0.010 C 
BRANCH  42  44
HETATM   44  C15 UNL     1     -10.863   7.493  14.071  1.00  0.00     0.031 C 
BRANCH  44  45
HETATM   45  C16 UNL     1     -10.618   8.303  15.315  1.00  0.00    -0.027 C 
HETATM   46  C17 UNL     1     -11.229   9.476  15.562  1.00  0.00     0.006 C 
BRANCH  46  47
HETATM   47  C18 UNL     1     -11.057  10.390  16.761  1.00  0.00     0.070 C 
HETATM   48  C19 UNL     1     -10.065  11.516  16.416  1.00  0.00     0.050 C 
HETATM   49  C20 UNL     1     -12.367  11.055  17.215  1.00  0.00     0.050 C 
BRANCH  47  50
HETATM   50  O3  UNL     1     -10.630   9.612  17.897  1.00  0.00    -0.382 OA
HETATM   51  C21 UNL     1     -11.530   9.510  18.990  1.00  0.00     0.202 C 
ENDBRANCH  47  50
ENDBRANCH  46  47
ENDBRANCH  44  45
ENDBRANCH  42  44
ENDBRANCH  12  42
TORSDOF 13
ENDMDL
MODEL 4
REMARK minimizedAffinity -9.16179848
REMARK CNNscore 0.27925536
REMARK CNNaffinity 7.10575867
REMARK  13 active torsions:
REMARK  status: ('A' for Active; 'I' for Inactive)
REMARK    1  A    between atoms: O1_2  and  C2_3 
REMARK    2  A    between atoms: C12_14  and  C13_15 
REMARK    3  A    between atoms: C13_15  and  C15_17 
REMARK    4  A    between atoms: C15_17  and  C16_18 
REMARK    5  A    between atoms: C17_19  and  C18_20 
REMARK    6  A    between atoms: C18_20  and  O3_23 
REMARK    7  A    between atoms: C29_32  and  O4_33 
REMARK    8  A    between atoms: O4_33  and  C30_34 
REMARK    9  A    between atoms: C31_36  and  C32_37 
REMARK   10  A    between atoms: C32_37  and  O6_38 
REMARK   11  A    between atoms: C33_39  and  O7_40 
REMARK   12  A    between atoms: C34_41  and  O8_42 
REMARK   13  A    between atoms: C35_43  and  O9_44 
ROOT
HETATM    1  C2  UNL     1      -2.734   5.688  13.366  1.00  0.00     0.270 C 
HETATM    2  O2  UNL     1      -1.588   6.191  14.090  1.00  0.00    -0.344 OA
HETATM    3  C3  UNL     1      -2.010   7.340  14.854  1.00  0.00     0.095 C 
HETATM    4  C4  UNL     1      -2.508   6.755  16.171  1.00  0.00     0.008 C 
HETATM    5  C5  UNL     1      -3.724   6.203  16.286  1.00  0.00    -0.021 C 
HETATM    6  C6  UNL     1      -4.650   6.078  15.094  1.00  0.00     0.030 C 
HETATM    7  C7  UNL     1      -3.966   6.584  13.750  1.00  0.00     0.024 C 
HETATM    8  C8  UNL     1      -4.970   6.616  12.576  1.00  0.00     0.016 C 
HETATM    9  C9  UNL     1      -6.393   7.119  12.881  1.00  0.00     0.011 C 
HETATM   10  C10 UNL     1      -7.002   6.432  14.119  1.00  0.00    -0.032 C 
HETATM   11  C11 UNL     1      -7.175   4.911  13.796  1.00  0.00     0.016 C 
HETATM   12  C12 UNL     1      -8.353   6.979  14.668  1.00  0.00    -0.002 C 
HETATM   13  C22 UNL     1      -8.338   6.482  16.152  1.00  0.00     0.006 C 
HETATM   14  C23 UNL     1      -6.879   6.110  16.496  1.00  0.00     0.011 C 
HETATM   15  C24 UNL     1      -6.053   6.723  15.348  1.00  0.00    -0.029 C 
HETATM   16  C25 UNL     1      -5.925   8.251  15.706  1.00  0.00     0.016 C 
HETATM   17  C26 UNL     1      -3.193   7.895  14.025  1.00  0.00     0.039 C 
HETATM   18  C27 UNL     1      -2.757   8.651  12.759  1.00  0.00     0.011 C 
HETATM   19  C28 UNL     1      -1.692   9.700  13.048  1.00  0.00     0.033 C 
HETATM   20  C29 UNL     1      -0.467   9.083  13.727  1.00  0.00     0.136 C 
HETATM   21  C36 UNL     1      -0.836   8.361  15.065  1.00  0.00     0.014 C 
HETATM   22  C37 UNL     1       0.435   7.653  15.620  1.00  0.00     0.021 C 
HETATM   23  C38 UNL     1      -1.242   9.451  16.095  1.00  0.00     0.021 C 
ENDROOT
BRANCH  20  24
HETATM   24  O4  UNL     1       0.108   8.151  12.800  1.00  0.00    -0.352 OA
BRANCH  24  25
HETATM   25  C30 UNL     1       1.301   8.639  12.178  1.00  0.00     0.292 C 
HETATM   26  O5  UNL     1       1.029   8.897  10.807  1.00  0.00    -0.348 OA
HETATM   27  C31 UNL     1       1.522   7.932   9.878  1.00  0.00     0.179 C 
HETATM   28  C33 UNL     1       1.325   6.497  10.391  1.00  0.00     0.180 C 
HETATM   29  C34 UNL     1       2.033   6.278  11.741  1.00  0.00     0.183 C 
HETATM   30  C35 UNL     1       2.400   7.592  12.439  1.00  0.00     0.204 C 
BRANCH  27  31
HETATM   31  C32 UNL     1       0.794   8.147   8.537  1.00  0.00     0.198 C 
BRANCH  31  32
HETATM   32  O6  UNL     1      -0.248   9.119   8.605  1.00  0.00    -0.398 OA
HETATM   33  H50 UNL     1      -0.076   9.675   9.400  1.00  0.00     0.209 HD
ENDBRANCH  31  32
ENDBRANCH  27  31
BRANCH  28  34
HETATM   34  O7  UNL     1       1.846   5.542   9.438  1.00  0.00    -0.390 OA
HETATM   35  H52 UNL     1       1.585   4.666   9.789  1.00  0.00     0.210 HD
ENDBRANCH  28  34
BRANCH  29  36
HETATM   36  O8  UNL     1       1.183   5.461  12.563  1.00  0.00    -0.390 OA
HETATM   37  H54 UNL     1       0.574   6.068  13.037  1.00  0.00     0.210 HD
ENDBRANCH  29  36
BRANCH  30  38
HETATM   38  O9  UNL     1       3.666   8.076  11.975  1.00  0.00    -0.388 OA
HETATM   39  H56 UNL     1       4.356   7.456  12.276  1.00  0.00     0.210 HD
ENDBRANCH  30  38
ENDBRANCH  24  25
ENDBRANCH  20  24
BRANCH   1  40
HETATM   40  O1  UNL     1      -2.989   4.307  13.594  1.00  0.00    -0.365 OA
HETATM   41  C1  UNL     1      -3.128   3.573  12.386  1.00  0.00     0.204 C 
ENDBRANCH   1  40
BRANCH  12  42
HETATM   42  C13 UNL     1      -9.702   6.639  13.968  1.00  0.00    -0.010 C 
HETATM   43  C14 UNL     1      -9.533   6.307  12.480  1.00  0.00     0.010 C 
BRANCH  42  44
HETATM   44  C15 UNL     1     -10.700   7.820  14.139  1.00  0.00     0.031 C 
BRANCH  44  45
HETATM   45  C16 UNL     1     -12.112   7.378  14.413  1.00  0.00    -0.027 C 
HETATM   46  C17 UNL     1     -13.060   7.309  13.460  1.00  0.00     0.006 C 
BRANCH  46  47
HETATM   47  C18 UNL     1     -14.513   6.900  13.610  1.00  0.00     0.070 C 
HETATM   48  C19 UNL     1     -14.600   5.570  14.381  1.00  0.00     0.050 C 
HETATM   49  C20 UNL     1     -15.362   7.930  14.373  1.00  0.00     0.050 C 
BRANCH  47  50
HETATM   50  O3  UNL     1     -15.123   6.819  12.306  1.00  0.00    -0.382 OA
HETATM   51  C21 UNL     1     -15.947   7.903  11.905  1.00  0.00     0.202 C 
ENDBRANCH  47  50
ENDBRANCH  46  47
ENDBRANCH  44  45
ENDBRANCH  42  44
ENDBRANCH  12  42
TORSDOF 13
ENDMDL
MODEL 5
REMARK minimizedAffinity -8.17969513
REMARK CNNscore 0.222245216
REMARK CNNaffinity 6.91485643
REMARK  13 active torsions:
REMARK  status: ('A' for Active; 'I' for Inactive)
REMARK    1  A    between atoms: O1_2  and  C2_3 
REMARK    2  A    between atoms: C12_14  and  C13_15 
REMARK    3  A    between atoms: C13_15  and  C15_17 
REMARK    4  A    between atoms: C15_17  and  C16_18 
REMARK    5  A    between atoms: C17_19  and  C18_20 
REMARK    6  A    between atoms: C18_20  and  O3_23 
REMARK    7  A    between atoms: C29_32  and  O4_33 
REMARK    8  A    between atoms: O4_33  and  C30_34 
REMARK    9  A    between atoms: C31_36  and  C32_37 
REMARK   10  A    between atoms: C32_37  and  O6_38 
REMARK   11  A    between atoms: C33_39  and  O7_40 
REMARK   12  A    between atoms: C34_41  and  O8_42 
REMARK   13  A    between atoms: C35_43  and  O9_44 
ROOT
HETATM    1  C2  UNL     1      -0.673   9.690  14.544  1.00  0.00     0.270 C 
HETATM    2  O2  UNL     1       0.254   9.605  13.436  1.00  0.00    -0.344 OA
HETATM    3  C3  UNL     1      -0.003   8.372  12.732  1.00  0.00     0.095 C 
HETATM    4  C4  UNL     1      -1.084   8.733  11.720  1.00  0.00     0.008 C 
HETATM    5  C5  UNL     1      -2.376   8.829  12.068  1.00  0.00    -0.021 C 
HETATM    6  C6  UNL     1      -2.823   8.641  13.502  1.00  0.00     0.030 C 
HETATM    7  C7  UNL     1      -1.594   8.419  14.488  1.00  0.00     0.024 C 
HETATM    8  C8  UNL     1      -2.066   8.056  15.914  1.00  0.00     0.016 C 
HETATM    9  C9  UNL     1      -3.257   7.089  16.036  1.00  0.00     0.011 C 
HETATM   10  C10 UNL     1      -4.442   7.508  15.146  1.00  0.00    -0.032 C 
HETATM   11  C11 UNL     1      -4.984   8.879  15.669  1.00  0.00     0.016 C 
HETATM   12  C12 UNL     1      -5.640   6.521  15.011  1.00  0.00    -0.002 C 
HETATM   13  C22 UNL     1      -6.298   6.974  13.666  1.00  0.00     0.006 C 
HETATM   14  C23 UNL     1      -5.254   7.823  12.908  1.00  0.00     0.011 C 
HETATM   15  C24 UNL     1      -3.933   7.547  13.650  1.00  0.00    -0.029 C 
HETATM   16  C25 UNL     1      -3.441   6.154  13.108  1.00  0.00     0.016 C 
HETATM   17  C26 UNL     1      -0.577   7.452  13.836  1.00  0.00     0.039 C 
HETATM   18  C27 UNL     1       0.489   6.909  14.802  1.00  0.00     0.011 C 
HETATM   19  C28 UNL     1       1.672   6.289  14.071  1.00  0.00     0.033 C 
HETATM   20  C29 UNL     1       2.314   7.283  13.101  1.00  0.00     0.136 C 
HETATM   21  C36 UNL     1       1.294   7.817  12.042  1.00  0.00     0.014 C 
HETATM   22  C37 UNL     1       1.990   8.913  11.183  1.00  0.00     0.021 C 
HETATM   23  C38 UNL     1       0.941   6.641  11.089  1.00  0.00     0.021 C 
ENDROOT
BRANCH  20  24
HETATM   24  O4  UNL     1       2.832   8.367  13.885  1.00  0.00    -0.352 OA
BRANCH  24  25
HETATM   25  C30 UNL     1       3.827   7.955  14.828  1.00  0.00     0.292 C 
HETATM   26  O5  UNL     1       3.950   8.956  15.829  1.00  0.00    -0.348 OA
HETATM   27  C31 UNL     1       5.094   9.804  15.729  1.00  0.00     0.179 C 
HETATM   28  C33 UNL     1       5.378  10.207  14.274  1.00  0.00     0.180 C 
HETATM   29  C34 UNL     1       5.609   8.973  13.382  1.00  0.00     0.183 C 
HETATM   30  C35 UNL     1       5.111   7.674  14.025  1.00  0.00     0.204 C 
BRANCH  27  31
HETATM   31  C32 UNL     1       4.845  11.044  16.610  1.00  0.00     0.198 C 
BRANCH  31  32
HETATM   32  O6  UNL     1       4.415  12.188  15.873  1.00  0.00    -0.398 OA
HETATM   33  H50 UNL     1       4.061  11.863  15.012  1.00  0.00     0.209 HD
ENDBRANCH  31  32
ENDBRANCH  27  31
BRANCH  28  34
HETATM   34  O7  UNL     1       6.549  11.053  14.201  1.00  0.00    -0.390 OA
HETATM   35  H52 UNL     1       6.592  11.346  13.268  1.00  0.00     0.210 HD
ENDBRANCH  28  34
BRANCH  29  36
HETATM   36  O8  UNL     1       4.977   9.214  12.115  1.00  0.00    -0.390 OA
HETATM   37  H54 UNL     1       4.044   8.916  12.200  1.00  0.00     0.210 HD
ENDBRANCH  29  36
BRANCH  30  38
HETATM   38  O9  UNL     1       6.116   7.113  14.878  1.00  0.00    -0.388 OA
HETATM   39  H56 UNL     1       6.861   6.821  14.318  1.00  0.00     0.210 HD
ENDBRANCH  30  38
ENDBRANCH  24  25
ENDBRANCH  20  24
BRANCH   1  40
HETATM   40  O1  UNL     1      -1.429  10.894  14.562  1.00  0.00    -0.365 OA
HETATM   41  C1  UNL     1      -0.711  11.979  15.131  1.00  0.00     0.204 C 
ENDBRANCH   1  40
BRANCH  12  42
HETATM   42  C13 UNL     1      -6.700   6.383  16.144  1.00  0.00    -0.010 C 
HETATM   43  C14 UNL     1      -7.621   5.171  15.952  1.00  0.00     0.010 C 
BRANCH  42  44
HETATM   44  C15 UNL     1      -7.547   7.684  16.237  1.00  0.00     0.031 C 
BRANCH  44  45
HETATM   45  C16 UNL     1      -8.953   7.523  15.725  1.00  0.00    -0.027 C 
HETATM   46  C17 UNL     1      -9.631   8.510  15.111  1.00  0.00     0.006 C 
BRANCH  46  47
HETATM   47  C18 UNL     1     -11.047   8.480  14.570  1.00  0.00     0.070 C 
HETATM   48  C19 UNL     1     -11.391   7.056  14.094  1.00  0.00     0.050 C 
HETATM   49  C20 UNL     1     -12.107   8.884  15.608  1.00  0.00     0.050 C 
BRANCH  47  50
HETATM   50  O3  UNL     1     -11.178   9.456  13.517  1.00  0.00    -0.382 OA
HETATM   51  C21 UNL     1     -11.965   9.098  12.392  1.00  0.00     0.202 C 
ENDBRANCH  47  50
ENDBRANCH  46  47
ENDBRANCH  44  45
ENDBRANCH  42  44
ENDBRANCH  12  42
TORSDOF 13
ENDMDL
MODEL 6
REMARK minimizedAffinity -7.38208055
REMARK CNNscore 0.204659432
REMARK CNNaffinity 6.69456434
REMARK  13 active torsions:
REMARK  status: ('A' for Active; 'I' for Inactive)
REMARK    1  A    between atoms: O1_2  and  C2_3 
REMARK    2  A    between atoms: C12_14  and  C13_15 
REMARK    3  A    between atoms: C13_15  and  C15_17 
REMARK    4  A    between atoms: C15_17  and  C16_18 
REMARK    5  A    between atoms: C17_19  and  C18_20 
REMARK    6  A    between atoms: C18_20  and  O3_23 
REMARK    7  A    between atoms: C29_32  and  O4_33 
REMARK    8  A    between atoms: O4_33  and  C30_34 
REMARK    9  A    between atoms: C31_36  and  C32_37 
REMARK   10  A    between atoms: C32_37  and  O6_38 
REMARK   11  A    between atoms: C33_39  and  O7_40 
REMARK   12  A    between atoms: C34_41  and  O8_42 
REMARK   13  A    between atoms: C35_43  and  O9_44 
ROOT
HETATM    1  C2  UNL     1      -2.249  12.491  14.987  1.00  0.00     0.270 C 
HETATM    2  O2  UNL     1      -1.800  13.243  16.138  1.00  0.00    -0.344 OA
HETATM    3  C3  UNL     1      -1.176  12.323  17.057  1.00  0.00     0.095 C 
HETATM    4  C4  UNL     1       0.279  12.267  16.604  1.00  0.00     0.008 C 
HETATM    5  C5  UNL     1       0.667  11.521  15.559  1.00  0.00    -0.021 C 
HETATM    6  C6  UNL     1      -0.333  10.738  14.734  1.00  0.00     0.030 C 
HETATM    7  C7  UNL     1      -1.830  10.993  15.207  1.00  0.00     0.024 C 
HETATM    8  C8  UNL     1      -2.825  10.063  14.479  1.00  0.00     0.016 C 
HETATM    9  C9  UNL     1      -2.390   8.603  14.258  1.00  0.00     0.011 C 
HETATM   10  C10 UNL     1      -0.980   8.500  13.647  1.00  0.00    -0.032 C 
HETATM   11  C11 UNL     1      -1.023   9.126  12.214  1.00  0.00     0.016 C 
HETATM   12  C12 UNL     1      -0.325   7.089  13.552  1.00  0.00    -0.002 C 
HETATM   13  C22 UNL     1       1.199   7.433  13.465  1.00  0.00     0.006 C 
HETATM   14  C23 UNL     1       1.371   8.888  13.955  1.00  0.00     0.011 C 
HETATM   15  C24 UNL     1       0.026   9.218  14.632  1.00  0.00    -0.029 C 
HETATM   16  C25 UNL     1       0.109   8.552  16.055  1.00  0.00     0.016 C 
HETATM   17  C26 UNL     1      -1.892  10.986  16.754  1.00  0.00     0.039 C 
HETATM   18  C27 UNL     1      -3.315  10.903  17.330  1.00  0.00     0.011 C 
HETATM   19  C28 UNL     1      -3.365  11.282  18.804  1.00  0.00     0.033 C 
HETATM   20  C29 UNL     1      -2.792  12.679  19.044  1.00  0.00     0.136 C 
HETATM   21  C36 UNL     1      -1.315  12.805  18.545  1.00  0.00     0.014 C 
HETATM   22  C37 UNL     1      -0.855  14.284  18.705  1.00  0.00     0.021 C 
HETATM   23  C38 UNL     1      -0.424  11.943  19.481  1.00  0.00     0.021 C 
ENDROOT
BRANCH  20  24
HETATM   24  O4  UNL     1      -3.635  13.609  18.347  1.00  0.00    -0.352 OA
BRANCH  24  25
HETATM   25  C30 UNL     1      -4.043  14.716  19.158  1.00  0.00     0.292 C 
HETATM   26  O5  UNL     1      -4.321  14.244  20.469  1.00  0.00    -0.348 OA
HETATM   27  C31 UNL     1      -5.702  14.115  20.808  1.00  0.00     0.179 C 
HETATM   28  C33 UNL     1      -6.520  13.529  19.647  1.00  0.00     0.180 C 
HETATM   29  C34 UNL     1      -6.411  14.401  18.384  1.00  0.00     0.183 C 
HETATM   30  C35 UNL     1      -5.232  15.380  18.438  1.00  0.00     0.204 C 
BRANCH  27  31
HETATM   31  C32 UNL     1      -5.801  13.224  22.062  1.00  0.00     0.198 C 
BRANCH  31  32
HETATM   32  O6  UNL     1      -7.036  13.363  22.763  1.00  0.00    -0.398 OA
HETATM   33  H50 UNL     1      -7.687  13.750  22.132  1.00  0.00     0.209 HD
ENDBRANCH  31  32
ENDBRANCH  27  31
BRANCH  28  34
HETATM   34  O7  UNL     1      -7.915  13.421  20.013  1.00  0.00    -0.390 OA
HETATM   35  H52 UNL     1      -8.336  12.947  19.269  1.00  0.00     0.210 HD
ENDBRANCH  28  34
BRANCH  29  36
HETATM   36  O8  UNL     1      -6.324  13.529  17.245  1.00  0.00    -0.390 OA
HETATM   37  H54 UNL     1      -5.373  13.316  17.120  1.00  0.00     0.210 HD
ENDBRANCH  29  36
BRANCH  30  38
HETATM   38  O9  UNL     1      -5.607  16.588  19.110  1.00  0.00    -0.388 OA
HETATM   39  H56 UNL     1      -6.265  17.051  18.558  1.00  0.00     0.210 HD
ENDBRANCH  30  38
ENDBRANCH  24  25
ENDBRANCH  20  24
BRANCH   1  40
HETATM   40  O1  UNL     1      -1.766  13.002  13.750  1.00  0.00    -0.365 OA
HETATM   41  C1  UNL     1      -1.494  14.394  13.805  1.00  0.00     0.204 C 
ENDBRANCH   1  40
BRANCH  12  42
HETATM   42  C13 UNL     1      -0.745   6.082  12.442  1.00  0.00    -0.010 C 
HETATM   43  C14 UNL     1       0.056   4.774  12.493  1.00  0.00     0.010 C 
BRANCH  42  44
HETATM   44  C15 UNL     1      -0.592   6.743  11.042  1.00  0.00     0.031 C 
BRANCH  44  45
HETATM   45  C16 UNL     1       0.737   6.471  10.391  1.00  0.00    -0.027 C 
HETATM   46  C17 UNL     1       1.386   7.376   9.635  1.00  0.00     0.006 C 
BRANCH  46  47
HETATM   47  C18 UNL     1       2.712   7.221   8.916  1.00  0.00     0.070 C 
HETATM   48  C19 UNL     1       3.034   8.509   8.137  1.00  0.00     0.050 C 
HETATM   49  C20 UNL     1       3.892   6.950   9.863  1.00  0.00     0.050 C 
BRANCH  47  50
HETATM   50  O3  UNL     1       2.658   6.062   8.060  1.00  0.00    -0.382 OA
HETATM   51  C21 UNL     1       2.257   6.265   6.714  1.00  0.00     0.202 C 
ENDBRANCH  47  50
ENDBRANCH  46  47
ENDBRANCH  44  45
ENDBRANCH  42  44
ENDBRANCH  12  42
TORSDOF 13
ENDMDL
MODEL 7
REMARK minimizedAffinity -7.41532326
REMARK CNNscore 0.176930785
REMARK CNNaffinity 6.48499298
REMARK  13 active torsions:
REMARK  status: ('A' for Active; 'I' for Inactive)
REMARK    1  A    between atoms: O1_2  and  C2_3 
REMARK    2  A    between atoms: C12_14  and  C13_15 
REMARK    3  A    between atoms: C13_15  and  C15_17 
REMARK    4  A    between atoms: C15_17  and  C16_18 
REMARK    5  A    between atoms: C17_19  and  C18_20 
REMARK    6  A    between atoms: C18_20  and  O3_23 
REMARK    7  A    between atoms: C29_32  and  O4_33 
REMARK    8  A    between atoms: O4_33  and  C30_34 
REMARK    9  A    between atoms: C31_36  and  C32_37 
REMARK   10  A    between atoms: C32_37  and  O6_38 
REMARK   11  A    between atoms: C33_39  and  O7_40 
REMARK   12  A    between atoms: C34_41  and  O8_42 
REMARK   13  A    between atoms: C35_43  and  O9_44 
ROOT
HETATM    1  C2  UNL     1      -0.066  10.781  16.491  1.00  0.00     0.270 C 
HETATM    2  O2  UNL     1      -0.730  11.820  17.246  1.00  0.00    -0.344 OA
HETATM    3  C3  UNL     1      -2.125  11.819  16.877  1.00  0.00     0.095 C 
HETATM    4  C4  UNL     1      -2.764  10.808  17.823  1.00  0.00     0.008 C 
HETATM    5  C5  UNL     1      -2.683   9.487  17.609  1.00  0.00    -0.021 C 
HETATM    6  C6  UNL     1      -1.899   8.924  16.442  1.00  0.00     0.030 C 
HETATM    7  C7  UNL     1      -1.155  10.062  15.616  1.00  0.00     0.024 C 
HETATM    8  C8  UNL     1      -0.503   9.501  14.333  1.00  0.00     0.016 C 
HETATM    9  C9  UNL     1      -1.303   8.455  13.536  1.00  0.00     0.011 C 
HETATM   10  C10 UNL     1      -1.836   7.321  14.433  1.00  0.00    -0.032 C 
HETATM   11  C11 UNL     1      -0.610   6.537  15.006  1.00  0.00     0.016 C 
HETATM   12  C12 UNL     1      -2.830   6.298  13.806  1.00  0.00    -0.002 C 
HETATM   13  C22 UNL     1      -3.561   5.726  15.066  1.00  0.00     0.006 C 
HETATM   14  C23 UNL     1      -3.310   6.711  16.229  1.00  0.00     0.011 C 
HETATM   15  C24 UNL     1      -2.755   7.973  15.541  1.00  0.00    -0.029 C 
HETATM   16  C25 UNL     1      -4.019   8.715  14.965  1.00  0.00     0.016 C 
HETATM   17  C26 UNL     1      -2.103  11.270  15.430  1.00  0.00     0.039 C 
HETATM   18  C27 UNL     1      -1.626  12.296  14.389  1.00  0.00     0.011 C 
HETATM   19  C28 UNL     1      -2.358  13.626  14.508  1.00  0.00     0.033 C 
HETATM   20  C29 UNL     1      -2.224  14.216  15.913  1.00  0.00     0.136 C 
HETATM   21  C36 UNL     1      -2.764  13.247  17.015  1.00  0.00     0.014 C 
HETATM   22  C37 UNL     1      -2.470  13.864  18.414  1.00  0.00     0.021 C 
HETATM   23  C38 UNL     1      -4.308  13.168  16.862  1.00  0.00     0.021 C 
ENDROOT
BRANCH  20  24
HETATM   24  O4  UNL     1      -0.831  14.488  16.126  1.00  0.00    -0.352 OA
BRANCH  24  25
HETATM   25  C30 UNL     1      -0.506  15.878  16.023  1.00  0.00     0.292 C 
HETATM   26  O5  UNL     1      -1.179  16.422  14.896  1.00  0.00    -0.348 OA
HETATM   27  C31 UNL     1      -0.377  16.649  13.737  1.00  0.00     0.179 C 
HETATM   28  C33 UNL     1       0.610  15.497  13.495  1.00  0.00     0.180 C 
HETATM   29  C34 UNL     1       1.546  15.294  14.700  1.00  0.00     0.183 C 
HETATM   30  C35 UNL     1       1.031  15.974  15.974  1.00  0.00     0.204 C 
BRANCH  27  31
HETATM   31  C32 UNL     1      -1.323  16.831  12.534  1.00  0.00     0.198 C 
BRANCH  31  32
HETATM   32  O6  UNL     1      -2.704  16.720  12.873  1.00  0.00    -0.398 OA
HETATM   33  H50 UNL     1      -2.778  16.869  13.844  1.00  0.00     0.209 HD
ENDBRANCH  31  32
ENDBRANCH  27  31
BRANCH  28  34
HETATM   34  O7  UNL     1       1.418  15.759  12.324  1.00  0.00    -0.390 OA
HETATM   35  H52 UNL     1       1.934  14.940  12.184  1.00  0.00     0.210 HD
ENDBRANCH  28  34
BRANCH  29  36
HETATM   36  O8  UNL     1       1.730  13.882  14.890  1.00  0.00    -0.390 OA
HETATM   37  H54 UNL     1       0.998  13.574  15.469  1.00  0.00     0.210 HD
ENDBRANCH  29  36
BRANCH  30  38
HETATM   38  O9  UNL     1       1.444  17.345  16.019  1.00  0.00    -0.388 OA
HETATM   39  H56 UNL     1       2.414  17.366  16.125  1.00  0.00     0.210 HD
ENDBRANCH  30  38
ENDBRANCH  24  25
ENDBRANCH  20  24
BRANCH   1  40
HETATM   40  O1  UNL     1       0.656   9.861  17.302  1.00  0.00    -0.365 OA
HETATM   41  C1  UNL     1       1.981  10.295  17.570  1.00  0.00     0.204 C 
ENDBRANCH   1  40
BRANCH  12  42
HETATM   42  C13 UNL     1      -2.327   5.157  12.874  1.00  0.00    -0.010 C 
HETATM   43  C14 UNL     1      -1.379   5.660  11.778  1.00  0.00     0.010 C 
BRANCH  42  44
HETATM   44  C15 UNL     1      -3.541   4.425  12.232  1.00  0.00     0.031 C 
BRANCH  44  45
HETATM   45  C16 UNL     1      -4.851   4.729  12.908  1.00  0.00    -0.027 C 
HETATM   46  C17 UNL     1      -6.014   4.153  12.552  1.00  0.00     0.006 C 
BRANCH  46  47
HETATM   47  C18 UNL     1      -7.393   4.384  13.138  1.00  0.00     0.070 C 
HETATM   48  C19 UNL     1      -7.274   5.186  14.447  1.00  0.00     0.050 C 
HETATM   49  C20 UNL     1      -8.330   5.168  12.203  1.00  0.00     0.050 C 
BRANCH  47  50
HETATM   50  O3  UNL     1      -8.050   3.115  13.330  1.00  0.00    -0.382 OA
HETATM   51  C21 UNL     1      -7.525   1.998  12.628  1.00  0.00     0.202 C 
ENDBRANCH  47  50
ENDBRANCH  46  47
ENDBRANCH  44  45
ENDBRANCH  42  44
ENDBRANCH  12  42
TORSDOF 13
ENDMDL
MODEL 8
REMARK minimizedAffinity -7.40525723
REMARK CNNscore 0.158998519
REMARK CNNaffinity 6.2014308
REMARK  13 active torsions:
REMARK  status: ('A' for Active; 'I' for Inactive)
REMARK    1  A    between atoms: O1_2  and  C2_3 
REMARK    2  A    between atoms: C12_14  and  C13_15 
REMARK    3  A    between atoms: C13_15  and  C15_17 
REMARK    4  A    between atoms: C15_17  and  C16_18 
REMARK    5  A    between atoms: C17_19  and  C18_20 
REMARK    6  A    between atoms: C18_20  and  O3_23 
REMARK    7  A    between atoms: C29_32  and  O4_33 
REMARK    8  A    between atoms: O4_33  and  C30_34 
REMARK    9  A    between atoms: C31_36  and  C32_37 
REMARK   10  A    between atoms: C32_37  and  O6_38 
REMARK   11  A    between atoms: C33_39  and  O7_40 
REMARK   12  A    between atoms: C34_41  and  O8_42 
REMARK   13  A    between atoms: C35_43  and  O9_44 
ROOT
HETATM    1  C2  UNL     1      -2.034  12.208  14.941  1.00  0.00     0.270 C 
HETATM    2  O2  UNL     1      -1.616  12.887  16.147  1.00  0.00    -0.344 OA
HETATM    3  C3  UNL     1      -1.074  11.902  17.050  1.00  0.00     0.095 C 
HETATM    4  C4  UNL     1       0.399  11.810  16.667  1.00  0.00     0.008 C 
HETATM    5  C5  UNL     1       0.812  11.098  15.608  1.00  0.00    -0.021 C 
HETATM    6  C6  UNL     1      -0.173  10.394  14.698  1.00  0.00     0.030 C 
HETATM    7  C7  UNL     1      -1.682  10.686  15.109  1.00  0.00     0.024 C 
HETATM    8  C8  UNL     1      -2.672   9.831  14.288  1.00  0.00     0.016 C 
HETATM    9  C9  UNL     1      -2.281   8.366  14.019  1.00  0.00     0.011 C 
HETATM   10  C10 UNL     1      -0.846   8.237  13.474  1.00  0.00    -0.032 C 
HETATM   11  C11 UNL     1      -0.793   8.930  12.072  1.00  0.00     0.016 C 
HETATM   12  C12 UNL     1      -0.239   6.807  13.343  1.00  0.00    -0.002 C 
HETATM   13  C22 UNL     1       1.299   7.094  13.347  1.00  0.00     0.006 C 
HETATM   14  C23 UNL     1       1.498   8.517  13.914  1.00  0.00     0.011 C 
HETATM   15  C24 UNL     1       0.135   8.868  14.540  1.00  0.00    -0.029 C 
HETATM   16  C25 UNL     1       0.121   8.134  15.932  1.00  0.00     0.016 C 
HETATM   17  C26 UNL     1      -1.822  10.609  16.648  1.00  0.00     0.039 C 
HETATM   18  C27 UNL     1      -3.275  10.556  17.149  1.00  0.00     0.011 C 
HETATM   19  C28 UNL     1      -3.386  10.867  18.636  1.00  0.00     0.033 C 
HETATM   20  C29 UNL     1      -2.775  12.229  18.971  1.00  0.00     0.136 C 
HETATM   21  C36 UNL     1      -1.270  12.319  18.552  1.00  0.00     0.014 C 
HETATM   22  C37 UNL     1      -0.765  13.770  18.806  1.00  0.00     0.021 C 
HETATM   23  C38 UNL     1      -0.460  11.380  19.487  1.00  0.00     0.021 C 
ENDROOT
BRANCH  20  24
HETATM   24  O4  UNL     1      -3.546  13.222  18.280  1.00  0.00    -0.352 OA
BRANCH  24  25
HETATM   25  C30 UNL     1      -4.916  13.259  18.692  1.00  0.00     0.292 C 
HETATM   26  O5  UNL     1      -5.736  13.398  17.540  1.00  0.00    -0.348 OA
HETATM   27  C31 UNL     1      -6.278  14.699  17.310  1.00  0.00     0.179 C 
HETATM   28  C33 UNL     1      -5.247  15.802  17.594  1.00  0.00     0.180 C 
HETATM   29  C34 UNL     1      -4.737  15.738  19.045  1.00  0.00     0.183 C 
HETATM   30  C35 UNL     1      -5.040  14.397  19.722  1.00  0.00     0.204 C 
BRANCH  27  31
HETATM   31  C32 UNL     1      -6.767  14.759  15.850  1.00  0.00     0.198 C 
BRANCH  31  32
HETATM   32  O6  UNL     1      -5.930  14.048  14.940  1.00  0.00    -0.398 OA
HETATM   33  H50 UNL     1      -5.401  13.407  15.470  1.00  0.00     0.209 HD
ENDBRANCH  31  32
ENDBRANCH  27  31
BRANCH  28  34
HETATM   34  O7  UNL     1      -5.825  17.108  17.367  1.00  0.00    -0.390 OA
HETATM   35  H52 UNL     1      -5.081  17.735  17.464  1.00  0.00     0.210 HD
ENDBRANCH  28  34
BRANCH  29  36
HETATM   36  O8  UNL     1      -3.328  16.020  19.036  1.00  0.00    -0.390 OA
HETATM   37  H54 UNL     1      -2.866  15.166  18.888  1.00  0.00     0.210 HD
ENDBRANCH  29  36
BRANCH  30  38
HETATM   38  O9  UNL     1      -6.353  14.405  20.297  1.00  0.00    -0.388 OA
HETATM   39  H56 UNL     1      -6.357  15.041  21.036  1.00  0.00     0.210 HD
ENDBRANCH  30  38
ENDBRANCH  24  25
ENDBRANCH  20  24
BRANCH   1  40
HETATM   40  O1  UNL     1      -1.469  12.756  13.755  1.00  0.00    -0.365 OA
HETATM   41  C1  UNL     1      -1.129  14.127  13.898  1.00  0.00     0.204 C 
ENDBRANCH   1  40
BRANCH  12  42
HETATM   42  C13 UNL     1      -0.639   5.870  12.166  1.00  0.00    -0.010 C 
HETATM   43  C14 UNL     1       0.198   4.585  12.119  1.00  0.00     0.010 C 
BRANCH  42  44
HETATM   44  C15 UNL     1      -0.515   6.633  10.816  1.00  0.00     0.031 C 
BRANCH  44  45
HETATM   45  C16 UNL     1       0.816   6.443  10.140  1.00  0.00    -0.027 C 
HETATM   46  C17 UNL     1       1.590   7.468   9.737  1.00  0.00     0.006 C 
BRANCH  46  47
HETATM   47  C18 UNL     1       2.933   7.411   9.034  1.00  0.00     0.070 C 
HETATM   48  C19 UNL     1       2.934   8.380   7.837  1.00  0.00     0.050 C 
HETATM   49  C20 UNL     1       4.113   7.798   9.940  1.00  0.00     0.050 C 
BRANCH  47  50
HETATM   50  O3  UNL     1       3.207   6.052   8.639  1.00  0.00    -0.382 OA
HETATM   51  C21 UNL     1       3.834   5.211   9.596  1.00  0.00     0.202 C 
ENDBRANCH  47  50
ENDBRANCH  46  47
ENDBRANCH  44  45
ENDBRANCH  42  44
ENDBRANCH  12  42
TORSDOF 13
ENDMDL
MODEL 9
REMARK minimizedAffinity -6.88654137
REMARK CNNscore 0.134893358
REMARK CNNaffinity 5.59965515
REMARK  13 active torsions:
REMARK  status: ('A' for Active; 'I' for Inactive)
REMARK    1  A    between atoms: O1_2  and  C2_3 
REMARK    2  A    between atoms: C12_14  and  C13_15 
REMARK    3  A    between atoms: C13_15  and  C15_17 
REMARK    4  A    between atoms: C15_17  and  C16_18 
REMARK    5  A    between atoms: C17_19  and  C18_20 
REMARK    6  A    between atoms: C18_20  and  O3_23 
REMARK    7  A    between atoms: C29_32  and  O4_33 
REMARK    8  A    between atoms: O4_33  and  C30_34 
REMARK    9  A    between atoms: C31_36  and  C32_37 
REMARK   10  A    between atoms: C32_37  and  O6_38 
REMARK   11  A    between atoms: C33_39  and  O7_40 
REMARK   12  A    between atoms: C34_41  and  O8_42 
REMARK   13  A    between atoms: C35_43  and  O9_44 
ROOT
HETATM    1  C2  UNL     1       2.238  10.559  19.296  1.00  0.00     0.270 C 
HETATM    2  O2  UNL     1       2.624  10.333  17.920  1.00  0.00    -0.344 OA
HETATM    3  C3  UNL     1       3.187  11.558  17.407  1.00  0.00     0.095 C 
HETATM    4  C4  UNL     1       4.665  11.476  17.770  1.00  0.00     0.008 C 
HETATM    5  C5  UNL     1       5.108  11.763  19.003  1.00  0.00    -0.021 C 
HETATM    6  C6  UNL     1       4.153  12.130  20.120  1.00  0.00     0.030 C 
HETATM    7  C7  UNL     1       2.633  12.035  19.661  1.00  0.00     0.024 C 
HETATM    8  C8  UNL     1       1.676  12.575  20.747  1.00  0.00     0.016 C 
HETATM    9  C9  UNL     1       2.112  13.844  21.502  1.00  0.00     0.011 C 
HETATM   10  C10 UNL     1       3.555  13.741  22.030  1.00  0.00    -0.032 C 
HETATM   11  C11 UNL     1       3.601  12.602  23.102  1.00  0.00     0.016 C 
HETATM   12  C12 UNL     1       4.204  15.020  22.639  1.00  0.00    -0.002 C 
HETATM   13  C22 UNL     1       5.733  14.716  22.506  1.00  0.00     0.006 C 
HETATM   14  C23 UNL     1       5.886  13.575  21.475  1.00  0.00     0.011 C 
HETATM   15  C24 UNL     1       4.507  13.497  20.792  1.00  0.00    -0.029 C 
HETATM   16  C25 UNL     1       4.501  14.670  19.744  1.00  0.00     0.016 C 
HETATM   17  C26 UNL     1       2.480  12.647  18.248  1.00  0.00     0.039 C 
HETATM   18  C27 UNL     1       1.025  12.907  17.824  1.00  0.00     0.011 C 
HETATM   19  C28 UNL     1       0.891  13.135  16.324  1.00  0.00     0.033 C 
HETATM   20  C29 UNL     1       1.459  11.962  15.525  1.00  0.00     0.136 C 
HETATM   21  C36 UNL     1       2.964  11.694  15.858  1.00  0.00     0.014 C 
HETATM   22  C37 UNL     1       3.425  10.411  15.106  1.00  0.00     0.021 C 
HETATM   23  C38 UNL     1       3.792  12.881  15.292  1.00  0.00     0.021 C 
ENDROOT
BRANCH  20  24
HETATM   24  O4  UNL     1       0.666  10.809  15.842  1.00  0.00    -0.352 OA
BRANCH  24  25
HETATM   25  C30 UNL     1      -0.227  10.432  14.789  1.00  0.00     0.292 C 
HETATM   26  O5  UNL     1      -1.557  10.734  15.188  1.00  0.00    -0.348 OA
HETATM   27  C31 UNL     1      -2.355   9.624  15.600  1.00  0.00     0.179 C 
HETATM   28  C33 UNL     1      -1.553   8.639  16.464  1.00  0.00     0.180 C 
HETATM   29  C34 UNL     1      -0.324   8.100  15.711  1.00  0.00     0.183 C 
HETATM   30  C35 UNL     1       0.042   8.946  14.487  1.00  0.00     0.204 C 
BRANCH  27  31
HETATM   31  C32 UNL     1      -3.572  10.174  16.369  1.00  0.00     0.198 C 
BRANCH  31  32
HETATM   32  O6  UNL     1      -4.640  10.593  15.520  1.00  0.00    -0.398 OA
HETATM   33  H50 UNL     1      -4.509  10.152  14.649  1.00  0.00     0.209 HD
ENDBRANCH  31  32
ENDBRANCH  27  31
BRANCH  28  34
HETATM   34  O7  UNL     1      -2.380   7.519  16.856  1.00  0.00    -0.390 OA
HETATM   35  H52 UNL     1      -1.832   7.005  17.482  1.00  0.00     0.210 HD
ENDBRANCH  28  34
BRANCH  29  36
HETATM   36  O8  UNL     1       0.768   8.015  16.642  1.00  0.00    -0.390 OA
HETATM   37  H54 UNL     1       1.213   8.891  16.640  1.00  0.00     0.210 HD
ENDBRANCH  29  36
BRANCH  30  38
HETATM   38  O9  UNL     1      -0.710   8.529  13.341  1.00  0.00    -0.388 OA
HETATM   39  H56 UNL     1      -0.416   7.632  13.095  1.00  0.00     0.210 HD
ENDBRANCH  30  38
ENDBRANCH  24  25
ENDBRANCH  20  24
BRANCH   1  40
HETATM   40  O1  UNL     1       2.798   9.619  20.206  1.00  0.00    -0.365 OA
HETATM   41  C1  UNL     1       2.075   9.545  21.425  1.00  0.00     0.204 C 
ENDBRANCH   1  40
BRANCH  12  42
HETATM   42  C13 UNL     1       3.843  15.499  24.076  1.00  0.00    -0.010 C 
HETATM   43  C14 UNL     1       2.342  15.757  24.257  1.00  0.00     0.010 C 
BRANCH  42  44
HETATM   44  C15 UNL     1       4.648  16.783  24.424  1.00  0.00     0.031 C 
BRANCH  44  45
HETATM   45  C16 UNL     1       6.139  16.586  24.384  1.00  0.00    -0.027 C 
HETATM   46  C17 UNL     1       6.986  17.201  25.230  1.00  0.00     0.006 C 
BRANCH  46  47
HETATM   47  C18 UNL     1       8.499  17.101  25.281  1.00  0.00     0.070 C 
HETATM   48  C19 UNL     1       9.045  16.770  23.880  1.00  0.00     0.050 C 
HETATM   49  C20 UNL     1       9.181  18.398  25.745  1.00  0.00     0.050 C 
BRANCH  47  50
HETATM   50  O3  UNL     1       8.879  16.118  26.265  1.00  0.00    -0.382 OA
HETATM   51  C21 UNL     1       8.490  16.358  27.609  1.00  0.00     0.202 C 
ENDBRANCH  47  50
ENDBRANCH  46  47
ENDBRANCH  44  45
ENDBRANCH  42  44
ENDBRANCH  12  42
TORSDOF 13
ENDMDL
