MODEL 1
REMARK minimizedAffinity -8.17664528
REMARK CNNscore 0.810458541
REMARK CNNaffinity 6.45786667
REMARK  8 active torsions:
REMARK  status: ('A' for Active; 'I' for Inactive)
REMARK    1  A    between atoms: C2_2  and  C30_34 
REMARK    2  A    between atoms: C3_3  and  C4_4 
REMARK    3  A    between atoms: C4_4  and  O1_5 
REMARK    4  A    between atoms: C4_4  and  C5_6 
REMARK    5  A    between atoms: C5_6  and  C6_7 
REMARK    6  A    between atoms: C6_7  and  C8_9 
REMARK    7  A    between atoms: C10_11  and  O2_12 
REMARK    8  A    between atoms: C30_34  and  O6_36 
ROOT
HETATM    1  C8  UNL     1     -12.931  45.681 -27.618  1.00  0.00     0.001 C 
HETATM    2  C9  UNL     1     -13.193  44.446 -28.528  1.00  0.00     0.038 C 
HETATM    3  C10 UNL     1     -12.035  44.386 -29.543  1.00  0.00     0.131 C 
HETATM    4  C11 UNL     1     -10.921  45.259 -28.907  1.00  0.00     0.014 C 
HETATM    5  C12 UNL     1     -10.187  44.409 -27.819  1.00  0.00     0.023 C 
HETATM    6  C13 UNL     1      -9.798  45.815 -29.782  1.00  0.00    -0.058 C 
HETATM    7  C14 UNL     1      -9.126  46.942 -29.427  1.00  0.00    -0.000 C 
HETATM    8  C15 UNL     1      -9.605  47.724 -28.209  1.00  0.00     0.157 C 
HETATM    9  O3  UNL     1      -8.969  48.690 -27.790  1.00  0.00    -0.293 OA
HETATM   10  C16 UNL     1     -10.887  47.321 -27.485  1.00  0.00     0.094 C 
HETATM   11  C17 UNL     1     -11.790  46.450 -28.358  1.00  0.00    -0.019 C 
HETATM   12  C18 UNL     1     -12.379  47.350 -29.484  1.00  0.00     0.017 C 
HETATM   13  C19 UNL     1      -7.897  47.478 -30.205  1.00  0.00    -0.008 C 
HETATM   14  C20 UNL     1      -8.372  48.747 -30.953  1.00  0.00     0.021 C 
HETATM   15  C21 UNL     1      -6.725  47.863 -29.245  1.00  0.00     0.022 C 
HETATM   16  C22 UNL     1      -5.316  47.731 -29.816  1.00  0.00     0.080 C 
HETATM   17  C23 UNL     1      -5.297  47.842 -31.320  1.00  0.00     0.135 C 
HETATM   18  O4  UNL     1      -4.576  48.663 -31.886  1.00  0.00    -0.297 OA
HETATM   19  C24 UNL     1      -6.147  46.825 -32.090  1.00  0.00     0.018 C 
HETATM   20  C25 UNL     1      -6.570  47.418 -33.446  1.00  0.00     0.023 C 
HETATM   21  C26 UNL     1      -5.228  45.618 -32.382  1.00  0.00     0.023 C 
HETATM   22  C27 UNL     1      -7.341  46.371 -31.180  1.00  0.00     0.014 C 
HETATM   23  C28 UNL     1      -8.475  45.694 -31.957  1.00  0.00     0.011 C 
HETATM   24  C29 UNL     1      -9.440  45.001 -31.002  1.00  0.00     0.036 C 
ENDROOT
BRANCH   1  25
HETATM   25  C6  UNL     1     -14.236  46.363 -27.109  1.00  0.00    -0.011 C 
HETATM   26  C7  UNL     1     -14.212  46.932 -25.686  1.00  0.00     0.010 C 
BRANCH  25  27
HETATM   27  C5  UNL     1     -15.469  45.452 -27.313  1.00  0.00     0.040 C 
BRANCH  27  28
HETATM   28  C4  UNL     1     -15.957  44.702 -26.063  1.00  0.00     0.142 C 
BRANCH  28  29
HETATM   29  C3  UNL     1     -17.172  45.312 -25.421  1.00  0.00     0.018 C 
HETATM   30  C2  UNL     1     -18.457  45.290 -25.836  1.00  0.00     0.010 C 
HETATM   31  C1  UNL     1     -18.954  44.680 -27.115  1.00  0.00     0.055 C 
BRANCH  30  32
HETATM   32  C30 UNL     1     -19.524  45.932 -25.022  1.00  0.00     0.171 C 
HETATM   33  O5  UNL     1     -19.763  47.126 -24.987  1.00  0.00    -0.646 OA
BRANCH  32  34
HETATM   34  O6  UNL     1     -20.243  45.068 -24.285  1.00  0.00    -0.773 OA
HETATM   35  H44 UNL     1     -20.886  45.648 -23.825  1.00  0.00     0.167 HD
ENDBRANCH  32  34
ENDBRANCH  30  32
ENDBRANCH  28  29
BRANCH  28  36
HETATM   36  O1  UNL     1     -16.214  43.349 -26.423  1.00  0.00    -0.392 OA
HETATM   37  H6  UNL     1     -16.549  42.900 -25.627  1.00  0.00     0.210 HD
ENDBRANCH  28  36
ENDBRANCH  27  28
ENDBRANCH  25  27
ENDBRANCH   1  25
BRANCH   3  38
HETATM   38  O2  UNL     1     -11.637  43.042 -29.771  1.00  0.00    -0.394 OA
HETATM   39  H17 UNL     1     -12.427  42.541 -30.034  1.00  0.00     0.210 HD
ENDBRANCH   3  38
TORSDOF 8
ENDMDL
MODEL 2
REMARK minimizedAffinity -7.8716855
REMARK CNNscore 0.801752806
REMARK CNNaffinity 6.89711237
REMARK  8 active torsions:
REMARK  status: ('A' for Active; 'I' for Inactive)
REMARK    1  A    between atoms: C2_2  and  C30_34 
REMARK    2  A    between atoms: C3_3  and  C4_4 
REMARK    3  A    between atoms: C4_4  and  O1_5 
REMARK    4  A    between atoms: C4_4  and  C5_6 
REMARK    5  A    between atoms: C5_6  and  C6_7 
REMARK    6  A    between atoms: C6_7  and  C8_9 
REMARK    7  A    between atoms: C10_11  and  O2_12 
REMARK    8  A    between atoms: C30_34  and  O6_36 
ROOT
HETATM    1  C8  UNL     1      -1.872  52.418 -11.110  1.00  0.00     0.001 C 
HETATM    2  C9  UNL     1      -0.977  52.513 -12.379  1.00  0.00     0.038 C 
HETATM    3  C10 UNL     1       0.281  53.308 -11.978  1.00  0.00     0.131 C 
HETATM    4  C11 UNL     1       0.310  53.228 -10.429  1.00  0.00     0.014 C 
HETATM    5  C12 UNL     1       0.895  51.838 -10.016  1.00  0.00     0.023 C 
HETATM    6  C13 UNL     1       1.127  54.242  -9.630  1.00  0.00    -0.058 C 
HETATM    7  C14 UNL     1       0.805  54.546  -8.344  1.00  0.00    -0.000 C 
HETATM    8  C15 UNL     1      -0.474  53.959  -7.756  1.00  0.00     0.157 C 
HETATM    9  O3  UNL     1      -0.754  54.122  -6.569  1.00  0.00    -0.293 OA
HETATM   10  C16 UNL     1      -1.434  53.159  -8.631  1.00  0.00     0.094 C 
HETATM   11  C17 UNL     1      -1.220  53.434 -10.119  1.00  0.00    -0.019 C 
HETATM   12  C18 UNL     1      -1.716  54.881 -10.414  1.00  0.00     0.017 C 
HETATM   13  C19 UNL     1       1.671  55.465  -7.446  1.00  0.00    -0.008 C 
HETATM   14  C20 UNL     1       0.890  56.792  -7.297  1.00  0.00     0.021 C 
HETATM   15  C21 UNL     1       1.896  54.846  -6.028  1.00  0.00     0.022 C 
HETATM   16  C22 UNL     1       3.199  55.225  -5.328  1.00  0.00     0.080 C 
HETATM   17  C23 UNL     1       3.743  56.546  -5.811  1.00  0.00     0.135 C 
HETATM   18  O4  UNL     1       3.998  57.453  -5.020  1.00  0.00    -0.297 OA
HETATM   19  C24 UNL     1       4.039  56.654  -7.311  1.00  0.00     0.018 C 
HETATM   20  C25 UNL     1       3.930  58.122  -7.760  1.00  0.00     0.023 C 
HETATM   21  C26 UNL     1       5.511  56.224  -7.499  1.00  0.00     0.023 C 
HETATM   22  C27 UNL     1       3.098  55.668  -8.085  1.00  0.00     0.014 C 
HETATM   23  C28 UNL     1       2.997  55.974  -9.584  1.00  0.00     0.011 C 
HETATM   24  C29 UNL     1       2.339  54.815 -10.324  1.00  0.00     0.036 C 
ENDROOT
BRANCH   1  25
HETATM   25  C6  UNL     1      -3.397  52.388 -11.429  1.00  0.00    -0.011 C 
HETATM   26  C7  UNL     1      -4.276  53.425 -10.719  1.00  0.00     0.010 C 
BRANCH  25  27
HETATM   27  C5  UNL     1      -3.984  50.967 -11.264  1.00  0.00     0.040 C 
BRANCH  27  28
HETATM   28  C4  UNL     1      -4.731  50.706  -9.946  1.00  0.00     0.142 C 
BRANCH  28  29
HETATM   29  C3  UNL     1      -6.068  50.040 -10.125  1.00  0.00     0.018 C 
HETATM   30  C2  UNL     1      -6.380  48.930 -10.829  1.00  0.00     0.010 C 
HETATM   31  C1  UNL     1      -5.428  48.130 -11.671  1.00  0.00     0.055 C 
BRANCH  30  32
HETATM   32  C30 UNL     1      -7.775  48.414 -10.844  1.00  0.00     0.171 C 
HETATM   33  O5  UNL     1      -8.174  47.440 -10.229  1.00  0.00    -0.646 OA
BRANCH  32  34
HETATM   34  O6  UNL     1      -8.611  49.120 -11.624  1.00  0.00    -0.773 OA
HETATM   35  H44 UNL     1      -9.466  48.652 -11.517  1.00  0.00     0.167 HD
ENDBRANCH  32  34
ENDBRANCH  30  32
ENDBRANCH  28  29
BRANCH  28  36
HETATM   36  O1  UNL     1      -3.895  49.918  -9.104  1.00  0.00    -0.392 OA
HETATM   37  H6  UNL     1      -4.397  49.740  -8.290  1.00  0.00     0.210 HD
ENDBRANCH  28  36
ENDBRANCH  27  28
ENDBRANCH  25  27
ENDBRANCH   1  25
BRANCH   3  38
HETATM   38  O2  UNL     1       1.438  52.760 -12.592  1.00  0.00    -0.394 OA
HETATM   39  H17 UNL     1       1.275  52.723 -13.550  1.00  0.00     0.210 HD
ENDBRANCH   3  38
TORSDOF 8
ENDMDL
MODEL 3
REMARK minimizedAffinity -8.20660686
REMARK CNNscore 0.746902168
REMARK CNNaffinity 6.80619049
REMARK  8 active torsions:
REMARK  status: ('A' for Active; 'I' for Inactive)
REMARK    1  A    between atoms: C2_2  and  C30_34 
REMARK    2  A    between atoms: C3_3  and  C4_4 
REMARK    3  A    between atoms: C4_4  and  O1_5 
REMARK    4  A    between atoms: C4_4  and  C5_6 
REMARK    5  A    between atoms: C5_6  and  C6_7 
REMARK    6  A    between atoms: C6_7  and  C8_9 
REMARK    7  A    between atoms: C10_11  and  O2_12 
REMARK    8  A    between atoms: C30_34  and  O6_36 
ROOT
HETATM    1  C8  UNL     1      -3.622  50.828 -10.484  1.00  0.00     0.001 C 
HETATM    2  C9  UNL     1      -4.375  52.143 -10.837  1.00  0.00     0.038 C 
HETATM    3  C10 UNL     1      -3.334  53.279 -10.792  1.00  0.00     0.131 C 
HETATM    4  C11 UNL     1      -1.967  52.551 -10.896  1.00  0.00     0.014 C 
HETATM    5  C12 UNL     1      -1.708  52.196 -12.396  1.00  0.00     0.023 C 
HETATM    6  C13 UNL     1      -0.692  53.261 -10.443  1.00  0.00    -0.058 C 
HETATM    7  C14 UNL     1       0.397  52.555 -10.036  1.00  0.00    -0.000 C 
HETATM    8  C15 UNL     1       0.276  51.041  -9.905  1.00  0.00     0.157 C 
HETATM    9  O3  UNL     1       1.259  50.351  -9.639  1.00  0.00    -0.293 OA
HETATM   10  C16 UNL     1      -1.071  50.351 -10.100  1.00  0.00     0.094 C 
HETATM   11  C17 UNL     1      -2.241  51.323  -9.950  1.00  0.00    -0.019 C 
HETATM   12  C18 UNL     1      -2.347  51.718  -8.447  1.00  0.00     0.017 C 
HETATM   13  C19 UNL     1       1.757  53.215  -9.692  1.00  0.00    -0.008 C 
HETATM   14  C20 UNL     1       1.905  53.133  -8.154  1.00  0.00     0.021 C 
HETATM   15  C21 UNL     1       2.953  52.461 -10.359  1.00  0.00     0.022 C 
HETATM   16  C22 UNL     1       4.177  53.308 -10.698  1.00  0.00     0.080 C 
HETATM   17  C23 UNL     1       4.281  54.534  -9.827  1.00  0.00     0.135 C 
HETATM   18  O4  UNL     1       5.304  54.768  -9.183  1.00  0.00    -0.297 OA
HETATM   19  C24 UNL     1       3.093  55.501  -9.863  1.00  0.00     0.018 C 
HETATM   20  C25 UNL     1       3.008  56.274  -8.535  1.00  0.00     0.023 C 
HETATM   21  C26 UNL     1       3.398  56.529 -10.975  1.00  0.00     0.023 C 
HETATM   22  C27 UNL     1       1.797  54.697 -10.229  1.00  0.00     0.014 C 
HETATM   23  C28 UNL     1       0.502  55.445  -9.894  1.00  0.00     0.011 C 
HETATM   24  C29 UNL     1      -0.693  54.767 -10.552  1.00  0.00     0.036 C 
ENDROOT
BRANCH   1  25
HETATM   25  C6  UNL     1      -4.511  49.789  -9.736  1.00  0.00    -0.011 C 
HETATM   26  C7  UNL     1      -3.806  48.547  -9.178  1.00  0.00     0.010 C 
BRANCH  25  27
HETATM   27  C5  UNL     1      -5.745  49.387 -10.577  1.00  0.00     0.040 C 
BRANCH  27  28
HETATM   28  C4  UNL     1      -7.110  49.744  -9.967  1.00  0.00     0.142 C 
BRANCH  28  29
HETATM   29  C3  UNL     1      -8.282  49.197 -10.734  1.00  0.00     0.018 C 
HETATM   30  C2  UNL     1      -8.379  48.048 -11.438  1.00  0.00     0.010 C 
HETATM   31  C1  UNL     1      -7.267  47.063 -11.665  1.00  0.00     0.055 C 
BRANCH  30  32
HETATM   32  C30 UNL     1      -9.658  47.673 -12.099  1.00  0.00     0.171 C 
HETATM   33  O5  UNL     1     -10.717  47.479 -11.528  1.00  0.00    -0.646 OA
BRANCH  32  34
HETATM   34  O6  UNL     1      -9.567  47.548 -13.434  1.00  0.00    -0.773 OA
HETATM   35  H44 UNL     1     -10.479  47.304 -13.698  1.00  0.00     0.167 HD
ENDBRANCH  32  34
ENDBRANCH  30  32
ENDBRANCH  28  29
BRANCH  28  36
HETATM   36  O1  UNL     1      -7.138  49.277  -8.622  1.00  0.00    -0.392 OA
HETATM   37  H6  UNL     1      -8.018  49.487  -8.266  1.00  0.00     0.210 HD
ENDBRANCH  28  36
ENDBRANCH  27  28
ENDBRANCH  25  27
ENDBRANCH   1  25
BRANCH   3  38
HETATM   38  O2  UNL     1      -3.558  54.209 -11.841  1.00  0.00    -0.394 OA
HETATM   39  H17 UNL     1      -4.481  54.508 -11.778  1.00  0.00     0.210 HD
ENDBRANCH   3  38
TORSDOF 8
ENDMDL
MODEL 4
REMARK minimizedAffinity -9.72037697
REMARK CNNscore 0.629921913
REMARK CNNaffinity 7.04361725
REMARK  8 active torsions:
REMARK  status: ('A' for Active; 'I' for Inactive)
REMARK    1  A    between atoms: C2_2  and  C30_34 
REMARK    2  A    between atoms: C3_3  and  C4_4 
REMARK    3  A    between atoms: C4_4  and  O1_5 
REMARK    4  A    between atoms: C4_4  and  C5_6 
REMARK    5  A    between atoms: C5_6  and  C6_7 
REMARK    6  A    between atoms: C6_7  and  C8_9 
REMARK    7  A    between atoms: C10_11  and  O2_12 
REMARK    8  A    between atoms: C30_34  and  O6_36 
ROOT
HETATM    1  C8  UNL     1      -0.838  49.579 -18.243  1.00  0.00     0.001 C 
HETATM    2  C9  UNL     1      -2.078  48.640 -18.288  1.00  0.00     0.038 C 
HETATM    3  C10 UNL     1      -2.632  48.701 -19.725  1.00  0.00     0.131 C 
HETATM    4  C11 UNL     1      -1.456  49.264 -20.567  1.00  0.00     0.014 C 
HETATM    5  C12 UNL     1      -0.456  48.099 -20.860  1.00  0.00     0.023 C 
HETATM    6  C13 UNL     1      -1.730  49.890 -21.933  1.00  0.00    -0.058 C 
HETATM    7  C14 UNL     1      -0.886  50.815 -22.463  1.00  0.00    -0.000 C 
HETATM    8  C15 UNL     1       0.269  51.323 -21.607  1.00  0.00     0.157 C 
HETATM    9  O3  UNL     1       1.116  52.082 -22.076  1.00  0.00    -0.293 OA
HETATM   10  C16 UNL     1       0.394  50.900 -20.145  1.00  0.00     0.094 C 
HETATM   11  C17 UNL     1      -0.927  50.374 -19.584  1.00  0.00    -0.019 C 
HETATM   12  C18 UNL     1      -1.900  51.581 -19.441  1.00  0.00     0.017 C 
HETATM   13  C19 UNL     1      -1.041  51.385 -23.896  1.00  0.00    -0.008 C 
HETATM   14  C20 UNL     1      -1.537  52.842 -23.735  1.00  0.00     0.021 C 
HETATM   15  C21 UNL     1       0.317  51.392 -24.669  1.00  0.00     0.022 C 
HETATM   16  C22 UNL     1       0.228  51.248 -26.187  1.00  0.00     0.080 C 
HETATM   17  C23 UNL     1      -1.098  51.720 -26.728  1.00  0.00     0.135 C 
HETATM   18  O4  UNL     1      -1.153  52.570 -27.616  1.00  0.00    -0.297 OA
HETATM   19  C24 UNL     1      -2.347  51.022 -26.178  1.00  0.00     0.018 C 
HETATM   20  C25 UNL     1      -3.556  51.971 -26.263  1.00  0.00     0.023 C 
HETATM   21  C26 UNL     1      -2.631  49.829 -27.117  1.00  0.00     0.023 C 
HETATM   22  C27 UNL     1      -2.037  50.495 -24.734  1.00  0.00     0.014 C 
HETATM   23  C28 UNL     1      -3.296  50.158 -23.926  1.00  0.00     0.011 C 
HETATM   24  C29 UNL     1      -2.934  49.364 -22.677  1.00  0.00     0.036 C 
ENDROOT
BRANCH   1  25
HETATM   25  C6  UNL     1      -0.625  50.255 -16.855  1.00  0.00    -0.011 C 
HETATM   26  C7  UNL     1      -1.850  50.908 -16.205  1.00  0.00     0.010 C 
BRANCH  25  27
HETATM   27  C5  UNL     1       0.570  51.237 -16.880  1.00  0.00     0.040 C 
BRANCH  27  28
HETATM   28  C4  UNL     1       0.862  51.962 -15.556  1.00  0.00     0.142 C 
BRANCH  28  29
HETATM   29  C3  UNL     1       1.762  51.194 -14.626  1.00  0.00     0.018 C 
HETATM   30  C2  UNL     1       3.111  51.162 -14.580  1.00  0.00     0.010 C 
HETATM   31  C1  UNL     1       4.038  51.867 -15.528  1.00  0.00     0.055 C 
BRANCH  30  32
HETATM   32  C30 UNL     1       3.811  50.356 -13.544  1.00  0.00     0.171 C 
HETATM   33  O5  UNL     1       3.510  50.307 -12.364  1.00  0.00    -0.646 OA
BRANCH  32  34
HETATM   34  O6  UNL     1       4.856  49.652 -14.013  1.00  0.00    -0.773 OA
HETATM   35  H44 UNL     1       5.191  49.190 -13.216  1.00  0.00     0.167 HD
ENDBRANCH  32  34
ENDBRANCH  30  32
ENDBRANCH  28  29
BRANCH  28  36
HETATM   36  O1  UNL     1       1.430  53.233 -15.855  1.00  0.00    -0.392 OA
HETATM   37  H6  UNL     1       1.634  53.662 -15.006  1.00  0.00     0.210 HD
ENDBRANCH  28  36
ENDBRANCH  27  28
ENDBRANCH  25  27
ENDBRANCH   1  25
BRANCH   3  38
HETATM   38  O2  UNL     1      -3.066  47.419 -20.151  1.00  0.00    -0.394 OA
HETATM   39  H17 UNL     1      -3.699  47.087 -19.491  1.00  0.00     0.210 HD
ENDBRANCH   3  38
TORSDOF 8
ENDMDL
MODEL 5
REMARK minimizedAffinity -9.40933228
REMARK CNNscore 0.607726634
REMARK CNNaffinity 6.89373159
REMARK  8 active torsions:
REMARK  status: ('A' for Active; 'I' for Inactive)
REMARK    1  A    between atoms: C2_2  and  C30_34 
REMARK    2  A    between atoms: C3_3  and  C4_4 
REMARK    3  A    between atoms: C4_4  and  O1_5 
REMARK    4  A    between atoms: C4_4  and  C5_6 
REMARK    5  A    between atoms: C5_6  and  C6_7 
REMARK    6  A    between atoms: C6_7  and  C8_9 
REMARK    7  A    between atoms: C10_11  and  O2_12 
REMARK    8  A    between atoms: C30_34  and  O6_36 
ROOT
HETATM    1  C8  UNL     1      -0.594  50.423 -18.980  1.00  0.00     0.001 C 
HETATM    2  C9  UNL     1      -0.918  49.338 -17.912  1.00  0.00     0.038 C 
HETATM    3  C10 UNL     1      -2.157  48.572 -18.416  1.00  0.00     0.131 C 
HETATM    4  C11 UNL     1      -2.217  48.894 -19.933  1.00  0.00     0.014 C 
HETATM    5  C12 UNL     1      -1.188  47.980 -20.674  1.00  0.00     0.023 C 
HETATM    6  C13 UNL     1      -3.525  48.700 -20.700  1.00  0.00    -0.058 C 
HETATM    7  C14 UNL     1      -3.786  49.408 -21.831  1.00  0.00    -0.000 C 
HETATM    8  C15 UNL     1      -2.810  50.504 -22.245  1.00  0.00     0.157 C 
HETATM    9  O3  UNL     1      -2.950  51.102 -23.312  1.00  0.00    -0.293 OA
HETATM   10  C16 UNL     1      -1.640  50.884 -21.342  1.00  0.00     0.094 C 
HETATM   11  C17 UNL     1      -1.857  50.426 -19.899  1.00  0.00    -0.019 C 
HETATM   12  C18 UNL     1      -2.981  51.307 -19.281  1.00  0.00     0.017 C 
HETATM   13  C19 UNL     1      -5.032  49.162 -22.719  1.00  0.00    -0.008 C 
HETATM   14  C20 UNL     1      -5.975  50.367 -22.493  1.00  0.00     0.021 C 
HETATM   15  C21 UNL     1      -4.658  49.085 -24.235  1.00  0.00     0.022 C 
HETATM   16  C22 UNL     1      -5.554  48.207 -25.105  1.00  0.00     0.080 C 
HETATM   17  C23 UNL     1      -6.940  48.057 -24.528  1.00  0.00     0.135 C 
HETATM   18  O4  UNL     1      -7.936  48.334 -25.195  1.00  0.00    -0.297 OA
HETATM   19  C24 UNL     1      -7.031  47.464 -23.119  1.00  0.00     0.018 C 
HETATM   20  C25 UNL     1      -8.310  47.965 -22.423  1.00  0.00     0.023 C 
HETATM   21  C26 UNL     1      -7.173  45.936 -23.295  1.00  0.00     0.023 C 
HETATM   22  C27 UNL     1      -5.706  47.785 -22.346  1.00  0.00     0.014 C 
HETATM   23  C28 UNL     1      -5.830  47.621 -20.828  1.00  0.00     0.011 C 
HETATM   24  C29 UNL     1      -4.454  47.634 -20.173  1.00  0.00     0.036 C 
ENDROOT
BRANCH   1  25
HETATM   25  C6  UNL     1       0.033  51.716 -18.377  1.00  0.00    -0.011 C 
HETATM   26  C7  UNL     1       0.453  52.809 -19.366  1.00  0.00     0.010 C 
BRANCH  25  27
HETATM   27  C5  UNL     1       1.186  51.387 -17.402  1.00  0.00     0.040 C 
BRANCH  27  28
HETATM   28  C4  UNL     1       1.061  51.993 -15.995  1.00  0.00     0.142 C 
BRANCH  28  29
HETATM   29  C3  UNL     1       1.869  51.276 -14.948  1.00  0.00     0.018 C 
HETATM   30  C2  UNL     1       3.206  51.279 -14.752  1.00  0.00     0.010 C 
HETATM   31  C1  UNL     1       4.216  51.979 -15.616  1.00  0.00     0.055 C 
BRANCH  30  32
HETATM   32  C30 UNL     1       3.804  50.522 -13.621  1.00  0.00     0.171 C 
HETATM   33  O5  UNL     1       3.462  50.608 -12.454  1.00  0.00    -0.646 OA
BRANCH  32  34
HETATM   34  O6  UNL     1       4.803  49.698 -13.982  1.00  0.00    -0.773 OA
HETATM   35  H44 UNL     1       5.073  49.288 -13.134  1.00  0.00     0.167 HD
ENDBRANCH  32  34
ENDBRANCH  30  32
ENDBRANCH  28  29
BRANCH  28  36
HETATM   36  O1  UNL     1       1.443  53.363 -16.061  1.00  0.00    -0.392 OA
HETATM   37  H6  UNL     1       1.385  53.720 -15.157  1.00  0.00     0.210 HD
ENDBRANCH  28  36
ENDBRANCH  27  28
ENDBRANCH  25  27
ENDBRANCH   1  25
BRANCH   3  38
HETATM   38  O2  UNL     1      -2.037  47.185 -18.138  1.00  0.00    -0.394 OA
HETATM   39  H17 UNL     1      -1.866  47.088 -17.186  1.00  0.00     0.210 HD
ENDBRANCH   3  38
TORSDOF 8
ENDMDL
MODEL 6
REMARK minimizedAffinity -7.79894638
REMARK CNNscore 0.48908028
REMARK CNNaffinity 6.3545928
REMARK  8 active torsions:
REMARK  status: ('A' for Active; 'I' for Inactive)
REMARK    1  A    between atoms: C2_2  and  C30_34 
REMARK    2  A    between atoms: C3_3  and  C4_4 
REMARK    3  A    between atoms: C4_4  and  O1_5 
REMARK    4  A    between atoms: C4_4  and  C5_6 
REMARK    5  A    between atoms: C5_6  and  C6_7 
REMARK    6  A    between atoms: C6_7  and  C8_9 
REMARK    7  A    between atoms: C10_11  and  O2_12 
REMARK    8  A    between atoms: C30_34  and  O6_36 
ROOT
HETATM    1  C8  UNL     1      -9.091  46.735 -29.204  1.00  0.00     0.001 C 
HETATM    2  C9  UNL     1      -9.647  46.136 -30.529  1.00  0.00     0.038 C 
HETATM    3  C10 UNL     1     -11.089  45.674 -30.238  1.00  0.00     0.131 C 
HETATM    4  C11 UNL     1     -11.484  46.435 -28.945  1.00  0.00     0.014 C 
HETATM    5  C12 UNL     1     -11.889  47.894 -29.334  1.00  0.00     0.023 C 
HETATM    6  C13 UNL     1     -12.643  45.929 -28.088  1.00  0.00    -0.058 C 
HETATM    7  C14 UNL     1     -12.709  46.211 -26.760  1.00  0.00    -0.000 C 
HETATM    8  C15 UNL     1     -11.531  46.925 -26.107  1.00  0.00     0.157 C 
HETATM    9  O3  UNL     1     -11.587  47.291 -24.934  1.00  0.00    -0.293 OA
HETATM   10  C16 UNL     1     -10.255  47.198 -26.899  1.00  0.00     0.094 C 
HETATM   11  C17 UNL     1     -10.142  46.302 -28.132  1.00  0.00    -0.019 C 
HETATM   12  C18 UNL     1      -9.860  44.850 -27.646  1.00  0.00     0.017 C 
HETATM   13  C19 UNL     1     -13.923  45.836 -25.871  1.00  0.00    -0.008 C 
HETATM   14  C20 UNL     1     -13.458  44.671 -24.965  1.00  0.00     0.021 C 
HETATM   15  C21 UNL     1     -14.375  47.032 -24.972  1.00  0.00     0.022 C 
HETATM   16  C22 UNL     1     -15.856  47.077 -24.606  1.00  0.00     0.080 C 
HETATM   17  C23 UNL     1     -16.495  45.711 -24.647  1.00  0.00     0.135 C 
HETATM   18  O4  UNL     1     -17.099  45.266 -23.671  1.00  0.00    -0.297 OA
HETATM   19  C24 UNL     1     -16.427  44.965 -25.983  1.00  0.00     0.018 C 
HETATM   20  C25 UNL     1     -16.480  43.447 -25.737  1.00  0.00     0.023 C 
HETATM   21  C26 UNL     1     -17.703  45.349 -26.765  1.00  0.00     0.023 C 
HETATM   22  C27 UNL     1     -15.160  45.450 -26.770  1.00  0.00     0.014 C 
HETATM   23  C28 UNL     1     -14.750  44.505 -27.905  1.00  0.00     0.011 C 
HETATM   24  C29 UNL     1     -13.730  45.176 -28.818  1.00  0.00     0.036 C 
ENDROOT
BRANCH   1  25
HETATM   25  C6  UNL     1      -7.556  46.534 -29.032  1.00  0.00    -0.011 C 
HETATM   26  C7  UNL     1      -7.073  45.117 -28.703  1.00  0.00     0.010 C 
BRANCH  25  27
HETATM   27  C5  UNL     1      -6.956  47.560 -28.042  1.00  0.00     0.040 C 
BRANCH  27  28
HETATM   28  C4  UNL     1      -5.640  48.220 -28.484  1.00  0.00     0.142 C 
BRANCH  28  29
HETATM   29  C3  UNL     1      -4.590  48.266 -27.407  1.00  0.00     0.018 C 
HETATM   30  C2  UNL     1      -3.631  49.193 -27.192  1.00  0.00     0.010 C 
HETATM   31  C1  UNL     1      -3.360  50.391 -28.057  1.00  0.00     0.055 C 
BRANCH  30  32
HETATM   32  C30 UNL     1      -2.707  49.067 -26.033  1.00  0.00     0.171 C 
HETATM   33  O5  UNL     1      -2.943  48.458 -25.005  1.00  0.00    -0.646 OA
BRANCH  32  34
HETATM   34  O6  UNL     1      -1.536  49.705 -26.197  1.00  0.00    -0.773 OA
HETATM   35  H44 UNL     1      -1.061  49.520 -25.359  1.00  0.00     0.167 HD
ENDBRANCH  32  34
ENDBRANCH  30  32
ENDBRANCH  28  29
BRANCH  28  36
HETATM   36  O1  UNL     1      -5.148  47.523 -29.624  1.00  0.00    -0.392 OA
HETATM   37  H6  UNL     1      -4.302  47.937 -29.868  1.00  0.00     0.210 HD
ENDBRANCH  28  36
ENDBRANCH  27  28
ENDBRANCH  25  27
ENDBRANCH   1  25
BRANCH   3  38
HETATM   38  O2  UNL     1     -11.939  45.956 -31.340  1.00  0.00    -0.394 OA
HETATM   39  H17 UNL     1     -11.540  45.554 -32.130  1.00  0.00     0.210 HD
ENDBRANCH   3  38
TORSDOF 8
ENDMDL
MODEL 7
REMARK minimizedAffinity -9.10931683
REMARK CNNscore 0.471617311
REMARK CNNaffinity 6.84771347
REMARK  8 active torsions:
REMARK  status: ('A' for Active; 'I' for Inactive)
REMARK    1  A    between atoms: C2_2  and  C30_34 
REMARK    2  A    between atoms: C3_3  and  C4_4 
REMARK    3  A    between atoms: C4_4  and  O1_5 
REMARK    4  A    between atoms: C4_4  and  C5_6 
REMARK    5  A    between atoms: C5_6  and  C6_7 
REMARK    6  A    between atoms: C6_7  and  C8_9 
REMARK    7  A    between atoms: C10_11  and  O2_12 
REMARK    8  A    between atoms: C30_34  and  O6_36 
ROOT
HETATM    1  C8  UNL     1      -2.455  50.494 -22.069  1.00  0.00     0.001 C 
HETATM    2  C9  UNL     1      -1.691  51.788 -22.474  1.00  0.00     0.038 C 
HETATM    3  C10 UNL     1      -0.841  52.203 -21.257  1.00  0.00     0.131 C 
HETATM    4  C11 UNL     1      -0.757  50.919 -20.390  1.00  0.00     0.014 C 
HETATM    5  C12 UNL     1       0.335  49.980 -21.000  1.00  0.00     0.023 C 
HETATM    6  C13 UNL     1      -0.392  51.023 -18.910  1.00  0.00    -0.058 C 
HETATM    7  C14 UNL     1      -0.786  50.072 -18.022  1.00  0.00    -0.000 C 
HETATM    8  C15 UNL     1      -1.720  48.967 -18.504  1.00  0.00     0.157 C 
HETATM    9  O3  UNL     1      -2.021  48.030 -17.766  1.00  0.00    -0.293 OA
HETATM   10  C16 UNL     1      -2.302  49.004 -19.914  1.00  0.00     0.094 C 
HETATM   11  C17 UNL     1      -2.239  50.404 -20.524  1.00  0.00    -0.019 C 
HETATM   12  C18 UNL     1      -3.269  51.300 -19.776  1.00  0.00     0.017 C 
HETATM   13  C19 UNL     1      -0.336  50.056 -16.538  1.00  0.00    -0.008 C 
HETATM   14  C20 UNL     1      -1.575  50.461 -15.703  1.00  0.00     0.021 C 
HETATM   15  C21 UNL     1       0.138  48.636 -16.090  1.00  0.00     0.022 C 
HETATM   16  C22 UNL     1       1.198  48.597 -14.992  1.00  0.00     0.080 C 
HETATM   17  C23 UNL     1       1.170  49.832 -14.127  1.00  0.00     0.135 C 
HETATM   18  O4  UNL     1       1.061  49.747 -12.904  1.00  0.00    -0.297 OA
HETATM   19  C24 UNL     1       1.374  51.171 -14.844  1.00  0.00     0.018 C 
HETATM   20  C25 UNL     1       0.688  52.298 -14.050  1.00  0.00     0.023 C 
HETATM   21  C26 UNL     1       2.893  51.452 -14.822  1.00  0.00     0.023 C 
HETATM   22  C27 UNL     1       0.884  51.032 -16.327  1.00  0.00     0.014 C 
HETATM   23  C28 UNL     1       0.645  52.379 -17.018  1.00  0.00     0.011 C 
HETATM   24  C29 UNL     1       0.485  52.188 -18.521  1.00  0.00     0.036 C 
ENDROOT
BRANCH   1  25
HETATM   25  C6  UNL     1      -3.850  50.361 -22.750  1.00  0.00    -0.011 C 
HETATM   26  C7  UNL     1      -5.080  50.486 -21.844  1.00  0.00     0.010 C 
BRANCH  25  27
HETATM   27  C5  UNL     1      -3.938  49.084 -23.619  1.00  0.00     0.040 C 
BRANCH  27  28
HETATM   28  C4  UNL     1      -5.350  48.691 -24.082  1.00  0.00     0.142 C 
BRANCH  28  29
HETATM   29  C3  UNL     1      -5.488  48.557 -25.574  1.00  0.00     0.018 C 
HETATM   30  C2  UNL     1      -4.523  48.420 -26.510  1.00  0.00     0.010 C 
HETATM   31  C1  UNL     1      -3.044  48.438 -26.252  1.00  0.00     0.055 C 
BRANCH  30  32
HETATM   32  C30 UNL     1      -4.882  48.264 -27.945  1.00  0.00     0.171 C 
HETATM   33  O5  UNL     1      -4.095  48.046 -28.849  1.00  0.00    -0.646 OA
BRANCH  32  34
HETATM   34  O6  UNL     1      -6.196  48.390 -28.197  1.00  0.00    -0.773 OA
HETATM   35  H44 UNL     1      -6.251  48.260 -29.167  1.00  0.00     0.167 HD
ENDBRANCH  32  34
ENDBRANCH  30  32
ENDBRANCH  28  29
BRANCH  28  36
HETATM   36  O1  UNL     1      -5.710  47.472 -23.441  1.00  0.00    -0.392 OA
HETATM   37  H6  UNL     1      -6.592  47.226 -23.769  1.00  0.00     0.210 HD
ENDBRANCH  28  36
ENDBRANCH  27  28
ENDBRANCH  25  27
ENDBRANCH   1  25
BRANCH   3  38
HETATM   38  O2  UNL     1       0.428  52.686 -21.672  1.00  0.00    -0.394 OA
HETATM   39  H17 UNL     1       0.277  53.397 -22.317  1.00  0.00     0.210 HD
ENDBRANCH   3  38
TORSDOF 8
ENDMDL
MODEL 8
REMARK minimizedAffinity -8.04000092
REMARK CNNscore 0.460341603
REMARK CNNaffinity 6.04799414
REMARK  8 active torsions:
REMARK  status: ('A' for Active; 'I' for Inactive)
REMARK    1  A    between atoms: C2_2  and  C30_34 
REMARK    2  A    between atoms: C3_3  and  C4_4 
REMARK    3  A    between atoms: C4_4  and  O1_5 
REMARK    4  A    between atoms: C4_4  and  C5_6 
REMARK    5  A    between atoms: C5_6  and  C6_7 
REMARK    6  A    between atoms: C6_7  and  C8_9 
REMARK    7  A    between atoms: C10_11  and  O2_12 
REMARK    8  A    between atoms: C30_34  and  O6_36 
ROOT
HETATM    1  C8  UNL     1      -6.319  47.274 -18.944  1.00  0.00     0.001 C 
HETATM    2  C9  UNL     1      -6.747  46.252 -20.037  1.00  0.00     0.038 C 
HETATM    3  C10 UNL     1      -6.145  46.744 -21.368  1.00  0.00     0.131 C 
HETATM    4  C11 UNL     1      -5.020  47.725 -20.942  1.00  0.00     0.014 C 
HETATM    5  C12 UNL     1      -3.765  46.889 -20.530  1.00  0.00     0.023 C 
HETATM    6  C13 UNL     1      -4.488  48.752 -21.940  1.00  0.00    -0.058 C 
HETATM    7  C14 UNL     1      -3.917  49.911 -21.517  1.00  0.00    -0.000 C 
HETATM    8  C15 UNL     1      -3.943  50.234 -20.028  1.00  0.00     0.157 C 
HETATM    9  O3  UNL     1      -3.352  51.219 -19.586  1.00  0.00    -0.293 OA
HETATM   10  C16 UNL     1      -4.707  49.341 -19.054  1.00  0.00     0.094 C 
HETATM   11  C17 UNL     1      -5.747  48.474 -19.764  1.00  0.00    -0.019 C 
HETATM   12  C18 UNL     1      -6.898  49.405 -20.246  1.00  0.00     0.017 C 
HETATM   13  C19 UNL     1      -3.245  50.926 -22.476  1.00  0.00    -0.008 C 
HETATM   14  C20 UNL     1      -4.191  52.148 -22.552  1.00  0.00     0.021 C 
HETATM   15  C21 UNL     1      -1.852  51.394 -21.943  1.00  0.00     0.022 C 
HETATM   16  C22 UNL     1      -0.825  51.788 -23.001  1.00  0.00     0.080 C 
HETATM   17  C23 UNL     1      -1.473  52.235 -24.288  1.00  0.00     0.135 C 
HETATM   18  O4  UNL     1      -1.207  53.329 -24.784  1.00  0.00    -0.297 OA
HETATM   19  C24 UNL     1      -2.397  51.223 -24.973  1.00  0.00     0.018 C 
HETATM   20  C25 UNL     1      -3.451  51.965 -25.815  1.00  0.00     0.023 C 
HETATM   21  C26 UNL     1      -1.515  50.415 -25.950  1.00  0.00     0.023 C 
HETATM   22  C27 UNL     1      -2.994  50.265 -23.886  1.00  0.00     0.014 C 
HETATM   23  C28 UNL     1      -4.229  49.494 -24.365  1.00  0.00     0.011 C 
HETATM   24  C29 UNL     1      -4.565  48.365 -23.398  1.00  0.00     0.036 C 
ENDROOT
BRANCH   1  25
HETATM   25  C6  UNL     1      -7.368  47.435 -17.804  1.00  0.00    -0.011 C 
HETATM   26  C7  UNL     1      -7.055  46.748 -16.470  1.00  0.00     0.010 C 
BRANCH  25  27
HETATM   27  C5  UNL     1      -8.792  47.072 -18.286  1.00  0.00     0.040 C 
BRANCH  27  28
HETATM   28  C4  UNL     1      -9.867  48.146 -18.055  1.00  0.00     0.142 C 
BRANCH  28  29
HETATM   29  C3  UNL     1     -11.140  47.616 -17.454  1.00  0.00     0.018 C 
HETATM   30  C2  UNL     1     -12.353  47.461 -18.027  1.00  0.00     0.010 C 
HETATM   31  C1  UNL     1     -12.718  47.862 -19.428  1.00  0.00     0.055 C 
BRANCH  30  32
HETATM   32  C30 UNL     1     -13.483  46.876 -17.256  1.00  0.00     0.171 C 
HETATM   33  O5  UNL     1     -13.564  46.841 -16.040  1.00  0.00    -0.646 OA
BRANCH  32  34
HETATM   34  O6  UNL     1     -14.456  46.355 -18.022  1.00  0.00    -0.773 OA
HETATM   35  H44 UNL     1     -15.104  46.023 -17.366  1.00  0.00     0.167 HD
ENDBRANCH  32  34
ENDBRANCH  30  32
ENDBRANCH  28  29
BRANCH  28  36
HETATM   36  O1  UNL     1      -9.315  49.164 -17.226  1.00  0.00    -0.392 OA
HETATM   37  H6  UNL     1     -10.019  49.817 -17.068  1.00  0.00     0.210 HD
ENDBRANCH  28  36
ENDBRANCH  27  28
ENDBRANCH  25  27
ENDBRANCH   1  25
BRANCH   3  38
HETATM   38  O2  UNL     1      -5.675  45.650 -22.142  1.00  0.00    -0.394 OA
HETATM   39  H17 UNL     1      -6.411  45.022 -22.242  1.00  0.00     0.210 HD
ENDBRANCH   3  38
TORSDOF 8
ENDMDL
MODEL 9
REMARK minimizedAffinity -9.06180477
REMARK CNNscore 0.455882937
REMARK CNNaffinity 6.50242853
REMARK  8 active torsions:
REMARK  status: ('A' for Active; 'I' for Inactive)
REMARK    1  A    between atoms: C2_2  and  C30_34 
REMARK    2  A    between atoms: C3_3  and  C4_4 
REMARK    3  A    between atoms: C4_4  and  O1_5 
REMARK    4  A    between atoms: C4_4  and  C5_6 
REMARK    5  A    between atoms: C5_6  and  C6_7 
REMARK    6  A    between atoms: C6_7  and  C8_9 
REMARK    7  A    between atoms: C10_11  and  O2_12 
REMARK    8  A    between atoms: C30_34  and  O6_36 
ROOT
HETATM    1  C8  UNL     1      -3.327  50.487 -24.825  1.00  0.00     0.001 C 
HETATM    2  C9  UNL     1      -4.850  50.375 -24.526  1.00  0.00     0.038 C 
HETATM    3  C10 UNL     1      -4.997  50.257 -22.996  1.00  0.00     0.131 C 
HETATM    4  C11 UNL     1      -3.646  50.781 -22.439  1.00  0.00     0.014 C 
HETATM    5  C12 UNL     1      -3.677  52.344 -22.455  1.00  0.00     0.023 C 
HETATM    6  C13 UNL     1      -3.218  50.419 -21.018  1.00  0.00    -0.058 C 
HETATM    7  C14 UNL     1      -1.906  50.398 -20.665  1.00  0.00    -0.000 C 
HETATM    8  C15 UNL     1      -0.856  50.606 -21.750  1.00  0.00     0.157 C 
HETATM    9  O3  UNL     1       0.338  50.697 -21.464  1.00  0.00    -0.293 OA
HETATM   10  C16 UNL     1      -1.266  50.705 -23.217  1.00  0.00     0.094 C 
HETATM   11  C17 UNL     1      -2.654  50.116 -23.466  1.00  0.00    -0.019 C 
HETATM   12  C18 UNL     1      -2.554  48.570 -23.309  1.00  0.00     0.017 C 
HETATM   13  C19 UNL     1      -1.421  50.166 -19.211  1.00  0.00    -0.008 C 
HETATM   14  C20 UNL     1      -0.809  48.745 -19.175  1.00  0.00     0.021 C 
HETATM   15  C21 UNL     1      -0.327  51.201 -18.791  1.00  0.00     0.022 C 
HETATM   16  C22 UNL     1      -0.267  51.553 -17.307  1.00  0.00     0.080 C 
HETATM   17  C23 UNL     1      -0.821  50.452 -16.437  1.00  0.00     0.135 C 
HETATM   18  O4  UNL     1      -0.153  49.973 -15.522  1.00  0.00    -0.297 OA
HETATM   19  C24 UNL     1      -2.273  50.039 -16.701  1.00  0.00     0.018 C 
HETATM   20  C25 UNL     1      -2.484  48.574 -16.278  1.00  0.00     0.023 C 
HETATM   21  C26 UNL     1      -3.151  50.915 -15.780  1.00  0.00     0.023 C 
HETATM   22  C27 UNL     1      -2.620  50.337 -18.200  1.00  0.00     0.014 C 
HETATM   23  C28 UNL     1      -3.871  49.601 -18.694  1.00  0.00     0.011 C 
HETATM   24  C29 UNL     1      -4.333  50.168 -20.031  1.00  0.00     0.036 C 
ENDROOT
BRANCH   1  25
HETATM   25  C6  UNL     1      -2.916  49.853 -26.188  1.00  0.00    -0.011 C 
HETATM   26  C7  UNL     1      -3.048  50.737 -27.433  1.00  0.00     0.010 C 
BRANCH  25  27
HETATM   27  C5  UNL     1      -3.608  48.488 -26.411  1.00  0.00     0.040 C 
BRANCH  27  28
HETATM   28  C4  UNL     1      -4.268  48.293 -27.786  1.00  0.00     0.142 C 
BRANCH  28  29
HETATM   29  C3  UNL     1      -5.762  48.127 -27.726  1.00  0.00     0.018 C 
HETATM   30  C2  UNL     1      -6.599  47.608 -28.651  1.00  0.00     0.010 C 
HETATM   31  C1  UNL     1      -6.204  47.126 -30.018  1.00  0.00     0.055 C 
BRANCH  30  32
HETATM   32  C30 UNL     1      -8.056  47.500 -28.374  1.00  0.00     0.171 C 
HETATM   33  O5  UNL     1      -8.748  46.523 -28.601  1.00  0.00    -0.646 OA
BRANCH  32  34
HETATM   34  O6  UNL     1      -8.593  48.608 -27.835  1.00  0.00    -0.773 OA
HETATM   35  H44 UNL     1      -9.536  48.367 -27.719  1.00  0.00     0.167 HD
ENDBRANCH  32  34
ENDBRANCH  30  32
ENDBRANCH  28  29
BRANCH  28  36
HETATM   36  O1  UNL     1      -3.927  49.404 -28.609  1.00  0.00    -0.392 OA
HETATM   37  H6  UNL     1      -4.378  49.276 -29.462  1.00  0.00     0.210 HD
ENDBRANCH  28  36
ENDBRANCH  27  28
ENDBRANCH  25  27
ENDBRANCH   1  25
BRANCH   3  38
HETATM   38  O2  UNL     1      -6.119  50.998 -22.541  1.00  0.00    -0.394 OA
HETATM   39  H17 UNL     1      -6.895  50.696 -23.043  1.00  0.00     0.210 HD
ENDBRANCH   3  38
TORSDOF 8
ENDMDL
