MODEL 1
REMARK minimizedAffinity -8.18627071
REMARK CNNscore 0.686751306
REMARK CNNaffinity 6.77931786
REMARK  7 active torsions:
REMARK  status: ('A' for Active; 'I' for Inactive)
REMARK    1  A    between atoms: C2_2  and  C30_33 
REMARK    2  A    between atoms: C3_3  and  C4_4 
REMARK    3  A    between atoms: C4_4  and  C5_5 
REMARK    4  A    between atoms: C5_5  and  C6_6 
REMARK    5  A    between atoms: C6_6  and  C8_8 
REMARK    6  A    between atoms: C19_20  and  O2_21 
REMARK    7  A    between atoms: C30_33  and  O5_35 
ROOT
HETATM    1  C8  UNL     1      -0.773   6.838  12.553  1.00  0.00    -0.002 C 
HETATM    2  C9  UNL     1      -0.570   7.864  11.404  1.00  0.00     0.007 C 
HETATM    3  C10 UNL     1      -1.136   9.212  11.916  1.00  0.00     0.018 C 
HETATM    4  C11 UNL     1      -1.882   8.853  13.214  1.00  0.00     0.025 C 
HETATM    5  C12 UNL     1      -3.305   8.406  12.778  1.00  0.00     0.024 C 
HETATM    6  C13 UNL     1      -2.045   9.968  14.257  1.00  0.00     0.147 C 
HETATM    7  O1  UNL     1      -1.920  11.145  13.916  1.00  0.00    -0.296 OA
HETATM    8  C14 UNL     1      -2.487   9.557  15.716  1.00  0.00     0.055 C 
HETATM    9  C15 UNL     1      -1.849   8.184  16.117  1.00  0.00     0.021 C 
HETATM   10  C16 UNL     1      -1.635   7.131  15.015  1.00  0.00     0.012 C 
HETATM   11  C17 UNL     1      -0.944   7.754  13.797  1.00  0.00    -0.026 C 
HETATM   12  C18 UNL     1       0.440   8.314  14.245  1.00  0.00     0.016 C 
HETATM   13  C19 UNL     1      -4.062   9.569  15.697  1.00  0.00     0.135 C 
HETATM   14  C20 UNL     1      -4.555  10.772  16.523  1.00  0.00     0.039 C 
HETATM   15  C21 UNL     1      -3.339  11.687  16.599  1.00  0.00     0.012 C 
HETATM   16  C22 UNL     1      -3.396  12.905  17.560  1.00  0.00     0.018 C 
HETATM   17  C23 UNL     1      -4.010  14.113  16.819  1.00  0.00     0.023 C 
HETATM   18  C24 UNL     1      -4.235  12.680  18.828  1.00  0.00     0.023 C 
HETATM   19  C25 UNL     1      -1.953  13.287  17.924  1.00  0.00     0.135 C 
HETATM   20  O3  UNL     1      -1.675  13.908  18.951  1.00  0.00    -0.297 OA
HETATM   21  C26 UNL     1      -0.876  12.918  16.921  1.00  0.00     0.080 C 
HETATM   22  C27 UNL     1      -0.799  11.409  16.680  1.00  0.00     0.018 C 
HETATM   23  C28 UNL     1      -2.166  10.685  16.816  1.00  0.00    -0.022 C 
HETATM   24  C29 UNL     1      -2.192  10.082  18.256  1.00  0.00     0.017 C 
ENDROOT
BRANCH  13  25
HETATM   25  O2  UNL     1      -4.653   8.364  16.159  1.00  0.00    -0.394 OA
HETATM   26  H29 UNL     1      -4.580   8.329  17.127  1.00  0.00     0.210 HD
ENDBRANCH  13  25
BRANCH   1  27
HETATM   27  C6  UNL     1       0.215   5.636  12.605  1.00  0.00    -0.014 C 
HETATM   28  C7  UNL     1      -0.393   4.469  11.802  1.00  0.00     0.010 C 
BRANCH  27  29
HETATM   29  C5  UNL     1       1.653   5.912  12.109  1.00  0.00     0.008 C 
BRANCH  29  30
HETATM   30  C4  UNL     1       1.974   5.252  10.760  1.00  0.00     0.028 C 
BRANCH  30  31
HETATM   31  C3  UNL     1       1.975   6.260   9.641  1.00  0.00    -0.013 C 
HETATM   32  C2  UNL     1       2.940   7.142   9.310  1.00  0.00     0.008 C 
HETATM   33  C1  UNL     1       2.762   8.101   8.167  1.00  0.00     0.055 C 
BRANCH  32  34
HETATM   34  C30 UNL     1       4.246   7.176  10.013  1.00  0.00     0.171 C 
HETATM   35  O4  UNL     1       4.968   6.232  10.284  1.00  0.00    -0.646 OA
BRANCH  34  36
HETATM   36  O5  UNL     1       4.608   8.431  10.333  1.00  0.00    -0.773 OA
HETATM   37  H46 UNL     1       5.476   8.307  10.767  1.00  0.00     0.167 HD
ENDBRANCH  34  36
ENDBRANCH  32  34
ENDBRANCH  30  31
ENDBRANCH  29  30
ENDBRANCH  27  29
ENDBRANCH   1  27
TORSDOF 7
ENDMDL
MODEL 2
REMARK minimizedAffinity -8.07490444
REMARK CNNscore 0.626084507
REMARK CNNaffinity 6.8580761
REMARK  7 active torsions:
REMARK  status: ('A' for Active; 'I' for Inactive)
REMARK    1  A    between atoms: C2_2  and  C30_33 
REMARK    2  A    between atoms: C3_3  and  C4_4 
REMARK    3  A    between atoms: C4_4  and  C5_5 
REMARK    4  A    between atoms: C5_5  and  C6_6 
REMARK    5  A    between atoms: C6_6  and  C8_8 
REMARK    6  A    between atoms: C19_20  and  O2_21 
REMARK    7  A    between atoms: C30_33  and  O5_35 
ROOT
HETATM    1  C8  UNL     1      -0.157   6.627  13.171  1.00  0.00    -0.002 C 
HETATM    2  C9  UNL     1      -1.146   5.602  13.792  1.00  0.00     0.007 C 
HETATM    3  C10 UNL     1      -1.871   6.338  14.947  1.00  0.00     0.018 C 
HETATM    4  C11 UNL     1      -1.088   7.652  15.123  1.00  0.00     0.025 C 
HETATM    5  C12 UNL     1       0.101   7.316  16.065  1.00  0.00     0.024 C 
HETATM    6  C13 UNL     1      -1.844   8.839  15.735  1.00  0.00     0.147 C 
HETATM    7  O1  UNL     1      -2.876   8.640  16.377  1.00  0.00    -0.296 OA
HETATM    8  C14 UNL     1      -1.193  10.273  15.614  1.00  0.00     0.055 C 
HETATM    9  C15 UNL     1      -0.456  10.427  14.240  1.00  0.00     0.021 C 
HETATM   10  C16 UNL     1       0.218   9.183  13.633  1.00  0.00     0.012 C 
HETATM   11  C17 UNL     1      -0.741   7.988  13.642  1.00  0.00    -0.026 C 
HETATM   12  C18 UNL     1      -1.996   8.354  12.794  1.00  0.00     0.016 C 
HETATM   13  C19 UNL     1      -0.266  10.423  16.878  1.00  0.00     0.135 C 
HETATM   14  C20 UNL     1      -0.905  11.442  17.839  1.00  0.00     0.039 C 
HETATM   15  C21 UNL     1      -2.360  11.505  17.392  1.00  0.00     0.012 C 
HETATM   16  C22 UNL     1      -3.266  12.613  17.994  1.00  0.00     0.018 C 
HETATM   17  C23 UNL     1      -3.899  12.100  19.305  1.00  0.00     0.023 C 
HETATM   18  C24 UNL     1      -2.536  13.923  18.327  1.00  0.00     0.023 C 
HETATM   19  C25 UNL     1      -4.418  12.867  17.008  1.00  0.00     0.135 C 
HETATM   20  O3  UNL     1      -5.040  13.930  16.984  1.00  0.00    -0.297 OA
HETATM   21  C26 UNL     1      -4.802  11.718  16.096  1.00  0.00     0.080 C 
HETATM   22  C27 UNL     1      -3.647  11.280  15.194  1.00  0.00     0.018 C 
HETATM   23  C28 UNL     1      -2.246  11.467  15.839  1.00  0.00    -0.022 C 
HETATM   24  C29 UNL     1      -1.690  12.813  15.277  1.00  0.00     0.017 C 
ENDROOT
BRANCH  13  25
HETATM   25  O2  UNL     1       1.071  10.788  16.571  1.00  0.00    -0.394 OA
HETATM   26  H29 UNL     1       1.094  11.730  16.337  1.00  0.00     0.210 HD
ENDBRANCH  13  25
BRANCH   1  27
HETATM   27  C6  UNL     1       0.221   6.420  11.675  1.00  0.00    -0.014 C 
HETATM   28  C7  UNL     1      -0.403   5.096  11.191  1.00  0.00     0.010 C 
BRANCH  27  29
HETATM   29  C5  UNL     1      -0.170   7.562  10.708  1.00  0.00     0.008 C 
BRANCH  29  30
HETATM   30  C4  UNL     1       1.038   8.288  10.098  1.00  0.00     0.028 C 
BRANCH  30  31
HETATM   31  C3  UNL     1       1.130   8.049   8.613  1.00  0.00    -0.013 C 
HETATM   32  C2  UNL     1       1.944   7.203   7.950  1.00  0.00     0.008 C 
HETATM   33  C1  UNL     1       1.918   7.109   6.451  1.00  0.00     0.055 C 
BRANCH  32  34
HETATM   34  C30 UNL     1       2.864   6.282   8.661  1.00  0.00     0.171 C 
HETATM   35  O4  UNL     1       2.833   5.063   8.672  1.00  0.00    -0.646 OA
BRANCH  34  36
HETATM   36  O5  UNL     1       3.821   6.950   9.328  1.00  0.00    -0.773 OA
HETATM   37  H46 UNL     1       4.354   6.233   9.729  1.00  0.00     0.167 HD
ENDBRANCH  34  36
ENDBRANCH  32  34
ENDBRANCH  30  31
ENDBRANCH  29  30
ENDBRANCH  27  29
ENDBRANCH   1  27
TORSDOF 7
ENDMDL
MODEL 3
REMARK minimizedAffinity -8.32925892
REMARK CNNscore 0.574611366
REMARK CNNaffinity 6.74030876
REMARK  7 active torsions:
REMARK  status: ('A' for Active; 'I' for Inactive)
REMARK    1  A    between atoms: C2_2  and  C30_33 
REMARK    2  A    between atoms: C3_3  and  C4_4 
REMARK    3  A    between atoms: C4_4  and  C5_5 
REMARK    4  A    between atoms: C5_5  and  C6_6 
REMARK    5  A    between atoms: C6_6  and  C8_8 
REMARK    6  A    between atoms: C19_20  and  O2_21 
REMARK    7  A    between atoms: C30_33  and  O5_35 
ROOT
HETATM    1  C8  UNL     1       0.347   7.340  13.337  1.00  0.00    -0.002 C 
HETATM    2  C9  UNL     1       1.344   6.923  14.453  1.00  0.00     0.007 C 
HETATM    3  C10 UNL     1       1.178   7.957  15.596  1.00  0.00     0.018 C 
HETATM    4  C11 UNL     1       0.304   9.069  14.989  1.00  0.00     0.025 C 
HETATM    5  C12 UNL     1       1.282  10.025  14.251  1.00  0.00     0.024 C 
HETATM    6  C13 UNL     1      -0.524   9.917  15.965  1.00  0.00     0.147 C 
HETATM    7  O1  UNL     1      -0.219   9.947  17.158  1.00  0.00    -0.296 OA
HETATM    8  C14 UNL     1      -1.675  10.821  15.370  1.00  0.00     0.055 C 
HETATM    9  C15 UNL     1      -2.366  10.103  14.161  1.00  0.00     0.021 C 
HETATM   10  C16 UNL     1      -1.503   9.200  13.261  1.00  0.00     0.012 C 
HETATM   11  C17 UNL     1      -0.668   8.232  14.105  1.00  0.00    -0.026 C 
HETATM   12  C18 UNL     1      -1.635   7.343  14.943  1.00  0.00     0.016 C 
HETATM   13  C19 UNL     1      -0.990  12.194  15.014  1.00  0.00     0.135 C 
HETATM   14  C20 UNL     1      -1.477  13.260  16.012  1.00  0.00     0.039 C 
HETATM   15  C21 UNL     1      -2.023  12.447  17.179  1.00  0.00     0.012 C 
HETATM   16  C22 UNL     1      -2.816  13.192  18.286  1.00  0.00     0.018 C 
HETATM   17  C23 UNL     1      -1.835  13.706  19.362  1.00  0.00     0.023 C 
HETATM   18  C24 UNL     1      -3.618  14.406  17.790  1.00  0.00     0.023 C 
HETATM   19  C25 UNL     1      -3.741  12.173  18.971  1.00  0.00     0.135 C 
HETATM   20  O3  UNL     1      -4.762  12.511  19.572  1.00  0.00    -0.297 OA
HETATM   21  C26 UNL     1      -3.305  10.721  18.930  1.00  0.00     0.080 C 
HETATM   22  C27 UNL     1      -3.184  10.191  17.499  1.00  0.00     0.018 C 
HETATM   23  C28 UNL     1      -2.758  11.272  16.468  1.00  0.00    -0.022 C 
HETATM   24  C29 UNL     1      -4.075  11.756  15.785  1.00  0.00     0.017 C 
ENDROOT
BRANCH  13  25
HETATM   25  O2  UNL     1      -1.208  12.617  13.677  1.00  0.00    -0.394 OA
HETATM   26  H29 UNL     1      -2.117  12.952  13.598  1.00  0.00     0.210 HD
ENDBRANCH  13  25
BRANCH   1  27
HETATM   27  C6  UNL     1      -0.169   6.209  12.398  1.00  0.00    -0.014 C 
HETATM   28  C7  UNL     1      -1.541   5.733  12.916  1.00  0.00     0.010 C 
BRANCH  27  29
HETATM   29  C5  UNL     1      -0.275   6.564  10.897  1.00  0.00     0.008 C 
BRANCH  29  30
HETATM   30  C4  UNL     1       0.658   7.706  10.470  1.00  0.00     0.028 C 
BRANCH  30  31
HETATM   31  C3  UNL     1       0.867   7.714   8.978  1.00  0.00    -0.013 C 
HETATM   32  C2  UNL     1       1.886   7.182   8.272  1.00  0.00     0.008 C 
HETATM   33  C1  UNL     1       1.947   7.306   6.776  1.00  0.00     0.055 C 
BRANCH  32  34
HETATM   34  C30 UNL     1       2.965   6.399   8.922  1.00  0.00     0.171 C 
HETATM   35  O4  UNL     1       3.969   6.826   9.465  1.00  0.00    -0.646 OA
BRANCH  34  36
HETATM   36  O5  UNL     1       2.717   5.078   8.880  1.00  0.00    -0.773 OA
HETATM   37  H46 UNL     1       3.485   4.693   9.349  1.00  0.00     0.167 HD
ENDBRANCH  34  36
ENDBRANCH  32  34
ENDBRANCH  30  31
ENDBRANCH  29  30
ENDBRANCH  27  29
ENDBRANCH   1  27
TORSDOF 7
ENDMDL
MODEL 4
REMARK minimizedAffinity -7.58794737
REMARK CNNscore 0.530514598
REMARK CNNaffinity 6.31225824
REMARK  7 active torsions:
REMARK  status: ('A' for Active; 'I' for Inactive)
REMARK    1  A    between atoms: C2_2  and  C30_33 
REMARK    2  A    between atoms: C3_3  and  C4_4 
REMARK    3  A    between atoms: C4_4  and  C5_5 
REMARK    4  A    between atoms: C5_5  and  C6_6 
REMARK    5  A    between atoms: C6_6  and  C8_8 
REMARK    6  A    between atoms: C19_20  and  O2_21 
REMARK    7  A    between atoms: C30_33  and  O5_35 
ROOT
HETATM    1  C8  UNL     1      -0.228  12.065  17.678  1.00  0.00    -0.002 C 
HETATM    2  C9  UNL     1      -1.311  12.895  16.935  1.00  0.00     0.007 C 
HETATM    3  C10 UNL     1      -1.351  12.360  15.482  1.00  0.00     0.018 C 
HETATM    4  C11 UNL     1      -0.118  11.445  15.370  1.00  0.00     0.025 C 
HETATM    5  C12 UNL     1       1.072  12.377  15.008  1.00  0.00     0.024 C 
HETATM    6  C13 UNL     1      -0.169  10.328  14.318  1.00  0.00     0.147 C 
HETATM    7  O1  UNL     1      -0.975  10.402  13.389  1.00  0.00    -0.296 OA
HETATM    8  C14 UNL     1       0.908   9.177  14.406  1.00  0.00     0.055 C 
HETATM    9  C15 UNL     1       1.232   8.843  15.902  1.00  0.00     0.021 C 
HETATM   10  C16 UNL     1       1.191   9.988  16.930  1.00  0.00     0.012 C 
HETATM   11  C17 UNL     1      -0.102  10.798  16.787  1.00  0.00    -0.026 C 
HETATM   12  C18 UNL     1      -1.312   9.848  17.032  1.00  0.00     0.016 C 
HETATM   13  C19 UNL     1       2.139   9.688  13.567  1.00  0.00     0.135 C 
HETATM   14  C20 UNL     1       2.226   8.862  12.270  1.00  0.00     0.039 C 
HETATM   15  C21 UNL     1       0.838   8.249  12.132  1.00  0.00     0.012 C 
HETATM   16  C22 UNL     1       0.622   7.158  11.048  1.00  0.00     0.018 C 
HETATM   17  C23 UNL     1       0.239   7.832   9.713  1.00  0.00     0.023 C 
HETATM   18  C24 UNL     1       1.851   6.278  10.774  1.00  0.00     0.023 C 
HETATM   19  C25 UNL     1      -0.578   6.298  11.478  1.00  0.00     0.135 C 
HETATM   20  O3  UNL     1      -0.737   5.144  11.078  1.00  0.00    -0.297 OA
HETATM   21  C26 UNL     1      -1.604   6.960  12.378  1.00  0.00     0.080 C 
HETATM   22  C27 UNL     1      -1.001   7.424  13.705  1.00  0.00     0.018 C 
HETATM   23  C28 UNL     1       0.488   7.854  13.597  1.00  0.00    -0.022 C 
HETATM   24  C29 UNL     1       1.326   6.623  14.069  1.00  0.00     0.017 C 
ENDROOT
BRANCH  13  25
HETATM   25  O2  UNL     1       3.371   9.653  14.270  1.00  0.00    -0.394 OA
HETATM   26  H29 UNL     1       3.678   8.733  14.321  1.00  0.00     0.210 HD
ENDBRANCH  13  25
BRANCH   1  27
HETATM   27  C6  UNL     1      -0.391  11.917  19.220  1.00  0.00    -0.014 C 
HETATM   28  C7  UNL     1      -1.075  10.566  19.510  1.00  0.00     0.010 C 
BRANCH  27  29
HETATM   29  C5  UNL     1       0.903  12.033  20.058  1.00  0.00     0.008 C 
BRANCH  29  30
HETATM   30  C4  UNL     1       1.815  10.802  19.951  1.00  0.00     0.028 C 
BRANCH  30  31
HETATM   31  C3  UNL     1       1.784   9.984  21.216  1.00  0.00    -0.013 C 
HETATM   32  C2  UNL     1       2.813   9.644  22.019  1.00  0.00     0.008 C 
HETATM   33  C1  UNL     1       2.602   8.795  23.240  1.00  0.00     0.055 C 
BRANCH  32  34
HETATM   34  C30 UNL     1       4.191  10.136  21.777  1.00  0.00     0.171 C 
HETATM   35  O4  UNL     1       4.737  10.317  20.702  1.00  0.00    -0.646 OA
BRANCH  34  36
HETATM   36  O5  UNL     1       4.833  10.406  22.927  1.00  0.00    -0.773 OA
HETATM   37  H46 UNL     1       5.706  10.729  22.623  1.00  0.00     0.167 HD
ENDBRANCH  34  36
ENDBRANCH  32  34
ENDBRANCH  30  31
ENDBRANCH  29  30
ENDBRANCH  27  29
ENDBRANCH   1  27
TORSDOF 7
ENDMDL
MODEL 5
REMARK minimizedAffinity -7.43160057
REMARK CNNscore 0.486638099
REMARK CNNaffinity 6.5355401
REMARK  7 active torsions:
REMARK  status: ('A' for Active; 'I' for Inactive)
REMARK    1  A    between atoms: C2_2  and  C30_33 
REMARK    2  A    between atoms: C3_3  and  C4_4 
REMARK    3  A    between atoms: C4_4  and  C5_5 
REMARK    4  A    between atoms: C5_5  and  C6_6 
REMARK    5  A    between atoms: C6_6  and  C8_8 
REMARK    6  A    between atoms: C19_20  and  O2_21 
REMARK    7  A    between atoms: C30_33  and  O5_35 
ROOT
HETATM    1  C8  UNL     1      -1.153   6.802  13.467  1.00  0.00    -0.002 C 
HETATM    2  C9  UNL     1      -2.682   6.647  13.242  1.00  0.00     0.007 C 
HETATM    3  C10 UNL     1      -3.355   7.834  13.977  1.00  0.00     0.018 C 
HETATM    4  C11 UNL     1      -2.226   8.463  14.813  1.00  0.00     0.025 C 
HETATM    5  C12 UNL     1      -2.177   7.655  16.139  1.00  0.00     0.024 C 
HETATM    6  C13 UNL     1      -2.372   9.947  15.180  1.00  0.00     0.147 C 
HETATM    7  O1  UNL     1      -3.481  10.481  15.129  1.00  0.00    -0.296 OA
HETATM    8  C14 UNL     1      -1.099  10.703  15.728  1.00  0.00     0.055 C 
HETATM    9  C15 UNL     1       0.195  10.188  15.012  1.00  0.00     0.021 C 
HETATM   10  C16 UNL     1       0.256   8.708  14.594  1.00  0.00     0.012 C 
HETATM   11  C17 UNL     1      -1.017   8.304  13.844  1.00  0.00    -0.026 C 
HETATM   12  C18 UNL     1      -1.143   9.190  12.568  1.00  0.00     0.016 C 
HETATM   13  C19 UNL     1      -1.118  10.484  17.288  1.00  0.00     0.135 C 
HETATM   14  C20 UNL     1      -1.474  11.819  17.967  1.00  0.00     0.039 C 
HETATM   15  C21 UNL     1      -2.112  12.640  16.853  1.00  0.00     0.012 C 
HETATM   16  C22 UNL     1      -2.391  14.144  17.116  1.00  0.00     0.018 C 
HETATM   17  C23 UNL     1      -3.786  14.301  17.758  1.00  0.00     0.023 C 
HETATM   18  C24 UNL     1      -1.383  14.826  18.054  1.00  0.00     0.023 C 
HETATM   19  C25 UNL     1      -2.439  14.860  15.756  1.00  0.00     0.135 C 
HETATM   20  O3  UNL     1      -2.226  16.067  15.641  1.00  0.00    -0.297 OA
HETATM   21  C26 UNL     1      -2.826  14.018  14.555  1.00  0.00     0.080 C 
HETATM   22  C27 UNL     1      -1.854  12.861  14.319  1.00  0.00     0.018 C 
HETATM   23  C28 UNL     1      -1.219  12.303  15.622  1.00  0.00    -0.022 C 
HETATM   24  C29 UNL     1       0.186  12.975  15.738  1.00  0.00     0.017 C 
ENDROOT
BRANCH  13  25
HETATM   25  O2  UNL     1       0.092   9.959  17.810  1.00  0.00    -0.394 OA
HETATM   26  H29 UNL     1       0.758  10.666  17.832  1.00  0.00     0.210 HD
ENDBRANCH  13  25
BRANCH   1  27
HETATM   27  C6  UNL     1      -0.218   6.186  12.384  1.00  0.00    -0.014 C 
HETATM   28  C7  UNL     1      -1.057   5.257  11.485  1.00  0.00     0.010 C 
BRANCH  27  29
HETATM   29  C5  UNL     1       0.563   7.191  11.505  1.00  0.00     0.008 C 
BRANCH  29  30
HETATM   30  C4  UNL     1       0.312   7.013  10.001  1.00  0.00     0.028 C 
BRANCH  30  31
HETATM   31  C3  UNL     1       1.167   7.949   9.187  1.00  0.00    -0.013 C 
HETATM   32  C2  UNL     1       2.351   7.698   8.591  1.00  0.00     0.008 C 
HETATM   33  C1  UNL     1       3.084   8.767   7.832  1.00  0.00     0.055 C 
BRANCH  32  34
HETATM   34  C30 UNL     1       2.963   6.346   8.602  1.00  0.00     0.171 C 
HETATM   35  O4  UNL     1       2.749   5.428   7.831  1.00  0.00    -0.646 OA
BRANCH  34  36
HETATM   36  O5  UNL     1       3.858   6.213   9.597  1.00  0.00    -0.773 OA
HETATM   37  H46 UNL     1       4.187   5.299   9.478  1.00  0.00     0.167 HD
ENDBRANCH  34  36
ENDBRANCH  32  34
ENDBRANCH  30  31
ENDBRANCH  29  30
ENDBRANCH  27  29
ENDBRANCH   1  27
TORSDOF 7
ENDMDL
MODEL 6
REMARK minimizedAffinity -7.35403728
REMARK CNNscore 0.482733995
REMARK CNNaffinity 6.47747755
REMARK  7 active torsions:
REMARK  status: ('A' for Active; 'I' for Inactive)
REMARK    1  A    between atoms: C2_2  and  C30_33 
REMARK    2  A    between atoms: C3_3  and  C4_4 
REMARK    3  A    between atoms: C4_4  and  C5_5 
REMARK    4  A    between atoms: C5_5  and  C6_6 
REMARK    5  A    between atoms: C6_6  and  C8_8 
REMARK    6  A    between atoms: C19_20  and  O2_21 
REMARK    7  A    between atoms: C30_33  and  O5_35 
ROOT
HETATM    1  C8  UNL     1      -3.090  12.572  18.033  1.00  0.00    -0.002 C 
HETATM    2  C9  UNL     1      -1.656  12.596  18.631  1.00  0.00     0.007 C 
HETATM    3  C10 UNL     1      -0.907  11.384  18.021  1.00  0.00     0.018 C 
HETATM    4  C11 UNL     1      -2.004  10.563  17.320  1.00  0.00     0.025 C 
HETATM    5  C12 UNL     1      -2.619   9.648  18.415  1.00  0.00     0.024 C 
HETATM    6  C13 UNL     1      -1.566   9.662  16.156  1.00  0.00     0.147 C 
HETATM    7  O1  UNL     1      -0.382   9.341  16.045  1.00  0.00    -0.296 OA
HETATM    8  C14 UNL     1      -2.687   9.082  15.206  1.00  0.00     0.055 C 
HETATM    9  C15 UNL     1      -3.834  10.129  15.008  1.00  0.00     0.021 C 
HETATM   10  C16 UNL     1      -4.179  11.062  16.184  1.00  0.00     0.012 C 
HETATM   11  C17 UNL     1      -2.910  11.699  16.760  1.00  0.00    -0.026 C 
HETATM   12  C18 UNL     1      -2.218  12.528  15.636  1.00  0.00     0.016 C 
HETATM   13  C19 UNL     1      -3.140   7.727  15.869  1.00  0.00     0.135 C 
HETATM   14  C20 UNL     1      -2.631   6.561  15.002  1.00  0.00     0.039 C 
HETATM   15  C21 UNL     1      -1.525   7.186  14.160  1.00  0.00     0.012 C 
HETATM   16  C22 UNL     1      -0.930   6.352  12.993  1.00  0.00     0.018 C 
HETATM   17  C23 UNL     1       0.234   5.487  13.523  1.00  0.00     0.023 C 
HETATM   18  C24 UNL     1      -1.929   5.400  12.316  1.00  0.00     0.023 C 
HETATM   19  C25 UNL     1      -0.334   7.332  11.970  1.00  0.00     0.135 C 
HETATM   20  O3  UNL     1      -0.175   7.031  10.786  1.00  0.00    -0.297 OA
HETATM   21  C26 UNL     1       0.116   8.681  12.498  1.00  0.00     0.080 C 
HETATM   22  C27 UNL     1      -1.034   9.472  13.126  1.00  0.00     0.018 C 
HETATM   23  C28 UNL     1      -2.117   8.578  13.790  1.00  0.00    -0.022 C 
HETATM   24  C29 UNL     1      -3.267   8.446  12.742  1.00  0.00     0.017 C 
ENDROOT
BRANCH  13  25
HETATM   25  O2  UNL     1      -4.541   7.628  16.076  1.00  0.00    -0.394 OA
HETATM   26  H29 UNL     1      -4.973   7.455  15.223  1.00  0.00     0.210 HD
ENDBRANCH  13  25
BRANCH   1  27
HETATM   27  C6  UNL     1      -3.835  13.936  17.941  1.00  0.00    -0.014 C 
HETATM   28  C7  UNL     1      -3.652  14.497  16.517  1.00  0.00     0.010 C 
BRANCH  27  29
HETATM   29  C5  UNL     1      -5.338  13.918  18.302  1.00  0.00     0.008 C 
BRANCH  29  30
HETATM   30  C4  UNL     1      -5.621  13.406  19.722  1.00  0.00     0.028 C 
BRANCH  30  31
HETATM   31  C3  UNL     1      -7.089  13.488  20.053  1.00  0.00    -0.013 C 
HETATM   32  C2  UNL     1      -7.681  13.395  21.261  1.00  0.00     0.008 C 
HETATM   33  C1  UNL     1      -9.175  13.476  21.406  1.00  0.00     0.055 C 
BRANCH  32  34
HETATM   34  C30 UNL     1      -6.894  13.268  22.512  1.00  0.00     0.171 C 
HETATM   35  O4  UNL     1      -5.758  12.846  22.635  1.00  0.00    -0.646 OA
BRANCH  34  36
HETATM   36  O5  UNL     1      -7.582  13.711  23.580  1.00  0.00    -0.773 OA
HETATM   37  H46 UNL     1      -6.951  13.586  24.317  1.00  0.00     0.167 HD
ENDBRANCH  34  36
ENDBRANCH  32  34
ENDBRANCH  30  31
ENDBRANCH  29  30
ENDBRANCH  27  29
ENDBRANCH   1  27
TORSDOF 7
ENDMDL
MODEL 7
REMARK minimizedAffinity -9.2841835
REMARK CNNscore 0.436818928
REMARK CNNaffinity 6.97501183
REMARK  7 active torsions:
REMARK  status: ('A' for Active; 'I' for Inactive)
REMARK    1  A    between atoms: C2_2  and  C30_33 
REMARK    2  A    between atoms: C3_3  and  C4_4 
REMARK    3  A    between atoms: C4_4  and  C5_5 
REMARK    4  A    between atoms: C5_5  and  C6_6 
REMARK    5  A    between atoms: C6_6  and  C8_8 
REMARK    6  A    between atoms: C19_20  and  O2_21 
REMARK    7  A    between atoms: C30_33  and  O5_35 
ROOT
HETATM    1  C8  UNL     1       1.226   8.217  13.446  1.00  0.00    -0.002 C 
HETATM    2  C9  UNL     1       1.650   7.003  14.317  1.00  0.00     0.007 C 
HETATM    3  C10 UNL     1       0.361   6.484  15.002  1.00  0.00     0.018 C 
HETATM    4  C11 UNL     1      -0.693   7.570  14.720  1.00  0.00     0.025 C 
HETATM    5  C12 UNL     1      -0.515   8.636  15.837  1.00  0.00     0.024 C 
HETATM    6  C13 UNL     1      -2.165   7.134  14.727  1.00  0.00     0.147 C 
HETATM    7  O1  UNL     1      -2.487   6.084  15.284  1.00  0.00    -0.296 OA
HETATM    8  C14 UNL     1      -3.233   8.122  14.113  1.00  0.00     0.055 C 
HETATM    9  C15 UNL     1      -2.636   8.876  12.877  1.00  0.00     0.021 C 
HETATM   10  C16 UNL     1      -1.135   9.219  12.889  1.00  0.00     0.012 C 
HETATM   11  C17 UNL     1      -0.302   7.992  13.273  1.00  0.00    -0.026 C 
HETATM   12  C18 UNL     1      -0.562   6.868  12.224  1.00  0.00     0.016 C 
HETATM   13  C19 UNL     1      -3.674   9.056  15.302  1.00  0.00     0.135 C 
HETATM   14  C20 UNL     1      -5.114   8.690  15.706  1.00  0.00     0.039 C 
HETATM   15  C21 UNL     1      -5.317   7.298  15.122  1.00  0.00     0.012 C 
HETATM   16  C22 UNL     1      -6.748   6.696  15.136  1.00  0.00     0.018 C 
HETATM   17  C23 UNL     1      -6.979   5.954  16.470  1.00  0.00     0.023 C 
HETATM   18  C24 UNL     1      -7.876   7.731  14.993  1.00  0.00     0.023 C 
HETATM   19  C25 UNL     1      -6.829   5.646  14.016  1.00  0.00     0.135 C 
HETATM   20  O3  UNL     1      -7.899   5.309  13.507  1.00  0.00    -0.297 OA
HETATM   21  C26 UNL     1      -5.527   4.987  13.603  1.00  0.00     0.080 C 
HETATM   22  C27 UNL     1      -4.506   5.998  13.075  1.00  0.00     0.018 C 
HETATM   23  C28 UNL     1      -4.618   7.400  13.734  1.00  0.00    -0.022 C 
HETATM   24  C29 UNL     1      -5.449   8.276  12.743  1.00  0.00     0.017 C 
ENDROOT
BRANCH  13  25
HETATM   25  O2  UNL     1      -3.567  10.442  15.016  1.00  0.00    -0.394 OA
HETATM   26  H29 UNL     1      -4.297  10.700  14.430  1.00  0.00     0.210 HD
ENDBRANCH  13  25
BRANCH   1  27
HETATM   27  C6  UNL     1       2.110   8.534  12.204  1.00  0.00    -0.014 C 
HETATM   28  C7  UNL     1       3.132   9.620  12.596  1.00  0.00     0.010 C 
BRANCH  27  29
HETATM   29  C5  UNL     1       2.847   7.334  11.567  1.00  0.00     0.008 C 
BRANCH  29  30
HETATM   30  C4  UNL     1       3.775   7.729  10.409  1.00  0.00     0.028 C 
BRANCH  30  31
HETATM   31  C3  UNL     1       3.018   7.839   9.111  1.00  0.00    -0.013 C 
HETATM   32  C2  UNL     1       2.678   6.854   8.253  1.00  0.00     0.008 C 
HETATM   33  C1  UNL     1       1.936   7.149   6.981  1.00  0.00     0.055 C 
BRANCH  32  34
HETATM   34  C30 UNL     1       2.966   5.428   8.545  1.00  0.00     0.171 C 
HETATM   35  O4  UNL     1       2.839   4.847   9.608  1.00  0.00    -0.646 OA
BRANCH  34  36
HETATM   36  O5  UNL     1       3.390   4.772   7.450  1.00  0.00    -0.773 OA
HETATM   37  H46 UNL     1       3.524   3.859   7.777  1.00  0.00     0.167 HD
ENDBRANCH  34  36
ENDBRANCH  32  34
ENDBRANCH  30  31
ENDBRANCH  29  30
ENDBRANCH  27  29
ENDBRANCH   1  27
TORSDOF 7
ENDMDL
MODEL 8
REMARK minimizedAffinity -8.16899395
REMARK CNNscore 0.426920056
REMARK CNNaffinity 6.80916595
REMARK  7 active torsions:
REMARK  status: ('A' for Active; 'I' for Inactive)
REMARK    1  A    between atoms: C2_2  and  C30_33 
REMARK    2  A    between atoms: C3_3  and  C4_4 
REMARK    3  A    between atoms: C4_4  and  C5_5 
REMARK    4  A    between atoms: C5_5  and  C6_6 
REMARK    5  A    between atoms: C6_6  and  C8_8 
REMARK    6  A    between atoms: C19_20  and  O2_21 
REMARK    7  A    between atoms: C30_33  and  O5_35 
ROOT
HETATM    1  C8  UNL     1       0.880   7.117  12.765  1.00  0.00    -0.002 C 
HETATM    2  C9  UNL     1       1.204   5.908  13.686  1.00  0.00     0.007 C 
HETATM    3  C10 UNL     1      -0.061   5.663  14.547  1.00  0.00     0.018 C 
HETATM    4  C11 UNL     1      -0.951   6.892  14.288  1.00  0.00     0.025 C 
HETATM    5  C12 UNL     1      -0.470   7.984  15.284  1.00  0.00     0.024 C 
HETATM    6  C13 UNL     1      -2.463   6.715  14.490  1.00  0.00     0.147 C 
HETATM    7  O1  UNL     1      -2.882   5.775  15.166  1.00  0.00    -0.296 OA
HETATM    8  C14 UNL     1      -3.422   7.828  13.912  1.00  0.00     0.055 C 
HETATM    9  C15 UNL     1      -2.864   8.386  12.559  1.00  0.00     0.021 C 
HETATM   10  C16 UNL     1      -1.336   8.467  12.381  1.00  0.00     0.012 C 
HETATM   11  C17 UNL     1      -0.673   7.144  12.776  1.00  0.00    -0.026 C 
HETATM   12  C18 UNL     1      -1.236   6.015  11.861  1.00  0.00     0.016 C 
HETATM   13  C19 UNL     1      -3.561   8.900  15.058  1.00  0.00     0.135 C 
HETATM   14  C20 UNL     1      -4.982   8.814  15.643  1.00  0.00     0.039 C 
HETATM   15  C21 UNL     1      -5.476   7.441  15.206  1.00  0.00     0.012 C 
HETATM   16  C22 UNL     1      -6.974   7.095  15.423  1.00  0.00     0.018 C 
HETATM   17  C23 UNL     1      -7.160   6.493  16.833  1.00  0.00     0.023 C 
HETATM   18  C24 UNL     1      -7.928   8.295  15.315  1.00  0.00     0.023 C 
HETATM   19  C25 UNL     1      -7.357   6.002  14.413  1.00  0.00     0.135 C 
HETATM   20  O3  UNL     1      -8.521   5.819  14.052  1.00  0.00    -0.297 OA
HETATM   21  C26 UNL     1      -6.238   5.105  13.920  1.00  0.00     0.080 C 
HETATM   22  C27 UNL     1      -5.138   5.889  13.201  1.00  0.00     0.018 C 
HETATM   23  C28 UNL     1      -4.942   7.330  13.747  1.00  0.00    -0.022 C 
HETATM   24  C29 UNL     1      -5.733   8.267  12.780  1.00  0.00     0.017 C 
ENDROOT
BRANCH  13  25
HETATM   25  O2  UNL     1      -3.265  10.226  14.645  1.00  0.00    -0.394 OA
HETATM   26  H29 UNL     1      -4.009  10.565  14.120  1.00  0.00     0.210 HD
ENDBRANCH  13  25
BRANCH   1  27
HETATM   27  C6  UNL     1       1.649   7.195  11.413  1.00  0.00    -0.014 C 
HETATM   28  C7  UNL     1       1.078   8.371  10.595  1.00  0.00     0.010 C 
BRANCH  27  29
HETATM   29  C5  UNL     1       3.186   7.327  11.508  1.00  0.00     0.008 C 
BRANCH  29  30
HETATM   30  C4  UNL     1       3.871   7.505  10.145  1.00  0.00     0.028 C 
BRANCH  30  31
HETATM   31  C3  UNL     1       4.813   8.680  10.153  1.00  0.00    -0.013 C 
HETATM   32  C2  UNL     1       6.028   8.777  10.731  1.00  0.00     0.008 C 
HETATM   33  C1  UNL     1       6.828  10.046  10.659  1.00  0.00     0.055 C 
BRANCH  32  34
HETATM   34  C30 UNL     1       6.664   7.624  11.415  1.00  0.00     0.171 C 
HETATM   35  O4  UNL     1       6.760   7.433  12.615  1.00  0.00    -0.646 OA
BRANCH  34  36
HETATM   36  O5  UNL     1       7.144   6.727  10.536  1.00  0.00    -0.773 OA
HETATM   37  H46 UNL     1       7.513   6.027  11.113  1.00  0.00     0.167 HD
ENDBRANCH  34  36
ENDBRANCH  32  34
ENDBRANCH  30  31
ENDBRANCH  29  30
ENDBRANCH  27  29
ENDBRANCH   1  27
TORSDOF 7
ENDMDL
MODEL 9
REMARK minimizedAffinity -6.98795605
REMARK CNNscore 0.330918968
REMARK CNNaffinity 6.01829529
REMARK  7 active torsions:
REMARK  status: ('A' for Active; 'I' for Inactive)
REMARK    1  A    between atoms: C2_2  and  C30_33 
REMARK    2  A    between atoms: C3_3  and  C4_4 
REMARK    3  A    between atoms: C4_4  and  C5_5 
REMARK    4  A    between atoms: C5_5  and  C6_6 
REMARK    5  A    between atoms: C6_6  and  C8_8 
REMARK    6  A    between atoms: C19_20  and  O2_21 
REMARK    7  A    between atoms: C30_33  and  O5_35 
ROOT
HETATM    1  C8  UNL     1     -15.666  -5.754   9.906  1.00  0.00    -0.002 C 
HETATM    2  C9  UNL     1     -14.220  -6.110  10.349  1.00  0.00     0.007 C 
HETATM    3  C10 UNL     1     -13.821  -5.064  11.420  1.00  0.00     0.018 C 
HETATM    4  C11 UNL     1     -14.930  -3.999  11.356  1.00  0.00     0.025 C 
HETATM    5  C12 UNL     1     -14.514  -3.018  10.225  1.00  0.00     0.024 C 
HETATM    6  C13 UNL     1     -15.176  -3.168  12.623  1.00  0.00     0.147 C 
HETATM    7  O1  UNL     1     -14.302  -3.105  13.490  1.00  0.00    -0.296 OA
HETATM    8  C14 UNL     1     -16.507  -2.322  12.708  1.00  0.00     0.055 C 
HETATM    9  C15 UNL     1     -17.688  -3.089  12.023  1.00  0.00     0.021 C 
HETATM   10  C16 UNL     1     -17.372  -3.972  10.802  1.00  0.00     0.012 C 
HETATM   11  C17 UNL     1     -16.180  -4.890  11.092  1.00  0.00    -0.026 C 
HETATM   12  C18 UNL     1     -16.540  -5.802  12.303  1.00  0.00     0.016 C 
HETATM   13  C19 UNL     1     -16.163  -0.929  12.058  1.00  0.00     0.135 C 
HETATM   14  C20 UNL     1     -16.114   0.134  13.171  1.00  0.00     0.039 C 
HETATM   15  C21 UNL     1     -15.947  -0.680  14.448  1.00  0.00     0.012 C 
HETATM   16  C22 UNL     1     -16.091   0.053  15.810  1.00  0.00     0.018 C 
HETATM   17  C23 UNL     1     -14.720   0.625  16.231  1.00  0.00     0.023 C 
HETATM   18  C24 UNL     1     -17.086   1.224  15.803  1.00  0.00     0.023 C 
HETATM   19  C25 UNL     1     -16.487  -0.990  16.867  1.00  0.00     0.135 C 
HETATM   20  O3  UNL     1     -17.068  -0.683  17.909  1.00  0.00    -0.297 OA
HETATM   21  C26 UNL     1     -16.071  -2.425  16.600  1.00  0.00     0.080 C 
HETATM   22  C27 UNL     1     -16.678  -2.974  15.307  1.00  0.00     0.018 C 
HETATM   23  C28 UNL     1     -16.890  -1.896  14.210  1.00  0.00    -0.022 C 
HETATM   24  C29 UNL     1     -18.392  -1.477  14.303  1.00  0.00     0.017 C 
ENDROOT
BRANCH  13  25
HETATM   25  O2  UNL     1     -17.055  -0.539  11.026  1.00  0.00    -0.394 OA
HETATM   26  H29 UNL     1     -17.889  -0.243  11.427  1.00  0.00     0.210 HD
ENDBRANCH  13  25
BRANCH   1  27
HETATM   27  C6  UNL     1     -16.541  -6.921   9.360  1.00  0.00    -0.014 C 
HETATM   28  C7  UNL     1     -17.774  -6.320   8.657  1.00  0.00     0.010 C 
BRANCH  27  29
HETATM   29  C5  UNL     1     -15.836  -7.916   8.409  1.00  0.00     0.008 C 
BRANCH  29  30
HETATM   30  C4  UNL     1     -14.920  -7.236   7.381  1.00  0.00     0.028 C 
BRANCH  30  31
HETATM   31  C3  UNL     1     -15.500  -5.928   6.909  1.00  0.00    -0.013 C 
HETATM   32  C2  UNL     1     -14.847  -4.820   6.504  1.00  0.00     0.008 C 
HETATM   33  C1  UNL     1     -15.593  -3.584   6.084  1.00  0.00     0.055 C 
BRANCH  32  34
HETATM   34  C30 UNL     1     -13.368  -4.778   6.393  1.00  0.00     0.171 C 
HETATM   35  O4  UNL     1     -12.690  -5.026   5.412  1.00  0.00    -0.646 OA
BRANCH  34  36
HETATM   36  O5  UNL     1     -12.794  -4.394   7.547  1.00  0.00    -0.773 OA
HETATM   37  H46 UNL     1     -11.839  -4.395   7.330  1.00  0.00     0.167 HD
ENDBRANCH  34  36
ENDBRANCH  32  34
ENDBRANCH  30  31
ENDBRANCH  29  30
ENDBRANCH  27  29
ENDBRANCH   1  27
TORSDOF 7
ENDMDL
