MODEL 1
REMARK minimizedAffinity -9.03791523
REMARK  9 active torsions:
REMARK  status: ('A' for Active; 'I' for Inactive)
REMARK    1  A    between atoms: C12_14  and  C13_15 
REMARK    2  A    between atoms: C13_15  and  C15_17 
REMARK    3  A    between atoms: C15_17  and  C16_18 
REMARK    4  A    between atoms: C16_18  and  C17_19 
REMARK    5  A    between atoms: C18_20  and  C20_22 
REMARK    6  A    between atoms: C26_29  and  C27_30 
REMARK    7  A    between atoms: C27_30  and  C28_31 
REMARK    8  A    between atoms: C28_31  and  C29_32 
REMARK    9  A    between atoms: C29_32  and  O5_34 
ROOT
HETATM    1  C1  UNL     1     -10.396   6.693  14.394  1.00  0.00     0.025 C 
HETATM    2  C2  UNL     1      -9.140   6.851  14.832  1.00  0.00     0.015 C 
HETATM    3  C3  UNL     1      -8.666   8.177  15.287  1.00  0.00     0.289 C 
HETATM    4  O1  UNL     1      -9.195   9.251  15.071  1.00  0.00    -0.260 OA
HETATM    5  O2  UNL     1      -7.523   7.983  15.993  1.00  0.00    -0.311 OA
HETATM    6  C4  UNL     1      -7.299   6.577  16.175  1.00  0.00     0.142 C 
HETATM    7  C5  UNL     1      -5.807   6.298  16.211  1.00  0.00     0.039 C 
HETATM    8  C6  UNL     1      -5.133   6.710  14.895  1.00  0.00     0.006 C 
HETATM    9  C7  UNL     1      -5.710   5.883  13.723  1.00  0.00    -0.027 A 
HETATM   10  C8  UNL     1      -4.705   5.004  12.968  1.00  0.00     0.011 C 
HETATM   11  C9  UNL     1      -3.316   5.612  12.691  1.00  0.00     0.011 C 
HETATM   12  C10 UNL     1      -2.979   6.858  13.523  1.00  0.00    -0.032 C 
HETATM   13  C11 UNL     1      -3.536   8.107  12.776  1.00  0.00     0.016 C 
HETATM   14  C12 UNL     1      -1.464   7.097  13.839  1.00  0.00    -0.002 C 
HETATM   15  C21 UNL     1      -1.524   7.964  15.132  1.00  0.00     0.006 C 
HETATM   16  C22 UNL     1      -2.940   7.835  15.718  1.00  0.00     0.011 C 
HETATM   17  C23 UNL     1      -3.578   6.655  14.961  1.00  0.00    -0.032 C 
HETATM   18  C24 UNL     1      -3.092   5.360  15.688  1.00  0.00     0.016 C 
HETATM   19  C25 UNL     1      -6.790   6.514  12.863  1.00  0.00     0.022 A 
HETATM   20  C26 UNL     1      -7.206   5.437  13.838  1.00  0.00    -0.021 A 
HETATM   21  C30 UNL     1      -8.055   5.848  15.067  1.00  0.00     0.063 C 
ENDROOT
BRANCH  14  22
HETATM   22  C13 UNL     1      -0.523   7.712  12.758  1.00  0.00    -0.014 C 
HETATM   23  C14 UNL     1      -1.063   9.046  12.226  1.00  0.00     0.010 C 
BRANCH  22  24
HETATM   24  C15 UNL     1      -0.325   6.713  11.583  1.00  0.00     0.008 C 
BRANCH  24  25
HETATM   25  C16 UNL     1       1.090   6.715  10.992  1.00  0.00     0.028 C 
BRANCH  25  26
HETATM   26  C17 UNL     1       1.056   6.987   9.514  1.00  0.00    -0.017 C 
HETATM   27  C18 UNL     1       2.059   7.460   8.749  1.00  0.00    -0.028 C 
HETATM   28  C19 UNL     1       3.423   7.869   9.205  1.00  0.00     0.051 C 
BRANCH  27  29
HETATM   29  C20 UNL     1       1.801   7.630   7.286  1.00  0.00     0.265 C 
HETATM   30  O3  UNL     1       1.918   6.734   6.459  1.00  0.00    -0.302 OA
ENDBRANCH  27  29
ENDBRANCH  25  26
ENDBRANCH  24  25
ENDBRANCH  22  24
ENDBRANCH  14  22
BRANCH  20  31
HETATM   31  C27 UNL     1      -7.555   4.047  13.284  1.00  0.00     0.021 C 
BRANCH  31  32
HETATM   32  C28 UNL     1      -6.501   3.453  12.356  1.00  0.00     0.111 C 
BRANCH  32  33
HETATM   33  C29 UNL     1      -6.820   2.028  11.994  1.00  0.00     0.139 C 
HETATM   34  O4  UNL     1      -6.229   1.310  11.205  1.00  0.00    -0.650 OA
BRANCH  33  35
HETATM   35  O5  UNL     1      -7.893   1.570  12.670  1.00  0.00    -0.776 OA
HETATM   36  H41 UNL     1      -8.002   0.650  12.350  1.00  0.00     0.167 HD
ENDBRANCH  33  35
ENDBRANCH  32  33
ENDBRANCH  31  32
ENDBRANCH  20  31
TORSDOF 9
ENDMDL
MODEL 2
REMARK minimizedAffinity -8.87097073
REMARK  9 active torsions:
REMARK  status: ('A' for Active; 'I' for Inactive)
REMARK    1  A    between atoms: C12_14  and  C13_15 
REMARK    2  A    between atoms: C13_15  and  C15_17 
REMARK    3  A    between atoms: C15_17  and  C16_18 
REMARK    4  A    between atoms: C16_18  and  C17_19 
REMARK    5  A    between atoms: C18_20  and  C20_22 
REMARK    6  A    between atoms: C26_29  and  C27_30 
REMARK    7  A    between atoms: C27_30  and  C28_31 
REMARK    8  A    between atoms: C28_31  and  C29_32 
REMARK    9  A    between atoms: C29_32  and  O5_34 
ROOT
HETATM    1  C1  UNL     1       5.192   9.015   9.582  1.00  0.00     0.025 C 
HETATM    2  C2  UNL     1       4.170   8.172   9.781  1.00  0.00     0.015 C 
HETATM    3  C3  UNL     1       3.088   8.057   8.779  1.00  0.00     0.289 C 
HETATM    4  O1  UNL     1       2.846   8.838   7.878  1.00  0.00    -0.260 OA
HETATM    5  O2  UNL     1       2.404   6.914   9.044  1.00  0.00    -0.311 OA
HETATM    6  C4  UNL     1       3.078   6.175  10.073  1.00  0.00     0.142 C 
HETATM    7  C5  UNL     1       2.062   5.414  10.906  1.00  0.00     0.039 C 
HETATM    8  C6  UNL     1       1.077   6.373  11.592  1.00  0.00     0.006 C 
HETATM    9  C7  UNL     1       1.836   7.306  12.562  1.00  0.00    -0.027 A 
HETATM   10  C8  UNL     1       1.434   7.203  14.039  1.00  0.00     0.011 C 
HETATM   11  C9  UNL     1      -0.070   7.059  14.343  1.00  0.00     0.011 C 
HETATM   12  C10 UNL     1      -0.937   6.659  13.141  1.00  0.00    -0.032 C 
HETATM   13  C11 UNL     1      -1.344   7.957  12.380  1.00  0.00     0.016 C 
HETATM   14  C12 UNL     1      -2.232   5.837  13.458  1.00  0.00    -0.002 C 
HETATM   15  C21 UNL     1      -2.489   5.087  12.117  1.00  0.00     0.006 C 
HETATM   16  C22 UNL     1      -1.196   5.151  11.288  1.00  0.00     0.011 C 
HETATM   17  C23 UNL     1      -0.117   5.640  12.272  1.00  0.00    -0.032 C 
HETATM   18  C24 UNL     1       0.371   4.373  13.045  1.00  0.00     0.016 C 
HETATM   19  C25 UNL     1       2.190   8.703  12.085  1.00  0.00     0.022 A 
HETATM   20  C26 UNL     1       3.305   7.687  12.178  1.00  0.00    -0.021 A 
HETATM   21  C30 UNL     1       3.933   7.165  10.861  1.00  0.00     0.063 C 
ENDROOT
BRANCH  14  22
HETATM   22  C13 UNL     1      -3.510   6.557  13.987  1.00  0.00    -0.014 C 
HETATM   23  C14 UNL     1      -3.714   6.326  15.489  1.00  0.00     0.010 C 
BRANCH  22  24
HETATM   24  C15 UNL     1      -4.763   6.077  13.201  1.00  0.00     0.008 C 
BRANCH  24  25
HETATM   25  C16 UNL     1      -4.702   4.609  12.762  1.00  0.00     0.028 C 
BRANCH  25  26
HETATM   26  C17 UNL     1      -6.042   3.944  12.911  1.00  0.00    -0.017 C 
HETATM   27  C18 UNL     1      -6.439   2.779  12.366  1.00  0.00    -0.028 C 
HETATM   28  C19 UNL     1      -5.652   1.900  11.446  1.00  0.00     0.051 C 
BRANCH  27  29
HETATM   29  C20 UNL     1      -7.821   2.298  12.676  1.00  0.00     0.265 C 
HETATM   30  O3  UNL     1      -8.794   3.032  12.795  1.00  0.00    -0.302 OA
ENDBRANCH  27  29
ENDBRANCH  25  26
ENDBRANCH  24  25
ENDBRANCH  22  24
ENDBRANCH  14  22
BRANCH  20  31
HETATM   31  C27 UNL     1       4.310   7.811  13.333  1.00  0.00     0.021 C 
BRANCH  31  32
HETATM   32  C28 UNL     1       5.646   8.436  12.947  1.00  0.00     0.111 C 
BRANCH  32  33
HETATM   33  C29 UNL     1       6.800   7.529  13.279  1.00  0.00     0.139 C 
HETATM   34  O4  UNL     1       7.938   7.586  12.848  1.00  0.00    -0.650 OA
BRANCH  33  35
HETATM   35  O5  UNL     1       6.447   6.577  14.166  1.00  0.00    -0.776 OA
HETATM   36  H41 UNL     1       7.267   6.055  14.296  1.00  0.00     0.167 HD
ENDBRANCH  33  35
ENDBRANCH  32  33
ENDBRANCH  31  32
ENDBRANCH  20  31
TORSDOF 9
ENDMDL
MODEL 3
REMARK minimizedAffinity -8.83023262
REMARK  9 active torsions:
REMARK  status: ('A' for Active; 'I' for Inactive)
REMARK    1  A    between atoms: C12_14  and  C13_15 
REMARK    2  A    between atoms: C13_15  and  C15_17 
REMARK    3  A    between atoms: C15_17  and  C16_18 
REMARK    4  A    between atoms: C16_18  and  C17_19 
REMARK    5  A    between atoms: C18_20  and  C20_22 
REMARK    6  A    between atoms: C26_29  and  C27_30 
REMARK    7  A    between atoms: C27_30  and  C28_31 
REMARK    8  A    between atoms: C28_31  and  C29_32 
REMARK    9  A    between atoms: C29_32  and  O5_34 
ROOT
HETATM    1  C1  UNL     1       4.622   7.823   9.923  1.00  0.00     0.025 C 
HETATM    2  C2  UNL     1       3.477   7.252  10.320  1.00  0.00     0.015 C 
HETATM    3  C3  UNL     1       2.434   6.901   9.332  1.00  0.00     0.289 C 
HETATM    4  O1  UNL     1       2.350   7.307   8.187  1.00  0.00    -0.260 OA
HETATM    5  O2  UNL     1       1.574   6.038   9.932  1.00  0.00    -0.311 OA
HETATM    6  C4  UNL     1       2.085   5.666  11.221  1.00  0.00     0.142 C 
HETATM    7  C5  UNL     1       0.931   5.409  12.173  1.00  0.00     0.039 C 
HETATM    8  C6  UNL     1       0.074   6.670  12.360  1.00  0.00     0.006 C 
HETATM    9  C7  UNL     1       0.923   7.799  12.986  1.00  0.00    -0.027 A 
HETATM   10  C8  UNL     1       0.448   8.313  14.351  1.00  0.00     0.011 C 
HETATM   11  C9  UNL     1      -1.073   8.482  14.541  1.00  0.00     0.011 C 
HETATM   12  C10 UNL     1      -1.938   7.767  13.494  1.00  0.00    -0.032 C 
HETATM   13  C11 UNL     1      -2.112   8.721  12.273  1.00  0.00     0.016 C 
HETATM   14  C12 UNL     1      -3.354   7.294  13.966  1.00  0.00    -0.002 C 
HETATM   15  C21 UNL     1      -3.665   6.130  12.977  1.00  0.00     0.006 C 
HETATM   16  C22 UNL     1      -2.342   5.715  12.311  1.00  0.00     0.011 C 
HETATM   17  C23 UNL     1      -1.244   6.403  13.144  1.00  0.00    -0.032 C 
HETATM   18  C24 UNL     1      -0.987   5.472  14.373  1.00  0.00     0.016 C 
HETATM   19  C25 UNL     1       1.504   8.856  12.065  1.00  0.00     0.022 A 
HETATM   20  C26 UNL     1       2.448   7.822  12.632  1.00  0.00    -0.021 A 
HETATM   21  C30 UNL     1       3.045   6.766  11.667  1.00  0.00     0.063 C 
ENDROOT
BRANCH  14  22
HETATM   22  C13 UNL     1      -4.531   8.313  14.066  1.00  0.00    -0.014 C 
HETATM   23  C14 UNL     1      -4.585   8.985  15.444  1.00  0.00     0.010 C 
BRANCH  22  24
HETATM   24  C15 UNL     1      -5.883   7.606  13.766  1.00  0.00     0.008 C 
BRANCH  24  25
HETATM   25  C16 UNL     1      -6.146   6.365  14.628  1.00  0.00     0.028 C 
BRANCH  25  26
HETATM   26  C17 UNL     1      -7.235   5.516  14.034  1.00  0.00    -0.017 C 
HETATM   27  C18 UNL     1      -7.087   4.387  13.315  1.00  0.00    -0.028 C 
HETATM   28  C19 UNL     1      -5.802   3.745  12.901  1.00  0.00     0.051 C 
BRANCH  27  29
HETATM   29  C20 UNL     1      -8.325   3.693  12.844  1.00  0.00     0.265 C 
HETATM   30  O3  UNL     1      -8.436   2.477  12.745  1.00  0.00    -0.302 OA
ENDBRANCH  27  29
ENDBRANCH  25  26
ENDBRANCH  24  25
ENDBRANCH  22  24
ENDBRANCH  14  22
BRANCH  20  31
HETATM   31  C27 UNL     1       3.410   8.248  13.751  1.00  0.00     0.021 C 
BRANCH  31  32
HETATM   32  C28 UNL     1       4.882   7.989  13.453  1.00  0.00     0.111 C 
BRANCH  32  33
HETATM   33  C29 UNL     1       5.642   7.607  14.695  1.00  0.00     0.139 C 
HETATM   34  O4  UNL     1       5.601   8.147  15.787  1.00  0.00    -0.650 OA
BRANCH  33  35
HETATM   35  O5  UNL     1       6.429   6.533  14.487  1.00  0.00    -0.776 OA
HETATM   36  H41 UNL     1       6.869   6.388  15.352  1.00  0.00     0.167 HD
ENDBRANCH  33  35
ENDBRANCH  32  33
ENDBRANCH  31  32
ENDBRANCH  20  31
TORSDOF 9
ENDMDL
MODEL 4
REMARK minimizedAffinity -8.36169338
REMARK  9 active torsions:
REMARK  status: ('A' for Active; 'I' for Inactive)
REMARK    1  A    between atoms: C12_14  and  C13_15 
REMARK    2  A    between atoms: C13_15  and  C15_17 
REMARK    3  A    between atoms: C15_17  and  C16_18 
REMARK    4  A    between atoms: C16_18  and  C17_19 
REMARK    5  A    between atoms: C18_20  and  C20_22 
REMARK    6  A    between atoms: C26_29  and  C27_30 
REMARK    7  A    between atoms: C27_30  and  C28_31 
REMARK    8  A    between atoms: C28_31  and  C29_32 
REMARK    9  A    between atoms: C29_32  and  O5_34 
ROOT
HETATM    1  C1  UNL     1       2.632   5.444  10.319  1.00  0.00     0.025 C 
HETATM    2  C2  UNL     1       1.831   6.419  10.769  1.00  0.00     0.015 C 
HETATM    3  C3  UNL     1       2.325   7.811  10.863  1.00  0.00     0.289 C 
HETATM    4  O1  UNL     1       3.487   8.173  10.833  1.00  0.00    -0.260 OA
HETATM    5  O2  UNL     1       1.244   8.622  10.993  1.00  0.00    -0.311 OA
HETATM    6  C4  UNL     1       0.042   7.856  10.822  1.00  0.00     0.142 C 
HETATM    7  C5  UNL     1      -1.065   8.445  11.679  1.00  0.00     0.039 C 
HETATM    8  C6  UNL     1      -0.695   8.405  13.169  1.00  0.00     0.006 C 
HETATM    9  C7  UNL     1      -0.510   6.941  13.629  1.00  0.00    -0.027 A 
HETATM   10  C8  UNL     1      -1.462   6.462  14.732  1.00  0.00     0.011 C 
HETATM   11  C9  UNL     1      -1.761   7.453  15.874  1.00  0.00     0.011 C 
HETATM   12  C10 UNL     1      -1.380   8.912  15.580  1.00  0.00    -0.032 C 
HETATM   13  C11 UNL     1       0.117   9.110  15.968  1.00  0.00     0.016 C 
HETATM   14  C12 UNL     1      -2.233  10.013  16.294  1.00  0.00    -0.002 C 
HETATM   15  C21 UNL     1      -2.051  11.241  15.352  1.00  0.00     0.006 C 
HETATM   16  C22 UNL     1      -1.509  10.725  14.009  1.00  0.00     0.011 C 
HETATM   17  C23 UNL     1      -1.690   9.197  14.067  1.00  0.00    -0.032 C 
HETATM   18  C24 UNL     1      -3.169   8.920  13.645  1.00  0.00     0.016 C 
HETATM   19  C25 UNL     1       0.901   6.387  13.709  1.00  0.00     0.022 A 
HETATM   20  C26 UNL     1       0.028   5.925  12.566  1.00  0.00    -0.021 A 
HETATM   21  C30 UNL     1       0.381   6.400  11.134  1.00  0.00     0.063 C 
ENDROOT
BRANCH  14  22
HETATM   22  C13 UNL     1      -1.964  10.370  17.788  1.00  0.00    -0.014 C 
HETATM   23  C14 UNL     1      -3.268  10.519  18.582  1.00  0.00     0.010 C 
BRANCH  22  24
HETATM   24  C15 UNL     1      -1.129  11.678  17.888  1.00  0.00     0.008 C 
BRANCH  24  25
HETATM   25  C16 UNL     1      -0.752  12.072  19.322  1.00  0.00     0.028 C 
BRANCH  25  26
HETATM   26  C17 UNL     1       0.198  11.074  19.924  1.00  0.00    -0.017 C 
HETATM   27  C18 UNL     1       1.335  11.335  20.597  1.00  0.00    -0.028 C 
HETATM   28  C19 UNL     1       1.938  12.678  20.859  1.00  0.00     0.051 C 
BRANCH  27  29
HETATM   29  C20 UNL     1       2.112  10.174  21.130  1.00  0.00     0.265 C 
HETATM   30  O3  UNL     1       2.898   9.510  20.466  1.00  0.00    -0.302 OA
ENDBRANCH  27  29
ENDBRANCH  25  26
ENDBRANCH  24  25
ENDBRANCH  22  24
ENDBRANCH  14  22
BRANCH  20  31
HETATM   31  C27 UNL     1      -0.550   4.503  12.619  1.00  0.00     0.021 C 
BRANCH  31  32
HETATM   32  C28 UNL     1      -1.382   4.112  11.402  1.00  0.00     0.111 C 
BRANCH  32  33
HETATM   33  C29 UNL     1      -1.033   2.733  10.909  1.00  0.00     0.139 C 
HETATM   34  O4  UNL     1      -0.076   2.049  11.230  1.00  0.00    -0.650 OA
BRANCH  33  35
HETATM   35  O5  UNL     1      -1.936   2.279  10.018  1.00  0.00    -0.776 OA
HETATM   36  H41 UNL     1      -1.602   1.391   9.771  1.00  0.00     0.167 HD
ENDBRANCH  33  35
ENDBRANCH  32  33
ENDBRANCH  31  32
ENDBRANCH  20  31
TORSDOF 9
ENDMDL
MODEL 5
REMARK minimizedAffinity -8.29284096
REMARK  9 active torsions:
REMARK  status: ('A' for Active; 'I' for Inactive)
REMARK    1  A    between atoms: C12_14  and  C13_15 
REMARK    2  A    between atoms: C13_15  and  C15_17 
REMARK    3  A    between atoms: C15_17  and  C16_18 
REMARK    4  A    between atoms: C16_18  and  C17_19 
REMARK    5  A    between atoms: C18_20  and  C20_22 
REMARK    6  A    between atoms: C26_29  and  C27_30 
REMARK    7  A    between atoms: C27_30  and  C28_31 
REMARK    8  A    between atoms: C28_31  and  C29_32 
REMARK    9  A    between atoms: C29_32  and  O5_34 
ROOT
HETATM    1  C1  UNL     1      -6.057   7.090  15.614  1.00  0.00     0.025 C 
HETATM    2  C2  UNL     1      -4.758   7.352  15.424  1.00  0.00     0.015 C 
HETATM    3  C3  UNL     1      -4.257   8.743  15.487  1.00  0.00     0.289 C 
HETATM    4  O1  UNL     1      -4.924   9.759  15.428  1.00  0.00    -0.260 OA
HETATM    5  O2  UNL     1      -2.907   8.686  15.621  1.00  0.00    -0.311 OA
HETATM    6  C4  UNL     1      -2.497   7.325  15.818  1.00  0.00     0.142 C 
HETATM    7  C5  UNL     1      -1.123   7.112  15.209  1.00  0.00     0.039 C 
HETATM    8  C6  UNL     1      -1.139   7.378  13.696  1.00  0.00     0.006 C 
HETATM    9  C7  UNL     1      -2.094   6.386  12.995  1.00  0.00    -0.027 A 
HETATM   10  C8  UNL     1      -1.449   5.457  11.958  1.00  0.00     0.011 C 
HETATM   11  C9  UNL     1      -0.387   6.079  11.030  1.00  0.00     0.011 C 
HETATM   12  C10 UNL     1       0.166   7.434  11.497  1.00  0.00    -0.032 C 
HETATM   13  C11 UNL     1      -0.777   8.554  10.962  1.00  0.00     0.016 C 
HETATM   14  C12 UNL     1       1.635   7.770  11.075  1.00  0.00    -0.002 C 
HETATM   15  C21 UNL     1       2.071   8.793  12.166  1.00  0.00     0.006 C 
HETATM   16  C22 UNL     1       1.078   8.685  13.335  1.00  0.00     0.011 C 
HETATM   17  C23 UNL     1       0.284   7.394  13.062  1.00  0.00    -0.032 C 
HETATM   18  C24 UNL     1       1.157   6.223  13.617  1.00  0.00     0.016 C 
HETATM   19  C25 UNL     1      -3.496   6.858  12.654  1.00  0.00     0.022 A 
HETATM   20  C26 UNL     1      -3.338   5.899  13.811  1.00  0.00    -0.021 A 
HETATM   21  C30 UNL     1      -3.593   6.431  15.244  1.00  0.00     0.063 C 
ENDROOT
BRANCH  14  22
HETATM   22  C13 UNL     1       1.942   8.279   9.633  1.00  0.00    -0.014 C 
HETATM   23  C14 UNL     1       0.687   8.284   8.751  1.00  0.00     0.010 C 
BRANCH  22  24
HETATM   24  C15 UNL     1       3.048   7.404   8.977  1.00  0.00     0.008 C 
BRANCH  24  25
HETATM   25  C16 UNL     1       3.882   6.596   9.979  1.00  0.00     0.028 C 
BRANCH  25  26
HETATM   26  C17 UNL     1       4.934   7.455  10.623  1.00  0.00    -0.017 C 
HETATM   27  C18 UNL     1       6.151   7.070  11.051  1.00  0.00    -0.028 C 
HETATM   28  C19 UNL     1       6.719   5.687  11.026  1.00  0.00     0.051 C 
BRANCH  27  29
HETATM   29  C20 UNL     1       7.046   8.113  11.642  1.00  0.00     0.265 C 
HETATM   30  O3  UNL     1       7.269   9.201  11.125  1.00  0.00    -0.302 OA
ENDBRANCH  27  29
ENDBRANCH  25  26
ENDBRANCH  24  25
ENDBRANCH  22  24
ENDBRANCH  14  22
BRANCH  20  31
HETATM   31  C27 UNL     1      -3.766   4.438  13.610  1.00  0.00     0.021 C 
BRANCH  31  32
HETATM   32  C28 UNL     1      -5.070   4.260  12.841  1.00  0.00     0.111 C 
BRANCH  32  33
HETATM   33  C29 UNL     1      -4.932   3.241  11.742  1.00  0.00     0.139 C 
HETATM   34  O4  UNL     1      -5.461   2.145  11.673  1.00  0.00    -0.650 OA
BRANCH  33  35
HETATM   35  O5  UNL     1      -4.116   3.674  10.760  1.00  0.00    -0.776 OA
HETATM   36  H41 UNL     1      -4.101   2.934  10.117  1.00  0.00     0.167 HD
ENDBRANCH  33  35
ENDBRANCH  32  33
ENDBRANCH  31  32
ENDBRANCH  20  31
TORSDOF 9
ENDMDL
MODEL 6
REMARK minimizedAffinity -7.99616623
REMARK  9 active torsions:
REMARK  status: ('A' for Active; 'I' for Inactive)
REMARK    1  A    between atoms: C12_14  and  C13_15 
REMARK    2  A    between atoms: C13_15  and  C15_17 
REMARK    3  A    between atoms: C15_17  and  C16_18 
REMARK    4  A    between atoms: C16_18  and  C17_19 
REMARK    5  A    between atoms: C18_20  and  C20_22 
REMARK    6  A    between atoms: C26_29  and  C27_30 
REMARK    7  A    between atoms: C27_30  and  C28_31 
REMARK    8  A    between atoms: C28_31  and  C29_32 
REMARK    9  A    between atoms: C29_32  and  O5_34 
ROOT
HETATM    1  C1  UNL     1       4.666   8.951   9.521  1.00  0.00     0.025 C 
HETATM    2  C2  UNL     1       3.711   8.025   9.679  1.00  0.00     0.015 C 
HETATM    3  C3  UNL     1       2.653   7.858   8.658  1.00  0.00     0.289 C 
HETATM    4  O1  UNL     1       2.361   8.647   7.778  1.00  0.00    -0.260 OA
HETATM    5  O2  UNL     1       2.057   6.658   8.877  1.00  0.00    -0.311 OA
HETATM    6  C4  UNL     1       2.775   5.941   9.892  1.00  0.00     0.142 C 
HETATM    7  C5  UNL     1       1.811   5.077  10.685  1.00  0.00     0.039 C 
HETATM    8  C6  UNL     1       0.746   5.933  11.386  1.00  0.00     0.006 C 
HETATM    9  C7  UNL     1       1.418   6.890  12.397  1.00  0.00    -0.027 A 
HETATM   10  C8  UNL     1       1.007   6.709  13.864  1.00  0.00     0.011 C 
HETATM   11  C9  UNL     1      -0.485   6.438  14.141  1.00  0.00     0.011 C 
HETATM   12  C10 UNL     1      -1.304   6.010  12.914  1.00  0.00    -0.032 C 
HETATM   13  C11 UNL     1      -1.801   7.297  12.188  1.00  0.00     0.016 C 
HETATM   14  C12 UNL     1      -2.534   5.081  13.186  1.00  0.00    -0.002 C 
HETATM   15  C21 UNL     1      -2.715   4.356  11.819  1.00  0.00     0.006 C 
HETATM   16  C22 UNL     1      -1.421   4.548  11.011  1.00  0.00     0.011 C 
HETATM   17  C23 UNL     1      -0.395   5.088  12.026  1.00  0.00    -0.032 C 
HETATM   18  C24 UNL     1       0.180   3.837  12.766  1.00  0.00     0.016 C 
HETATM   19  C25 UNL     1       1.667   8.325  11.969  1.00  0.00     0.022 A 
HETATM   20  C26 UNL     1       2.857   7.397  12.046  1.00  0.00    -0.021 A 
HETATM   21  C30 UNL     1       3.539   6.968  10.723  1.00  0.00     0.063 C 
ENDROOT
BRANCH  14  22
HETATM   22  C13 UNL     1      -3.871   5.681  13.718  1.00  0.00    -0.014 C 
HETATM   23  C14 UNL     1      -3.805   5.976  15.222  1.00  0.00     0.010 C 
BRANCH  22  24
HETATM   24  C15 UNL     1      -5.053   4.717  13.417  1.00  0.00     0.008 C 
BRANCH  24  25
HETATM   25  C16 UNL     1      -6.374   5.427  13.096  1.00  0.00     0.028 C 
BRANCH  25  26
HETATM   26  C17 UNL     1      -6.403   6.807  13.691  1.00  0.00    -0.017 C 
HETATM   27  C18 UNL     1      -7.198   7.250  14.684  1.00  0.00    -0.028 C 
HETATM   28  C19 UNL     1      -8.268   6.481  15.392  1.00  0.00     0.051 C 
BRANCH  27  29
HETATM   29  C20 UNL     1      -7.031   8.667  15.132  1.00  0.00     0.265 C 
HETATM   30  O3  UNL     1      -5.947   9.211  15.302  1.00  0.00    -0.302 OA
ENDBRANCH  27  29
ENDBRANCH  25  26
ENDBRANCH  24  25
ENDBRANCH  22  24
ENDBRANCH  14  22
BRANCH  20  31
HETATM   31  C27 UNL     1       3.834   7.561  13.220  1.00  0.00     0.021 C 
BRANCH  31  32
HETATM   32  C28 UNL     1       5.191   8.141  12.837  1.00  0.00     0.111 C 
BRANCH  32  33
HETATM   33  C29 UNL     1       6.309   7.176  13.123  1.00  0.00     0.139 C 
HETATM   34  O4  UNL     1       7.309   7.371  13.793  1.00  0.00    -0.650 OA
BRANCH  33  35
HETATM   35  O5  UNL     1       6.097   5.980  12.537  1.00  0.00    -0.776 OA
HETATM   36  H41 UNL     1       6.883   5.449  12.787  1.00  0.00     0.167 HD
ENDBRANCH  33  35
ENDBRANCH  32  33
ENDBRANCH  31  32
ENDBRANCH  20  31
TORSDOF 9
ENDMDL
MODEL 7
REMARK minimizedAffinity -7.93554354
REMARK  9 active torsions:
REMARK  status: ('A' for Active; 'I' for Inactive)
REMARK    1  A    between atoms: C12_14  and  C13_15 
REMARK    2  A    between atoms: C13_15  and  C15_17 
REMARK    3  A    between atoms: C15_17  and  C16_18 
REMARK    4  A    between atoms: C16_18  and  C17_19 
REMARK    5  A    between atoms: C18_20  and  C20_22 
REMARK    6  A    between atoms: C26_29  and  C27_30 
REMARK    7  A    between atoms: C27_30  and  C28_31 
REMARK    8  A    between atoms: C28_31  and  C29_32 
REMARK    9  A    between atoms: C29_32  and  O5_34 
ROOT
HETATM    1  C1  UNL     1       3.508   7.696  10.606  1.00  0.00     0.025 C 
HETATM    2  C2  UNL     1       2.329   7.146  10.921  1.00  0.00     0.015 C 
HETATM    3  C3  UNL     1       1.269   7.007   9.898  1.00  0.00     0.289 C 
HETATM    4  O1  UNL     1       1.215   7.579   8.825  1.00  0.00    -0.260 OA
HETATM    5  O2  UNL     1       0.356   6.121  10.372  1.00  0.00    -0.311 OA
HETATM    6  C4  UNL     1       0.838   5.534  11.590  1.00  0.00     0.142 C 
HETATM    7  C5  UNL     1      -0.333   5.213  12.501  1.00  0.00     0.039 C 
HETATM    8  C6  UNL     1      -1.111   6.484  12.873  1.00  0.00     0.006 C 
HETATM    9  C7  UNL     1      -0.196   7.456  13.653  1.00  0.00    -0.027 A 
HETATM   10  C8  UNL     1      -0.643   7.795  15.080  1.00  0.00     0.011 C 
HETATM   11  C9  UNL     1      -2.151   8.028  15.301  1.00  0.00     0.011 C 
HETATM   12  C10 UNL     1      -3.056   7.527  14.166  1.00  0.00    -0.032 C 
HETATM   13  C11 UNL     1      -3.165   8.657  13.097  1.00  0.00     0.016 C 
HETATM   14  C12 UNL     1      -4.500   7.079  14.571  1.00  0.00    -0.002 C 
HETATM   15  C21 UNL     1      -4.878   6.092  13.426  1.00  0.00     0.006 C 
HETATM   16  C22 UNL     1      -3.581   5.698  12.700  1.00  0.00     0.011 C 
HETATM   17  C23 UNL     1      -2.446   6.188  13.618  1.00  0.00    -0.032 C 
HETATM   18  C24 UNL     1      -2.252   5.074  14.697  1.00  0.00     0.016 C 
HETATM   19  C25 UNL     1       0.452   8.598  12.891  1.00  0.00     0.022 A 
HETATM   20  C26 UNL     1       1.329   7.436  13.297  1.00  0.00    -0.021 A 
HETATM   21  C30 UNL     1       1.863   6.497  12.186  1.00  0.00     0.063 C 
ENDROOT
BRANCH  14  22
HETATM   22  C13 UNL     1      -5.612   8.143  14.825  1.00  0.00    -0.014 C 
HETATM   23  C14 UNL     1      -5.028   9.466  15.336  1.00  0.00     0.010 C 
BRANCH  22  24
HETATM   24  C15 UNL     1      -6.658   7.597  15.837  1.00  0.00     0.008 C 
BRANCH  24  25
HETATM   25  C16 UNL     1      -7.418   6.359  15.346  1.00  0.00     0.028 C 
BRANCH  25  26
HETATM   26  C17 UNL     1      -8.782   6.731  14.834  1.00  0.00    -0.017 C 
HETATM   27  C18 UNL     1      -9.318   6.414  13.640  1.00  0.00    -0.028 C 
HETATM   28  C19 UNL     1      -8.661   5.658  12.529  1.00  0.00     0.051 C 
BRANCH  27  29
HETATM   29  C20 UNL     1     -10.712   6.875  13.356  1.00  0.00     0.265 C 
HETATM   30  O3  UNL     1     -11.023   7.579  12.403  1.00  0.00    -0.302 OA
ENDBRANCH  27  29
ENDBRANCH  25  26
ENDBRANCH  24  25
ENDBRANCH  22  24
ENDBRANCH  14  22
BRANCH  20  31
HETATM   31  C27 UNL     1       2.311   7.634  14.461  1.00  0.00     0.021 C 
BRANCH  31  32
HETATM   32  C28 UNL     1       2.732   9.081  14.694  1.00  0.00     0.111 C 
BRANCH  32  33
HETATM   33  C29 UNL     1       3.047   9.342  16.142  1.00  0.00     0.139 C 
HETATM   34  O4  UNL     1       3.909  10.074  16.595  1.00  0.00    -0.650 OA
BRANCH  33  35
HETATM   35  O5  UNL     1       2.232   8.649  16.962  1.00  0.00    -0.776 OA
HETATM   36  H41 UNL     1       2.534   8.894  17.862  1.00  0.00     0.167 HD
ENDBRANCH  33  35
ENDBRANCH  32  33
ENDBRANCH  31  32
ENDBRANCH  20  31
TORSDOF 9
ENDMDL
MODEL 8
REMARK minimizedAffinity -7.85712624
REMARK  9 active torsions:
REMARK  status: ('A' for Active; 'I' for Inactive)
REMARK    1  A    between atoms: C12_14  and  C13_15 
REMARK    2  A    between atoms: C13_15  and  C15_17 
REMARK    3  A    between atoms: C15_17  and  C16_18 
REMARK    4  A    between atoms: C16_18  and  C17_19 
REMARK    5  A    between atoms: C18_20  and  C20_22 
REMARK    6  A    between atoms: C26_29  and  C27_30 
REMARK    7  A    between atoms: C27_30  and  C28_31 
REMARK    8  A    between atoms: C28_31  and  C29_32 
REMARK    9  A    between atoms: C29_32  and  O5_34 
ROOT
HETATM    1  C1  UNL     1      -6.816   8.230  14.920  1.00  0.00     0.025 C 
HETATM    2  C2  UNL     1      -5.505   8.010  15.088  1.00  0.00     0.015 C 
HETATM    3  C3  UNL     1      -4.609   9.110  15.508  1.00  0.00     0.289 C 
HETATM    4  O1  UNL     1      -4.855  10.301  15.475  1.00  0.00    -0.260 OA
HETATM    5  O2  UNL     1      -3.450   8.551  15.941  1.00  0.00    -0.311 OA
HETATM    6  C4  UNL     1      -3.589   7.124  15.987  1.00  0.00     0.142 C 
HETATM    7  C5  UNL     1      -2.252   6.470  15.687  1.00  0.00     0.039 C 
HETATM    8  C6  UNL     1      -1.754   6.843  14.284  1.00  0.00     0.006 C 
HETATM    9  C7  UNL     1      -2.748   6.331  13.216  1.00  0.00    -0.027 A 
HETATM   10  C8  UNL     1      -2.185   5.317  12.212  1.00  0.00     0.011 C 
HETATM   11  C9  UNL     1      -0.761   5.577  11.682  1.00  0.00     0.011 C 
HETATM   12  C10 UNL     1       0.056   6.592  12.494  1.00  0.00    -0.032 C 
HETATM   13  C11 UNL     1      -0.270   8.019  11.959  1.00  0.00     0.016 C 
HETATM   14  C12 UNL     1       1.610   6.398  12.492  1.00  0.00    -0.002 C 
HETATM   15  C21 UNL     1       2.037   7.098  13.817  1.00  0.00     0.006 C 
HETATM   16  C22 UNL     1       0.778   7.269  14.684  1.00  0.00     0.011 C 
HETATM   17  C23 UNL     1      -0.290   6.386  14.012  1.00  0.00    -0.032 C 
HETATM   18  C24 UNL     1      -0.049   4.936  14.541  1.00  0.00     0.016 C 
HETATM   19  C25 UNL     1      -3.756   7.311  12.646  1.00  0.00     0.022 A 
HETATM   20  C26 UNL     1      -4.259   6.272  13.622  1.00  0.00    -0.021 A 
HETATM   21  C30 UNL     1      -4.713   6.744  15.026  1.00  0.00     0.063 C 
ENDROOT
BRANCH  14  22
HETATM   22  C13 UNL     1       2.459   6.872  11.273  1.00  0.00    -0.014 C 
HETATM   23  C14 UNL     1       3.928   7.096  11.655  1.00  0.00     0.010 C 
BRANCH  22  24
HETATM   24  C15 UNL     1       1.861   8.176  10.673  1.00  0.00     0.008 C 
BRANCH  24  25
HETATM   25  C16 UNL     1       1.915   8.242   9.142  1.00  0.00     0.028 C 
BRANCH  25  26
HETATM   26  C17 UNL     1       2.446   6.960   8.565  1.00  0.00    -0.017 C 
HETATM   27  C18 UNL     1       2.316   6.520   7.298  1.00  0.00    -0.028 C 
HETATM   28  C19 UNL     1       1.570   7.186   6.186  1.00  0.00     0.051 C 
BRANCH  27  29
HETATM   29  C20 UNL     1       2.954   5.216   6.943  1.00  0.00     0.265 C 
HETATM   30  O3  UNL     1       3.471   4.459   7.755  1.00  0.00    -0.302 OA
ENDBRANCH  27  29
ENDBRANCH  25  26
ENDBRANCH  24  25
ENDBRANCH  22  24
ENDBRANCH  14  22
BRANCH  20  31
HETATM   31  C27 UNL     1      -5.073   5.091  13.074  1.00  0.00     0.021 C 
BRANCH  31  32
HETATM   32  C28 UNL     1      -6.452   4.928  13.703  1.00  0.00     0.111 C 
BRANCH  32  33
HETATM   33  C29 UNL     1      -7.284   3.915  12.962  1.00  0.00     0.139 C 
HETATM   34  O4  UNL     1      -8.444   3.606  13.176  1.00  0.00    -0.650 OA
BRANCH  33  35
HETATM   35  O5  UNL     1      -6.590   3.336  11.962  1.00  0.00    -0.776 OA
HETATM   36  H41 UNL     1      -7.226   2.703  11.566  1.00  0.00     0.167 HD
ENDBRANCH  33  35
ENDBRANCH  32  33
ENDBRANCH  31  32
ENDBRANCH  20  31
TORSDOF 9
ENDMDL
MODEL 9
REMARK minimizedAffinity -7.82358074
REMARK  9 active torsions:
REMARK  status: ('A' for Active; 'I' for Inactive)
REMARK    1  A    between atoms: C12_14  and  C13_15 
REMARK    2  A    between atoms: C13_15  and  C15_17 
REMARK    3  A    between atoms: C15_17  and  C16_18 
REMARK    4  A    between atoms: C16_18  and  C17_19 
REMARK    5  A    between atoms: C18_20  and  C20_22 
REMARK    6  A    between atoms: C26_29  and  C27_30 
REMARK    7  A    between atoms: C27_30  and  C28_31 
REMARK    8  A    between atoms: C28_31  and  C29_32 
REMARK    9  A    between atoms: C29_32  and  O5_34 
ROOT
HETATM    1  C1  UNL     1       0.130   5.047  11.346  1.00  0.00     0.025 C 
HETATM    2  C2  UNL     1      -0.080   6.285  11.811  1.00  0.00     0.015 C 
HETATM    3  C3  UNL     1       0.981   7.312  11.716  1.00  0.00     0.289 C 
HETATM    4  O1  UNL     1       2.163   7.118  11.500  1.00  0.00    -0.260 OA
HETATM    5  O2  UNL     1       0.399   8.522  11.916  1.00  0.00    -0.311 OA
HETATM    6  C4  UNL     1      -1.026   8.370  11.975  1.00  0.00     0.142 C 
HETATM    7  C5  UNL     1      -1.613   9.408  12.915  1.00  0.00     0.039 C 
HETATM    8  C6  UNL     1      -1.068   9.236  14.340  1.00  0.00     0.006 C 
HETATM    9  C7  UNL     1      -1.473   7.852  14.899  1.00  0.00    -0.027 A 
HETATM   10  C8  UNL     1      -2.352   7.870  16.156  1.00  0.00     0.011 C 
HETATM   11  C9  UNL     1      -2.002   8.913  17.236  1.00  0.00     0.011 C 
HETATM   12  C10 UNL     1      -1.072  10.042  16.768  1.00  0.00    -0.032 C 
HETATM   13  C11 UNL     1       0.401   9.560  16.934  1.00  0.00     0.016 C 
HETATM   14  C12 UNL     1      -1.232  11.422  17.489  1.00  0.00    -0.002 C 
HETATM   15  C21 UNL     1      -0.683  12.421  16.428  1.00  0.00     0.006 C 
HETATM   16  C22 UNL     1      -0.640  11.691  15.075  1.00  0.00     0.011 C 
HETATM   17  C23 UNL     1      -1.461  10.406  15.290  1.00  0.00    -0.032 C 
HETATM   18  C24 UNL     1      -2.958  10.810  15.094  1.00  0.00     0.016 C 
HETATM   19  C25 UNL     1      -0.454   6.729  14.840  1.00  0.00     0.022 A 
HETATM   20  C26 UNL     1      -1.610   6.683  13.867  1.00  0.00    -0.021 A 
HETATM   21  C30 UNL     1      -1.315   6.922  12.365  1.00  0.00     0.063 C 
ENDROOT
BRANCH  14  22
HETATM   22  C13 UNL     1      -0.602  11.651  18.898  1.00  0.00    -0.014 C 
HETATM   23  C14 UNL     1      -0.727  13.112  19.347  1.00  0.00     0.010 C 
BRANCH  22  24
HETATM   24  C15 UNL     1       0.892  11.221  18.896  1.00  0.00     0.008 C 
BRANCH  24  25
HETATM   25  C16 UNL     1       1.636  11.539  20.198  1.00  0.00     0.028 C 
BRANCH  25  26
HETATM   26  C17 UNL     1       1.668  10.342  21.108  1.00  0.00    -0.017 C 
HETATM   27  C18 UNL     1       2.756   9.747  21.633  1.00  0.00    -0.028 C 
HETATM   28  C19 UNL     1       4.187  10.112  21.394  1.00  0.00     0.051 C 
BRANCH  27  29
HETATM   29  C20 UNL     1       2.542   8.576  22.539  1.00  0.00     0.265 C 
HETATM   30  O3  UNL     1       1.768   7.657  22.302  1.00  0.00    -0.302 OA
ENDBRANCH  27  29
ENDBRANCH  25  26
ENDBRANCH  24  25
ENDBRANCH  22  24
ENDBRANCH  14  22
BRANCH  20  31
HETATM   31  C27 UNL     1      -2.736   5.669  14.121  1.00  0.00     0.021 C 
BRANCH  31  32
HETATM   32  C28 UNL     1      -3.830   5.660  13.059  1.00  0.00     0.111 C 
BRANCH  32  33
HETATM   33  C29 UNL     1      -4.167   4.261  12.620  1.00  0.00     0.139 C 
HETATM   34  O4  UNL     1      -5.266   3.811  12.347  1.00  0.00    -0.650 OA
BRANCH  33  35
HETATM   35  O5  UNL     1      -3.068   3.485  12.541  1.00  0.00    -0.776 OA
HETATM   36  H41 UNL     1      -3.411   2.612  12.256  1.00  0.00     0.167 HD
ENDBRANCH  33  35
ENDBRANCH  32  33
ENDBRANCH  31  32
ENDBRANCH  20  31
TORSDOF 9
ENDMDL
