MODEL 1
REMARK minimizedAffinity -9.13072681
REMARK  7 active torsions:
REMARK  status: ('A' for Active; 'I' for Inactive)
REMARK    1  A    between atoms: C4_4  and  C5_5 
REMARK    2  A    between atoms: C5_5  and  O1_6 
REMARK    3  A    between atoms: C5_5  and  C6_7 
REMARK    4  A    between atoms: C6_7  and  C7_8 
REMARK    5  A    between atoms: C7_8  and  C8_9 
REMARK    6  A    between atoms: C7_8  and  C9_11 
REMARK    7  A    between atoms: C8_9  and  O2_10 
ROOT
HETATM    1  C9  UNL     1      -3.461   7.593  14.527  1.00  0.00     0.001 C 
HETATM    2  C10 UNL     1      -4.187   8.472  13.462  1.00  0.00     0.007 C 
HETATM    3  C11 UNL     1      -3.152   8.877  12.402  1.00  0.00     0.015 C 
HETATM    4  C12 UNL     1      -1.790   8.498  13.013  1.00  0.00    -0.013 C 
HETATM    5  C13 UNL     1      -1.380   9.694  13.923  1.00  0.00     0.021 C 
HETATM    6  C14 UNL     1      -0.638   8.239  12.058  1.00  0.00    -0.070 C 
HETATM    7  C15 UNL     1      -0.614   8.639  10.777  1.00  0.00    -0.022 C 
HETATM    8  C16 UNL     1       0.502   8.239   9.868  1.00  0.00     0.034 C 
HETATM    9  C17 UNL     1       1.899   8.329  10.529  1.00  0.00     0.013 C 
HETATM   10  C18 UNL     1       3.012   7.666   9.646  1.00  0.00     0.018 C 
HETATM   11  C19 UNL     1       3.179   8.468   8.329  1.00  0.00     0.023 C 
HETATM   12  C20 UNL     1       2.728   6.206   9.249  1.00  0.00     0.023 C 
HETATM   13  C21 UNL     1       4.341   7.729  10.405  1.00  0.00     0.135 C 
HETATM   14  O3  UNL     1       5.381   8.143   9.882  1.00  0.00    -0.297 OA
HETATM   15  C22 UNL     1       4.384   7.231  11.829  1.00  0.00     0.080 C 
HETATM   16  C23 UNL     1       3.018   6.907  12.408  1.00  0.00     0.017 C 
HETATM   17  C24 UNL     1       1.916   7.947  12.077  1.00  0.00    -0.031 C 
HETATM   18  C25 UNL     1       2.263   9.254  12.855  1.00  0.00     0.016 C 
HETATM   19  C26 UNL     1       0.517   7.379  12.558  1.00  0.00     0.024 C 
HETATM   20  C27 UNL     1       0.439   7.063  14.076  1.00  0.00     0.010 C 
HETATM   21  C28 UNL     1      -0.957   6.741  14.652  1.00  0.00     0.011 C 
HETATM   22  C29 UNL     1      -2.152   7.169  13.774  1.00  0.00    -0.029 C 
HETATM   23  C30 UNL     1      -2.490   5.980  12.819  1.00  0.00     0.016 C 
ENDROOT
BRANCH   1  24
HETATM   24  C7  UNL     1      -4.418   6.512  15.140  1.00  0.00     0.017 C 
BRANCH  24  25
HETATM   25  C6  UNL     1      -4.431   5.252  14.213  1.00  0.00     0.043 C 
BRANCH  25  26
HETATM   26  C5  UNL     1      -5.737   4.807  13.529  1.00  0.00     0.141 C 
BRANCH  26  27
HETATM   27  C4  UNL     1      -5.577   3.660  12.567  1.00  0.00     0.006 C 
HETATM   28  C2  UNL     1      -6.489   2.705  12.284  1.00  0.00    -0.089 C 
HETATM   29  C1  UNL     1      -7.853   2.609  12.910  1.00  0.00     0.042 C 
HETATM   30  C3  UNL     1      -6.190   1.627  11.277  1.00  0.00     0.042 C 
ENDBRANCH  26  27
BRANCH  26  31
HETATM   31  O1  UNL     1      -6.372   5.894  12.869  1.00  0.00    -0.392 OA
HETATM   32  H9  UNL     1      -5.762   6.173  12.154  1.00  0.00     0.210 HD
ENDBRANCH  26  31
ENDBRANCH  25  26
ENDBRANCH  24  25
BRANCH  24  33
HETATM   33  C8  UNL     1      -5.829   7.060  15.384  1.00  0.00     0.169 C 
BRANCH  33  34
HETATM   34  O2  UNL     1      -6.419   6.410  16.508  1.00  0.00    -0.400 OA
HETATM   35  H15 UNL     1      -7.242   6.893  16.710  1.00  0.00     0.209 HD
ENDBRANCH  33  34
ENDBRANCH  24  33
ENDBRANCH   1  24
TORSDOF 7
ENDMDL
MODEL 2
REMARK minimizedAffinity -8.98049831
REMARK  7 active torsions:
REMARK  status: ('A' for Active; 'I' for Inactive)
REMARK    1  A    between atoms: C4_4  and  C5_5 
REMARK    2  A    between atoms: C5_5  and  O1_6 
REMARK    3  A    between atoms: C5_5  and  C6_7 
REMARK    4  A    between atoms: C6_7  and  C7_8 
REMARK    5  A    between atoms: C7_8  and  C8_9 
REMARK    6  A    between atoms: C7_8  and  C9_11 
REMARK    7  A    between atoms: C8_9  and  O2_10 
ROOT
HETATM    1  C9  UNL     1       0.908   6.577  12.398  1.00  0.00     0.001 C 
HETATM    2  C10 UNL     1       1.138   5.041  12.544  1.00  0.00     0.007 C 
HETATM    3  C11 UNL     1      -0.200   4.401  12.945  1.00  0.00     0.015 C 
HETATM    4  C12 UNL     1      -1.107   5.587  13.327  1.00  0.00    -0.013 C 
HETATM    5  C13 UNL     1      -0.777   5.916  14.814  1.00  0.00     0.021 C 
HETATM    6  C14 UNL     1      -2.609   5.384  13.230  1.00  0.00    -0.070 C 
HETATM    7  C15 UNL     1      -3.207   4.183  13.173  1.00  0.00    -0.022 C 
HETATM    8  C16 UNL     1      -4.680   4.069  12.955  1.00  0.00     0.034 C 
HETATM    9  C17 UNL     1      -5.507   5.090  13.774  1.00  0.00     0.013 C 
HETATM   10  C18 UNL     1      -7.012   5.117  13.335  1.00  0.00     0.018 C 
HETATM   11  C19 UNL     1      -7.677   3.757  13.669  1.00  0.00     0.023 C 
HETATM   12  C20 UNL     1      -7.235   5.368  11.832  1.00  0.00     0.023 C 
HETATM   13  C21 UNL     1      -7.737   6.203  14.136  1.00  0.00     0.135 C 
HETATM   14  O3  UNL     1      -8.805   5.992  14.719  1.00  0.00    -0.297 OA
HETATM   15  C22 UNL     1      -7.139   7.589  14.179  1.00  0.00     0.080 C 
HETATM   16  C23 UNL     1      -5.752   7.679  13.568  1.00  0.00     0.017 C 
HETATM   17  C24 UNL     1      -4.805   6.511  13.948  1.00  0.00    -0.031 C 
HETATM   18  C25 UNL     1      -4.469   6.660  15.464  1.00  0.00     0.016 C 
HETATM   19  C26 UNL     1      -3.482   6.624  13.081  1.00  0.00     0.024 C 
HETATM   20  C27 UNL     1      -2.703   7.953  13.267  1.00  0.00     0.010 C 
HETATM   21  C28 UNL     1      -1.292   8.029  12.645  1.00  0.00     0.011 C 
HETATM   22  C29 UNL     1      -0.653   6.672  12.282  1.00  0.00    -0.029 C 
HETATM   23  C30 UNL     1      -1.065   6.331  10.815  1.00  0.00     0.016 C 
ENDROOT
BRANCH   1  24
HETATM   24  C7  UNL     1       1.832   7.201  11.296  1.00  0.00     0.017 C 
BRANCH  24  25
HETATM   25  C6  UNL     1       2.981   6.195  10.958  1.00  0.00     0.043 C 
BRANCH  25  26
HETATM   26  C5  UNL     1       3.511   6.082   9.516  1.00  0.00     0.141 C 
BRANCH  26  27
HETATM   27  C4  UNL     1       2.472   6.316   8.451  1.00  0.00     0.006 C 
HETATM   28  C2  UNL     1       2.301   7.436   7.716  1.00  0.00    -0.089 C 
HETATM   29  C1  UNL     1       3.129   8.684   7.850  1.00  0.00     0.042 C 
HETATM   30  C3  UNL     1       1.226   7.513   6.666  1.00  0.00     0.042 C 
ENDBRANCH  26  27
BRANCH  26  31
HETATM   31  O1  UNL     1       4.144   4.829   9.294  1.00  0.00    -0.392 OA
HETATM   32  H9  UNL     1       3.444   4.149   9.390  1.00  0.00     0.210 HD
ENDBRANCH  26  31
ENDBRANCH  25  26
ENDBRANCH  24  25
BRANCH  24  33
HETATM   33  C8  UNL     1       2.375   8.576  11.706  1.00  0.00     0.169 C 
BRANCH  33  34
HETATM   34  O2  UNL     1       1.319   9.387  12.217  1.00  0.00    -0.400 OA
HETATM   35  H15 UNL     1       1.736  10.182  12.597  1.00  0.00     0.209 HD
ENDBRANCH  33  34
ENDBRANCH  24  33
ENDBRANCH   1  24
TORSDOF 7
ENDMDL
MODEL 3
REMARK minimizedAffinity -8.96614265
REMARK  7 active torsions:
REMARK  status: ('A' for Active; 'I' for Inactive)
REMARK    1  A    between atoms: C4_4  and  C5_5 
REMARK    2  A    between atoms: C5_5  and  O1_6 
REMARK    3  A    between atoms: C5_5  and  C6_7 
REMARK    4  A    between atoms: C6_7  and  C7_8 
REMARK    5  A    between atoms: C7_8  and  C8_9 
REMARK    6  A    between atoms: C7_8  and  C9_11 
REMARK    7  A    between atoms: C8_9  and  O2_10 
ROOT
HETATM    1  C9  UNL     1      -3.760   5.290  12.477  1.00  0.00     0.001 C 
HETATM    2  C10 UNL     1      -2.409   4.638  12.904  1.00  0.00     0.007 C 
HETATM    3  C11 UNL     1      -1.711   5.597  13.880  1.00  0.00     0.015 C 
HETATM    4  C12 UNL     1      -2.502   6.915  13.773  1.00  0.00    -0.013 C 
HETATM    5  C13 UNL     1      -1.908   7.673  12.547  1.00  0.00     0.021 C 
HETATM    6  C14 UNL     1      -2.454   7.863  14.958  1.00  0.00    -0.070 C 
HETATM    7  C15 UNL     1      -1.528   7.813  15.929  1.00  0.00    -0.022 C 
HETATM    8  C16 UNL     1      -1.621   8.702  17.125  1.00  0.00     0.034 C 
HETATM    9  C17 UNL     1      -2.024  10.158  16.783  1.00  0.00     0.013 C 
HETATM   10  C18 UNL     1      -2.360  10.992  18.067  1.00  0.00     0.018 C 
HETATM   11  C19 UNL     1      -1.082  11.160  18.930  1.00  0.00     0.023 C 
HETATM   12  C20 UNL     1      -3.434  10.365  18.974  1.00  0.00     0.023 C 
HETATM   13  C21 UNL     1      -2.822  12.388  17.636  1.00  0.00     0.135 C 
HETATM   14  O3  UNL     1      -2.360  13.420  18.134  1.00  0.00    -0.297 OA
HETATM   15  C22 UNL     1      -3.908  12.500  16.593  1.00  0.00     0.080 C 
HETATM   16  C23 UNL     1      -4.272  11.177  15.943  1.00  0.00     0.017 C 
HETATM   17  C24 UNL     1      -3.059  10.284  15.577  1.00  0.00    -0.031 C 
HETATM   18  C25 UNL     1      -2.300  10.986  14.410  1.00  0.00     0.016 C 
HETATM   19  C26 UNL     1      -3.592   8.866  15.108  1.00  0.00     0.024 C 
HETATM   20  C27 UNL     1      -4.542   8.910  13.882  1.00  0.00     0.010 C 
HETATM   21  C28 UNL     1      -4.900   7.558  13.227  1.00  0.00     0.011 C 
HETATM   22  C29 UNL     1      -3.969   6.380  13.585  1.00  0.00    -0.029 C 
HETATM   23  C30 UNL     1      -4.546   5.689  14.860  1.00  0.00     0.016 C 
ENDROOT
BRANCH   1  24
HETATM   24  C7  UNL     1      -4.863   4.211  12.196  1.00  0.00     0.017 C 
BRANCH  24  25
HETATM   25  C6  UNL     1      -5.969   4.309  13.298  1.00  0.00     0.043 C 
BRANCH  25  26
HETATM   26  C5  UNL     1      -7.449   4.456  12.898  1.00  0.00     0.141 C 
BRANCH  26  27
HETATM   27  C4  UNL     1      -8.076   5.765  13.301  1.00  0.00     0.006 C 
HETATM   28  C2  UNL     1      -8.246   6.230  14.557  1.00  0.00    -0.089 C 
HETATM   29  C1  UNL     1      -7.845   5.494  15.806  1.00  0.00     0.042 C 
HETATM   30  C3  UNL     1      -8.874   7.575  14.804  1.00  0.00     0.042 C 
ENDBRANCH  26  27
BRANCH  26  31
HETATM   31  O1  UNL     1      -8.231   3.382  13.401  1.00  0.00    -0.392 OA
HETATM   32  H9  UNL     1      -8.196   3.453  14.378  1.00  0.00     0.210 HD
ENDBRANCH  26  31
ENDBRANCH  25  26
ENDBRANCH  24  25
BRANCH  24  33
HETATM   33  C8  UNL     1      -4.278   2.797  12.093  1.00  0.00     0.169 C 
BRANCH  33  34
HETATM   34  O2  UNL     1      -4.833   2.118  10.969  1.00  0.00    -0.400 OA
HETATM   35  H15 UNL     1      -4.325   1.293  10.862  1.00  0.00     0.209 HD
ENDBRANCH  33  34
ENDBRANCH  24  33
ENDBRANCH   1  24
TORSDOF 7
ENDMDL
MODEL 4
REMARK minimizedAffinity -8.81800747
REMARK  7 active torsions:
REMARK  status: ('A' for Active; 'I' for Inactive)
REMARK    1  A    between atoms: C4_4  and  C5_5 
REMARK    2  A    between atoms: C5_5  and  O1_6 
REMARK    3  A    between atoms: C5_5  and  C6_7 
REMARK    4  A    between atoms: C6_7  and  C7_8 
REMARK    5  A    between atoms: C7_8  and  C8_9 
REMARK    6  A    between atoms: C7_8  and  C9_11 
REMARK    7  A    between atoms: C8_9  and  O2_10 
ROOT
HETATM    1  C9  UNL     1      -0.825   5.879  11.963  1.00  0.00     0.001 C 
HETATM    2  C10 UNL     1       0.677   5.860  12.384  1.00  0.00     0.007 C 
HETATM    3  C11 UNL     1       0.879   6.945  13.453  1.00  0.00     0.015 C 
HETATM    4  C12 UNL     1      -0.415   7.780  13.420  1.00  0.00    -0.013 C 
HETATM    5  C13 UNL     1      -0.224   8.821  12.276  1.00  0.00     0.021 C 
HETATM    6  C14 UNL     1      -0.788   8.550  14.675  1.00  0.00    -0.070 C 
HETATM    7  C15 UNL     1       0.067   8.835  15.669  1.00  0.00    -0.022 C 
HETATM    8  C16 UNL     1      -0.407   9.488  16.926  1.00  0.00     0.034 C 
HETATM    9  C17 UNL     1      -1.415  10.637  16.682  1.00  0.00     0.013 C 
HETATM   10  C18 UNL     1      -2.082  11.127  18.014  1.00  0.00     0.018 C 
HETATM   11  C19 UNL     1      -1.008  11.772  18.929  1.00  0.00     0.023 C 
HETATM   12  C20 UNL     1      -2.762  10.017  18.835  1.00  0.00     0.023 C 
HETATM   13  C21 UNL     1      -3.118  12.204  17.675  1.00  0.00     0.135 C 
HETATM   14  O3  UNL     1      -3.160  13.289  18.266  1.00  0.00    -0.297 OA
HETATM   15  C22 UNL     1      -4.144  11.910  16.608  1.00  0.00     0.080 C 
HETATM   16  C23 UNL     1      -3.886  10.621  15.847  1.00  0.00     0.017 C 
HETATM   17  C24 UNL     1      -2.403  10.391  15.456  1.00  0.00    -0.031 C 
HETATM   18  C25 UNL     1      -2.040  11.451  14.371  1.00  0.00     0.016 C 
HETATM   19  C26 UNL     1      -2.253   8.928  14.863  1.00  0.00     0.024 C 
HETATM   20  C27 UNL     1      -3.128   8.648  13.613  1.00  0.00     0.010 C 
HETATM   21  C28 UNL     1      -2.852   7.337  12.845  1.00  0.00     0.011 C 
HETATM   22  C29 UNL     1      -1.493   6.669  13.143  1.00  0.00    -0.029 C 
HETATM   23  C30 UNL     1      -1.698   5.690  14.343  1.00  0.00     0.016 C 
ENDROOT
BRANCH   1  24
HETATM   24  C7  UNL     1      -1.336   4.451  11.565  1.00  0.00     0.017 C 
BRANCH  24  25
HETATM   25  C6  UNL     1      -2.711   4.184  12.261  1.00  0.00     0.043 C 
BRANCH  25  26
HETATM   26  C5  UNL     1      -3.798   3.365  11.539  1.00  0.00     0.141 C 
BRANCH  26  27
HETATM   27  C4  UNL     1      -5.148   3.398  12.206  1.00  0.00     0.006 C 
HETATM   28  C2  UNL     1      -6.164   2.528  12.023  1.00  0.00    -0.089 C 
HETATM   29  C1  UNL     1      -6.130   1.354  11.083  1.00  0.00     0.042 C 
HETATM   30  C3  UNL     1      -7.455   2.679  12.782  1.00  0.00     0.042 C 
ENDBRANCH  26  27
BRANCH  26  31
HETATM   31  O1  UNL     1      -3.392   2.016  11.355  1.00  0.00    -0.392 OA
HETATM   32  H9  UNL     1      -3.303   1.633  12.254  1.00  0.00     0.210 HD
ENDBRANCH  26  31
ENDBRANCH  25  26
ENDBRANCH  24  25
BRANCH  24  33
HETATM   33  C8  UNL     1      -0.308   3.359  11.886  1.00  0.00     0.169 C 
BRANCH  33  34
HETATM   34  O2  UNL     1      -0.452   2.270  10.976  1.00  0.00    -0.400 OA
HETATM   35  H15 UNL     1       0.310   1.680  11.125  1.00  0.00     0.209 HD
ENDBRANCH  33  34
ENDBRANCH  24  33
ENDBRANCH   1  24
TORSDOF 7
ENDMDL
MODEL 5
REMARK minimizedAffinity -8.76633167
REMARK  7 active torsions:
REMARK  status: ('A' for Active; 'I' for Inactive)
REMARK    1  A    between atoms: C4_4  and  C5_5 
REMARK    2  A    between atoms: C5_5  and  O1_6 
REMARK    3  A    between atoms: C5_5  and  C6_7 
REMARK    4  A    between atoms: C6_7  and  C7_8 
REMARK    5  A    between atoms: C7_8  and  C8_9 
REMARK    6  A    between atoms: C7_8  and  C9_11 
REMARK    7  A    between atoms: C8_9  and  O2_10 
ROOT
HETATM    1  C9  UNL     1      -5.371   7.562  15.304  1.00  0.00     0.001 C 
HETATM    2  C10 UNL     1      -4.992   9.022  15.700  1.00  0.00     0.007 C 
HETATM    3  C11 UNL     1      -3.576   9.300  15.171  1.00  0.00     0.015 C 
HETATM    4  C12 UNL     1      -3.032   7.921  14.752  1.00  0.00    -0.013 C 
HETATM    5  C13 UNL     1      -2.460   7.273  16.048  1.00  0.00     0.021 C 
HETATM    6  C14 UNL     1      -1.933   7.886  13.705  1.00  0.00    -0.070 C 
HETATM    7  C15 UNL     1      -1.172   8.941  13.373  1.00  0.00    -0.022 C 
HETATM    8  C16 UNL     1      -0.195   8.860  12.247  1.00  0.00     0.034 C 
HETATM    9  C17 UNL     1       0.608   7.536  12.220  1.00  0.00     0.013 C 
HETATM   10  C18 UNL     1       1.431   7.373  10.896  1.00  0.00     0.018 C 
HETATM   11  C19 UNL     1       2.528   8.466  10.825  1.00  0.00     0.023 C 
HETATM   12  C20 UNL     1       0.597   7.490   9.607  1.00  0.00     0.023 C 
HETATM   13  C21 UNL     1       2.128   6.008  10.918  1.00  0.00     0.135 C 
HETATM   14  O3  UNL     1       3.330   5.877  10.665  1.00  0.00    -0.297 OA
HETATM   15  C22 UNL     1       1.304   4.781  11.222  1.00  0.00     0.080 C 
HETATM   16  C23 UNL     1      -0.112   5.089  11.676  1.00  0.00     0.017 C 
HETATM   17  C24 UNL     1      -0.223   6.258  12.688  1.00  0.00    -0.031 C 
HETATM   18  C25 UNL     1       0.416   5.776  14.027  1.00  0.00     0.016 C 
HETATM   19  C26 UNL     1      -1.756   6.600  12.906  1.00  0.00     0.024 C 
HETATM   20  C27 UNL     1      -2.608   5.419  13.442  1.00  0.00     0.010 C 
HETATM   21  C28 UNL     1      -4.044   5.747  13.905  1.00  0.00     0.011 C 
HETATM   22  C29 UNL     1      -4.329   7.239  14.177  1.00  0.00    -0.029 C 
HETATM   23  C30 UNL     1      -4.826   7.879  12.842  1.00  0.00     0.016 C 
ENDROOT
BRANCH   1  24
HETATM   24  C7  UNL     1      -6.909   7.412  15.038  1.00  0.00     0.017 C 
BRANCH  24  25
HETATM   25  C6  UNL     1      -7.128   6.769  13.629  1.00  0.00     0.043 C 
BRANCH  25  26
HETATM   26  C5  UNL     1      -7.514   5.283  13.509  1.00  0.00     0.141 C 
BRANCH  26  27
HETATM   27  C4  UNL     1      -6.697   4.507  12.509  1.00  0.00     0.006 C 
HETATM   28  C2  UNL     1      -6.688   3.168  12.333  1.00  0.00    -0.089 C 
HETATM   29  C1  UNL     1      -7.502   2.192  13.137  1.00  0.00     0.042 C 
HETATM   30  C3  UNL     1      -5.829   2.535  11.272  1.00  0.00     0.042 C 
ENDBRANCH  26  27
BRANCH  26  31
HETATM   31  O1  UNL     1      -8.895   5.129  13.213  1.00  0.00    -0.392 OA
HETATM   32  H9  UNL     1      -9.030   5.527  12.327  1.00  0.00     0.210 HD
ENDBRANCH  26  31
ENDBRANCH  25  26
ENDBRANCH  24  25
BRANCH  24  33
HETATM   33  C8  UNL     1      -7.654   8.745  15.182  1.00  0.00     0.169 C 
BRANCH  33  34
HETATM   34  O2  UNL     1      -8.923   8.533  15.796  1.00  0.00    -0.400 OA
HETATM   35  H15 UNL     1      -9.287   9.415  15.999  1.00  0.00     0.209 HD
ENDBRANCH  33  34
ENDBRANCH  24  33
ENDBRANCH   1  24
TORSDOF 7
ENDMDL
MODEL 6
REMARK minimizedAffinity -8.60467529
REMARK  7 active torsions:
REMARK  status: ('A' for Active; 'I' for Inactive)
REMARK    1  A    between atoms: C4_4  and  C5_5 
REMARK    2  A    between atoms: C5_5  and  O1_6 
REMARK    3  A    between atoms: C5_5  and  C6_7 
REMARK    4  A    between atoms: C6_7  and  C7_8 
REMARK    5  A    between atoms: C7_8  and  C8_9 
REMARK    6  A    between atoms: C7_8  and  C9_11 
REMARK    7  A    between atoms: C8_9  and  O2_10 
ROOT
HETATM    1  C9  UNL     1      -6.196   6.774  14.858  1.00  0.00     0.001 C 
HETATM    2  C10 UNL     1      -5.896   7.994  15.782  1.00  0.00     0.007 C 
HETATM    3  C11 UNL     1      -4.420   8.378  15.591  1.00  0.00     0.015 C 
HETATM    4  C12 UNL     1      -3.805   7.205  14.804  1.00  0.00    -0.013 C 
HETATM    5  C13 UNL     1      -3.424   6.130  15.867  1.00  0.00     0.021 C 
HETATM    6  C14 UNL     1      -2.561   7.486  13.979  1.00  0.00    -0.070 C 
HETATM    7  C15 UNL     1      -1.771   8.559  14.144  1.00  0.00    -0.022 C 
HETATM    8  C16 UNL     1      -0.637   8.827  13.211  1.00  0.00     0.034 C 
HETATM    9  C17 UNL     1       0.176   7.560  12.846  1.00  0.00     0.013 C 
HETATM   10  C18 UNL     1       1.188   7.827  11.679  1.00  0.00     0.018 C 
HETATM   11  C19 UNL     1       2.272   8.832  12.148  1.00  0.00     0.023 C 
HETATM   12  C20 UNL     1       0.555   8.412  10.404  1.00  0.00     0.023 C 
HETATM   13  C21 UNL     1       1.890   6.510  11.330  1.00  0.00     0.135 C 
HETATM   14  O3  UNL     1       3.118   6.424  11.223  1.00  0.00    -0.297 OA
HETATM   15  C22 UNL     1       1.044   5.287  11.071  1.00  0.00     0.080 C 
HETATM   16  C23 UNL     1      -0.427   5.479  11.395  1.00  0.00     0.017 C 
HETATM   17  C24 UNL     1      -0.701   6.234  12.721  1.00  0.00    -0.031 C 
HETATM   18  C25 UNL     1      -0.263   5.298  13.888  1.00  0.00     0.016 C 
HETATM   19  C26 UNL     1      -2.253   6.544  12.821  1.00  0.00     0.024 C 
HETATM   20  C27 UNL     1      -3.162   5.287  12.789  1.00  0.00     0.010 C 
HETATM   21  C28 UNL     1      -4.655   5.495  13.126  1.00  0.00     0.011 C 
HETATM   22  C29 UNL     1      -4.993   6.815  13.851  1.00  0.00    -0.029 C 
HETATM   23  C30 UNL     1      -5.294   7.892  12.761  1.00  0.00     0.016 C 
ENDROOT
BRANCH   1  24
HETATM   24  C7  UNL     1      -7.675   6.788  14.339  1.00  0.00     0.017 C 
BRANCH  24  25
HETATM   25  C6  UNL     1      -8.636   7.110  15.531  1.00  0.00     0.043 C 
BRANCH  25  26
HETATM   26  C5  UNL     1     -10.012   7.747  15.265  1.00  0.00     0.141 C 
BRANCH  26  27
HETATM   27  C4  UNL     1     -10.459   8.726  16.319  1.00  0.00     0.006 C 
HETATM   28  C2  UNL     1     -10.304  10.067  16.300  1.00  0.00    -0.089 C 
HETATM   29  C1  UNL     1      -9.622  10.835  15.201  1.00  0.00     0.042 C 
HETATM   30  C3  UNL     1     -10.826  10.920  17.424  1.00  0.00     0.042 C 
ENDBRANCH  26  27
BRANCH  26  31
HETATM   31  O1  UNL     1     -11.015   6.757  15.083  1.00  0.00    -0.392 OA
HETATM   32  H9  UNL     1     -11.086   6.280  15.937  1.00  0.00     0.210 HD
ENDBRANCH  26  31
ENDBRANCH  25  26
ENDBRANCH  24  25
BRANCH  24  33
HETATM   33  C8  UNL     1      -8.054   5.479  13.634  1.00  0.00     0.169 C 
BRANCH  33  34
HETATM   34  O2  UNL     1      -7.856   4.375  14.513  1.00  0.00    -0.400 OA
HETATM   35  H15 UNL     1      -8.247   3.596  14.076  1.00  0.00     0.209 HD
ENDBRANCH  33  34
ENDBRANCH  24  33
ENDBRANCH   1  24
TORSDOF 7
ENDMDL
MODEL 7
REMARK minimizedAffinity -8.58431625
REMARK  7 active torsions:
REMARK  status: ('A' for Active; 'I' for Inactive)
REMARK    1  A    between atoms: C4_4  and  C5_5 
REMARK    2  A    between atoms: C5_5  and  O1_6 
REMARK    3  A    between atoms: C5_5  and  C6_7 
REMARK    4  A    between atoms: C6_7  and  C7_8 
REMARK    5  A    between atoms: C7_8  and  C8_9 
REMARK    6  A    between atoms: C7_8  and  C9_11 
REMARK    7  A    between atoms: C8_9  and  O2_10 
ROOT
HETATM    1  C9  UNL     1      -1.990   7.266  14.058  1.00  0.00     0.001 C 
HETATM    2  C10 UNL     1      -2.316   7.905  12.673  1.00  0.00     0.007 C 
HETATM    3  C11 UNL     1      -1.000   8.427  12.074  1.00  0.00     0.015 C 
HETATM    4  C12 UNL     1       0.013   8.368  13.233  1.00  0.00    -0.013 C 
HETATM    5  C13 UNL     1      -0.184   9.685  14.042  1.00  0.00     0.021 C 
HETATM    6  C14 UNL     1       1.486   8.272  12.876  1.00  0.00    -0.070 C 
HETATM    7  C15 UNL     1       1.992   8.573  11.670  1.00  0.00    -0.022 C 
HETATM    8  C16 UNL     1       3.434   8.335  11.362  1.00  0.00     0.034 C 
HETATM    9  C17 UNL     1       4.388   8.746  12.510  1.00  0.00     0.013 C 
HETATM   10  C18 UNL     1       5.855   8.252  12.262  1.00  0.00     0.018 C 
HETATM   11  C19 UNL     1       6.445   8.972  11.022  1.00  0.00     0.023 C 
HETATM   12  C20 UNL     1       5.985   6.739  12.006  1.00  0.00     0.023 C 
HETATM   13  C21 UNL     1       6.710   8.630  13.475  1.00  0.00     0.135 C 
HETATM   14  O3  UNL     1       7.800   9.200  13.363  1.00  0.00    -0.297 OA
HETATM   15  C22 UNL     1       6.217   8.255  14.852  1.00  0.00     0.080 C 
HETATM   16  C23 UNL     1       4.799   7.713  14.869  1.00  0.00     0.017 C 
HETATM   17  C24 UNL     1       3.802   8.489  13.970  1.00  0.00    -0.031 C 
HETATM   18  C25 UNL     1       3.588   9.891  14.618  1.00  0.00     0.016 C 
HETATM   19  C26 UNL     1       2.431   7.694  13.923  1.00  0.00     0.024 C 
HETATM   20  C27 UNL     1       1.763   7.481  15.308  1.00  0.00     0.010 C 
HETATM   21  C28 UNL     1       0.319   6.934  15.310  1.00  0.00     0.011 C 
HETATM   22  C29 UNL     1      -0.438   7.053  13.971  1.00  0.00    -0.029 C 
HETATM   23  C30 UNL     1      -0.159   5.754  13.150  1.00  0.00     0.016 C 
ENDROOT
BRANCH   1  24
HETATM   24  C7  UNL     1      -2.945   6.066  14.384  1.00  0.00     0.017 C 
BRANCH  24  25
HETATM   25  C6  UNL     1      -3.888   5.812  13.163  1.00  0.00     0.043 C 
BRANCH  25  26
HETATM   26  C5  UNL     1      -5.162   4.964  13.332  1.00  0.00     0.141 C 
BRANCH  26  27
HETATM   27  C4  UNL     1      -5.241   3.770  12.417  1.00  0.00     0.006 C 
HETATM   28  C2  UNL     1      -6.224   2.846  12.371  1.00  0.00    -0.089 C 
HETATM   29  C1  UNL     1      -7.436   2.839  13.262  1.00  0.00     0.042 C 
HETATM   30  C3  UNL     1      -6.174   1.713  11.382  1.00  0.00     0.042 C 
ENDBRANCH  26  27
BRANCH  26  31
HETATM   31  O1  UNL     1      -6.334   5.753  13.181  1.00  0.00    -0.392 OA
HETATM   32  H9  UNL     1      -6.331   6.073  12.254  1.00  0.00     0.210 HD
ENDBRANCH  26  31
ENDBRANCH  25  26
ENDBRANCH  24  25
BRANCH  24  33
HETATM   33  C8  UNL     1      -3.732   6.289  15.682  1.00  0.00     0.169 C 
BRANCH  33  34
HETATM   34  O2  UNL     1      -2.936   7.010  16.619  1.00  0.00    -0.400 OA
HETATM   35  H15 UNL     1      -3.525   7.253  17.357  1.00  0.00     0.209 HD
ENDBRANCH  33  34
ENDBRANCH  24  33
ENDBRANCH   1  24
TORSDOF 7
ENDMDL
MODEL 8
REMARK minimizedAffinity -8.33248329
REMARK  7 active torsions:
REMARK  status: ('A' for Active; 'I' for Inactive)
REMARK    1  A    between atoms: C4_4  and  C5_5 
REMARK    2  A    between atoms: C5_5  and  O1_6 
REMARK    3  A    between atoms: C5_5  and  C6_7 
REMARK    4  A    between atoms: C6_7  and  C7_8 
REMARK    5  A    between atoms: C7_8  and  C8_9 
REMARK    6  A    between atoms: C7_8  and  C9_11 
REMARK    7  A    between atoms: C8_9  and  O2_10 
ROOT
HETATM    1  C9  UNL     1       0.948   6.328  11.652  1.00  0.00     0.001 C 
HETATM    2  C10 UNL     1       1.103   4.780  11.543  1.00  0.00     0.007 C 
HETATM    3  C11 UNL     1      -0.192   4.140  12.067  1.00  0.00     0.015 C 
HETATM    4  C12 UNL     1      -0.952   5.290  12.755  1.00  0.00    -0.013 C 
HETATM    5  C13 UNL     1      -0.372   5.385  14.198  1.00  0.00     0.021 C 
HETATM    6  C14 UNL     1      -2.460   5.161  12.880  1.00  0.00    -0.070 C 
HETATM    7  C15 UNL     1      -3.133   4.006  12.757  1.00  0.00    -0.022 C 
HETATM    8  C16 UNL     1      -4.626   3.981  12.771  1.00  0.00     0.034 C 
HETATM    9  C17 UNL     1      -5.248   4.901  13.849  1.00  0.00     0.013 C 
HETATM   10  C18 UNL     1      -6.799   5.049  13.672  1.00  0.00     0.018 C 
HETATM   11  C19 UNL     1      -7.486   3.681  13.920  1.00  0.00     0.023 C 
HETATM   12  C20 UNL     1      -7.241   5.526  12.276  1.00  0.00     0.023 C 
HETATM   13  C21 UNL     1      -7.320   6.033  14.725  1.00  0.00     0.135 C 
HETATM   14  O3  UNL     1      -8.294   5.779  15.441  1.00  0.00    -0.297 OA
HETATM   15  C22 UNL     1      -6.639   7.374  14.860  1.00  0.00     0.080 C 
HETATM   16  C23 UNL     1      -5.363   7.499  14.047  1.00  0.00     0.017 C 
HETATM   17  C24 UNL     1      -4.442   6.254  14.100  1.00  0.00    -0.031 C 
HETATM   18  C25 UNL     1      -3.862   6.166  15.545  1.00  0.00     0.016 C 
HETATM   19  C26 UNL     1      -3.268   6.442  13.050  1.00  0.00     0.024 C 
HETATM   20  C27 UNL     1      -2.389   7.699  13.287  1.00  0.00     0.010 C 
HETATM   21  C28 UNL     1      -1.092   7.811  12.458  1.00  0.00     0.011 C 
HETATM   22  C29 UNL     1      -0.604   6.498  11.810  1.00  0.00    -0.029 C 
HETATM   23  C30 UNL     1      -1.262   6.392  10.397  1.00  0.00     0.016 C 
ENDROOT
BRANCH   1  24
HETATM   24  C7  UNL     1       1.723   7.072  10.509  1.00  0.00     0.017 C 
BRANCH  24  25
HETATM   25  C6  UNL     1       2.923   6.185  10.040  1.00  0.00     0.043 C 
BRANCH  25  26
HETATM   26  C5  UNL     1       4.298   6.322  10.718  1.00  0.00     0.141 C 
BRANCH  26  27
HETATM   27  C4  UNL     1       5.047   7.579  10.361  1.00  0.00     0.006 C 
HETATM   28  C2  UNL     1       5.876   8.284  11.160  1.00  0.00    -0.089 C 
HETATM   29  C1  UNL     1       6.191   7.938  12.589  1.00  0.00     0.042 C 
HETATM   30  C3  UNL     1       6.574   9.517  10.651  1.00  0.00     0.042 C 
ENDBRANCH  26  27
BRANCH  26  31
HETATM   31  O1  UNL     1       5.119   5.192  10.458  1.00  0.00    -0.392 OA
HETATM   32  H9  UNL     1       5.282   5.190   9.490  1.00  0.00     0.210 HD
ENDBRANCH  26  31
ENDBRANCH  25  26
ENDBRANCH  24  25
BRANCH  24  33
HETATM   33  C8  UNL     1       2.177   8.474  10.935  1.00  0.00     0.169 C 
BRANCH  33  34
HETATM   34  O2  UNL     1       2.241   8.557  12.357  1.00  0.00    -0.400 OA
HETATM   35  H15 UNL     1       2.672   9.405  12.568  1.00  0.00     0.209 HD
ENDBRANCH  33  34
ENDBRANCH  24  33
ENDBRANCH   1  24
TORSDOF 7
ENDMDL
MODEL 9
REMARK minimizedAffinity -8.14726925
REMARK  7 active torsions:
REMARK  status: ('A' for Active; 'I' for Inactive)
REMARK    1  A    between atoms: C4_4  and  C5_5 
REMARK    2  A    between atoms: C5_5  and  O1_6 
REMARK    3  A    between atoms: C5_5  and  C6_7 
REMARK    4  A    between atoms: C6_7  and  C7_8 
REMARK    5  A    between atoms: C7_8  and  C8_9 
REMARK    6  A    between atoms: C7_8  and  C9_11 
REMARK    7  A    between atoms: C8_9  and  O2_10 
ROOT
HETATM    1  C9  UNL     1      -0.803   6.538  12.311  1.00  0.00     0.001 C 
HETATM    2  C10 UNL     1      -0.654   7.641  11.218  1.00  0.00     0.007 C 
HETATM    3  C11 UNL     1      -1.062   8.983  11.846  1.00  0.00     0.015 C 
HETATM    4  C12 UNL     1      -1.731   8.608  13.182  1.00  0.00    -0.013 C 
HETATM    5  C13 UNL     1      -3.214   8.276  12.841  1.00  0.00     0.021 C 
HETATM    6  C14 UNL     1      -1.743   9.656  14.281  1.00  0.00    -0.070 C 
HETATM    7  C15 UNL     1      -1.533  10.967  14.078  1.00  0.00    -0.022 C 
HETATM    8  C16 UNL     1      -1.439  11.916  15.227  1.00  0.00     0.034 C 
HETATM    9  C17 UNL     1      -2.500  11.663  16.326  1.00  0.00     0.013 C 
HETATM   10  C18 UNL     1      -2.217  12.500  17.621  1.00  0.00     0.018 C 
HETATM   11  C19 UNL     1      -2.369  14.011  17.309  1.00  0.00     0.023 C 
HETATM   12  C20 UNL     1      -0.810  12.304  18.215  1.00  0.00     0.023 C 
HETATM   13  C21 UNL     1      -3.261  12.132  18.680  1.00  0.00     0.135 C 
HETATM   14  O3  UNL     1      -3.897  12.986  19.305  1.00  0.00    -0.297 OA
HETATM   15  C22 UNL     1      -3.490  10.673  18.993  1.00  0.00     0.080 C 
HETATM   16  C23 UNL     1      -2.775   9.723  18.048  1.00  0.00     0.017 C 
HETATM   17  C24 UNL     1      -2.853  10.124  16.552  1.00  0.00    -0.031 C 
HETATM   18  C25 UNL     1      -4.332   9.934  16.097  1.00  0.00     0.016 C 
HETATM   19  C26 UNL     1      -1.897   9.173  15.718  1.00  0.00     0.024 C 
HETATM   20  C27 UNL     1      -2.238   7.663  15.828  1.00  0.00     0.010 C 
HETATM   21  C28 UNL     1      -1.509   6.709  14.858  1.00  0.00     0.011 C 
HETATM   22  C29 UNL     1      -0.854   7.382  13.633  1.00  0.00    -0.029 C 
HETATM   23  C30 UNL     1       0.605   7.774  14.029  1.00  0.00     0.016 C 
ENDROOT
BRANCH   1  24
HETATM   24  C7  UNL     1       0.256   5.395  12.132  1.00  0.00     0.017 C 
BRANCH  24  25
HETATM   25  C6  UNL     1       1.152   5.714  10.890  1.00  0.00     0.043 C 
BRANCH  25  26
HETATM   26  C5  UNL     1       2.526   6.381  11.079  1.00  0.00     0.141 C 
BRANCH  26  27
HETATM   27  C4  UNL     1       2.801   7.520  10.132  1.00  0.00     0.006 C 
HETATM   28  C2  UNL     1       2.825   7.465   8.783  1.00  0.00    -0.089 C 
HETATM   29  C1  UNL     1       2.594   6.221   7.970  1.00  0.00     0.042 C 
HETATM   30  C3  UNL     1       3.095   8.700   7.965  1.00  0.00     0.042 C 
ENDBRANCH  26  27
BRANCH  26  31
HETATM   31  O1  UNL     1       3.579   5.431  10.995  1.00  0.00    -0.392 OA
HETATM   32  H9  UNL     1       3.560   5.082  10.078  1.00  0.00     0.210 HD
ENDBRANCH  26  31
ENDBRANCH  25  26
ENDBRANCH  24  25
BRANCH  24  33
HETATM   33  C8  UNL     1      -0.398   4.012  12.029  1.00  0.00     0.169 C 
BRANCH  33  34
HETATM   34  O2  UNL     1       0.491   3.096  11.393  1.00  0.00    -0.400 OA
HETATM   35  H15 UNL     1       0.094   2.211  11.486  1.00  0.00     0.209 HD
ENDBRANCH  33  34
ENDBRANCH  24  33
ENDBRANCH   1  24
TORSDOF 7
ENDMDL
