MODEL 1
REMARK minimizedAffinity -9.54808426
REMARK  11 active torsions:
REMARK  status: ('A' for Active; 'I' for Inactive)
REMARK    1  A    between atoms: C6_6  and  C8_8 
REMARK    2  A    between atoms: C8_8  and  O1_9 
REMARK    3  A    between atoms: O1_9  and  C9_10 
REMARK    4  A    between atoms: C10_12  and  C11_13 
REMARK    5  A    between atoms: C11_13  and  O3_14 
REMARK    6  A    between atoms: C12_15  and  O4_16 
REMARK    7  A    between atoms: C13_17  and  O5_18 
REMARK    8  A    between atoms: C14_19  and  O6_20 
REMARK    9  A    between atoms: C20_26  and  C21_27 
REMARK   10  A    between atoms: C21_27  and  C22_28 
REMARK   11  A    between atoms: C26_34  and  O9_35 
ROOT
HETATM    1  C1  UNL     1       1.712  52.511 -21.018  1.00  0.00     0.015 C 
HETATM    2  C2  UNL     1       0.369  52.547 -21.021  1.00  0.00    -0.084 C 
HETATM    3  C3  UNL     1      -0.396  52.726 -22.309  1.00  0.00     0.034 C 
HETATM    4  C4  UNL     1      -1.700  51.914 -22.321  1.00  0.00     0.010 C 
HETATM    5  C5  UNL     1      -1.578  50.618 -21.483  1.00  0.00     0.005 C 
HETATM    6  C6  UNL     1      -2.696  49.518 -21.774  1.00  0.00    -0.018 C 
HETATM    7  C7  UNL     1      -2.001  48.203 -22.214  1.00  0.00     0.018 C 
HETATM    8  C15 UNL     1      -3.532  49.193 -20.513  1.00  0.00     0.012 C 
HETATM    9  C16 UNL     1      -3.903  50.456 -19.768  1.00  0.00     0.002 C 
HETATM   10  C17 UNL     1      -2.682  51.133 -19.164  1.00  0.00     0.010 C 
HETATM   11  C18 UNL     1      -1.339  50.993 -19.946  1.00  0.00    -0.032 C 
HETATM   12  C19 UNL     1      -0.497  49.853 -19.310  1.00  0.00     0.016 C 
HETATM   13  C20 UNL     1      -0.538  52.374 -19.808  1.00  0.00     0.025 C 
ENDROOT
BRANCH   6  14
HETATM   14  C8  UNL     1      -3.670  49.924 -22.926  1.00  0.00     0.180 C 
BRANCH  14  15
HETATM   15  O1  UNL     1      -3.161  49.492 -24.191  1.00  0.00    -0.358 OA
BRANCH  15  16
HETATM   16  C9  UNL     1      -2.936  50.574 -25.103  1.00  0.00     0.291 C 
HETATM   17  O2  UNL     1      -1.544  50.857 -25.192  1.00  0.00    -0.348 OA
HETATM   18  C10 UNL     1      -1.158  51.747 -26.264  1.00  0.00     0.179 C 
HETATM   19  C12 UNL     1      -2.327  52.281 -27.107  1.00  0.00     0.180 C 
HETATM   20  C13 UNL     1      -3.305  51.179 -27.538  1.00  0.00     0.183 C 
HETATM   21  C14 UNL     1      -3.489  50.105 -26.462  1.00  0.00     0.204 C 
BRANCH  18  22
HETATM   22  C11 UNL     1      -0.073  51.034 -27.082  1.00  0.00     0.198 C 
BRANCH  22  23
HETATM   23  O3  UNL     1       0.045  51.675 -28.359  1.00  0.00    -0.398 OA
HETATM   24  H17 UNL     1       0.146  52.622 -28.149  1.00  0.00     0.209 HD
ENDBRANCH  22  23
ENDBRANCH  18  22
BRANCH  19  25
HETATM   25  O4  UNL     1      -1.887  53.021 -28.246  1.00  0.00    -0.390 OA
HETATM   26  H19 UNL     1      -1.983  52.410 -29.009  1.00  0.00     0.210 HD
ENDBRANCH  19  25
BRANCH  20  27
HETATM   27  O5  UNL     1      -2.858  50.604 -28.780  1.00  0.00    -0.390 OA
HETATM   28  H21 UNL     1      -2.615  49.677 -28.560  1.00  0.00     0.210 HD
ENDBRANCH  20  27
BRANCH  21  29
HETATM   29  O6  UNL     1      -2.797  48.906 -26.890  1.00  0.00    -0.388 OA
HETATM   30  H23 UNL     1      -2.692  48.372 -26.073  1.00  0.00     0.210 HD
ENDBRANCH  21  29
ENDBRANCH  15  16
ENDBRANCH  14  15
ENDBRANCH   6  14
BRANCH  13  31
HETATM   31  C21 UNL     1       0.184  52.656 -18.456  1.00  0.00     0.037 C 
BRANCH  31  32
HETATM   32  C22 UNL     1       0.348  51.459 -17.559  1.00  0.00    -0.010 C 
HETATM   33  C23 UNL     1       1.005  51.413 -16.388  1.00  0.00     0.044 C 
HETATM   34  C24 UNL     1       1.036  50.163 -15.589  1.00  0.00     0.291 C 
HETATM   35  C26 UNL     1       1.768  52.433 -15.625  1.00  0.00     0.181 C 
HETATM   36  O7  UNL     1       0.375  49.162 -15.792  1.00  0.00    -0.260 OA
HETATM   37  O8  UNL     1       1.897  50.338 -14.548  1.00  0.00    -0.315 OA
HETATM   38  C25 UNL     1       2.619  51.552 -14.736  1.00  0.00     0.215 C 
BRANCH  35  39
HETATM   39  O9  UNL     1       2.573  53.258 -16.447  1.00  0.00    -0.389 OA
HETATM   40  H40 UNL     1       2.928  53.975 -15.892  1.00  0.00     0.210 HD
ENDBRANCH  35  39
ENDBRANCH  31  32
ENDBRANCH  13  31
TORSDOF 11
ENDMDL
MODEL 2
REMARK minimizedAffinity -9.45209026
REMARK  11 active torsions:
REMARK  status: ('A' for Active; 'I' for Inactive)
REMARK    1  A    between atoms: C6_6  and  C8_8 
REMARK    2  A    between atoms: C8_8  and  O1_9 
REMARK    3  A    between atoms: O1_9  and  C9_10 
REMARK    4  A    between atoms: C10_12  and  C11_13 
REMARK    5  A    between atoms: C11_13  and  O3_14 
REMARK    6  A    between atoms: C12_15  and  O4_16 
REMARK    7  A    between atoms: C13_17  and  O5_18 
REMARK    8  A    between atoms: C14_19  and  O6_20 
REMARK    9  A    between atoms: C20_26  and  C21_27 
REMARK   10  A    between atoms: C21_27  and  C22_28 
REMARK   11  A    between atoms: C26_34  and  O9_35 
ROOT
HETATM    1  C1  UNL     1       4.768  63.080 -32.815  1.00  0.00     0.015 C 
HETATM    2  C2  UNL     1       4.850  63.609 -34.046  1.00  0.00    -0.084 C 
HETATM    3  C3  UNL     1       3.724  64.443 -34.607  1.00  0.00     0.034 C 
HETATM    4  C4  UNL     1       4.241  65.602 -35.471  1.00  0.00     0.010 C 
HETATM    5  C5  UNL     1       5.623  66.109 -34.988  1.00  0.00     0.005 C 
HETATM    6  C6  UNL     1       6.040  67.550 -35.526  1.00  0.00    -0.018 C 
HETATM    7  C7  UNL     1       6.304  68.480 -34.313  1.00  0.00     0.018 C 
HETATM    8  C15 UNL     1       7.345  67.503 -36.358  1.00  0.00     0.012 C 
HETATM    9  C16 UNL     1       7.342  66.324 -37.304  1.00  0.00     0.002 C 
HETATM   10  C17 UNL     1       7.404  65.001 -36.557  1.00  0.00     0.010 C 
HETATM   11  C18 UNL     1       6.710  64.947 -35.160  1.00  0.00    -0.032 C 
HETATM   12  C19 UNL     1       7.782  65.139 -34.053  1.00  0.00     0.016 C 
HETATM   13  C20 UNL     1       6.040  63.501 -34.994  1.00  0.00     0.025 C 
ENDROOT
BRANCH   6  14
HETATM   14  C8  UNL     1       4.927  68.229 -36.386  1.00  0.00     0.180 C 
BRANCH  14  15
HETATM   15  O1  UNL     1       3.894  67.291 -36.703  1.00  0.00    -0.358 OA
BRANCH  15  16
HETATM   16  C9  UNL     1       2.805  67.880 -37.423  1.00  0.00     0.291 C 
HETATM   17  O2  UNL     1       2.508  67.105 -38.581  1.00  0.00    -0.348 OA
HETATM   18  C10 UNL     1       1.273  67.439 -39.253  1.00  0.00     0.179 C 
HETATM   19  C12 UNL     1       0.501  68.614 -38.631  1.00  0.00     0.180 C 
HETATM   20  C13 UNL     1       0.366  68.498 -37.106  1.00  0.00     0.183 C 
HETATM   21  C14 UNL     1       1.610  67.892 -36.451  1.00  0.00     0.204 C 
BRANCH  18  22
HETATM   22  C11 UNL     1       0.454  66.147 -39.372  1.00  0.00     0.198 C 
BRANCH  22  23
HETATM   23  O3  UNL     1      -0.412  66.247 -40.510  1.00  0.00    -0.398 OA
HETATM   24  H17 UNL     1       0.174  66.514 -41.242  1.00  0.00     0.209 HD
ENDBRANCH  22  23
ENDBRANCH  18  22
BRANCH  19  25
HETATM   25  O4  UNL     1      -0.783  68.800 -39.226  1.00  0.00    -0.390 OA
HETATM   26  H19 UNL     1      -1.425  68.410 -38.594  1.00  0.00     0.210 HD
ENDBRANCH  19  25
BRANCH  20  27
HETATM   27  O5  UNL     1      -0.815  67.739 -36.788  1.00  0.00    -0.390 OA
HETATM   28  H21 UNL     1      -0.484  66.914 -36.369  1.00  0.00     0.210 HD
ENDBRANCH  20  27
BRANCH  21  29
HETATM   29  O6  UNL     1       1.295  66.539 -36.037  1.00  0.00    -0.388 OA
HETATM   30  H23 UNL     1       2.167  66.109 -35.904  1.00  0.00     0.210 HD
ENDBRANCH  21  29
ENDBRANCH  15  16
ENDBRANCH  14  15
ENDBRANCH   6  14
BRANCH  13  31
HETATM   31  C21 UNL     1       6.982  62.304 -34.663  1.00  0.00     0.037 C 
BRANCH  31  32
HETATM   32  C22 UNL     1       8.202  62.658 -33.857  1.00  0.00    -0.010 C 
HETATM   33  C23 UNL     1       9.456  62.809 -34.317  1.00  0.00     0.044 C 
HETATM   34  C24 UNL     1      10.552  63.212 -33.401  1.00  0.00     0.291 C 
HETATM   35  C26 UNL     1      10.052  62.671 -35.669  1.00  0.00     0.181 C 
HETATM   36  O7  UNL     1      10.426  63.596 -32.253  1.00  0.00    -0.260 OA
HETATM   37  O8  UNL     1      11.731  63.129 -34.077  1.00  0.00    -0.315 OA
HETATM   38  C25 UNL     1      11.512  62.473 -35.323  1.00  0.00     0.215 C 
BRANCH  35  39
HETATM   39  O9  UNL     1       9.544  61.563 -36.392  1.00  0.00    -0.389 OA
HETATM   40  H40 UNL     1       9.881  61.624 -37.303  1.00  0.00     0.210 HD
ENDBRANCH  35  39
ENDBRANCH  31  32
ENDBRANCH  13  31
TORSDOF 11
ENDMDL
MODEL 3
REMARK minimizedAffinity -9.39091206
REMARK  11 active torsions:
REMARK  status: ('A' for Active; 'I' for Inactive)
REMARK    1  A    between atoms: C6_6  and  C8_8 
REMARK    2  A    between atoms: C8_8  and  O1_9 
REMARK    3  A    between atoms: O1_9  and  C9_10 
REMARK    4  A    between atoms: C10_12  and  C11_13 
REMARK    5  A    between atoms: C11_13  and  O3_14 
REMARK    6  A    between atoms: C12_15  and  O4_16 
REMARK    7  A    between atoms: C13_17  and  O5_18 
REMARK    8  A    between atoms: C14_19  and  O6_20 
REMARK    9  A    between atoms: C20_26  and  C21_27 
REMARK   10  A    between atoms: C21_27  and  C22_28 
REMARK   11  A    between atoms: C26_34  and  O9_35 
ROOT
HETATM    1  C1  UNL     1      -2.243  47.761 -19.307  1.00  0.00     0.015 C 
HETATM    2  C2  UNL     1      -2.077  48.690 -20.262  1.00  0.00    -0.084 C 
HETATM    3  C3  UNL     1      -1.358  48.359 -21.546  1.00  0.00     0.034 C 
HETATM    4  C4  UNL     1      -1.974  49.080 -22.754  1.00  0.00     0.010 C 
HETATM    5  C5  UNL     1      -3.495  49.311 -22.571  1.00  0.00     0.005 C 
HETATM    6  C6  UNL     1      -4.292  49.650 -23.910  1.00  0.00    -0.018 C 
HETATM    7  C7  UNL     1      -5.412  48.594 -24.107  1.00  0.00     0.018 C 
HETATM    8  C15 UNL     1      -4.980  51.035 -23.841  1.00  0.00     0.012 C 
HETATM    9  C16 UNL     1      -4.054  52.069 -23.240  1.00  0.00     0.002 C 
HETATM   10  C17 UNL     1      -3.773  51.789 -21.771  1.00  0.00     0.010 C 
HETATM   11  C18 UNL     1      -3.743  50.292 -21.332  1.00  0.00    -0.032 C 
HETATM   12  C19 UNL     1      -5.114  49.920 -20.705  1.00  0.00     0.016 C 
HETATM   13  C20 UNL     1      -2.598  50.123 -20.224  1.00  0.00     0.025 C 
ENDROOT
BRANCH   6  14
HETATM   14  C8  UNL     1      -3.394  49.604 -25.187  1.00  0.00     0.180 C 
BRANCH  14  15
HETATM   15  O1  UNL     1      -2.963  50.920 -25.547  1.00  0.00    -0.358 OA
BRANCH  15  16
HETATM   16  C9  UNL     1      -1.577  50.978 -25.900  1.00  0.00     0.291 C 
HETATM   17  O2  UNL     1      -1.433  51.434 -27.242  1.00  0.00    -0.348 OA
HETATM   18  C10 UNL     1      -0.088  51.783 -27.638  1.00  0.00     0.179 C 
HETATM   19  C12 UNL     1       0.980  51.560 -26.555  1.00  0.00     0.180 C 
HETATM   20  C13 UNL     1       0.570  52.125 -25.188  1.00  0.00     0.183 C 
HETATM   21  C14 UNL     1      -0.928  51.967 -24.912  1.00  0.00     0.204 C 
BRANCH  18  22
HETATM   22  C11 UNL     1      -0.130  53.216 -28.187  1.00  0.00     0.198 C 
BRANCH  22  23
HETATM   23  O3  UNL     1      -1.462  53.728 -28.052  1.00  0.00    -0.398 OA
HETATM   24  H17 UNL     1      -1.696  53.563 -27.120  1.00  0.00     0.209 HD
ENDBRANCH  22  23
ENDBRANCH  18  22
BRANCH  19  25
HETATM   25  O4  UNL     1       2.258  52.069 -26.934  1.00  0.00    -0.390 OA
HETATM   26  H19 UNL     1       2.355  52.921 -26.456  1.00  0.00     0.210 HD
ENDBRANCH  19  25
BRANCH  20  27
HETATM   27  O5  UNL     1       0.974  53.504 -25.101  1.00  0.00    -0.390 OA
HETATM   28  H21 UNL     1       0.135  54.015 -25.059  1.00  0.00     0.210 HD
ENDBRANCH  20  27
BRANCH  21  29
HETATM   29  O6  UNL     1      -1.555  53.268 -25.032  1.00  0.00    -0.388 OA
HETATM   30  H23 UNL     1      -2.511  53.076 -25.141  1.00  0.00     0.210 HD
ENDBRANCH  21  29
ENDBRANCH  15  16
ENDBRANCH  14  15
ENDBRANCH   6  14
BRANCH  13  31
HETATM   31  C21 UNL     1      -2.911  50.624 -18.782  1.00  0.00     0.037 C 
BRANCH  31  32
HETATM   32  C22 UNL     1      -1.716  50.751 -17.878  1.00  0.00    -0.010 C 
HETATM   33  C23 UNL     1      -0.693  51.612 -18.010  1.00  0.00     0.044 C 
HETATM   34  C24 UNL     1       0.395  51.652 -17.002  1.00  0.00     0.291 C 
HETATM   35  C26 UNL     1      -0.379  52.650 -19.024  1.00  0.00     0.181 C 
HETATM   36  O7  UNL     1       0.402  51.080 -15.927  1.00  0.00    -0.260 OA
HETATM   37  O8  UNL     1       1.376  52.481 -17.457  1.00  0.00    -0.315 OA
HETATM   38  C25 UNL     1       1.111  52.817 -18.816  1.00  0.00     0.215 C 
BRANCH  35  39
HETATM   39  O9  UNL     1      -0.667  52.239 -20.349  1.00  0.00    -0.389 OA
HETATM   40  H40 UNL     1      -0.562  53.014 -20.929  1.00  0.00     0.210 HD
ENDBRANCH  35  39
ENDBRANCH  31  32
ENDBRANCH  13  31
TORSDOF 11
ENDMDL
MODEL 4
REMARK minimizedAffinity -9.2815752
REMARK  11 active torsions:
REMARK  status: ('A' for Active; 'I' for Inactive)
REMARK    1  A    between atoms: C6_6  and  C8_8 
REMARK    2  A    between atoms: C8_8  and  O1_9 
REMARK    3  A    between atoms: O1_9  and  C9_10 
REMARK    4  A    between atoms: C10_12  and  C11_13 
REMARK    5  A    between atoms: C11_13  and  O3_14 
REMARK    6  A    between atoms: C12_15  and  O4_16 
REMARK    7  A    between atoms: C13_17  and  O5_18 
REMARK    8  A    between atoms: C14_19  and  O6_20 
REMARK    9  A    between atoms: C20_26  and  C21_27 
REMARK   10  A    between atoms: C21_27  and  C22_28 
REMARK   11  A    between atoms: C26_34  and  O9_35 
ROOT
HETATM    1  C1  UNL     1       0.152  52.915 -20.868  1.00  0.00     0.015 C 
HETATM    2  C2  UNL     1      -0.048  51.809 -21.603  1.00  0.00    -0.084 C 
HETATM    3  C3  UNL     1      -0.195  50.459 -20.946  1.00  0.00     0.034 C 
HETATM    4  C4  UNL     1      -1.215  49.571 -21.674  1.00  0.00     0.010 C 
HETATM    5  C5  UNL     1      -2.334  50.409 -22.340  1.00  0.00     0.005 C 
HETATM    6  C6  UNL     1      -3.643  49.591 -22.741  1.00  0.00    -0.018 C 
HETATM    7  C7  UNL     1      -4.866  50.222 -22.026  1.00  0.00     0.018 C 
HETATM    8  C15 UNL     1      -3.922  49.652 -24.262  1.00  0.00     0.012 C 
HETATM    9  C16 UNL     1      -2.648  49.460 -25.055  1.00  0.00     0.002 C 
HETATM   10  C17 UNL     1      -1.688  50.625 -24.870  1.00  0.00     0.010 C 
HETATM   11  C18 UNL     1      -1.703  51.337 -23.481  1.00  0.00    -0.032 C 
HETATM   12  C19 UNL     1      -2.573  52.620 -23.578  1.00  0.00     0.016 C 
HETATM   13  C20 UNL     1      -0.198  51.752 -23.120  1.00  0.00     0.025 C 
ENDROOT
BRANCH   6  14
HETATM   14  C8  UNL     1      -3.585  48.091 -22.306  1.00  0.00     0.180 C 
BRANCH  14  15
HETATM   15  O1  UNL     1      -4.666  47.783 -21.420  1.00  0.00    -0.358 OA
BRANCH  15  16
HETATM   16  C9  UNL     1      -4.364  48.067 -20.050  1.00  0.00     0.291 C 
HETATM   17  O2  UNL     1      -5.528  47.897 -19.247  1.00  0.00    -0.348 OA
HETATM   18  C10 UNL     1      -5.304  47.899 -17.819  1.00  0.00     0.179 C 
HETATM   19  C12 UNL     1      -3.844  48.135 -17.399  1.00  0.00     0.180 C 
HETATM   20  C13 UNL     1      -2.851  47.264 -18.180  1.00  0.00     0.183 C 
HETATM   21  C14 UNL     1      -3.264  47.068 -19.641  1.00  0.00     0.204 C 
BRANCH  18  22
HETATM   22  C11 UNL     1      -5.915  46.608 -17.258  1.00  0.00     0.198 C 
BRANCH  22  23
HETATM   23  O3  UNL     1      -6.375  46.852 -15.922  1.00  0.00    -0.398 OA
HETATM   24  H17 UNL     1      -6.927  47.653 -15.995  1.00  0.00     0.209 HD
ENDBRANCH  22  23
ENDBRANCH  18  22
BRANCH  19  25
HETATM   25  O4  UNL     1      -3.646  47.968 -15.995  1.00  0.00    -0.390 OA
HETATM   26  H19 UNL     1      -3.239  47.080 -15.890  1.00  0.00     0.210 HD
ENDBRANCH  19  25
BRANCH  20  27
HETATM   27  O5  UNL     1      -2.691  46.001 -17.508  1.00  0.00    -0.390 OA
HETATM   28  H21 UNL     1      -3.067  45.333 -18.125  1.00  0.00     0.210 HD
ENDBRANCH  20  27
BRANCH  21  29
HETATM   29  O6  UNL     1      -3.746  45.711 -19.802  1.00  0.00    -0.388 OA
HETATM   30  H23 UNL     1      -4.257  45.724 -20.639  1.00  0.00     0.210 HD
ENDBRANCH  21  29
ENDBRANCH  15  16
ENDBRANCH  14  15
ENDBRANCH   6  14
BRANCH  13  31
HETATM   31  C21 UNL     1       0.399  52.997 -23.843  1.00  0.00     0.037 C 
BRANCH  31  32
HETATM   32  C22 UNL     1      -0.134  53.246 -25.227  1.00  0.00    -0.010 C 
HETATM   33  C23 UNL     1       0.305  52.695 -26.371  1.00  0.00     0.044 C 
HETATM   34  C24 UNL     1      -0.361  53.004 -27.661  1.00  0.00     0.291 C 
HETATM   35  C26 UNL     1       1.399  51.737 -26.669  1.00  0.00     0.181 C 
HETATM   36  O7  UNL     1      -1.410  53.605 -27.805  1.00  0.00    -0.260 OA
HETATM   37  O8  UNL     1       0.374  52.456 -28.669  1.00  0.00    -0.315 OA
HETATM   38  C25 UNL     1       1.617  51.996 -28.144  1.00  0.00     0.215 C 
BRANCH  35  39
HETATM   39  O9  UNL     1       2.579  51.990 -25.926  1.00  0.00    -0.389 OA
HETATM   40  H40 UNL     1       3.190  51.248 -26.078  1.00  0.00     0.210 HD
ENDBRANCH  35  39
ENDBRANCH  31  32
ENDBRANCH  13  31
TORSDOF 11
ENDMDL
MODEL 5
REMARK minimizedAffinity -9.27999306
REMARK  11 active torsions:
REMARK  status: ('A' for Active; 'I' for Inactive)
REMARK    1  A    between atoms: C6_6  and  C8_8 
REMARK    2  A    between atoms: C8_8  and  O1_9 
REMARK    3  A    between atoms: O1_9  and  C9_10 
REMARK    4  A    between atoms: C10_12  and  C11_13 
REMARK    5  A    between atoms: C11_13  and  O3_14 
REMARK    6  A    between atoms: C12_15  and  O4_16 
REMARK    7  A    between atoms: C13_17  and  O5_18 
REMARK    8  A    between atoms: C14_19  and  O6_20 
REMARK    9  A    between atoms: C20_26  and  C21_27 
REMARK   10  A    between atoms: C21_27  and  C22_28 
REMARK   11  A    between atoms: C26_34  and  O9_35 
ROOT
HETATM    1  C1  UNL     1       0.861  54.150 -21.080  1.00  0.00     0.015 C 
HETATM    2  C2  UNL     1       0.630  52.853 -21.342  1.00  0.00    -0.084 C 
HETATM    3  C3  UNL     1       0.615  51.831 -20.233  1.00  0.00     0.034 C 
HETATM    4  C4  UNL     1      -0.438  50.738 -20.470  1.00  0.00     0.010 C 
HETATM    5  C5  UNL     1      -1.659  51.278 -21.255  1.00  0.00     0.005 C 
HETATM    6  C6  UNL     1      -2.966  50.368 -21.180  1.00  0.00    -0.018 C 
HETATM    7  C7  UNL     1      -4.131  51.213 -20.600  1.00  0.00     0.018 C 
HETATM    8  C15 UNL     1      -3.412  49.877 -22.578  1.00  0.00     0.012 C 
HETATM    9  C16 UNL     1      -2.226  49.414 -23.394  1.00  0.00     0.002 C 
HETATM   10  C17 UNL     1      -1.302  50.568 -23.751  1.00  0.00     0.010 C 
HETATM   11  C18 UNL     1      -1.197  51.734 -22.719  1.00  0.00    -0.032 C 
HETATM   12  C19 UNL     1      -2.128  52.894 -23.165  1.00  0.00     0.016 C 
HETATM   13  C20 UNL     1       0.318  52.253 -22.709  1.00  0.00     0.025 C 
ENDROOT
BRANCH   6  14
HETATM   14  C8  UNL     1      -2.796  49.127 -20.247  1.00  0.00     0.180 C 
BRANCH  14  15
HETATM   15  O1  UNL     1      -3.410  49.365 -18.977  1.00  0.00    -0.358 OA
BRANCH  15  16
HETATM   16  C9  UNL     1      -2.487  49.835 -17.989  1.00  0.00     0.291 C 
HETATM   17  O2  UNL     1      -3.164  50.068 -16.758  1.00  0.00    -0.348 OA
HETATM   18  C10 UNL     1      -2.312  50.295 -15.613  1.00  0.00     0.179 C 
HETATM   19  C12 UNL     1      -0.806  50.294 -15.923  1.00  0.00     0.180 C 
HETATM   20  C13 UNL     1      -0.376  49.102 -16.789  1.00  0.00     0.183 C 
HETATM   21  C14 UNL     1      -1.431  48.723 -17.832  1.00  0.00     0.204 C 
BRANCH  18  22
HETATM   22  C11 UNL     1      -2.726  49.292 -14.528  1.00  0.00     0.198 C 
BRANCH  22  23
HETATM   23  O3  UNL     1      -3.526  49.967 -13.549  1.00  0.00    -0.398 OA
HETATM   24  H17 UNL     1      -4.213  50.425 -14.067  1.00  0.00     0.209 HD
ENDBRANCH  22  23
ENDBRANCH  18  22
BRANCH  19  25
HETATM   25  O4  UNL     1      -0.005  50.360 -14.743  1.00  0.00    -0.390 OA
HETATM   26  H19 UNL     1       0.312  49.443 -14.589  1.00  0.00     0.210 HD
ENDBRANCH  19  25
BRANCH  20  27
HETATM   27  O5  UNL     1      -0.056  47.985 -15.939  1.00  0.00    -0.390 OA
HETATM   28  H21 UNL     1      -0.739  47.306 -16.140  1.00  0.00     0.210 HD
ENDBRANCH  20  27
BRANCH  21  29
HETATM   29  O6  UNL     1      -2.068  47.492 -17.411  1.00  0.00    -0.388 OA
HETATM   30  H23 UNL     1      -2.902  47.453 -17.926  1.00  0.00     0.210 HD
ENDBRANCH  21  29
ENDBRANCH  15  16
ENDBRANCH  14  15
ENDBRANCH   6  14
BRANCH  13  31
HETATM   31  C21 UNL     1       0.779  53.154 -23.894  1.00  0.00     0.037 C 
BRANCH  31  32
HETATM   32  C22 UNL     1      -0.093  53.091 -25.119  1.00  0.00    -0.010 C 
HETATM   33  C23 UNL     1       0.187  52.469 -26.277  1.00  0.00     0.044 C 
HETATM   34  C24 UNL     1      -0.802  52.452 -27.383  1.00  0.00     0.291 C 
HETATM   35  C26 UNL     1       1.370  51.704 -26.744  1.00  0.00     0.181 C 
HETATM   36  O7  UNL     1      -1.963  52.816 -27.317  1.00  0.00    -0.260 OA
HETATM   37  O8  UNL     1      -0.210  51.912 -28.484  1.00  0.00    -0.315 OA
HETATM   38  C25 UNL     1       1.188  51.778 -28.245  1.00  0.00     0.215 C 
BRANCH  35  39
HETATM   39  O9  UNL     1       2.601  52.283 -26.349  1.00  0.00    -0.389 OA
HETATM   40  H40 UNL     1       3.310  51.656 -26.575  1.00  0.00     0.210 HD
ENDBRANCH  35  39
ENDBRANCH  31  32
ENDBRANCH  13  31
TORSDOF 11
ENDMDL
MODEL 6
REMARK minimizedAffinity -9.22512341
REMARK  11 active torsions:
REMARK  status: ('A' for Active; 'I' for Inactive)
REMARK    1  A    between atoms: C6_6  and  C8_8 
REMARK    2  A    between atoms: C8_8  and  O1_9 
REMARK    3  A    between atoms: O1_9  and  C9_10 
REMARK    4  A    between atoms: C10_12  and  C11_13 
REMARK    5  A    between atoms: C11_13  and  O3_14 
REMARK    6  A    between atoms: C12_15  and  O4_16 
REMARK    7  A    between atoms: C13_17  and  O5_18 
REMARK    8  A    between atoms: C14_19  and  O6_20 
REMARK    9  A    between atoms: C20_26  and  C21_27 
REMARK   10  A    between atoms: C21_27  and  C22_28 
REMARK   11  A    between atoms: C26_34  and  O9_35 
ROOT
HETATM    1  C1  UNL     1       0.111  52.865 -20.871  1.00  0.00     0.015 C 
HETATM    2  C2  UNL     1      -0.156  51.732 -21.540  1.00  0.00    -0.084 C 
HETATM    3  C3  UNL     1      -0.486  50.458 -20.803  1.00  0.00     0.034 C 
HETATM    4  C4  UNL     1      -1.545  49.623 -21.539  1.00  0.00     0.010 C 
HETATM    5  C5  UNL     1      -2.524  50.515 -22.341  1.00  0.00     0.005 C 
HETATM    6  C6  UNL     1      -3.883  49.803 -22.778  1.00  0.00    -0.018 C 
HETATM    7  C7  UNL     1      -5.077  50.607 -22.199  1.00  0.00     0.018 C 
HETATM    8  C15 UNL     1      -4.054  49.775 -24.316  1.00  0.00     0.012 C 
HETATM    9  C16 UNL     1      -2.759  49.397 -24.999  1.00  0.00     0.002 C 
HETATM   10  C17 UNL     1      -1.696  50.470 -24.826  1.00  0.00     0.010 C 
HETATM   11  C18 UNL     1      -1.726  51.285 -23.496  1.00  0.00    -0.032 C 
HETATM   12  C19 UNL     1      -2.448  52.637 -23.745  1.00  0.00     0.016 C 
HETATM   13  C20 UNL     1      -0.213  51.574 -23.056  1.00  0.00     0.025 C 
ENDROOT
BRANCH   6  14
HETATM   14  C8  UNL     1      -4.012  48.344 -22.237  1.00  0.00     0.180 C 
BRANCH  14  15
HETATM   15  O1  UNL     1      -5.292  48.144 -21.629  1.00  0.00    -0.358 OA
BRANCH  15  16
HETATM   16  C9  UNL     1      -5.205  47.606 -20.305  1.00  0.00     0.291 C 
HETATM   17  O2  UNL     1      -4.110  48.193 -19.609  1.00  0.00    -0.348 OA
HETATM   18  C10 UNL     1      -4.065  47.933 -18.188  1.00  0.00     0.179 C 
HETATM   19  C12 UNL     1      -5.187  47.020 -17.667  1.00  0.00     0.180 C 
HETATM   20  C13 UNL     1      -6.575  47.430 -18.178  1.00  0.00     0.183 C 
HETATM   21  C14 UNL     1      -6.540  47.951 -19.618  1.00  0.00     0.204 C 
BRANCH  18  22
HETATM   22  C11 UNL     1      -3.983  49.290 -17.477  1.00  0.00     0.198 C 
BRANCH  22  23
HETATM   23  O3  UNL     1      -3.447  49.096 -16.162  1.00  0.00    -0.398 OA
HETATM   24  H17 UNL     1      -2.633  48.577 -16.302  1.00  0.00     0.209 HD
ENDBRANCH  22  23
ENDBRANCH  18  22
BRANCH  19  25
HETATM   25  O4  UNL     1      -5.196  46.925 -16.242  1.00  0.00    -0.390 OA
HETATM   26  H19 UNL     1      -5.921  47.516 -15.944  1.00  0.00     0.210 HD
ENDBRANCH  19  25
BRANCH  20  27
HETATM   27  O5  UNL     1      -7.145  48.404 -17.284  1.00  0.00    -0.390 OA
HETATM   28  H21 UNL     1      -7.203  49.232 -17.810  1.00  0.00     0.210 HD
ENDBRANCH  20  27
BRANCH  21  29
HETATM   29  O6  UNL     1      -6.724  49.388 -19.588  1.00  0.00    -0.388 OA
HETATM   30  H23 UNL     1      -6.406  49.699 -20.464  1.00  0.00     0.210 HD
ENDBRANCH  21  29
ENDBRANCH  15  16
ENDBRANCH  14  15
ENDBRANCH   6  14
BRANCH  13  31
HETATM   31  C21 UNL     1       0.558  52.693 -23.819  1.00  0.00     0.037 C 
BRANCH  31  32
HETATM   32  C22 UNL     1      -0.019  53.065 -25.157  1.00  0.00    -0.010 C 
HETATM   33  C23 UNL     1       0.369  52.605 -26.359  1.00  0.00     0.044 C 
HETATM   34  C24 UNL     1      -0.337  53.031 -27.593  1.00  0.00     0.291 C 
HETATM   35  C26 UNL     1       1.435  51.660 -26.775  1.00  0.00     0.181 C 
HETATM   36  O7  UNL     1      -1.379  53.657 -27.647  1.00  0.00    -0.260 OA
HETATM   37  O8  UNL     1       0.352  52.559 -28.669  1.00  0.00    -0.315 OA
HETATM   38  C25 UNL     1       1.604  52.038 -28.231  1.00  0.00     0.215 C 
BRANCH  35  39
HETATM   39  O9  UNL     1       2.644  51.832 -26.058  1.00  0.00    -0.389 OA
HETATM   40  H40 UNL     1       3.236  51.096 -26.293  1.00  0.00     0.210 HD
ENDBRANCH  35  39
ENDBRANCH  31  32
ENDBRANCH  13  31
TORSDOF 11
ENDMDL
MODEL 7
REMARK minimizedAffinity -9.16780281
REMARK  11 active torsions:
REMARK  status: ('A' for Active; 'I' for Inactive)
REMARK    1  A    between atoms: C6_6  and  C8_8 
REMARK    2  A    between atoms: C8_8  and  O1_9 
REMARK    3  A    between atoms: O1_9  and  C9_10 
REMARK    4  A    between atoms: C10_12  and  C11_13 
REMARK    5  A    between atoms: C11_13  and  O3_14 
REMARK    6  A    between atoms: C12_15  and  O4_16 
REMARK    7  A    between atoms: C13_17  and  O5_18 
REMARK    8  A    between atoms: C14_19  and  O6_20 
REMARK    9  A    between atoms: C20_26  and  C21_27 
REMARK   10  A    between atoms: C21_27  and  C22_28 
REMARK   11  A    between atoms: C26_34  and  O9_35 
ROOT
HETATM    1  C1  UNL     1       0.379  53.540 -20.992  1.00  0.00     0.015 C 
HETATM    2  C2  UNL     1       0.122  52.252 -21.271  1.00  0.00    -0.084 C 
HETATM    3  C3  UNL     1       0.242  51.190 -20.206  1.00  0.00     0.034 C 
HETATM    4  C4  UNL     1      -0.830  50.100 -20.355  1.00  0.00     0.010 C 
HETATM    5  C5  UNL     1      -2.137  50.660 -20.968  1.00  0.00     0.005 C 
HETATM    6  C6  UNL     1      -3.424  49.740 -20.770  1.00  0.00    -0.018 C 
HETATM    7  C7  UNL     1      -4.513  50.556 -20.024  1.00  0.00     0.018 C 
HETATM    8  C15 UNL     1      -4.034  49.296 -22.121  1.00  0.00     0.012 C 
HETATM    9  C16 UNL     1      -2.953  48.871 -23.090  1.00  0.00     0.002 C 
HETATM   10  C17 UNL     1      -2.082  50.043 -23.513  1.00  0.00     0.010 C 
HETATM   11  C18 UNL     1      -1.856  51.171 -22.459  1.00  0.00    -0.032 C 
HETATM   12  C19 UNL     1      -2.836  52.340 -22.748  1.00  0.00     0.016 C 
HETATM   13  C20 UNL     1      -0.351  51.700 -22.612  1.00  0.00     0.025 C 
ENDROOT
BRANCH   6  14
HETATM   14  C8  UNL     1      -3.141  48.467 -19.910  1.00  0.00     0.180 C 
BRANCH  14  15
HETATM   15  O1  UNL     1      -3.657  48.630 -18.585  1.00  0.00    -0.358 OA
BRANCH  15  16
HETATM   16  C9  UNL     1      -2.741  49.291 -17.705  1.00  0.00     0.291 C 
HETATM   17  O2  UNL     1      -3.384  49.602 -16.473  1.00  0.00    -0.348 OA
HETATM   18  C10 UNL     1      -2.509  50.035 -15.408  1.00  0.00     0.179 C 
HETATM   19  C12 UNL     1      -1.024  50.133 -15.796  1.00  0.00     0.180 C 
HETATM   20  C13 UNL     1      -0.521  48.893 -16.546  1.00  0.00     0.183 C 
HETATM   21  C14 UNL     1      -1.578  48.304 -17.483  1.00  0.00     0.204 C 
BRANCH  18  22
HETATM   22  C11 UNL     1      -2.779  49.130 -14.198  1.00  0.00     0.198 C 
BRANCH  22  23
HETATM   23  O3  UNL     1      -3.600  48.031 -14.612  1.00  0.00    -0.398 OA
HETATM   24  H17 UNL     1      -3.146  47.665 -15.393  1.00  0.00     0.209 HD
ENDBRANCH  22  23
ENDBRANCH  18  22
BRANCH  19  25
HETATM   25  O4  UNL     1      -0.184  50.405 -14.674  1.00  0.00    -0.390 OA
HETATM   26  H19 UNL     1       0.225  49.544 -14.437  1.00  0.00     0.210 HD
ENDBRANCH  19  25
BRANCH  20  27
HETATM   27  O5  UNL     1      -0.061  47.914 -15.596  1.00  0.00    -0.390 OA
HETATM   28  H21 UNL     1      -0.684  47.158 -15.684  1.00  0.00     0.210 HD
ENDBRANCH  20  27
BRANCH  21  29
HETATM   29  O6  UNL     1      -2.077  47.077 -16.896  1.00  0.00    -0.388 OA
HETATM   30  H23 UNL     1      -2.925  46.904 -17.359  1.00  0.00     0.210 HD
ENDBRANCH  21  29
ENDBRANCH  15  16
ENDBRANCH  14  15
ENDBRANCH   6  14
BRANCH  13  31
HETATM   31  C21 UNL     1      -0.038  52.646 -23.810  1.00  0.00     0.037 C 
BRANCH  31  32
HETATM   32  C22 UNL     1       0.902  52.081 -24.840  1.00  0.00    -0.010 C 
HETATM   33  C23 UNL     1       0.906  52.343 -26.158  1.00  0.00     0.044 C 
HETATM   34  C24 UNL     1       1.936  51.743 -27.043  1.00  0.00     0.291 C 
HETATM   35  C26 UNL     1       0.042  53.193 -27.014  1.00  0.00     0.181 C 
HETATM   36  O7  UNL     1       2.927  51.135 -26.685  1.00  0.00    -0.260 OA
HETATM   37  O8  UNL     1       1.614  52.031 -28.335  1.00  0.00    -0.315 OA
HETATM   38  C25 UNL     1       0.305  52.591 -28.378  1.00  0.00     0.215 C 
BRANCH  35  39
HETATM   39  O9  UNL     1      -1.331  53.112 -26.676  1.00  0.00    -0.389 OA
HETATM   40  H40 UNL     1      -1.803  53.792 -27.188  1.00  0.00     0.210 HD
ENDBRANCH  35  39
ENDBRANCH  31  32
ENDBRANCH  13  31
TORSDOF 11
ENDMDL
MODEL 8
REMARK minimizedAffinity -9.07662582
REMARK  11 active torsions:
REMARK  status: ('A' for Active; 'I' for Inactive)
REMARK    1  A    between atoms: C6_6  and  C8_8 
REMARK    2  A    between atoms: C8_8  and  O1_9 
REMARK    3  A    between atoms: O1_9  and  C9_10 
REMARK    4  A    between atoms: C10_12  and  C11_13 
REMARK    5  A    between atoms: C11_13  and  O3_14 
REMARK    6  A    between atoms: C12_15  and  O4_16 
REMARK    7  A    between atoms: C13_17  and  O5_18 
REMARK    8  A    between atoms: C14_19  and  O6_20 
REMARK    9  A    between atoms: C20_26  and  C21_27 
REMARK   10  A    between atoms: C21_27  and  C22_28 
REMARK   11  A    between atoms: C26_34  and  O9_35 
ROOT
HETATM    1  C1  UNL     1       0.173  53.078 -20.740  1.00  0.00     0.015 C 
HETATM    2  C2  UNL     1      -0.138  51.871 -21.239  1.00  0.00    -0.084 C 
HETATM    3  C3  UNL     1      -0.270  50.670 -20.335  1.00  0.00     0.034 C 
HETATM    4  C4  UNL     1      -1.388  49.722 -20.794  1.00  0.00     0.010 C 
HETATM    5  C5  UNL     1      -2.535  50.487 -21.500  1.00  0.00     0.005 C 
HETATM    6  C6  UNL     1      -3.906  49.681 -21.625  1.00  0.00    -0.018 C 
HETATM    7  C7  UNL     1      -5.030  50.496 -20.932  1.00  0.00     0.018 C 
HETATM    8  C15 UNL     1      -4.330  49.484 -23.101  1.00  0.00     0.012 C 
HETATM    9  C16 UNL     1      -3.148  49.085 -23.956  1.00  0.00     0.002 C 
HETATM   10  C17 UNL     1      -2.131  50.210 -24.073  1.00  0.00     0.010 C 
HETATM   11  C18 UNL     1      -1.985  51.160 -22.844  1.00  0.00    -0.032 C 
HETATM   12  C19 UNL     1      -2.812  52.450 -23.096  1.00  0.00     0.016 C 
HETATM   13  C20 UNL     1      -0.438  51.551 -22.700  1.00  0.00     0.025 C 
ENDROOT
BRANCH   6  14
HETATM   14  C8  UNL     1      -3.862  48.284 -20.930  1.00  0.00     0.180 C 
BRANCH  14  15
HETATM   15  O1  UNL     1      -4.337  48.377 -19.583  1.00  0.00    -0.358 OA
BRANCH  15  16
HETATM   16  C9  UNL     1      -5.588  47.710 -19.383  1.00  0.00     0.291 C 
HETATM   17  O2  UNL     1      -5.383  46.304 -19.289  1.00  0.00    -0.348 OA
HETATM   18  C10 UNL     1      -6.521  45.539 -18.832  1.00  0.00     0.179 C 
HETATM   19  C12 UNL     1      -7.788  46.369 -18.567  1.00  0.00     0.180 C 
HETATM   20  C13 UNL     1      -7.511  47.628 -17.733  1.00  0.00     0.183 C 
HETATM   21  C14 UNL     1      -6.162  48.270 -18.068  1.00  0.00     0.204 C 
BRANCH  18  22
HETATM   22  C11 UNL     1      -6.059  44.704 -17.631  1.00  0.00     0.198 C 
BRANCH  22  23
HETATM   23  O3  UNL     1      -4.642  44.506 -17.718  1.00  0.00    -0.398 OA
HETATM   24  H17 UNL     1      -4.276  45.400 -17.850  1.00  0.00     0.209 HD
ENDBRANCH  22  23
ENDBRANCH  18  22
BRANCH  19  25
HETATM   25  O4  UNL     1      -8.829  45.600 -17.966  1.00  0.00    -0.390 OA
HETATM   26  H19 UNL     1      -8.814  45.836 -17.012  1.00  0.00     0.210 HD
ENDBRANCH  19  25
BRANCH  20  27
HETATM   27  O5  UNL     1      -7.603  47.304 -16.333  1.00  0.00    -0.390 OA
HETATM   28  H21 UNL     1      -6.691  47.420 -15.983  1.00  0.00     0.210 HD
ENDBRANCH  20  27
BRANCH  21  29
HETATM   29  O6  UNL     1      -5.247  48.005 -16.976  1.00  0.00    -0.388 OA
HETATM   30  H23 UNL     1      -4.355  48.166 -17.353  1.00  0.00     0.210 HD
ENDBRANCH  21  29
ENDBRANCH  15  16
ENDBRANCH  14  15
ENDBRANCH   6  14
BRANCH  13  31
HETATM   31  C21 UNL     1       0.132  52.612 -23.690  1.00  0.00     0.037 C 
BRANCH  31  32
HETATM   32  C22 UNL     1       1.007  52.060 -24.782  1.00  0.00    -0.010 C 
HETATM   33  C23 UNL     1       0.921  52.327 -26.096  1.00  0.00     0.044 C 
HETATM   34  C24 UNL     1       1.895  51.740 -27.050  1.00  0.00     0.291 C 
HETATM   35  C26 UNL     1      -0.005  53.173 -26.890  1.00  0.00     0.181 C 
HETATM   36  O7  UNL     1       2.914  51.139 -26.761  1.00  0.00    -0.260 OA
HETATM   37  O8  UNL     1       1.487  52.030 -28.317  1.00  0.00    -0.315 OA
HETATM   38  C25 UNL     1       0.172  52.579 -28.271  1.00  0.00     0.215 C 
BRANCH  35  39
HETATM   39  O9  UNL     1      -1.352  53.078 -26.462  1.00  0.00    -0.389 OA
HETATM   40  H40 UNL     1      -1.863  53.756 -26.938  1.00  0.00     0.210 HD
ENDBRANCH  35  39
ENDBRANCH  31  32
ENDBRANCH  13  31
TORSDOF 11
ENDMDL
MODEL 9
REMARK minimizedAffinity -9.05436325
REMARK  11 active torsions:
REMARK  status: ('A' for Active; 'I' for Inactive)
REMARK    1  A    between atoms: C6_6  and  C8_8 
REMARK    2  A    between atoms: C8_8  and  O1_9 
REMARK    3  A    between atoms: O1_9  and  C9_10 
REMARK    4  A    between atoms: C10_12  and  C11_13 
REMARK    5  A    between atoms: C11_13  and  O3_14 
REMARK    6  A    between atoms: C12_15  and  O4_16 
REMARK    7  A    between atoms: C13_17  and  O5_18 
REMARK    8  A    between atoms: C14_19  and  O6_20 
REMARK    9  A    between atoms: C20_26  and  C21_27 
REMARK   10  A    between atoms: C21_27  and  C22_28 
REMARK   11  A    between atoms: C26_34  and  O9_35 
ROOT
HETATM    1  C1  UNL     1      -3.666  46.134 -19.900  1.00  0.00     0.015 C 
HETATM    2  C2  UNL     1      -3.150  47.206 -20.521  1.00  0.00    -0.084 C 
HETATM    3  C3  UNL     1      -2.116  47.047 -21.608  1.00  0.00     0.034 C 
HETATM    4  C4  UNL     1      -2.288  48.088 -22.725  1.00  0.00     0.010 C 
HETATM    5  C5  UNL     1      -3.770  48.499 -22.903  1.00  0.00     0.005 C 
HETATM    6  C6  UNL     1      -4.108  49.226 -24.282  1.00  0.00    -0.018 C 
HETATM    7  C7  UNL     1      -5.205  48.413 -25.020  1.00  0.00     0.018 C 
HETATM    8  C15 UNL     1      -4.667  50.653 -24.064  1.00  0.00     0.012 C 
HETATM    9  C16 UNL     1      -3.876  51.389 -23.006  1.00  0.00     0.002 C 
HETATM   10  C17 UNL     1      -4.063  50.770 -21.630  1.00  0.00     0.010 C 
HETATM   11  C18 UNL     1      -4.289  49.227 -21.575  1.00  0.00    -0.032 C 
HETATM   12  C19 UNL     1      -5.810  48.940 -21.445  1.00  0.00     0.016 C 
HETATM   13  C20 UNL     1      -3.538  48.661 -20.278  1.00  0.00     0.025 C 
ENDROOT
BRANCH   6  14
HETATM   14  C8  UNL     1      -2.882  49.313 -25.245  1.00  0.00     0.180 C 
BRANCH  14  15
HETATM   15  O1  UNL     1      -2.501  50.677 -25.451  1.00  0.00    -0.358 OA
BRANCH  15  16
HETATM   16  C9  UNL     1      -1.098  50.836 -25.693  1.00  0.00     0.291 C 
HETATM   17  O2  UNL     1      -0.863  51.060 -27.079  1.00  0.00    -0.348 OA
HETATM   18  C10 UNL     1       0.473  51.491 -27.421  1.00  0.00     0.179 C 
HETATM   19  C12 UNL     1       1.440  51.592 -26.230  1.00  0.00     0.180 C 
HETATM   20  C13 UNL     1       0.835  52.338 -25.033  1.00  0.00     0.183 C 
HETATM   21  C14 UNL     1      -0.659  52.055 -24.858  1.00  0.00     0.204 C 
BRANCH  18  22
HETATM   22  C11 UNL     1       0.343  52.788 -28.230  1.00  0.00     0.198 C 
BRANCH  22  23
HETATM   23  O3  UNL     1      -1.019  53.234 -28.180  1.00  0.00    -0.398 OA
HETATM   24  H17 UNL     1      -1.242  53.236 -27.231  1.00  0.00     0.209 HD
ENDBRANCH  22  23
ENDBRANCH  18  22
BRANCH  19  25
HETATM   25  O4  UNL     1       2.693  52.174 -26.591  1.00  0.00    -0.390 OA
HETATM   26  H19 UNL     1       2.652  53.103 -26.275  1.00  0.00     0.210 HD
ENDBRANCH  19  25
BRANCH  20  27
HETATM   27  O5  UNL     1       1.086  53.749 -25.173  1.00  0.00    -0.390 OA
HETATM   28  H21 UNL     1       0.200  54.156 -25.298  1.00  0.00     0.210 HD
ENDBRANCH  20  27
BRANCH  21  29
HETATM   29  O6  UNL     1      -1.399  53.230 -25.272  1.00  0.00    -0.388 OA
HETATM   30  H23 UNL     1      -2.315  52.909 -25.422  1.00  0.00     0.210 HD
ENDBRANCH  21  29
ENDBRANCH  15  16
ENDBRANCH  14  15
ENDBRANCH   6  14
BRANCH  13  31
HETATM   31  C21 UNL     1      -4.218  48.891 -18.894  1.00  0.00     0.037 C 
BRANCH  31  32
HETATM   32  C22 UNL     1      -3.398  48.472 -17.704  1.00  0.00    -0.010 C 
HETATM   33  C23 UNL     1      -2.870  49.277 -16.766  1.00  0.00     0.044 C 
HETATM   34  C24 UNL     1      -2.124  48.706 -15.617  1.00  0.00     0.291 C 
HETATM   35  C26 UNL     1      -2.877  50.750 -16.588  1.00  0.00     0.181 C 
HETATM   36  O7  UNL     1      -2.058  47.529 -15.313  1.00  0.00    -0.260 OA
HETATM   37  O8  UNL     1      -1.558  49.730 -14.918  1.00  0.00    -0.315 OA
HETATM   38  C25 UNL     1      -1.691  50.936 -15.666  1.00  0.00     0.215 C 
BRANCH  35  39
HETATM   39  O9  UNL     1      -2.698  51.460 -17.800  1.00  0.00    -0.389 OA
HETATM   40  H40 UNL     1      -2.849  52.403 -17.617  1.00  0.00     0.210 HD
ENDBRANCH  35  39
ENDBRANCH  31  32
ENDBRANCH  13  31
TORSDOF 11
ENDMDL
