MODEL 1
REMARK minimizedAffinity -8.26192379
REMARK  12 active torsions:
REMARK  status: ('A' for Active; 'I' for Inactive)
REMARK    1  A    between atoms: C2_2  and  C4_4 
REMARK    2  A    between atoms: C13_13  and  C14_14 
REMARK    3  A    between atoms: C14_14  and  C16_16 
REMARK    4  A    between atoms: C16_16  and  C17_17 
REMARK    5  A    between atoms: C17_17  and  C18_18 
REMARK    6  A    between atoms: C19_19  and  C21_21 
REMARK    7  A    between atoms: C21_21  and  O2_23 
REMARK    8  A    between atoms: C27_29  and  C28_30 
REMARK    9  A    between atoms: C28_30  and  C29_31 
REMARK   10  A    between atoms: C29_31  and  C30_32 
REMARK   11  A    between atoms: C30_32  and  O4_34 
REMARK   12  A    between atoms: O4_34  and  C31_35 
ROOT
HETATM    1  C4  UNL     1      -5.454   7.252  15.524  1.00  0.00     0.022 C 
HETATM    2  C5  UNL     1      -4.432   8.352  15.852  1.00  0.00     0.010 C 
HETATM    3  C6  UNL     1      -3.023   7.802  15.706  1.00  0.00     0.007 C 
HETATM    4  C7  UNL     1      -2.678   7.518  14.232  1.00  0.00     0.004 C 
HETATM    5  C8  UNL     1      -3.751   6.644  13.519  1.00  0.00    -0.027 A 
HETATM    6  C9  UNL     1      -3.271   5.562  12.509  1.00  0.00     0.011 C 
HETATM    7  C10 UNL     1      -1.772   5.413  12.203  1.00  0.00     0.011 C 
HETATM    8  C11 UNL     1      -0.958   6.651  12.556  1.00  0.00    -0.032 C 
HETATM    9  C12 UNL     1      -1.359   7.786  11.582  1.00  0.00     0.016 C 
HETATM   10  C13 UNL     1       0.590   6.444  12.562  1.00  0.00    -0.002 C 
HETATM   11  C22 UNL     1       1.097   7.510  13.561  1.00  0.00     0.006 C 
HETATM   12  C23 UNL     1      -0.123   7.974  14.377  1.00  0.00     0.011 C 
HETATM   13  C24 UNL     1      -1.241   6.961  14.067  1.00  0.00    -0.032 C 
HETATM   14  C25 UNL     1      -1.047   5.742  15.027  1.00  0.00     0.016 C 
HETATM   15  C26 UNL     1      -4.938   7.427  12.974  1.00  0.00     0.022 A 
HETATM   16  C27 UNL     1      -5.184   6.548  14.172  1.00  0.00    -0.024 A 
ENDROOT
BRANCH  10  17
HETATM   17  C14 UNL     1       1.389   6.320  11.228  1.00  0.00    -0.014 C 
HETATM   18  C15 UNL     1       1.789   4.843  11.041  1.00  0.00     0.010 C 
BRANCH  17  19
HETATM   19  C16 UNL     1       2.642   7.223  11.086  1.00  0.00     0.008 C 
BRANCH  19  20
HETATM   20  C17 UNL     1       3.702   6.668  10.123  1.00  0.00     0.028 C 
BRANCH  20  21
HETATM   21  C18 UNL     1       3.086   6.243   8.816  1.00  0.00    -0.013 C 
HETATM   22  C19 UNL     1       2.494   7.006   7.874  1.00  0.00     0.008 C 
HETATM   23  C20 UNL     1       2.018   6.424   6.574  1.00  0.00     0.055 C 
BRANCH  22  24
HETATM   24  C21 UNL     1       2.272   8.465   7.991  1.00  0.00     0.171 C 
HETATM   25  O1  UNL     1       1.270   8.993   8.437  1.00  0.00    -0.646 OA
BRANCH  24  26
HETATM   26  O2  UNL     1       3.343   9.197   7.647  1.00  0.00    -0.773 OA
HETATM   27  H32 UNL     1       3.055  10.117   7.811  1.00  0.00     0.167 HD
ENDBRANCH  24  26
ENDBRANCH  22  24
ENDBRANCH  20  21
ENDBRANCH  19  20
ENDBRANCH  17  19
ENDBRANCH  10  17
BRANCH  16  28
HETATM   28  C28 UNL     1      -5.921   5.198  14.077  1.00  0.00     0.020 C 
BRANCH  28  29
HETATM   29  C29 UNL     1      -7.168   5.144  13.206  1.00  0.00     0.112 C 
BRANCH  29  30
HETATM   30  C30 UNL     1      -7.593   3.723  12.938  1.00  0.00     0.258 C 
HETATM   31  O3  UNL     1      -8.753   3.376  12.769  1.00  0.00    -0.265 OA
BRANCH  30  32
HETATM   32  O4  UNL     1      -6.515   2.892  12.937  1.00  0.00    -0.322 OA
BRANCH  32  33
HETATM   33  C31 UNL     1      -6.126   2.379  11.654  1.00  0.00     0.174 C 
HETATM   34  C32 UNL     1      -4.615   2.382  11.514  1.00  0.00     0.034 C 
ENDBRANCH  32  33
ENDBRANCH  30  32
ENDBRANCH  29  30
ENDBRANCH  28  29
ENDBRANCH  16  28
BRANCH   1  35
HETATM   35  C2  UNL     1      -6.878   7.778  15.708  1.00  0.00    -0.088 C 
HETATM   36  C1  UNL     1      -7.310   8.863  15.042  1.00  0.00     0.014 C 
HETATM   37  C3  UNL     1      -7.800   7.049  16.648  1.00  0.00     0.043 C 
ENDBRANCH   1  35
TORSDOF 12
ENDMDL
MODEL 2
REMARK minimizedAffinity -8.09401321
REMARK  12 active torsions:
REMARK  status: ('A' for Active; 'I' for Inactive)
REMARK    1  A    between atoms: C2_2  and  C4_4 
REMARK    2  A    between atoms: C13_13  and  C14_14 
REMARK    3  A    between atoms: C14_14  and  C16_16 
REMARK    4  A    between atoms: C16_16  and  C17_17 
REMARK    5  A    between atoms: C17_17  and  C18_18 
REMARK    6  A    between atoms: C19_19  and  C21_21 
REMARK    7  A    between atoms: C21_21  and  O2_23 
REMARK    8  A    between atoms: C27_29  and  C28_30 
REMARK    9  A    between atoms: C28_30  and  C29_31 
REMARK   10  A    between atoms: C29_31  and  C30_32 
REMARK   11  A    between atoms: C30_32  and  O4_34 
REMARK   12  A    between atoms: O4_34  and  C31_35 
ROOT
HETATM    1  C4  UNL     1      -2.817   8.290  14.994  1.00  0.00     0.022 C 
HETATM    2  C5  UNL     1      -1.787   9.413  15.194  1.00  0.00     0.010 C 
HETATM    3  C6  UNL     1      -0.383   8.846  15.076  1.00  0.00     0.007 C 
HETATM    4  C7  UNL     1      -0.065   8.418  13.631  1.00  0.00     0.004 C 
HETATM    5  C8  UNL     1      -1.153   7.482  13.027  1.00  0.00    -0.027 A 
HETATM    6  C9  UNL     1      -0.693   6.305  12.120  1.00  0.00     0.011 C 
HETATM    7  C10 UNL     1       0.800   6.121  11.802  1.00  0.00     0.011 C 
HETATM    8  C11 UNL     1       1.622   7.386  12.017  1.00  0.00    -0.032 C 
HETATM    9  C12 UNL     1       1.204   8.421  10.944  1.00  0.00     0.016 C 
HETATM   10  C13 UNL     1       3.169   7.175  12.014  1.00  0.00    -0.002 C 
HETATM   11  C22 UNL     1       3.697   8.332  12.895  1.00  0.00     0.006 C 
HETATM   12  C23 UNL     1       2.493   8.877  13.684  1.00  0.00     0.011 C 
HETATM   13  C24 UNL     1       1.367   7.843  13.495  1.00  0.00    -0.032 C 
HETATM   14  C25 UNL     1       1.578   6.723  14.566  1.00  0.00     0.016 C 
HETATM   15  C26 UNL     1      -2.349   8.212  12.429  1.00  0.00     0.022 A 
HETATM   16  C27 UNL     1      -2.573   7.455  13.713  1.00  0.00    -0.024 A 
ENDROOT
BRANCH  10  17
HETATM   17  C14 UNL     1       3.943   6.919  10.685  1.00  0.00    -0.014 C 
HETATM   18  C15 UNL     1       5.286   7.672  10.757  1.00  0.00     0.010 C 
BRANCH  17  19
HETATM   19  C16 UNL     1       3.205   7.290   9.372  1.00  0.00     0.008 C 
BRANCH  19  20
HETATM   20  C17 UNL     1       2.241   6.204   8.872  1.00  0.00     0.028 C 
BRANCH  20  21
HETATM   21  C18 UNL     1       2.809   5.473   7.683  1.00  0.00    -0.013 C 
HETATM   22  C19 UNL     1       3.569   4.359   7.662  1.00  0.00     0.008 C 
HETATM   23  C20 UNL     1       3.969   3.703   6.372  1.00  0.00     0.055 C 
BRANCH  22  24
HETATM   24  C21 UNL     1       4.064   3.655   8.867  1.00  0.00     0.171 C 
HETATM   25  O1  UNL     1       5.213   3.297   9.053  1.00  0.00    -0.646 OA
BRANCH  24  26
HETATM   26  O2  UNL     1       3.136   3.521   9.827  1.00  0.00    -0.773 OA
HETATM   27  H32 UNL     1       3.619   3.081  10.554  1.00  0.00     0.167 HD
ENDBRANCH  24  26
ENDBRANCH  22  24
ENDBRANCH  20  21
ENDBRANCH  19  20
ENDBRANCH  17  19
ENDBRANCH  10  17
BRANCH  16  28
HETATM   28  C28 UNL     1      -3.314   6.105  13.764  1.00  0.00     0.020 C 
BRANCH  28  29
HETATM   29  C29 UNL     1      -3.118   5.157  12.588  1.00  0.00     0.112 C 
BRANCH  29  30
HETATM   30  C30 UNL     1      -4.019   3.954  12.694  1.00  0.00     0.258 C 
HETATM   31  O3  UNL     1      -3.686   2.819  12.382  1.00  0.00    -0.265 OA
BRANCH  30  32
HETATM   32  O4  UNL     1      -5.248   4.314  13.155  1.00  0.00    -0.322 OA
BRANCH  32  33
HETATM   33  C31 UNL     1      -6.360   3.616  12.574  1.00  0.00     0.174 C 
HETATM   34  C32 UNL     1      -7.409   3.314  13.628  1.00  0.00     0.034 C 
ENDBRANCH  32  33
ENDBRANCH  30  32
ENDBRANCH  29  30
ENDBRANCH  28  29
ENDBRANCH  16  28
BRANCH   1  35
HETATM   35  C2  UNL     1      -4.237   8.835  15.151  1.00  0.00    -0.088 C 
HETATM   36  C1  UNL     1      -5.296   8.169  14.661  1.00  0.00     0.014 C 
HETATM   37  C3  UNL     1      -4.432  10.138  15.879  1.00  0.00     0.043 C 
ENDBRANCH   1  35
TORSDOF 12
ENDMDL
MODEL 3
REMARK minimizedAffinity -8.04691315
REMARK  12 active torsions:
REMARK  status: ('A' for Active; 'I' for Inactive)
REMARK    1  A    between atoms: C2_2  and  C4_4 
REMARK    2  A    between atoms: C13_13  and  C14_14 
REMARK    3  A    between atoms: C14_14  and  C16_16 
REMARK    4  A    between atoms: C16_16  and  C17_17 
REMARK    5  A    between atoms: C17_17  and  C18_18 
REMARK    6  A    between atoms: C19_19  and  C21_21 
REMARK    7  A    between atoms: C21_21  and  O2_23 
REMARK    8  A    between atoms: C27_29  and  C28_30 
REMARK    9  A    between atoms: C28_30  and  C29_31 
REMARK   10  A    between atoms: C29_31  and  C30_32 
REMARK   11  A    between atoms: C30_32  and  O4_34 
REMARK   12  A    between atoms: O4_34  and  C31_35 
ROOT
HETATM    1  C4  UNL     1       0.886   8.316  13.775  1.00  0.00     0.022 C 
HETATM    2  C5  UNL     1       0.202   9.150  14.869  1.00  0.00     0.010 C 
HETATM    3  C6  UNL     1      -1.266   9.335  14.530  1.00  0.00     0.007 C 
HETATM    4  C7  UNL     1      -2.045   8.011  14.648  1.00  0.00     0.004 C 
HETATM    5  C8  UNL     1      -1.378   6.847  13.858  1.00  0.00    -0.027 A 
HETATM    6  C9  UNL     1      -2.298   5.839  13.111  1.00  0.00     0.011 C 
HETATM    7  C10 UNL     1      -3.826   5.982  13.207  1.00  0.00     0.011 C 
HETATM    8  C11 UNL     1      -4.282   6.804  14.406  1.00  0.00    -0.032 C 
HETATM    9  C12 UNL     1      -3.967   5.998  15.690  1.00  0.00     0.016 C 
HETATM   10  C13 UNL     1      -5.781   7.241  14.375  1.00  0.00    -0.002 C 
HETATM   11  C22 UNL     1      -5.800   8.537  15.220  1.00  0.00     0.006 C 
HETATM   12  C23 UNL     1      -4.342   9.016  15.335  1.00  0.00     0.011 C 
HETATM   13  C24 UNL     1      -3.547   8.186  14.310  1.00  0.00    -0.032 C 
HETATM   14  C25 UNL     1      -3.684   8.899  12.925  1.00  0.00     0.016 C 
HETATM   15  C26 UNL     1      -0.266   6.131  14.614  1.00  0.00     0.022 A 
HETATM   16  C27 UNL     1       0.138   6.999  13.450  1.00  0.00    -0.024 A 
ENDROOT
BRANCH  10  17
HETATM   17  C14 UNL     1      -6.921   6.218  14.665  1.00  0.00    -0.014 C 
HETATM   18  C15 UNL     1      -7.151   6.171  16.189  1.00  0.00     0.010 C 
BRANCH  17  19
HETATM   19  C16 UNL     1      -6.715   4.779  14.124  1.00  0.00     0.008 C 
BRANCH  19  20
HETATM   20  C17 UNL     1      -6.751   4.681  12.591  1.00  0.00     0.028 C 
BRANCH  20  21
HETATM   21  C18 UNL     1      -6.796   3.246  12.135  1.00  0.00    -0.013 C 
HETATM   22  C19 UNL     1      -5.804   2.495  11.612  1.00  0.00     0.008 C 
HETATM   23  C20 UNL     1      -5.999   1.039  11.300  1.00  0.00     0.055 C 
BRANCH  22  24
HETATM   24  C21 UNL     1      -4.441   2.991  11.316  1.00  0.00     0.171 C 
HETATM   25  O1  UNL     1      -4.144   3.731  10.395  1.00  0.00    -0.646 OA
BRANCH  24  26
HETATM   26  O2  UNL     1      -3.530   2.632  12.233  1.00  0.00    -0.773 OA
HETATM   27  H32 UNL     1      -2.708   3.059  11.922  1.00  0.00     0.167 HD
ENDBRANCH  24  26
ENDBRANCH  22  24
ENDBRANCH  20  21
ENDBRANCH  19  20
ENDBRANCH  17  19
ENDBRANCH  10  17
BRANCH  16  28
HETATM   28  C28 UNL     1       0.571   6.419  12.090  1.00  0.00     0.020 C 
BRANCH  28  29
HETATM   29  C29 UNL     1       0.341   7.283  10.859  1.00  0.00     0.112 C 
BRANCH  29  30
HETATM   30  C30 UNL     1       1.128   6.779   9.676  1.00  0.00     0.258 C 
HETATM   31  O3  UNL     1       1.798   5.756   9.686  1.00  0.00    -0.265 OA
BRANCH  30  32
HETATM   32  O4  UNL     1       1.005   7.629   8.620  1.00  0.00    -0.322 OA
BRANCH  32  33
HETATM   33  C31 UNL     1       2.076   7.594   7.665  1.00  0.00     0.174 C 
HETATM   34  C32 UNL     1       3.115   8.652   7.990  1.00  0.00     0.034 C 
ENDBRANCH  32  33
ENDBRANCH  30  32
ENDBRANCH  29  30
ENDBRANCH  28  29
ENDBRANCH  16  28
BRANCH   1  35
HETATM   35  C2  UNL     1       2.376   8.156  14.080  1.00  0.00    -0.088 C 
HETATM   36  C1  UNL     1       3.309   8.431  13.152  1.00  0.00     0.014 C 
HETATM   37  C3  UNL     1       2.785   7.691  15.451  1.00  0.00     0.043 C 
ENDBRANCH   1  35
TORSDOF 12
ENDMDL
MODEL 4
REMARK minimizedAffinity -7.99113941
REMARK  12 active torsions:
REMARK  status: ('A' for Active; 'I' for Inactive)
REMARK    1  A    between atoms: C2_2  and  C4_4 
REMARK    2  A    between atoms: C13_13  and  C14_14 
REMARK    3  A    between atoms: C14_14  and  C16_16 
REMARK    4  A    between atoms: C16_16  and  C17_17 
REMARK    5  A    between atoms: C17_17  and  C18_18 
REMARK    6  A    between atoms: C19_19  and  C21_21 
REMARK    7  A    between atoms: C21_21  and  O2_23 
REMARK    8  A    between atoms: C27_29  and  C28_30 
REMARK    9  A    between atoms: C28_30  and  C29_31 
REMARK   10  A    between atoms: C29_31  and  C30_32 
REMARK   11  A    between atoms: C30_32  and  O4_34 
REMARK   12  A    between atoms: O4_34  and  C31_35 
ROOT
HETATM    1  C4  UNL     1      -5.318   7.501  15.557  1.00  0.00     0.022 C 
HETATM    2  C5  UNL     1      -4.443   8.719  15.892  1.00  0.00     0.010 C 
HETATM    3  C6  UNL     1      -2.977   8.353  15.742  1.00  0.00     0.007 C 
HETATM    4  C7  UNL     1      -2.599   8.124  14.267  1.00  0.00     0.004 C 
HETATM    5  C8  UNL     1      -3.554   7.126  13.548  1.00  0.00    -0.027 A 
HETATM    6  C9  UNL     1      -2.943   6.121  12.531  1.00  0.00     0.011 C 
HETATM    7  C10 UNL     1      -1.437   6.164  12.224  1.00  0.00     0.011 C 
HETATM    8  C11 UNL     1      -0.785   7.493  12.585  1.00  0.00    -0.032 C 
HETATM    9  C12 UNL     1      -1.328   8.574  11.618  1.00  0.00     0.016 C 
HETATM   10  C13 UNL     1       0.776   7.483  12.589  1.00  0.00    -0.002 C 
HETATM   11  C22 UNL     1       1.145   8.598  13.595  1.00  0.00     0.006 C 
HETATM   12  C23 UNL     1      -0.122   8.898  14.414  1.00  0.00     0.011 C 
HETATM   13  C24 UNL     1      -1.104   7.754  14.098  1.00  0.00    -0.032 C 
HETATM   14  C25 UNL     1      -0.756   6.563  15.050  1.00  0.00     0.016 C 
HETATM   15  C26 UNL     1      -4.832   7.757  13.008  1.00  0.00     0.022 A 
HETATM   16  C27 UNL     1      -4.963   6.845  14.201  1.00  0.00    -0.024 A 
ENDROOT
BRANCH  10  17
HETATM   17  C14 UNL     1       1.583   7.470  11.254  1.00  0.00    -0.014 C 
HETATM   18  C15 UNL     1       0.871   8.400  10.252  1.00  0.00     0.010 C 
BRANCH  17  19
HETATM   19  C16 UNL     1       1.820   6.083  10.602  1.00  0.00     0.008 C 
BRANCH  19  20
HETATM   20  C17 UNL     1       3.260   5.863  10.114  1.00  0.00     0.028 C 
BRANCH  20  21
HETATM   21  C18 UNL     1       4.092   7.108  10.284  1.00  0.00    -0.013 C 
HETATM   22  C19 UNL     1       5.354   7.222  10.744  1.00  0.00     0.008 C 
HETATM   23  C20 UNL     1       6.072   8.541  10.755  1.00  0.00     0.055 C 
BRANCH  22  24
HETATM   24  C21 UNL     1       6.169   6.096  11.254  1.00  0.00     0.171 C 
HETATM   25  O1  UNL     1       6.865   5.363  10.574  1.00  0.00    -0.646 OA
BRANCH  24  26
HETATM   26  O2  UNL     1       6.166   5.997  12.592  1.00  0.00    -0.773 OA
HETATM   27  H32 UNL     1       6.766   5.247  12.770  1.00  0.00     0.167 HD
ENDBRANCH  24  26
ENDBRANCH  22  24
ENDBRANCH  20  21
ENDBRANCH  19  20
ENDBRANCH  17  19
ENDBRANCH  10  17
BRANCH  16  28
HETATM   28  C28 UNL     1      -5.523   5.414  14.096  1.00  0.00     0.020 C 
BRANCH  28  29
HETATM   29  C29 UNL     1      -6.694   5.190  13.150  1.00  0.00     0.112 C 
BRANCH  29  30
HETATM   30  C30 UNL     1      -7.005   3.724  12.993  1.00  0.00     0.258 C 
HETATM   31  O3  UNL     1      -7.409   3.009  13.900  1.00  0.00    -0.265 OA
BRANCH  30  32
HETATM   32  O4  UNL     1      -6.749   3.312  11.721  1.00  0.00    -0.322 OA
BRANCH  32  33
HETATM   33  C31 UNL     1      -5.590   2.481  11.557  1.00  0.00     0.174 C 
HETATM   34  C32 UNL     1      -4.444   3.275  10.958  1.00  0.00     0.034 C 
ENDBRANCH  32  33
ENDBRANCH  30  32
ENDBRANCH  29  30
ENDBRANCH  28  29
ENDBRANCH  16  28
BRANCH   1  35
HETATM   35  C2  UNL     1      -6.798   7.841  15.745  1.00  0.00    -0.088 C 
HETATM   36  C1  UNL     1      -7.357   8.885  15.108  1.00  0.00     0.014 C 
HETATM   37  C3  UNL     1      -7.627   6.975  16.654  1.00  0.00     0.043 C 
ENDBRANCH   1  35
TORSDOF 12
ENDMDL
MODEL 5
REMARK minimizedAffinity -7.96954918
REMARK  12 active torsions:
REMARK  status: ('A' for Active; 'I' for Inactive)
REMARK    1  A    between atoms: C2_2  and  C4_4 
REMARK    2  A    between atoms: C13_13  and  C14_14 
REMARK    3  A    between atoms: C14_14  and  C16_16 
REMARK    4  A    between atoms: C16_16  and  C17_17 
REMARK    5  A    between atoms: C17_17  and  C18_18 
REMARK    6  A    between atoms: C19_19  and  C21_21 
REMARK    7  A    between atoms: C21_21  and  O2_23 
REMARK    8  A    between atoms: C27_29  and  C28_30 
REMARK    9  A    between atoms: C28_30  and  C29_31 
REMARK   10  A    between atoms: C29_31  and  C30_32 
REMARK   11  A    between atoms: C30_32  and  O4_34 
REMARK   12  A    between atoms: O4_34  and  C31_35 
ROOT
HETATM    1  C4  UNL     1       1.610   8.526  13.137  1.00  0.00     0.022 C 
HETATM    2  C5  UNL     1       0.924   9.122  14.375  1.00  0.00     0.010 C 
HETATM    3  C6  UNL     1      -0.574   9.213  14.136  1.00  0.00     0.007 C 
HETATM    4  C7  UNL     1      -1.225   7.818  14.090  1.00  0.00     0.004 C 
HETATM    5  C8  UNL     1      -0.507   6.851  13.103  1.00  0.00    -0.027 A 
HETATM    6  C9  UNL     1      -1.378   5.879  12.256  1.00  0.00     0.011 C 
HETATM    7  C10 UNL     1      -2.904   5.859  12.443  1.00  0.00     0.011 C 
HETATM    8  C11 UNL     1      -3.357   6.450  13.772  1.00  0.00    -0.032 C 
HETATM    9  C12 UNL     1      -2.896   5.498  14.904  1.00  0.00     0.016 C 
HETATM   10  C13 UNL     1      -4.887   6.740  13.878  1.00  0.00    -0.002 C 
HETATM   11  C22 UNL     1      -4.969   7.892  14.908  1.00  0.00     0.006 C 
HETATM   12  C23 UNL     1      -3.555   8.487  15.027  1.00  0.00     0.011 C 
HETATM   13  C24 UNL     1      -2.753   7.895  13.852  1.00  0.00    -0.032 C 
HETATM   14  C25 UNL     1      -3.036   8.786  12.598  1.00  0.00     0.016 C 
HETATM   15  C26 UNL     1       0.708   6.142  13.689  1.00  0.00     0.022 A 
HETATM   16  C27 UNL     1       0.963   7.205  12.652  1.00  0.00    -0.024 A 
ENDROOT
BRANCH  10  17
HETATM   17  C14 UNL     1      -5.914   5.581  14.063  1.00  0.00    -0.014 C 
HETATM   18  C15 UNL     1      -5.656   4.530  12.966  1.00  0.00     0.010 C 
BRANCH  17  19
HETATM   19  C16 UNL     1      -7.413   5.979  14.064  1.00  0.00     0.008 C 
BRANCH  19  20
HETATM   20  C17 UNL     1      -8.073   5.913  15.449  1.00  0.00     0.028 C 
BRANCH  20  21
HETATM   21  C18 UNL     1      -8.496   7.280  15.921  1.00  0.00    -0.013 C 
HETATM   22  C19 UNL     1      -9.592   7.988  15.580  1.00  0.00     0.008 C 
HETATM   23  C20 UNL     1      -9.911   9.306  16.227  1.00  0.00     0.055 C 
BRANCH  22  24
HETATM   24  C21 UNL     1     -10.596   7.557  14.580  1.00  0.00     0.171 C 
HETATM   25  O1  UNL     1     -10.763   8.063  13.485  1.00  0.00    -0.646 OA
BRANCH  24  26
HETATM   26  O2  UNL     1     -11.271   6.456  14.942  1.00  0.00    -0.773 OA
HETATM   27  H32 UNL     1     -11.855   6.282  14.177  1.00  0.00     0.167 HD
ENDBRANCH  24  26
ENDBRANCH  22  24
ENDBRANCH  20  21
ENDBRANCH  19  20
ENDBRANCH  17  19
ENDBRANCH  10  17
BRANCH  16  28
HETATM   28  C28 UNL     1       1.362   6.874  11.201  1.00  0.00     0.020 C 
BRANCH  28  29
HETATM   29  C29 UNL     1       2.156   5.596  10.971  1.00  0.00     0.112 C 
BRANCH  29  30
HETATM   30  C30 UNL     1       3.129   5.749   9.830  1.00  0.00     0.258 C 
HETATM   31  O3  UNL     1       4.337   5.875   9.973  1.00  0.00    -0.265 OA
BRANCH  30  32
HETATM   32  O4  UNL     1       2.473   5.752   8.638  1.00  0.00    -0.322 OA
BRANCH  32  33
HETATM   33  C31 UNL     1       2.307   7.039   8.023  1.00  0.00     0.174 C 
HETATM   34  C32 UNL     1       2.064   6.889   6.532  1.00  0.00     0.034 C 
ENDBRANCH  32  33
ENDBRANCH  30  32
ENDBRANCH  29  30
ENDBRANCH  28  29
ENDBRANCH  16  28
BRANCH   1  35
HETATM   35  C2  UNL     1       3.124   8.467  13.344  1.00  0.00    -0.088 C 
HETATM   36  C1  UNL     1       3.651   7.999  14.490  1.00  0.00     0.014 C 
HETATM   37  C3  UNL     1       4.023   8.936  12.233  1.00  0.00     0.043 C 
ENDBRANCH   1  35
TORSDOF 12
ENDMDL
MODEL 6
REMARK minimizedAffinity -7.96746731
REMARK  12 active torsions:
REMARK  status: ('A' for Active; 'I' for Inactive)
REMARK    1  A    between atoms: C2_2  and  C4_4 
REMARK    2  A    between atoms: C13_13  and  C14_14 
REMARK    3  A    between atoms: C14_14  and  C16_16 
REMARK    4  A    between atoms: C16_16  and  C17_17 
REMARK    5  A    between atoms: C17_17  and  C18_18 
REMARK    6  A    between atoms: C19_19  and  C21_21 
REMARK    7  A    between atoms: C21_21  and  O2_23 
REMARK    8  A    between atoms: C27_29  and  C28_30 
REMARK    9  A    between atoms: C28_30  and  C29_31 
REMARK   10  A    between atoms: C29_31  and  C30_32 
REMARK   11  A    between atoms: C30_32  and  O4_34 
REMARK   12  A    between atoms: O4_34  and  C31_35 
ROOT
HETATM    1  C4  UNL     1       0.281   7.876  14.007  1.00  0.00     0.022 C 
HETATM    2  C5  UNL     1      -0.492   8.821  14.941  1.00  0.00     0.010 C 
HETATM    3  C6  UNL     1      -1.907   9.009  14.422  1.00  0.00     0.007 C 
HETATM    4  C7  UNL     1      -2.738   7.719  14.565  1.00  0.00     0.004 C 
HETATM    5  C8  UNL     1      -2.026   6.474  13.960  1.00  0.00    -0.027 A 
HETATM    6  C9  UNL     1      -2.890   5.425  13.204  1.00  0.00     0.011 C 
HETATM    7  C10 UNL     1      -4.414   5.611  13.112  1.00  0.00     0.011 C 
HETATM    8  C11 UNL     1      -4.972   6.547  14.176  1.00  0.00    -0.032 C 
HETATM    9  C12 UNL     1      -4.829   5.852  15.552  1.00  0.00     0.016 C 
HETATM   10  C13 UNL     1      -6.443   7.014  13.937  1.00  0.00    -0.002 C 
HETATM   11  C22 UNL     1      -6.513   8.381  14.659  1.00  0.00     0.006 C 
HETATM   12  C23 UNL     1      -5.062   8.835  14.897  1.00  0.00     0.011 C 
HETATM   13  C24 UNL     1      -4.186   7.898  14.044  1.00  0.00    -0.032 C 
HETATM   14  C25 UNL     1      -4.145   8.486  12.596  1.00  0.00     0.016 C 
HETATM   15  C26 UNL     1      -1.029   5.803  14.897  1.00  0.00     0.022 A 
HETATM   16  C27 UNL     1      -0.470   6.553  13.715  1.00  0.00    -0.024 A 
ENDROOT
BRANCH  10  17
HETATM   17  C14 UNL     1      -7.642   6.048  14.184  1.00  0.00    -0.014 C 
HETATM   18  C15 UNL     1      -7.224   4.636  13.730  1.00  0.00     0.010 C 
BRANCH  17  19
HETATM   19  C16 UNL     1      -8.989   6.434  13.518  1.00  0.00     0.008 C 
BRANCH  19  20
HETATM   20  C17 UNL     1      -9.963   7.158  14.459  1.00  0.00     0.028 C 
BRANCH  20  21
HETATM   21  C18 UNL     1     -11.393   6.950  14.034  1.00  0.00    -0.013 C 
HETATM   22  C19 UNL     1     -12.189   7.771  13.319  1.00  0.00     0.008 C 
HETATM   23  C20 UNL     1     -13.570   7.359  12.897  1.00  0.00     0.055 C 
BRANCH  22  24
HETATM   24  C21 UNL     1     -11.803   9.123  12.854  1.00  0.00     0.171 C 
HETATM   25  O1  UNL     1     -11.680  10.104  13.564  1.00  0.00    -0.646 OA
BRANCH  24  26
HETATM   26  O2  UNL     1     -11.486   9.169  11.551  1.00  0.00    -0.773 OA
HETATM   27  H32 UNL     1     -11.222  10.100  11.411  1.00  0.00     0.167 HD
ENDBRANCH  24  26
ENDBRANCH  22  24
ENDBRANCH  20  21
ENDBRANCH  19  20
ENDBRANCH  17  19
ENDBRANCH  10  17
BRANCH  16  28
HETATM   28  C28 UNL     1       0.092   5.843  12.468  1.00  0.00     0.020 C 
BRANCH  28  29
HETATM   29  C29 UNL     1       0.239   6.673  11.201  1.00  0.00     0.112 C 
BRANCH  29  30
HETATM   30  C30 UNL     1       1.408   6.209  10.370  1.00  0.00     0.258 C 
HETATM   31  O3  UNL     1       1.750   5.039  10.263  1.00  0.00    -0.265 OA
BRANCH  30  32
HETATM   32  O4  UNL     1       2.033   7.268   9.788  1.00  0.00    -0.322 OA
BRANCH  32  33
HETATM   33  C31 UNL     1       2.046   7.270   8.352  1.00  0.00     0.174 C 
HETATM   34  C32 UNL     1       2.843   8.451   7.828  1.00  0.00     0.034 C 
ENDBRANCH  32  33
ENDBRANCH  30  32
ENDBRANCH  29  30
ENDBRANCH  28  29
ENDBRANCH  16  28
BRANCH   1  35
HETATM   35  C2  UNL     1       1.722   7.710  14.493  1.00  0.00    -0.088 C 
HETATM   36  C1  UNL     1       2.752   7.726  13.629  1.00  0.00     0.014 C 
HETATM   37  C3  UNL     1       1.970   7.536  15.966  1.00  0.00     0.043 C 
ENDBRANCH   1  35
TORSDOF 12
ENDMDL
MODEL 7
REMARK minimizedAffinity -7.94135571
REMARK  12 active torsions:
REMARK  status: ('A' for Active; 'I' for Inactive)
REMARK    1  A    between atoms: C2_2  and  C4_4 
REMARK    2  A    between atoms: C13_13  and  C14_14 
REMARK    3  A    between atoms: C14_14  and  C16_16 
REMARK    4  A    between atoms: C16_16  and  C17_17 
REMARK    5  A    between atoms: C17_17  and  C18_18 
REMARK    6  A    between atoms: C19_19  and  C21_21 
REMARK    7  A    between atoms: C21_21  and  O2_23 
REMARK    8  A    between atoms: C27_29  and  C28_30 
REMARK    9  A    between atoms: C28_30  and  C29_31 
REMARK   10  A    between atoms: C29_31  and  C30_32 
REMARK   11  A    between atoms: C30_32  and  O4_34 
REMARK   12  A    between atoms: O4_34  and  C31_35 
ROOT
HETATM    1  C4  UNL     1       4.010   8.227  12.211  1.00  0.00     0.022 C 
HETATM    2  C5  UNL     1       3.861   7.944  13.714  1.00  0.00     0.010 C 
HETATM    3  C6  UNL     1       2.475   8.358  14.178  1.00  0.00     0.007 C 
HETATM    4  C7  UNL     1       1.386   7.434  13.602  1.00  0.00     0.004 C 
HETATM    5  C8  UNL     1       1.489   7.272  12.057  1.00  0.00    -0.027 A 
HETATM    6  C9  UNL     1       0.173   7.217  11.230  1.00  0.00     0.011 C 
HETATM    7  C10 UNL     1      -1.185   7.273  11.949  1.00  0.00     0.011 C 
HETATM    8  C11 UNL     1      -1.103   6.896  13.423  1.00  0.00    -0.032 C 
HETATM    9  C12 UNL     1      -0.767   5.387  13.517  1.00  0.00     0.016 C 
HETATM   10  C13 UNL     1      -2.375   7.237  14.263  1.00  0.00    -0.002 C 
HETATM   11  C22 UNL     1      -1.825   7.426  15.696  1.00  0.00     0.006 C 
HETATM   12  C23 UNL     1      -0.303   7.611  15.570  1.00  0.00     0.011 C 
HETATM   13  C24 UNL     1      -0.033   7.842  14.071  1.00  0.00    -0.032 C 
HETATM   14  C25 UNL     1      -0.254   9.363  13.785  1.00  0.00     0.016 C 
HETATM   15  C26 UNL     1       2.478   6.207  11.601  1.00  0.00     0.022 A 
HETATM   16  C27 UNL     1       2.855   7.646  11.360  1.00  0.00    -0.024 A 
ENDROOT
BRANCH  10  17
HETATM   17  C14 UNL     1      -3.674   6.384  14.135  1.00  0.00    -0.014 C 
HETATM   18  C15 UNL     1      -4.345   6.317  15.521  1.00  0.00     0.010 C 
BRANCH  17  19
HETATM   19  C16 UNL     1      -3.508   4.950  13.566  1.00  0.00     0.008 C 
BRANCH  19  20
HETATM   20  C17 UNL     1      -4.271   4.710  12.255  1.00  0.00     0.028 C 
BRANCH  20  21
HETATM   21  C18 UNL     1      -5.236   3.560  12.386  1.00  0.00    -0.013 C 
HETATM   22  C19 UNL     1      -6.502   3.570  12.852  1.00  0.00     0.008 C 
HETATM   23  C20 UNL     1      -7.363   2.339  12.821  1.00  0.00     0.055 C 
BRANCH  22  24
HETATM   24  C21 UNL     1      -7.184   4.760  13.411  1.00  0.00     0.171 C 
HETATM   25  O1  UNL     1      -7.455   5.773  12.791  1.00  0.00    -0.646 OA
BRANCH  24  26
HETATM   26  O2  UNL     1      -7.590   4.597  14.679  1.00  0.00    -0.773 OA
HETATM   27  H32 UNL     1      -8.045   5.437  14.885  1.00  0.00     0.167 HD
ENDBRANCH  24  26
ENDBRANCH  22  24
ENDBRANCH  20  21
ENDBRANCH  19  20
ENDBRANCH  17  19
ENDBRANCH  10  17
BRANCH  16  28
HETATM   28  C28 UNL     1       2.788   8.302   9.967  1.00  0.00     0.020 C 
BRANCH  28  29
HETATM   29  C29 UNL     1       3.410   7.539   8.807  1.00  0.00     0.112 C 
BRANCH  29  30
HETATM   30  C30 UNL     1       2.361   6.847   7.975  1.00  0.00     0.258 C 
HETATM   31  O3  UNL     1       1.371   7.403   7.521  1.00  0.00    -0.265 OA
BRANCH  30  32
HETATM   32  O4  UNL     1       2.660   5.527   7.827  1.00  0.00    -0.322 OA
BRANCH  32  33
HETATM   33  C31 UNL     1       2.975   5.106   6.492  1.00  0.00     0.174 C 
HETATM   34  C32 UNL     1       3.742   3.797   6.512  1.00  0.00     0.034 C 
ENDBRANCH  32  33
ENDBRANCH  30  32
ENDBRANCH  29  30
ENDBRANCH  28  29
ENDBRANCH  16  28
BRANCH   1  35
HETATM   35  C2  UNL     1       5.415   7.855  11.737  1.00  0.00    -0.088 C 
HETATM   36  C1  UNL     1       6.132   8.690  10.965  1.00  0.00     0.014 C 
HETATM   37  C3  UNL     1       5.992   6.531  12.160  1.00  0.00     0.043 C 
ENDBRANCH   1  35
TORSDOF 12
ENDMDL
MODEL 8
REMARK minimizedAffinity -7.93916559
REMARK  12 active torsions:
REMARK  status: ('A' for Active; 'I' for Inactive)
REMARK    1  A    between atoms: C2_2  and  C4_4 
REMARK    2  A    between atoms: C13_13  and  C14_14 
REMARK    3  A    between atoms: C14_14  and  C16_16 
REMARK    4  A    between atoms: C16_16  and  C17_17 
REMARK    5  A    between atoms: C17_17  and  C18_18 
REMARK    6  A    between atoms: C19_19  and  C21_21 
REMARK    7  A    between atoms: C21_21  and  O2_23 
REMARK    8  A    between atoms: C27_29  and  C28_30 
REMARK    9  A    between atoms: C28_30  and  C29_31 
REMARK   10  A    between atoms: C29_31  and  C30_32 
REMARK   11  A    between atoms: C30_32  and  O4_34 
REMARK   12  A    between atoms: O4_34  and  C31_35 
ROOT
HETATM    1  C4  UNL     1      -4.254   7.005  15.280  1.00  0.00     0.022 C 
HETATM    2  C5  UNL     1      -3.692   8.345  15.781  1.00  0.00     0.010 C 
HETATM    3  C6  UNL     1      -2.182   8.252  15.909  1.00  0.00     0.007 C 
HETATM    4  C7  UNL     1      -1.502   8.152  14.531  1.00  0.00     0.004 C 
HETATM    5  C8  UNL     1      -2.110   7.030  13.639  1.00  0.00    -0.027 A 
HETATM    6  C9  UNL     1      -1.147   6.190  12.751  1.00  0.00     0.011 C 
HETATM    7  C10 UNL     1       0.356   6.513  12.735  1.00  0.00     0.011 C 
HETATM    8  C11 UNL     1       0.676   7.921  13.220  1.00  0.00    -0.032 C 
HETATM    9  C12 UNL     1       0.134   8.926  12.173  1.00  0.00     0.016 C 
HETATM   10  C13 UNL     1       2.185   8.189  13.519  1.00  0.00    -0.002 C 
HETATM   11  C22 UNL     1       2.152   9.312  14.583  1.00  0.00     0.006 C 
HETATM   12  C23 UNL     1       0.721   9.349  15.149  1.00  0.00     0.011 C 
HETATM   13  C24 UNL     1       0.040   8.062  14.646  1.00  0.00    -0.032 C 
HETATM   14  C25 UNL     1       0.417   6.915  15.640  1.00  0.00     0.016 C 
HETATM   15  C26 UNL     1      -3.358   7.444  12.870  1.00  0.00     0.022 A 
HETATM   16  C27 UNL     1      -3.539   6.477  14.012  1.00  0.00    -0.024 A 
ENDROOT
BRANCH  10  17
HETATM   17  C14 UNL     1       3.214   8.373  12.361  1.00  0.00    -0.014 C 
HETATM   18  C15 UNL     1       4.021   9.657  12.634  1.00  0.00     0.010 C 
BRANCH  17  19
HETATM   19  C16 UNL     1       2.636   8.415  10.922  1.00  0.00     0.008 C 
BRANCH  19  20
HETATM   20  C17 UNL     1       3.692   8.227   9.823  1.00  0.00     0.028 C 
BRANCH  20  21
HETATM   21  C18 UNL     1       3.053   8.097   8.465  1.00  0.00    -0.013 C 
HETATM   22  C19 UNL     1       2.610   6.984   7.845  1.00  0.00     0.008 C 
HETATM   23  C20 UNL     1       1.902   7.049   6.521  1.00  0.00     0.055 C 
BRANCH  22  24
HETATM   24  C21 UNL     1       2.738   5.612   8.385  1.00  0.00     0.171 C 
HETATM   25  O1  UNL     1       3.499   4.757   7.968  1.00  0.00    -0.646 OA
BRANCH  24  26
HETATM   26  O2  UNL     1       1.994   5.397   9.481  1.00  0.00    -0.773 OA
HETATM   27  H32 UNL     1       2.214   4.478   9.733  1.00  0.00     0.167 HD
ENDBRANCH  24  26
ENDBRANCH  22  24
ENDBRANCH  20  21
ENDBRANCH  19  20
ENDBRANCH  17  19
ENDBRANCH  10  17
BRANCH  16  28
HETATM   28  C28 UNL     1      -3.800   4.974  13.796  1.00  0.00     0.020 C 
BRANCH  28  29
HETATM   29  C29 UNL     1      -4.698   4.582  12.631  1.00  0.00     0.112 C 
BRANCH  29  30
HETATM   30  C30 UNL     1      -4.215   3.322  11.961  1.00  0.00     0.258 C 
HETATM   31  O3  UNL     1      -3.156   2.768  12.226  1.00  0.00    -0.265 OA
BRANCH  30  32
HETATM   32  O4  UNL     1      -5.102   2.911  11.015  1.00  0.00    -0.322 OA
BRANCH  32  33
HETATM   33  C31 UNL     1      -5.800   1.690  11.305  1.00  0.00     0.174 C 
HETATM   34  C32 UNL     1      -6.987   1.957  12.211  1.00  0.00     0.034 C 
ENDBRANCH  32  33
ENDBRANCH  30  32
ENDBRANCH  29  30
ENDBRANCH  28  29
ENDBRANCH  16  28
BRANCH   1  35
HETATM   35  C2  UNL     1      -5.779   7.069  15.186  1.00  0.00    -0.088 C 
HETATM   36  C1  UNL     1      -6.547   6.078  15.671  1.00  0.00     0.014 C 
HETATM   37  C3  UNL     1      -6.411   8.274  14.544  1.00  0.00     0.043 C 
ENDBRANCH   1  35
TORSDOF 12
ENDMDL
MODEL 9
REMARK minimizedAffinity -7.91942024
REMARK  12 active torsions:
REMARK  status: ('A' for Active; 'I' for Inactive)
REMARK    1  A    between atoms: C2_2  and  C4_4 
REMARK    2  A    between atoms: C13_13  and  C14_14 
REMARK    3  A    between atoms: C14_14  and  C16_16 
REMARK    4  A    between atoms: C16_16  and  C17_17 
REMARK    5  A    between atoms: C17_17  and  C18_18 
REMARK    6  A    between atoms: C19_19  and  C21_21 
REMARK    7  A    between atoms: C21_21  and  O2_23 
REMARK    8  A    between atoms: C27_29  and  C28_30 
REMARK    9  A    between atoms: C28_30  and  C29_31 
REMARK   10  A    between atoms: C29_31  and  C30_32 
REMARK   11  A    between atoms: C30_32  and  O4_34 
REMARK   12  A    between atoms: O4_34  and  C31_35 
ROOT
HETATM    1  C4  UNL     1      -6.238   7.704  15.401  1.00  0.00     0.022 C 
HETATM    2  C5  UNL     1      -5.447   8.966  15.777  1.00  0.00     0.010 C 
HETATM    3  C6  UNL     1      -3.974   8.624  15.921  1.00  0.00     0.007 C 
HETATM    4  C7  UNL     1      -3.338   8.279  14.561  1.00  0.00     0.004 C 
HETATM    5  C8  UNL     1      -4.142   7.202  13.776  1.00  0.00    -0.027 A 
HETATM    6  C9  UNL     1      -3.350   6.128  12.975  1.00  0.00     0.011 C 
HETATM    7  C10 UNL     1      -1.814   6.181  12.935  1.00  0.00     0.011 C 
HETATM    8  C11 UNL     1      -1.248   7.551  13.287  1.00  0.00    -0.032 C 
HETATM    9  C12 UNL     1      -1.620   8.533  12.149  1.00  0.00     0.016 C 
HETATM   10  C13 UNL     1       0.287   7.579  13.567  1.00  0.00    -0.002 C 
HETATM   11  C22 UNL     1       0.462   8.785  14.521  1.00  0.00     0.006 C 
HETATM   12  C23 UNL     1      -0.933   9.123  15.074  1.00  0.00     0.011 C 
HETATM   13  C24 UNL     1      -1.834   7.933  14.691  1.00  0.00    -0.032 C 
HETATM   14  C25 UNL     1      -1.650   6.836  15.791  1.00  0.00     0.016 C 
HETATM   15  C26 UNL     1      -5.308   7.753  12.965  1.00  0.00     0.022 A 
HETATM   16  C27 UNL     1      -5.641   6.944  14.191  1.00  0.00    -0.024 A 
ENDROOT
BRANCH  10  17
HETATM   17  C14 UNL     1       1.319   7.472  12.403  1.00  0.00    -0.014 C 
HETATM   18  C15 UNL     1       1.476   8.868  11.769  1.00  0.00     0.010 C 
BRANCH  17  19
HETATM   19  C16 UNL     1       1.009   6.429  11.298  1.00  0.00     0.008 C 
BRANCH  19  20
HETATM   20  C17 UNL     1       2.188   6.157  10.352  1.00  0.00     0.028 C 
BRANCH  20  21
HETATM   21  C18 UNL     1       1.784   6.323   8.910  1.00  0.00    -0.013 C 
HETATM   22  C19 UNL     1       2.241   7.209   8.002  1.00  0.00     0.008 C 
HETATM   23  C20 UNL     1       1.794   7.170   6.568  1.00  0.00     0.055 C 
BRANCH  22  24
HETATM   24  C21 UNL     1       3.224   8.278   8.290  1.00  0.00     0.171 C 
HETATM   25  O1  UNL     1       3.327   9.326   7.679  1.00  0.00    -0.646 OA
BRANCH  24  26
HETATM   26  O2  UNL     1       3.963   8.042   9.386  1.00  0.00    -0.773 OA
HETATM   27  H32 UNL     1       4.524   8.839   9.461  1.00  0.00     0.167 HD
ENDBRANCH  24  26
ENDBRANCH  22  24
ENDBRANCH  20  21
ENDBRANCH  19  20
ENDBRANCH  17  19
ENDBRANCH  10  17
BRANCH  16  28
HETATM   28  C28 UNL     1      -6.162   5.495  14.116  1.00  0.00     0.020 C 
BRANCH  28  29
HETATM   29  C29 UNL     1      -7.130   5.160  12.991  1.00  0.00     0.112 C 
BRANCH  29  30
HETATM   30  C30 UNL     1      -7.312   3.671  12.845  1.00  0.00     0.258 C 
HETATM   31  O3  UNL     1      -8.071   3.003  13.532  1.00  0.00    -0.265 OA
BRANCH  30  32
HETATM   32  O4  UNL     1      -6.500   3.182  11.868  1.00  0.00    -0.322 OA
BRANCH  32  33
HETATM   33  C31 UNL     1      -5.102   3.126  12.191  1.00  0.00     0.174 C 
HETATM   34  C32 UNL     1      -4.271   2.944  10.934  1.00  0.00     0.034 C 
ENDBRANCH  32  33
ENDBRANCH  30  32
ENDBRANCH  29  30
ENDBRANCH  28  29
ENDBRANCH  16  28
BRANCH   1  35
HETATM   35  C2  UNL     1      -7.730   8.023  15.294  1.00  0.00    -0.088 C 
HETATM   36  C1  UNL     1      -8.160   9.285  15.124  1.00  0.00     0.014 C 
HETATM   37  C3  UNL     1      -8.717   6.890  15.373  1.00  0.00     0.043 C 
ENDBRANCH   1  35
TORSDOF 12
ENDMDL
