MODEL 1
REMARK minimizedAffinity -8.87634659
REMARK  8 active torsions:
REMARK  status: ('A' for Active; 'I' for Inactive)
REMARK    1  A    between atoms: C4_4  and  C5_5 
REMARK    2  A    between atoms: C5_5  and  C6_6 
REMARK    3  A    between atoms: C6_6  and  C7_7 
REMARK    4  A    between atoms: C9_9  and  C10_10 
REMARK    5  A    between atoms: C11_11  and  C12_12 
REMARK    6  A    between atoms: C14_14  and  C15_15 
REMARK    7  A    between atoms: C24_25  and  C26_27 
REMARK    8  A    between atoms: C29_31  and  O3_33 
ROOT
HETATM    1  C15 UNL     1      -6.249  47.534 -28.455  1.00  0.00     0.149 C 
HETATM    2  C16 UNL     1      -6.629  46.056 -28.610  1.00  0.00     0.054 C 
HETATM    3  C17 UNL     1      -7.878  46.094 -29.522  1.00  0.00     0.050 C 
HETATM    4  C18 UNL     1      -8.510  47.374 -28.944  1.00  0.00     0.272 C 
HETATM    5  O1  UNL     1      -9.620  47.885 -29.650  1.00  0.00    -0.360 OA
HETATM    6  C19 UNL     1      -9.363  48.874 -30.623  1.00  0.00     0.171 C 
HETATM    7  C20 UNL     1      -8.510  48.429 -31.802  1.00  0.00     0.027 C 
HETATM    8  C21 UNL     1      -8.387  46.919 -32.000  1.00  0.00     0.012 C 
HETATM    9  C22 UNL     1      -7.384  46.289 -31.012  1.00  0.00     0.032 C 
HETATM   10  C23 UNL     1      -6.793  44.987 -31.595  1.00  0.00    -0.066 C 
HETATM   11  C24 UNL     1      -5.563  44.872 -32.158  1.00  0.00    -0.021 C 
HETATM   12  C25 UNL     1      -4.910  43.592 -32.617  1.00  0.00     0.052 C 
HETATM   13  C27 UNL     1      -7.746  43.819 -31.457  1.00  0.00     0.038 C 
HETATM   14  C28 UNL     1      -8.116  43.589 -29.996  1.00  0.00     0.042 C 
HETATM   15  C29 UNL     1      -8.796  44.826 -29.380  1.00  0.00     0.067 C 
HETATM   16  C30 UNL     1      -9.223  44.478 -27.942  1.00  0.00     0.047 C 
HETATM   17  O4  UNL     1      -7.438  48.302 -28.726  1.00  0.00    -0.351 OA
ENDROOT
BRANCH   1  18
HETATM   18  C14 UNL     1      -5.768  47.872 -27.074  1.00  0.00     0.011 C 
HETATM   19  C12 UNL     1      -4.534  48.281 -26.711  1.00  0.00    -0.063 C 
HETATM   20  C13 UNL     1      -3.388  48.421 -27.682  1.00  0.00     0.048 C 
BRANCH  19  21
HETATM   21  C11 UNL     1      -4.282  48.583 -25.302  1.00  0.00     0.006 C 
HETATM   22  C10 UNL     1      -3.079  48.729 -24.719  1.00  0.00     0.001 C 
BRANCH  22  23
HETATM   23  C9  UNL     1      -2.929  49.007 -23.303  1.00  0.00     0.002 C 
HETATM   24  C7  UNL     1      -2.099  49.905 -22.732  1.00  0.00    -0.084 C 
HETATM   25  C8  UNL     1      -1.193  50.843 -23.496  1.00  0.00     0.043 C 
BRANCH  24  26
HETATM   26  C6  UNL     1      -1.974  50.092 -21.222  1.00  0.00     0.037 C 
BRANCH  26  27
HETATM   27  C5  UNL     1      -0.570  50.304 -20.635  1.00  0.00     0.031 C 
BRANCH  27  28
HETATM   28  C4  UNL     1      -0.126  51.736 -20.773  1.00  0.00    -0.024 C 
HETATM   29  C2  UNL     1       0.313  52.563 -19.802  1.00  0.00    -0.091 C 
HETATM   30  C1  UNL     1       0.764  53.962 -20.132  1.00  0.00     0.042 C 
HETATM   31  C3  UNL     1       0.395  52.215 -18.342  1.00  0.00     0.042 C 
ENDBRANCH  27  28
ENDBRANCH  26  27
ENDBRANCH  24  26
ENDBRANCH  22  23
ENDBRANCH  19  21
ENDBRANCH   1  18
BRANCH  15  32
HETATM   32  O3  UNL     1     -10.012  45.040 -30.107  1.00  0.00    -0.389 OA
HETATM   33  H44 UNL     1     -10.603  44.281 -29.973  1.00  0.00     0.210 HD
ENDBRANCH  15  32
BRANCH  11  34
HETATM   34  C26 UNL     1      -4.689  46.066 -32.416  1.00  0.00     0.265 C 
HETATM   35  O2  UNL     1      -4.065  46.636 -31.528  1.00  0.00    -0.302 OA
ENDBRANCH  11  34
TORSDOF 8
ENDMDL
MODEL 2
REMARK minimizedAffinity -8.81411076
REMARK  8 active torsions:
REMARK  status: ('A' for Active; 'I' for Inactive)
REMARK    1  A    between atoms: C4_4  and  C5_5 
REMARK    2  A    between atoms: C5_5  and  C6_6 
REMARK    3  A    between atoms: C6_6  and  C7_7 
REMARK    4  A    between atoms: C9_9  and  C10_10 
REMARK    5  A    between atoms: C11_11  and  C12_12 
REMARK    6  A    between atoms: C14_14  and  C15_15 
REMARK    7  A    between atoms: C24_25  and  C26_27 
REMARK    8  A    between atoms: C29_31  and  O3_33 
ROOT
HETATM    1  C15 UNL     1      -5.577  47.412 -28.931  1.00  0.00     0.149 C 
HETATM    2  C16 UNL     1      -7.041  47.843 -29.080  1.00  0.00     0.054 C 
HETATM    3  C17 UNL     1      -7.323  47.664 -30.591  1.00  0.00     0.050 C 
HETATM    4  C18 UNL     1      -5.945  48.122 -31.107  1.00  0.00     0.272 C 
HETATM    5  O1  UNL     1      -5.709  47.926 -32.485  1.00  0.00    -0.360 OA
HETATM    6  C19 UNL     1      -5.062  46.731 -32.863  1.00  0.00     0.171 C 
HETATM    7  C20 UNL     1      -5.824  45.448 -32.564  1.00  0.00     0.027 C 
HETATM    8  C21 UNL     1      -7.318  45.613 -32.286  1.00  0.00     0.012 C 
HETATM    9  C22 UNL     1      -7.583  46.126 -30.856  1.00  0.00     0.032 C 
HETATM   10  C23 UNL     1      -8.983  45.691 -30.374  1.00  0.00    -0.066 C 
HETATM   11  C24 UNL     1      -9.231  44.660 -29.525  1.00  0.00    -0.021 C 
HETATM   12  C25 UNL     1     -10.571  44.294 -28.938  1.00  0.00     0.052 C 
HETATM   13  C27 UNL     1     -10.078  46.563 -30.949  1.00  0.00     0.038 C 
HETATM   14  C28 UNL     1      -9.857  48.026 -30.582  1.00  0.00     0.042 C 
HETATM   15  C29 UNL     1      -8.510  48.549 -31.116  1.00  0.00     0.067 C 
HETATM   16  C30 UNL     1      -8.411  50.050 -30.789  1.00  0.00     0.047 C 
HETATM   17  O4  UNL     1      -4.965  47.553 -30.228  1.00  0.00    -0.351 OA
ENDROOT
BRANCH   1  18
HETATM   18  C14 UNL     1      -4.816  48.254 -27.950  1.00  0.00     0.011 C 
HETATM   19  C12 UNL     1      -5.026  48.359 -26.621  1.00  0.00    -0.063 C 
HETATM   20  C13 UNL     1      -6.142  47.646 -25.898  1.00  0.00     0.048 C 
BRANCH  19  21
HETATM   21  C11 UNL     1      -4.145  49.227 -25.839  1.00  0.00     0.006 C 
HETATM   22  C10 UNL     1      -2.804  49.291 -25.925  1.00  0.00     0.001 C 
BRANCH  22  23
HETATM   23  C9  UNL     1      -2.012  50.171 -25.087  1.00  0.00     0.002 C 
HETATM   24  C7  UNL     1      -2.120  51.513 -24.983  1.00  0.00    -0.084 C 
HETATM   25  C8  UNL     1      -3.153  52.349 -25.702  1.00  0.00     0.043 C 
BRANCH  24  26
HETATM   26  C6  UNL     1      -1.203  52.364 -24.107  1.00  0.00     0.037 C 
BRANCH  26  27
HETATM   27  C5  UNL     1       0.256  52.543 -24.552  1.00  0.00     0.031 C 
BRANCH  27  28
HETATM   28  C4  UNL     1       0.381  52.523 -26.053  1.00  0.00    -0.024 C 
HETATM   29  C2  UNL     1       1.312  51.892 -26.797  1.00  0.00    -0.091 C 
HETATM   30  C1  UNL     1       1.256  51.944 -28.301  1.00  0.00     0.042 C 
HETATM   31  C3  UNL     1       2.470  51.105 -26.247  1.00  0.00     0.042 C 
ENDBRANCH  27  28
ENDBRANCH  26  27
ENDBRANCH  24  26
ENDBRANCH  22  23
ENDBRANCH  19  21
ENDBRANCH   1  18
BRANCH  15  32
HETATM   32  O3  UNL     1      -8.566  48.464 -32.546  1.00  0.00    -0.389 OA
HETATM   33  H44 UNL     1      -9.263  49.055 -32.875  1.00  0.00     0.210 HD
ENDBRANCH  15  32
BRANCH  11  34
HETATM   34  C26 UNL     1      -8.150  43.718 -29.078  1.00  0.00     0.265 C 
HETATM   35  O2  UNL     1      -7.031  44.098 -28.751  1.00  0.00    -0.302 OA
ENDBRANCH  11  34
TORSDOF 8
ENDMDL
MODEL 3
REMARK minimizedAffinity -8.81035519
REMARK  8 active torsions:
REMARK  status: ('A' for Active; 'I' for Inactive)
REMARK    1  A    between atoms: C4_4  and  C5_5 
REMARK    2  A    between atoms: C5_5  and  C6_6 
REMARK    3  A    between atoms: C6_6  and  C7_7 
REMARK    4  A    between atoms: C9_9  and  C10_10 
REMARK    5  A    between atoms: C11_11  and  C12_12 
REMARK    6  A    between atoms: C14_14  and  C15_15 
REMARK    7  A    between atoms: C24_25  and  C26_27 
REMARK    8  A    between atoms: C29_31  and  O3_33 
ROOT
HETATM    1  C15 UNL     1      -5.498  47.703 -29.271  1.00  0.00     0.149 C 
HETATM    2  C16 UNL     1      -6.297  46.545 -28.661  1.00  0.00     0.054 C 
HETATM    3  C17 UNL     1      -7.733  46.775 -29.188  1.00  0.00     0.050 C 
HETATM    4  C18 UNL     1      -7.730  48.314 -29.116  1.00  0.00     0.272 C 
HETATM    5  O1  UNL     1      -8.836  48.960 -29.708  1.00  0.00    -0.360 OA
HETATM    6  C19 UNL     1      -8.698  49.373 -31.050  1.00  0.00     0.171 C 
HETATM    7  C20 UNL     1      -8.500  48.255 -32.063  1.00  0.00     0.027 C 
HETATM    8  C21 UNL     1      -8.879  46.853 -31.589  1.00  0.00     0.012 C 
HETATM    9  C22 UNL     1      -7.795  46.243 -30.677  1.00  0.00     0.032 C 
HETATM   10  C23 UNL     1      -7.843  44.702 -30.732  1.00  0.00    -0.066 C 
HETATM   11  C24 UNL     1      -6.992  43.919 -31.445  1.00  0.00    -0.021 C 
HETATM   12  C25 UNL     1      -6.933  42.412 -31.417  1.00  0.00     0.052 C 
HETATM   13  C27 UNL     1      -8.957  44.136 -29.878  1.00  0.00     0.038 C 
HETATM   14  C28 UNL     1      -8.807  44.579 -28.427  1.00  0.00     0.042 C 
HETATM   15  C29 UNL     1      -8.843  46.113 -28.293  1.00  0.00     0.067 C 
HETATM   16  C30 UNL     1      -8.784  46.469 -26.796  1.00  0.00     0.047 C 
HETATM   17  O4  UNL     1      -6.444  48.745 -29.583  1.00  0.00    -0.351 OA
ENDROOT
BRANCH   1  18
HETATM   18  C14 UNL     1      -4.466  48.260 -28.334  1.00  0.00     0.011 C 
HETATM   19  C12 UNL     1      -4.549  48.365 -26.991  1.00  0.00    -0.063 C 
HETATM   20  C13 UNL     1      -5.768  47.961 -26.199  1.00  0.00     0.048 C 
BRANCH  19  21
HETATM   21  C11 UNL     1      -3.409  48.920 -26.261  1.00  0.00     0.006 C 
HETATM   22  C10 UNL     1      -2.723  50.033 -26.577  1.00  0.00     0.001 C 
BRANCH  22  23
HETATM   23  C9  UNL     1      -1.587  50.494 -25.802  1.00  0.00     0.002 C 
HETATM   24  C7  UNL     1      -0.505  51.161 -26.258  1.00  0.00    -0.084 C 
HETATM   25  C8  UNL     1      -0.310  51.602 -27.690  1.00  0.00     0.043 C 
BRANCH  24  26
HETATM   26  C6  UNL     1       0.670  51.563 -25.369  1.00  0.00     0.037 C 
BRANCH  26  27
HETATM   27  C5  UNL     1       0.459  52.713 -24.373  1.00  0.00     0.031 C 
BRANCH  27  28
HETATM   28  C4  UNL     1       0.217  52.196 -22.979  1.00  0.00    -0.024 C 
HETATM   29  C2  UNL     1       0.590  52.759 -21.812  1.00  0.00    -0.091 C 
HETATM   30  C1  UNL     1       0.220  52.121 -20.500  1.00  0.00     0.042 C 
HETATM   31  C3  UNL     1       1.391  54.025 -21.680  1.00  0.00     0.042 C 
ENDBRANCH  27  28
ENDBRANCH  26  27
ENDBRANCH  24  26
ENDBRANCH  22  23
ENDBRANCH  19  21
ENDBRANCH   1  18
BRANCH  15  32
HETATM   32  O3  UNL     1     -10.133  46.542 -28.745  1.00  0.00    -0.389 OA
HETATM   33  H44 UNL     1     -10.816  46.178 -28.158  1.00  0.00     0.210 HD
ENDBRANCH  15  32
BRANCH  11  34
HETATM   34  C26 UNL     1      -5.985  44.498 -32.397  1.00  0.00     0.265 C 
HETATM   35  O2  UNL     1      -4.784  44.263 -32.319  1.00  0.00    -0.302 OA
ENDBRANCH  11  34
TORSDOF 8
ENDMDL
MODEL 4
REMARK minimizedAffinity -8.79415989
REMARK  8 active torsions:
REMARK  status: ('A' for Active; 'I' for Inactive)
REMARK    1  A    between atoms: C4_4  and  C5_5 
REMARK    2  A    between atoms: C5_5  and  C6_6 
REMARK    3  A    between atoms: C6_6  and  C7_7 
REMARK    4  A    between atoms: C9_9  and  C10_10 
REMARK    5  A    between atoms: C11_11  and  C12_12 
REMARK    6  A    between atoms: C14_14  and  C15_15 
REMARK    7  A    between atoms: C24_25  and  C26_27 
REMARK    8  A    between atoms: C29_31  and  O3_33 
ROOT
HETATM    1  C15 UNL     1      -5.711  47.578 -29.059  1.00  0.00     0.149 C 
HETATM    2  C16 UNL     1      -6.571  46.403 -28.577  1.00  0.00     0.054 C 
HETATM    3  C17 UNL     1      -7.944  46.661 -29.240  1.00  0.00     0.050 C 
HETATM    4  C18 UNL     1      -7.945  48.196 -29.113  1.00  0.00     0.272 C 
HETATM    5  O1  UNL     1      -8.983  48.869 -29.791  1.00  0.00    -0.360 OA
HETATM    6  C19 UNL     1      -8.707  49.329 -31.096  1.00  0.00     0.171 C 
HETATM    7  C20 UNL     1      -8.407  48.247 -32.124  1.00  0.00     0.027 C 
HETATM    8  C21 UNL     1      -8.835  46.831 -31.742  1.00  0.00     0.012 C 
HETATM    9  C22 UNL     1      -7.853  46.183 -30.746  1.00  0.00     0.032 C 
HETATM   10  C23 UNL     1      -7.898  44.645 -30.862  1.00  0.00    -0.066 C 
HETATM   11  C24 UNL     1      -6.979  43.883 -31.511  1.00  0.00    -0.021 C 
HETATM   12  C25 UNL     1      -6.927  42.376 -31.532  1.00  0.00     0.052 C 
HETATM   13  C27 UNL     1      -9.095  44.055 -30.148  1.00  0.00     0.038 C 
HETATM   14  C28 UNL     1      -9.095  44.445 -28.674  1.00  0.00     0.042 C 
HETATM   15  C29 UNL     1      -9.141  45.973 -28.488  1.00  0.00     0.067 C 
HETATM   16  C30 UNL     1      -9.236  46.275 -26.982  1.00  0.00     0.047 C 
HETATM   17  O4  UNL     1      -6.617  48.636 -29.429  1.00  0.00    -0.351 OA
ENDROOT
BRANCH   1  18
HETATM   18  C14 UNL     1      -4.780  48.095 -28.001  1.00  0.00     0.011 C 
HETATM   19  C12 UNL     1      -5.014  48.185 -26.675  1.00  0.00    -0.063 C 
HETATM   20  C13 UNL     1      -6.326  47.806 -26.035  1.00  0.00     0.048 C 
BRANCH  19  21
HETATM   21  C11 UNL     1      -3.952  48.701 -25.810  1.00  0.00     0.006 C 
HETATM   22  C10 UNL     1      -3.042  49.638 -26.133  1.00  0.00     0.001 C 
BRANCH  22  23
HETATM   23  C9  UNL     1      -2.008  50.069 -25.211  1.00  0.00     0.002 C 
HETATM   24  C7  UNL     1      -1.929  51.257 -24.574  1.00  0.00    -0.084 C 
HETATM   25  C8  UNL     1      -2.963  52.354 -24.672  1.00  0.00     0.043 C 
BRANCH  24  26
HETATM   26  C6  UNL     1      -0.771  51.641 -23.656  1.00  0.00     0.037 C 
BRANCH  26  27
HETATM   27  C5  UNL     1       0.464  52.300 -24.291  1.00  0.00     0.031 C 
BRANCH  27  28
HETATM   28  C4  UNL     1       0.336  52.381 -25.789  1.00  0.00    -0.024 C 
HETATM   29  C2  UNL     1       1.190  51.906 -26.718  1.00  0.00    -0.091 C 
HETATM   30  C1  UNL     1       0.877  52.037 -28.185  1.00  0.00     0.042 C 
HETATM   31  C3  UNL     1       2.499  51.229 -26.423  1.00  0.00     0.042 C 
ENDBRANCH  27  28
ENDBRANCH  26  27
ENDBRANCH  24  26
ENDBRANCH  22  23
ENDBRANCH  19  21
ENDBRANCH   1  18
BRANCH  15  32
HETATM   32  O3  UNL     1     -10.377  46.425 -29.056  1.00  0.00    -0.389 OA
HETATM   33  H44 UNL     1     -11.117  46.045 -28.555  1.00  0.00     0.210 HD
ENDBRANCH  15  32
BRANCH  11  34
HETATM   34  C26 UNL     1      -5.879  44.490 -32.333  1.00  0.00     0.265 C 
HETATM   35  O2  UNL     1      -4.765  43.987 -32.427  1.00  0.00    -0.302 OA
ENDBRANCH  11  34
TORSDOF 8
ENDMDL
MODEL 5
REMARK minimizedAffinity -8.75158024
REMARK  8 active torsions:
REMARK  status: ('A' for Active; 'I' for Inactive)
REMARK    1  A    between atoms: C4_4  and  C5_5 
REMARK    2  A    between atoms: C5_5  and  C6_6 
REMARK    3  A    between atoms: C6_6  and  C7_7 
REMARK    4  A    between atoms: C9_9  and  C10_10 
REMARK    5  A    between atoms: C11_11  and  C12_12 
REMARK    6  A    between atoms: C14_14  and  C15_15 
REMARK    7  A    between atoms: C24_25  and  C26_27 
REMARK    8  A    between atoms: C29_31  and  O3_33 
ROOT
HETATM    1  C15 UNL     1      -5.763  47.289 -28.838  1.00  0.00     0.149 C 
HETATM    2  C16 UNL     1      -7.224  47.664 -29.113  1.00  0.00     0.054 C 
HETATM    3  C17 UNL     1      -7.334  47.601 -30.655  1.00  0.00     0.050 C 
HETATM    4  C18 UNL     1      -5.937  48.164 -30.978  1.00  0.00     0.272 C 
HETATM    5  O1  UNL     1      -5.546  48.098 -32.333  1.00  0.00    -0.360 OA
HETATM    6  C19 UNL     1      -4.797  46.970 -32.732  1.00  0.00     0.171 C 
HETATM    7  C20 UNL     1      -5.515  45.633 -32.621  1.00  0.00     0.027 C 
HETATM    8  C21 UNL     1      -7.036  45.704 -32.497  1.00  0.00     0.012 C 
HETATM    9  C22 UNL     1      -7.480  46.081 -31.069  1.00  0.00     0.032 C 
HETATM   10  C23 UNL     1      -8.896  45.542 -30.780  1.00  0.00    -0.066 C 
HETATM   11  C24 UNL     1      -9.176  44.432 -30.049  1.00  0.00    -0.021 C 
HETATM   12  C25 UNL     1     -10.548  43.956 -29.643  1.00  0.00     0.052 C 
HETATM   13  C27 UNL     1      -9.971  46.408 -31.401  1.00  0.00     0.038 C 
HETATM   14  C28 UNL     1      -9.871  47.844 -30.897  1.00  0.00     0.042 C 
HETATM   15  C29 UNL     1      -8.506  48.472 -31.235  1.00  0.00     0.067 C 
HETATM   16  C30 UNL     1      -8.524  49.942 -30.781  1.00  0.00     0.047 C 
HETATM   17  O4  UNL     1      -5.026  47.568 -30.045  1.00  0.00    -0.351 OA
ENDROOT
BRANCH   1  18
HETATM   18  C14 UNL     1      -5.157  48.079 -27.715  1.00  0.00     0.011 C 
HETATM   19  C12 UNL     1      -5.564  48.122 -26.429  1.00  0.00    -0.063 C 
HETATM   20  C13 UNL     1      -6.774  47.383 -25.915  1.00  0.00     0.048 C 
BRANCH  19  21
HETATM   21  C11 UNL     1      -4.810  48.946 -25.484  1.00  0.00     0.006 C 
HETATM   22  C10 UNL     1      -3.484  48.899 -25.262  1.00  0.00     0.001 C 
BRANCH  22  23
HETATM   23  C9  UNL     1      -2.828  49.744 -24.283  1.00  0.00     0.002 C 
HETATM   24  C7  UNL     1      -1.762  50.548 -24.484  1.00  0.00    -0.084 C 
HETATM   25  C8  UNL     1      -1.081  50.752 -25.817  1.00  0.00     0.043 C 
BRANCH  24  26
HETATM   26  C6  UNL     1      -1.106  51.367 -23.374  1.00  0.00     0.037 C 
BRANCH  26  27
HETATM   27  C5  UNL     1       0.255  52.017 -23.666  1.00  0.00     0.031 C 
BRANCH  27  28
HETATM   28  C4  UNL     1       0.607  53.047 -22.626  1.00  0.00    -0.024 C 
HETATM   29  C2  UNL     1       0.652  52.888 -21.287  1.00  0.00    -0.091 C 
HETATM   30  C1  UNL     1       1.073  54.025 -20.394  1.00  0.00     0.042 C 
HETATM   31  C3  UNL     1       0.297  51.624 -20.555  1.00  0.00     0.042 C 
ENDBRANCH  27  28
ENDBRANCH  26  27
ENDBRANCH  24  26
ENDBRANCH  22  23
ENDBRANCH  19  21
ENDBRANCH   1  18
BRANCH  15  32
HETATM   32  O3  UNL     1      -8.405  48.506 -32.665  1.00  0.00    -0.389 OA
HETATM   33  H44 UNL     1      -9.096  49.090 -33.020  1.00  0.00     0.210 HD
ENDBRANCH  15  32
BRANCH  11  34
HETATM   34  C26 UNL     1      -8.098  43.507 -29.562  1.00  0.00     0.265 C 
HETATM   35  O2  UNL     1      -7.094  43.904 -28.981  1.00  0.00    -0.302 OA
ENDBRANCH  11  34
TORSDOF 8
ENDMDL
MODEL 6
REMARK minimizedAffinity -8.64476204
REMARK  8 active torsions:
REMARK  status: ('A' for Active; 'I' for Inactive)
REMARK    1  A    between atoms: C4_4  and  C5_5 
REMARK    2  A    between atoms: C5_5  and  C6_6 
REMARK    3  A    between atoms: C6_6  and  C7_7 
REMARK    4  A    between atoms: C9_9  and  C10_10 
REMARK    5  A    between atoms: C11_11  and  C12_12 
REMARK    6  A    between atoms: C14_14  and  C15_15 
REMARK    7  A    between atoms: C24_25  and  C26_27 
REMARK    8  A    between atoms: C29_31  and  O3_33 
ROOT
HETATM    1  C15 UNL     1      -5.620  47.489 -28.827  1.00  0.00     0.149 C 
HETATM    2  C16 UNL     1      -7.062  48.009 -28.852  1.00  0.00     0.054 C 
HETATM    3  C17 UNL     1      -7.660  47.366 -30.126  1.00  0.00     0.050 C 
HETATM    4  C18 UNL     1      -6.402  47.464 -31.010  1.00  0.00     0.272 C 
HETATM    5  O1  UNL     1      -6.467  46.792 -32.249  1.00  0.00    -0.360 OA
HETATM    6  C19 UNL     1      -5.966  45.473 -32.293  1.00  0.00     0.171 C 
HETATM    7  C20 UNL     1      -6.705  44.462 -31.429  1.00  0.00     0.027 C 
HETATM    8  C21 UNL     1      -8.099  44.878 -30.962  1.00  0.00     0.012 C 
HETATM    9  C22 UNL     1      -8.037  45.869 -29.782  1.00  0.00     0.032 C 
HETATM   10  C23 UNL     1      -9.323  45.783 -28.933  1.00  0.00    -0.066 C 
HETATM   11  C24 UNL     1      -9.435  45.132 -27.746  1.00  0.00    -0.021 C 
HETATM   12  C25 UNL     1     -10.636  45.139 -26.836  1.00  0.00     0.052 C 
HETATM   13  C27 UNL     1     -10.475  46.530 -29.570  1.00  0.00     0.038 C 
HETATM   14  C28 UNL     1     -10.118  47.996 -29.788  1.00  0.00     0.042 C 
HETATM   15  C29 UNL     1      -8.891  48.153 -30.705  1.00  0.00     0.067 C 
HETATM   16  C30 UNL     1      -8.659  49.654 -30.951  1.00  0.00     0.047 C 
HETATM   17  O4  UNL     1      -5.286  47.115 -30.179  1.00  0.00    -0.351 OA
ENDROOT
BRANCH   1  18
HETATM   18  C14 UNL     1      -4.634  48.519 -28.360  1.00  0.00     0.011 C 
HETATM   19  C12 UNL     1      -4.307  48.825 -27.086  1.00  0.00    -0.063 C 
HETATM   20  C13 UNL     1      -4.951  48.177 -25.885  1.00  0.00     0.048 C 
BRANCH  19  21
HETATM   21  C11 UNL     1      -3.295  49.855 -26.851  1.00  0.00     0.006 C 
HETATM   22  C10 UNL     1      -2.309  49.813 -25.937  1.00  0.00     0.001 C 
BRANCH  22  23
HETATM   23  C9  UNL     1      -1.363  50.899 -25.762  1.00  0.00     0.002 C 
HETATM   24  C7  UNL     1      -1.562  52.053 -25.090  1.00  0.00    -0.084 C 
HETATM   25  C8  UNL     1      -2.824  52.401 -24.336  1.00  0.00     0.043 C 
BRANCH  24  26
HETATM   26  C6  UNL     1      -0.518  53.164 -25.003  1.00  0.00     0.037 C 
BRANCH  26  27
HETATM   27  C5  UNL     1       0.748  52.900 -24.172  1.00  0.00     0.031 C 
BRANCH  27  28
HETATM   28  C4  UNL     1       0.409  52.341 -22.815  1.00  0.00    -0.024 C 
HETATM   29  C2  UNL     1       0.699  52.868 -21.608  1.00  0.00    -0.091 C 
HETATM   30  C1  UNL     1       0.239  52.190 -20.345  1.00  0.00     0.042 C 
HETATM   31  C3  UNL     1       1.486  54.129 -21.382  1.00  0.00     0.042 C 
ENDBRANCH  27  28
ENDBRANCH  26  27
ENDBRANCH  24  26
ENDBRANCH  22  23
ENDBRANCH  19  21
ENDBRANCH   1  18
BRANCH  15  32
HETATM   32  O3  UNL     1      -9.248  47.599 -31.978  1.00  0.00    -0.389 OA
HETATM   33  H44 UNL     1      -9.972  48.121 -32.362  1.00  0.00     0.210 HD
ENDBRANCH  15  32
BRANCH  11  34
HETATM   34  C26 UNL     1      -8.326  44.278 -27.199  1.00  0.00     0.265 C 
HETATM   35  O2  UNL     1      -7.997  44.293 -26.018  1.00  0.00    -0.302 OA
ENDBRANCH  11  34
TORSDOF 8
ENDMDL
MODEL 7
REMARK minimizedAffinity -8.61646843
REMARK  8 active torsions:
REMARK  status: ('A' for Active; 'I' for Inactive)
REMARK    1  A    between atoms: C4_4  and  C5_5 
REMARK    2  A    between atoms: C5_5  and  C6_6 
REMARK    3  A    between atoms: C6_6  and  C7_7 
REMARK    4  A    between atoms: C9_9  and  C10_10 
REMARK    5  A    between atoms: C11_11  and  C12_12 
REMARK    6  A    between atoms: C14_14  and  C15_15 
REMARK    7  A    between atoms: C24_25  and  C26_27 
REMARK    8  A    between atoms: C29_31  and  O3_33 
ROOT
HETATM    1  C15 UNL     1      -7.156  47.172 -28.045  1.00  0.00     0.149 C 
HETATM    2  C16 UNL     1      -8.549  46.603 -27.748  1.00  0.00     0.054 C 
HETATM    3  C17 UNL     1      -9.423  47.161 -28.896  1.00  0.00     0.050 C 
HETATM    4  C18 UNL     1      -8.761  48.549 -28.997  1.00  0.00     0.272 C 
HETATM    5  O1  UNL     1      -9.158  49.341 -30.095  1.00  0.00    -0.360 OA
HETATM    6  C19 UNL     1      -8.366  49.268 -31.261  1.00  0.00     0.171 C 
HETATM    7  C20 UNL     1      -8.328  47.909 -31.944  1.00  0.00     0.027 C 
HETATM    8  C21 UNL     1      -9.436  46.935 -31.547  1.00  0.00     0.012 C 
HETATM    9  C22 UNL     1      -9.160  46.276 -30.180  1.00  0.00     0.032 C 
HETATM   10  C23 UNL     1      -9.866  44.907 -30.086  1.00  0.00    -0.066 C 
HETATM   11  C24 UNL     1      -9.257  43.702 -30.240  1.00  0.00    -0.021 C 
HETATM   12  C25 UNL     1      -9.890  42.350 -30.027  1.00  0.00     0.052 C 
HETATM   13  C27 UNL     1     -11.341  45.047 -29.781  1.00  0.00     0.038 C 
HETATM   14  C28 UNL     1     -11.558  45.811 -28.480  1.00  0.00     0.042 C 
HETATM   15  C29 UNL     1     -10.953  47.226 -28.543  1.00  0.00     0.067 C 
HETATM   16  C30 UNL     1     -11.299  47.958 -27.234  1.00  0.00     0.047 C 
HETATM   17  O4  UNL     1      -7.348  48.341 -28.866  1.00  0.00    -0.351 OA
ENDROOT
BRANCH   1  18
HETATM   18  C14 UNL     1      -6.412  47.576 -26.805  1.00  0.00     0.011 C 
HETATM   19  C12 UNL     1      -5.164  48.082 -26.725  1.00  0.00    -0.063 C 
HETATM   20  C13 UNL     1      -4.270  48.283 -27.924  1.00  0.00     0.048 C 
BRANCH  19  21
HETATM   21  C11 UNL     1      -4.634  48.434 -25.407  1.00  0.00     0.006 C 
HETATM   22  C10 UNL     1      -3.342  48.632 -25.092  1.00  0.00     0.001 C 
BRANCH  22  23
HETATM   23  C9  UNL     1      -2.910  48.956 -23.745  1.00  0.00     0.002 C 
HETATM   24  C7  UNL     1      -2.691  50.186 -23.234  1.00  0.00    -0.084 C 
HETATM   25  C8  UNL     1      -2.916  51.479 -23.983  1.00  0.00     0.043 C 
BRANCH  24  26
HETATM   26  C6  UNL     1      -2.187  50.427 -21.813  1.00  0.00     0.037 C 
BRANCH  26  27
HETATM   27  C5  UNL     1      -0.691  50.213 -21.532  1.00  0.00     0.031 C 
BRANCH  27  28
HETATM   28  C4  UNL     1      -0.062  51.443 -20.932  1.00  0.00    -0.024 C 
HETATM   29  C2  UNL     1       0.446  52.511 -21.579  1.00  0.00    -0.091 C 
HETATM   30  C1  UNL     1       0.999  53.681 -20.811  1.00  0.00     0.042 C 
HETATM   31  C3  UNL     1       0.529  52.657 -23.074  1.00  0.00     0.042 C 
ENDBRANCH  27  28
ENDBRANCH  26  27
ENDBRANCH  24  26
ENDBRANCH  22  23
ENDBRANCH  19  21
ENDBRANCH   1  18
BRANCH  15  32
HETATM   32  O3  UNL     1     -11.648  47.931 -29.580  1.00  0.00    -0.389 OA
HETATM   33  H44 UNL     1     -12.583  48.020 -29.335  1.00  0.00     0.210 HD
ENDBRANCH  15  32
BRANCH  11  34
HETATM   34  C26 UNL     1      -7.826  43.583 -30.682  1.00  0.00     0.265 C 
HETATM   35  O2  UNL     1      -6.881  43.694 -29.909  1.00  0.00    -0.302 OA
ENDBRANCH  11  34
TORSDOF 8
ENDMDL
MODEL 8
REMARK minimizedAffinity -8.37237549
REMARK  8 active torsions:
REMARK  status: ('A' for Active; 'I' for Inactive)
REMARK    1  A    between atoms: C4_4  and  C5_5 
REMARK    2  A    between atoms: C5_5  and  C6_6 
REMARK    3  A    between atoms: C6_6  and  C7_7 
REMARK    4  A    between atoms: C9_9  and  C10_10 
REMARK    5  A    between atoms: C11_11  and  C12_12 
REMARK    6  A    between atoms: C14_14  and  C15_15 
REMARK    7  A    between atoms: C24_25  and  C26_27 
REMARK    8  A    between atoms: C29_31  and  O3_33 
ROOT
HETATM    1  C15 UNL     1      -5.723  47.246 -28.987  1.00  0.00     0.149 C 
HETATM    2  C16 UNL     1      -7.195  47.548 -29.292  1.00  0.00     0.054 C 
HETATM    3  C17 UNL     1      -7.242  47.615 -30.836  1.00  0.00     0.050 C 
HETATM    4  C18 UNL     1      -5.876  48.293 -31.050  1.00  0.00     0.272 C 
HETATM    5  O1  UNL     1      -5.430  48.372 -32.386  1.00  0.00    -0.360 OA
HETATM    6  C19 UNL     1      -4.592  47.335 -32.848  1.00  0.00     0.171 C 
HETATM    7  C20 UNL     1      -5.221  45.950 -32.883  1.00  0.00     0.027 C 
HETATM    8  C21 UNL     1      -6.747  45.911 -32.820  1.00  0.00     0.012 C 
HETATM    9  C22 UNL     1      -7.268  46.131 -31.385  1.00  0.00     0.032 C 
HETATM   10  C23 UNL     1      -8.655  45.479 -31.205  1.00  0.00    -0.066 C 
HETATM   11  C24 UNL     1      -8.885  44.292 -30.584  1.00  0.00    -0.021 C 
HETATM   12  C25 UNL     1     -10.236  43.694 -30.281  1.00  0.00     0.052 C 
HETATM   13  C27 UNL     1      -9.762  46.325 -31.795  1.00  0.00     0.038 C 
HETATM   14  C28 UNL     1      -9.779  47.713 -31.166  1.00  0.00     0.042 C 
HETATM   15  C29 UNL     1      -8.448  48.456 -31.391  1.00  0.00     0.067 C 
HETATM   16  C30 UNL     1      -8.584  49.876 -30.813  1.00  0.00     0.047 C 
HETATM   17  O4  UNL     1      -4.961  47.677 -30.132  1.00  0.00    -0.351 OA
ENDROOT
BRANCH   1  18
HETATM   18  C14 UNL     1      -5.215  47.971 -27.775  1.00  0.00     0.011 C 
HETATM   19  C12 UNL     1      -5.750  47.975 -26.536  1.00  0.00    -0.063 C 
HETATM   20  C13 UNL     1      -7.026  47.252 -26.180  1.00  0.00     0.048 C 
BRANCH  19  21
HETATM   21  C11 UNL     1      -5.076  48.737 -25.484  1.00  0.00     0.006 C 
HETATM   22  C10 UNL     1      -3.759  48.731 -25.212  1.00  0.00     0.001 C 
BRANCH  22  23
HETATM   23  C9  UNL     1      -3.184  49.506 -24.129  1.00  0.00     0.002 C 
HETATM   24  C7  UNL     1      -3.119  50.852 -24.035  1.00  0.00    -0.084 C 
HETATM   25  C8  UNL     1      -3.699  51.812 -25.048  1.00  0.00     0.043 C 
BRANCH  24  26
HETATM   26  C6  UNL     1      -2.447  51.581 -22.874  1.00  0.00     0.037 C 
BRANCH  26  27
HETATM   27  C5  UNL     1      -1.264  50.891 -22.177  1.00  0.00     0.031 C 
BRANCH  27  28
HETATM   28  C4  UNL     1      -0.379  51.889 -21.478  1.00  0.00    -0.024 C 
HETATM   29  C2  UNL     1       0.433  52.808 -22.038  1.00  0.00    -0.091 C 
HETATM   30  C1  UNL     1       1.218  53.763 -21.178  1.00  0.00     0.042 C 
HETATM   31  C3  UNL     1       0.653  52.982 -23.515  1.00  0.00     0.042 C 
ENDBRANCH  27  28
ENDBRANCH  26  27
ENDBRANCH  24  26
ENDBRANCH  22  23
ENDBRANCH  19  21
ENDBRANCH   1  18
BRANCH  15  32
HETATM   32  O3  UNL     1      -8.296  48.623 -32.806  1.00  0.00    -0.389 OA
HETATM   33  H44 UNL     1      -9.011  49.190 -33.140  1.00  0.00     0.210 HD
ENDBRANCH  15  32
BRANCH  11  34
HETATM   34  C26 UNL     1      -7.766  43.399 -30.132  1.00  0.00     0.265 C 
HETATM   35  O2  UNL     1      -7.121  42.698 -30.905  1.00  0.00    -0.302 OA
ENDBRANCH  11  34
TORSDOF 8
ENDMDL
MODEL 9
REMARK minimizedAffinity -8.35075092
REMARK  8 active torsions:
REMARK  status: ('A' for Active; 'I' for Inactive)
REMARK    1  A    between atoms: C4_4  and  C5_5 
REMARK    2  A    between atoms: C5_5  and  C6_6 
REMARK    3  A    between atoms: C6_6  and  C7_7 
REMARK    4  A    between atoms: C9_9  and  C10_10 
REMARK    5  A    between atoms: C11_11  and  C12_12 
REMARK    6  A    between atoms: C14_14  and  C15_15 
REMARK    7  A    between atoms: C24_25  and  C26_27 
REMARK    8  A    between atoms: C29_31  and  O3_33 
ROOT
HETATM    1  C15 UNL     1      -6.535  47.326 -28.697  1.00  0.00     0.149 C 
HETATM    2  C16 UNL     1      -7.689  47.016 -27.736  1.00  0.00     0.054 C 
HETATM    3  C17 UNL     1      -8.946  47.461 -28.518  1.00  0.00     0.050 C 
HETATM    4  C18 UNL     1      -8.334  48.703 -29.193  1.00  0.00     0.272 C 
HETATM    5  O1  UNL     1      -9.130  49.321 -30.182  1.00  0.00    -0.360 OA
HETATM    6  C19 UNL     1      -8.918  48.924 -31.519  1.00  0.00     0.171 C 
HETATM    7  C20 UNL     1      -9.234  47.468 -31.830  1.00  0.00     0.027 C 
HETATM    8  C21 UNL     1     -10.105  46.744 -30.804  1.00  0.00     0.012 C 
HETATM    9  C22 UNL     1      -9.298  46.323 -29.560  1.00  0.00     0.032 C 
HETATM   10  C23 UNL     1      -9.951  45.103 -28.876  1.00  0.00    -0.066 C 
HETATM   11  C24 UNL     1      -9.518  43.820 -28.988  1.00  0.00    -0.021 C 
HETATM   12  C25 UNL     1     -10.055  42.631 -28.233  1.00  0.00     0.052 C 
HETATM   13  C27 UNL     1     -11.146  45.495 -28.035  1.00  0.00     0.038 C 
HETATM   14  C28 UNL     1     -10.751  46.512 -26.970  1.00  0.00     0.042 C 
HETATM   15  C29 UNL     1     -10.173  47.796 -27.594  1.00  0.00     0.067 C 
HETATM   16  C30 UNL     1      -9.893  48.801 -26.463  1.00  0.00     0.047 C 
HETATM   17  O4  UNL     1      -7.011  48.336 -29.609  1.00  0.00    -0.351 OA
ENDROOT
BRANCH   1  18
HETATM   18  C14 UNL     1      -5.316  47.852 -27.998  1.00  0.00     0.011 C 
HETATM   19  C12 UNL     1      -5.166  48.093 -26.679  1.00  0.00    -0.063 C 
HETATM   20  C13 UNL     1      -6.271  47.905 -25.669  1.00  0.00     0.048 C 
BRANCH  19  21
HETATM   21  C11 UNL     1      -3.874  48.586 -26.199  1.00  0.00     0.006 C 
HETATM   22  C10 UNL     1      -2.952  49.245 -26.923  1.00  0.00     0.001 C 
BRANCH  22  23
HETATM   23  C9  UNL     1      -1.685  49.675 -26.363  1.00  0.00     0.002 C 
HETATM   24  C7  UNL     1      -1.160  50.919 -26.395  1.00  0.00    -0.084 C 
HETATM   25  C8  UNL     1      -1.847  52.125 -26.991  1.00  0.00     0.043 C 
BRANCH  24  26
HETATM   26  C6  UNL     1       0.210  51.267 -25.818  1.00  0.00     0.037 C 
BRANCH  26  27
HETATM   27  C5  UNL     1       0.360  52.602 -25.071  1.00  0.00     0.031 C 
BRANCH  27  28
HETATM   28  C4  UNL     1       0.520  52.388 -23.589  1.00  0.00    -0.024 C 
HETATM   29  C2  UNL     1      -0.449  52.181 -22.674  1.00  0.00    -0.091 C 
HETATM   30  C1  UNL     1      -0.101  51.939 -21.230  1.00  0.00     0.042 C 
HETATM   31  C3  UNL     1      -1.924  52.173 -22.965  1.00  0.00     0.042 C 
ENDBRANCH  27  28
ENDBRANCH  26  27
ENDBRANCH  24  26
ENDBRANCH  22  23
ENDBRANCH  19  21
ENDBRANCH   1  18
BRANCH  15  32
HETATM   32  O3  UNL     1     -11.215  48.380 -28.386  1.00  0.00    -0.389 OA
HETATM   33  H44 UNL     1     -11.950  48.639 -27.807  1.00  0.00     0.210 HD
ENDBRANCH  15  32
BRANCH  11  34
HETATM   34  C26 UNL     1      -8.422  43.429 -29.937  1.00  0.00     0.265 C 
HETATM   35  O2  UNL     1      -8.614  42.719 -30.918  1.00  0.00    -0.302 OA
ENDBRANCH  11  34
TORSDOF 8
ENDMDL
