MODEL 1
REMARK minimizedAffinity -9.75863647
REMARK CNNscore 0.641198397
REMARK CNNaffinity 7.12120676
REMARK  14 active torsions:
REMARK  status: ('A' for Active; 'I' for Inactive)
REMARK    1  A    between atoms: C19_20  and  O2_21 
REMARK    2  A    between atoms: C19_20  and  C20_22 
REMARK    3  A    between atoms: C20_22  and  C21_24 
REMARK    4  A    between atoms: C21_24  and  O4_25 
REMARK    5  A    between atoms: O4_25  and  C22_26 
REMARK    6  A    between atoms: C22_26  and  C23_28 
REMARK    7  A    between atoms: C23_28  and  C24_29 
REMARK    8  A    between atoms: C24_29  and  C25_30 
REMARK       I    between atoms: C25_30  and  N1_32 
REMARK    9  A    between atoms: N1_32  and  C26_33 
REMARK   10  A    between atoms: C26_33  and  C27_34 
REMARK   11  A    between atoms: C26_33  and  C36_45 
REMARK   12  A    between atoms: C27_34  and  C28_35 
REMARK   13  A    between atoms: C33_41  and  O7_42 
REMARK   14  A    between atoms: C36_45  and  O9_47 
ROOT
HETATM    1  O4  UNL     1       0.044  51.651 -15.091  1.00  0.00    -0.314 OA
ENDROOT
BRANCH   1   2
HETATM    2  C21 UNL     1       0.497  52.197 -13.850  1.00  0.00     0.260 C 
BRANCH   2   3
HETATM    3  C20 UNL     1      -0.563  52.088 -12.748  1.00  0.00     0.185 C 
HETATM    4  O3  UNL     1      -1.760  52.234 -13.016  1.00  0.00    -0.292 OA
BRANCH   3   5
HETATM    5  C19 UNL     1      -0.046  51.904 -11.291  1.00  0.00     0.128 C 
HETATM    6  C14 UNL     1      -0.027  53.190 -10.399  1.00  0.00    -0.002 C 
HETATM    7  C13 UNL     1       0.120  52.819  -8.894  1.00  0.00     0.013 C 
HETATM    8  C15 UNL     1      -1.297  54.044 -10.570  1.00  0.00     0.019 C 
HETATM    9  C16 UNL     1       1.240  53.918 -10.899  1.00  0.00     0.002 C 
HETATM   10  C12 UNL     1       0.564  53.981  -8.002  1.00  0.00     0.007 C 
HETATM   11  C11 UNL     1       1.885  54.605  -8.488  1.00  0.00     0.002 C 
HETATM   12  C2  UNL     1       2.420  55.767  -7.570  1.00  0.00    -0.016 C 
HETATM   13  C10 UNL     1       1.726  55.055  -9.973  1.00  0.00    -0.004 C 
HETATM   14  C1  UNL     1       1.390  56.919  -7.437  1.00  0.00     0.020 C 
HETATM   15  C3  UNL     1       2.724  55.311  -6.113  1.00  0.00     0.022 C 
HETATM   16  C7  UNL     1       3.702  56.273  -8.237  1.00  0.00    -0.068 C 
HETATM   17  C4  UNL     1       4.000  54.499  -5.973  1.00  0.00     0.084 C 
HETATM   18  C5  UNL     1       5.167  55.279  -6.525  1.00  0.00     0.149 C 
HETATM   19  O1  UNL     1       6.308  55.169  -6.078  1.00  0.00    -0.293 OA
HETATM   20  C6  UNL     1       4.939  56.107  -7.732  1.00  0.00     0.053 C 
HETATM   21  C8  UNL     1       3.532  56.831  -9.627  1.00  0.00     0.035 C 
HETATM   22  C9  UNL     1       3.002  55.718 -10.532  1.00  0.00     0.010 C 
HETATM   23  C17 UNL     1       2.249  52.784 -11.157  1.00  0.00     0.009 C 
HETATM   24  C18 UNL     1       1.438  51.503 -11.379  1.00  0.00     0.047 C 
BRANCH   5  25
HETATM   25  O2  UNL     1      -0.770  50.862 -10.638  1.00  0.00    -0.381 OA
HETATM   26  H27 UNL     1      -1.663  51.201 -10.432  1.00  0.00     0.211 HD
ENDBRANCH   5  25
ENDBRANCH   3   5
ENDBRANCH   2   3
ENDBRANCH   1   2
BRANCH   1  27
HETATM   27  C22 UNL     1       1.032  51.552 -16.026  1.00  0.00     0.259 C 
HETATM   28  O5  UNL     1       2.186  51.939 -15.863  1.00  0.00    -0.265 OA
BRANCH  27  29
HETATM   29  C23 UNL     1       0.573  50.815 -17.265  1.00  0.00     0.120 C 
BRANCH  29  30
HETATM   30  C24 UNL     1      -0.918  50.941 -17.563  1.00  0.00     0.112 C 
BRANCH  30  31
HETATM   31  C25 UNL     1      -1.184  51.770 -18.801  1.00  0.00     0.218 C 
HETATM   32  O6  UNL     1      -2.293  52.201 -19.104  1.00  0.00    -0.274 OA
HETATM   33  N1  UNL     1      -0.054  52.014 -19.539  1.00  0.00    -0.346 N 
HETATM   34  H34 UNL     1       0.863  51.750 -19.188  1.00  0.00     0.163 HD
BRANCH  33  35
HETATM   35  C26 UNL     1      -0.087  52.761 -20.805  1.00  0.00     0.186 C 
BRANCH  35  36
HETATM   36  C27 UNL     1       0.146  51.802 -21.979  1.00  0.00     0.077 C 
BRANCH  36  37
HETATM   37  C28 UNL     1      -0.528  52.210 -23.251  1.00  0.00    -0.028 A 
HETATM   38  C29 UNL     1      -1.857  52.562 -23.386  1.00  0.00     0.096 A 
HETATM   39  N2  UNL     1      -2.097  52.848 -24.701  1.00  0.00    -0.365 N 
HETATM   40  C30 UNL     1      -0.948  52.688 -25.440  1.00  0.00     0.043 A 
HETATM   41  H39 UNL     1      -2.990  53.130 -25.080  1.00  0.00     0.165 HD
HETATM   42  C31 UNL     1      -0.728  52.867 -26.812  1.00  0.00     0.033 A 
HETATM   43  C35 UNL     1       0.055  52.284 -24.557  1.00  0.00     0.001 A 
HETATM   44  C32 UNL     1       0.562  52.627 -27.299  1.00  0.00     0.039 A 
HETATM   45  C33 UNL     1       1.575  52.225 -26.436  1.00  0.00     0.066 A 
HETATM   46  C34 UNL     1       1.345  52.044 -25.072  1.00  0.00     0.050 A 
BRANCH  45  47
HETATM   47  O7  UNL     1       2.841  51.989 -26.897  1.00  0.00    -0.361 OA
HETATM   48  H42 UNL     1       2.865  52.199 -27.846  1.00  0.00     0.217 HD
ENDBRANCH  45  47
ENDBRANCH  36  37
ENDBRANCH  35  36
BRANCH  35  49
HETATM   49  C36 UNL     1       0.997  53.841 -20.776  1.00  0.00     0.163 C 
HETATM   50  O8  UNL     1       1.495  54.424 -21.727  1.00  0.00    -0.648 OA
BRANCH  49  51
HETATM   51  O9  UNL     1       1.447  54.118 -19.524  1.00  0.00    -0.775 OA
HETATM   52  H44 UNL     1       2.127  54.809 -19.691  1.00  0.00     0.167 HD
ENDBRANCH  49  51
ENDBRANCH  35  49
ENDBRANCH  33  35
ENDBRANCH  30  31
ENDBRANCH  29  30
ENDBRANCH  27  29
ENDBRANCH   1  27
TORSDOF 14
ENDMDL
MODEL 2
REMARK minimizedAffinity -9.38661671
REMARK CNNscore 0.477409095
REMARK CNNaffinity 6.87039185
REMARK  14 active torsions:
REMARK  status: ('A' for Active; 'I' for Inactive)
REMARK    1  A    between atoms: C19_20  and  O2_21 
REMARK    2  A    between atoms: C19_20  and  C20_22 
REMARK    3  A    between atoms: C20_22  and  C21_24 
REMARK    4  A    between atoms: C21_24  and  O4_25 
REMARK    5  A    between atoms: O4_25  and  C22_26 
REMARK    6  A    between atoms: C22_26  and  C23_28 
REMARK    7  A    between atoms: C23_28  and  C24_29 
REMARK    8  A    between atoms: C24_29  and  C25_30 
REMARK       I    between atoms: C25_30  and  N1_32 
REMARK    9  A    between atoms: N1_32  and  C26_33 
REMARK   10  A    between atoms: C26_33  and  C27_34 
REMARK   11  A    between atoms: C26_33  and  C36_45 
REMARK   12  A    between atoms: C27_34  and  C28_35 
REMARK   13  A    between atoms: C33_41  and  O7_42 
REMARK   14  A    between atoms: C36_45  and  O9_47 
ROOT
HETATM    1  O4  UNL     1      -5.704  46.217 -31.255  1.00  0.00    -0.314 OA
ENDROOT
BRANCH   1   2
HETATM    2  C21 UNL     1      -6.304  46.296 -32.550  1.00  0.00     0.260 C 
BRANCH   2   3
HETATM    3  C20 UNL     1      -7.322  45.175 -32.787  1.00  0.00     0.185 C 
HETATM    4  O3  UNL     1      -6.954  43.998 -32.846  1.00  0.00    -0.292 OA
BRANCH   3   5
HETATM    5  C19 UNL     1      -8.793  45.609 -33.056  1.00  0.00     0.128 C 
HETATM    6  C14 UNL     1      -9.383  45.211 -34.451  1.00  0.00    -0.002 C 
HETATM    7  C13 UNL     1     -10.936  45.335 -34.452  1.00  0.00     0.013 C 
HETATM    8  C15 UNL     1      -9.008  43.774 -34.861  1.00  0.00     0.019 C 
HETATM    9  C16 UNL     1      -8.759  46.269 -35.387  1.00  0.00     0.002 C 
HETATM   10  C12 UNL     1     -11.560  45.379 -35.849  1.00  0.00     0.007 C 
HETATM   11  C11 UNL     1     -10.973  46.515 -36.705  1.00  0.00     0.002 C 
HETATM   12  C2  UNL     1     -11.625  46.644 -38.132  1.00  0.00    -0.016 C 
HETATM   13  C10 UNL     1      -9.424  46.357 -36.779  1.00  0.00    -0.004 C 
HETATM   14  C1  UNL     1     -11.486  45.335 -38.952  1.00  0.00     0.020 C 
HETATM   15  C3  UNL     1     -13.152  46.946 -38.087  1.00  0.00     0.022 C 
HETATM   16  C7  UNL     1     -10.887  47.790 -38.830  1.00  0.00    -0.068 C 
HETATM   17  C4  UNL     1     -13.488  48.380 -37.713  1.00  0.00     0.084 C 
HETATM   18  C5  UNL     1     -12.800  49.332 -38.658  1.00  0.00     0.149 C 
HETATM   19  O1  UNL     1     -13.280  50.422 -38.966  1.00  0.00    -0.293 OA
HETATM   20  C6  UNL     1     -11.437  48.983 -39.123  1.00  0.00     0.053 C 
HETATM   21  C8  UNL     1      -9.405  47.584 -39.020  1.00  0.00     0.035 C 
HETATM   22  C9  UNL     1      -8.756  47.446 -37.644  1.00  0.00     0.010 C 
HETATM   23  C17 UNL     1      -8.773  47.563 -34.553  1.00  0.00     0.009 C 
HETATM   24  C18 UNL     1      -8.821  47.148 -33.078  1.00  0.00     0.047 C 
BRANCH   5  25
HETATM   25  O2  UNL     1      -9.645  45.144 -32.011  1.00  0.00    -0.381 OA
HETATM   26  H27 UNL     1      -9.757  44.180 -32.120  1.00  0.00     0.211 HD
ENDBRANCH   5  25
ENDBRANCH   3   5
ENDBRANCH   2   3
ENDBRANCH   1   2
BRANCH   1  27
HETATM   27  C22 UNL     1      -6.130  47.194 -30.405  1.00  0.00     0.259 C 
HETATM   28  O5  UNL     1      -6.588  48.276 -30.762  1.00  0.00    -0.265 OA
BRANCH  27  29
HETATM   29  C23 UNL     1      -6.071  46.757 -28.958  1.00  0.00     0.120 C 
BRANCH  29  30
HETATM   30  C24 UNL     1      -6.028  47.901 -27.949  1.00  0.00     0.112 C 
BRANCH  30  31
HETATM   31  C25 UNL     1      -4.613  48.354 -27.661  1.00  0.00     0.218 C 
HETATM   32  O6  UNL     1      -3.626  47.905 -28.238  1.00  0.00    -0.274 OA
HETATM   33  N1  UNL     1      -4.545  49.336 -26.708  1.00  0.00    -0.346 N 
HETATM   34  H34 UNL     1      -5.391  49.771 -26.348  1.00  0.00     0.163 HD
BRANCH  33  35
HETATM   35  C26 UNL     1      -3.266  49.892 -26.240  1.00  0.00     0.186 C 
BRANCH  35  36
HETATM   36  C27 UNL     1      -3.516  50.856 -25.073  1.00  0.00     0.077 C 
BRANCH  36  37
HETATM   37  C28 UNL     1      -2.360  50.996 -24.132  1.00  0.00    -0.028 A 
HETATM   38  C29 UNL     1      -2.101  50.188 -23.042  1.00  0.00     0.096 A 
HETATM   39  N2  UNL     1      -0.973  50.648 -22.423  1.00  0.00    -0.365 N 
HETATM   40  C30 UNL     1      -0.482  51.750 -23.083  1.00  0.00     0.043 A 
HETATM   41  H39 UNL     1      -0.559  50.243 -21.594  1.00  0.00     0.165 HD
HETATM   42  C31 UNL     1       0.641  52.539 -22.806  1.00  0.00     0.033 A 
HETATM   43  C35 UNL     1      -1.335  51.996 -24.160  1.00  0.00     0.001 A 
HETATM   44  C32 UNL     1       0.903  53.617 -23.660  1.00  0.00     0.039 A 
HETATM   45  C33 UNL     1       0.067  53.879 -24.739  1.00  0.00     0.066 A 
HETATM   46  C34 UNL     1      -1.052  53.089 -25.004  1.00  0.00     0.050 A 
BRANCH  45  47
HETATM   47  O7  UNL     1       0.313  54.927 -25.583  1.00  0.00    -0.361 OA
HETATM   48  H42 UNL     1       1.141  55.353 -25.307  1.00  0.00     0.217 HD
ENDBRANCH  45  47
ENDBRANCH  36  37
ENDBRANCH  35  36
BRANCH  35  49
HETATM   49  C36 UNL     1      -2.587  50.625 -27.400  1.00  0.00     0.163 C 
HETATM   50  O8  UNL     1      -1.391  50.818 -27.561  1.00  0.00    -0.648 OA
BRANCH  49  51
HETATM   51  O9  UNL     1      -3.464  51.127 -28.307  1.00  0.00    -0.775 OA
HETATM   52  H44 UNL     1      -2.870  51.559 -28.960  1.00  0.00     0.167 HD
ENDBRANCH  49  51
ENDBRANCH  35  49
ENDBRANCH  33  35
ENDBRANCH  30  31
ENDBRANCH  29  30
ENDBRANCH  27  29
ENDBRANCH   1  27
TORSDOF 14
ENDMDL
MODEL 3
REMARK minimizedAffinity -9.34043503
REMARK CNNscore 0.455761522
REMARK CNNaffinity 6.5056057
REMARK  14 active torsions:
REMARK  status: ('A' for Active; 'I' for Inactive)
REMARK    1  A    between atoms: C19_20  and  O2_21 
REMARK    2  A    between atoms: C19_20  and  C20_22 
REMARK    3  A    between atoms: C20_22  and  C21_24 
REMARK    4  A    between atoms: C21_24  and  O4_25 
REMARK    5  A    between atoms: O4_25  and  C22_26 
REMARK    6  A    between atoms: C22_26  and  C23_28 
REMARK    7  A    between atoms: C23_28  and  C24_29 
REMARK    8  A    between atoms: C24_29  and  C25_30 
REMARK       I    between atoms: C25_30  and  N1_32 
REMARK    9  A    between atoms: N1_32  and  C26_33 
REMARK   10  A    between atoms: C26_33  and  C27_34 
REMARK   11  A    between atoms: C26_33  and  C36_45 
REMARK   12  A    between atoms: C27_34  and  C28_35 
REMARK   13  A    between atoms: C33_41  and  O7_42 
REMARK   14  A    between atoms: C36_45  and  O9_47 
ROOT
HETATM    1  O4  UNL     1      -6.536  46.846 -18.852  1.00  0.00    -0.314 OA
ENDROOT
BRANCH   1   2
HETATM    2  C21 UNL     1      -5.275  47.508 -18.725  1.00  0.00     0.260 C 
BRANCH   2   3
HETATM    3  C20 UNL     1      -4.447  47.429 -20.012  1.00  0.00     0.185 C 
HETATM    4  O3  UNL     1      -4.584  46.476 -20.785  1.00  0.00    -0.292 OA
BRANCH   3   5
HETATM    5  C19 UNL     1      -3.370  48.533 -20.223  1.00  0.00     0.128 C 
HETATM    6  C14 UNL     1      -3.638  49.543 -21.388  1.00  0.00    -0.002 C 
HETATM    7  C13 UNL     1      -2.731  50.802 -21.251  1.00  0.00     0.013 C 
HETATM    8  C15 UNL     1      -5.107  50.004 -21.443  1.00  0.00     0.019 C 
HETATM    9  C16 UNL     1      -3.236  48.724 -22.634  1.00  0.00     0.002 C 
HETATM   10  C12 UNL     1      -2.612  51.632 -22.532  1.00  0.00     0.007 C 
HETATM   11  C11 UNL     1      -2.111  50.788 -23.718  1.00  0.00     0.002 C 
HETATM   12  C2  UNL     1      -1.911  51.608 -25.048  1.00  0.00    -0.016 C 
HETATM   13  C10 UNL     1      -3.058  49.566 -23.918  1.00  0.00    -0.004 C 
HETATM   14  C1  UNL     1      -3.222  52.302 -25.501  1.00  0.00     0.020 C 
HETATM   15  C3  UNL     1      -0.860  52.750 -24.916  1.00  0.00     0.022 C 
HETATM   16  C7  UNL     1      -1.453  50.595 -26.101  1.00  0.00    -0.068 C 
HETATM   17  C4  UNL     1       0.579  52.266 -24.900  1.00  0.00     0.084 C 
HETATM   18  C5  UNL     1       0.859  51.445 -26.133  1.00  0.00     0.149 C 
HETATM   19  O1  UNL     1       1.968  51.403 -26.664  1.00  0.00    -0.293 OA
HETATM   20  C6  UNL     1      -0.219  50.562 -26.638  1.00  0.00     0.053 C 
HETATM   21  C8  UNL     1      -2.425  49.480 -26.392  1.00  0.00     0.035 C 
HETATM   22  C9  UNL     1      -2.639  48.679 -25.109  1.00  0.00     0.010 C 
HETATM   23  C17 UNL     1      -1.999  47.928 -22.177  1.00  0.00     0.009 C 
HETATM   24  C18 UNL     1      -2.069  47.828 -20.649  1.00  0.00     0.047 C 
BRANCH   5  25
HETATM   25  O2  UNL     1      -3.138  49.237 -19.005  1.00  0.00    -0.381 OA
HETATM   26  H27 UNL     1      -3.908  49.817 -18.841  1.00  0.00     0.211 HD
ENDBRANCH   5  25
ENDBRANCH   3   5
ENDBRANCH   2   3
ENDBRANCH   1   2
BRANCH   1  27
HETATM   27  C22 UNL     1      -7.586  47.708 -18.969  1.00  0.00     0.259 C 
HETATM   28  O5  UNL     1      -7.894  48.292 -20.004  1.00  0.00    -0.265 OA
BRANCH  27  29
HETATM   29  C23 UNL     1      -8.400  47.792 -17.696  1.00  0.00     0.120 C 
BRANCH  29  30
HETATM   30  C24 UNL     1      -9.815  48.331 -17.881  1.00  0.00     0.112 C 
BRANCH  30  31
HETATM   31  C25 UNL     1     -10.846  47.223 -17.927  1.00  0.00     0.218 C 
HETATM   32  O6  UNL     1     -10.578  46.060 -18.217  1.00  0.00    -0.274 OA
HETATM   33  N1  UNL     1     -12.105  47.644 -17.587  1.00  0.00    -0.346 N 
HETATM   34  H34 UNL     1     -12.260  48.583 -17.229  1.00  0.00     0.163 HD
BRANCH  33  35
HETATM   35  C26 UNL     1     -13.268  46.744 -17.609  1.00  0.00     0.186 C 
BRANCH  35  36
HETATM   36  C27 UNL     1     -14.508  47.512 -18.083  1.00  0.00     0.077 C 
BRANCH  36  37
HETATM   37  C28 UNL     1     -15.060  47.040 -19.392  1.00  0.00    -0.028 A 
HETATM   38  C29 UNL     1     -14.318  46.626 -20.481  1.00  0.00     0.096 A 
HETATM   39  N2  UNL     1     -15.179  46.294 -21.490  1.00  0.00    -0.365 N 
HETATM   40  C30 UNL     1     -16.480  46.486 -21.087  1.00  0.00     0.043 A 
HETATM   41  H39 UNL     1     -14.903  45.962 -22.403  1.00  0.00     0.165 HD
HETATM   42  C31 UNL     1     -17.678  46.281 -21.784  1.00  0.00     0.033 A 
HETATM   43  C35 UNL     1     -16.438  46.959 -19.774  1.00  0.00     0.001 A 
HETATM   44  C32 UNL     1     -18.874  46.566 -21.116  1.00  0.00     0.039 A 
HETATM   45  C33 UNL     1     -18.854  47.036 -19.808  1.00  0.00     0.066 A 
HETATM   46  C34 UNL     1     -17.656  47.242 -19.124  1.00  0.00     0.050 A 
BRANCH  45  47
HETATM   47  O7  UNL     1     -20.015  47.317 -19.142  1.00  0.00    -0.361 OA
HETATM   48  H42 UNL     1     -20.762  47.083 -19.719  1.00  0.00     0.217 HD
ENDBRANCH  45  47
ENDBRANCH  36  37
ENDBRANCH  35  36
BRANCH  35  49
HETATM   49  C36 UNL     1     -13.493  46.187 -16.200  1.00  0.00     0.163 C 
HETATM   50  O8  UNL     1     -14.354  46.515 -15.398  1.00  0.00    -0.648 OA
BRANCH  49  51
HETATM   51  O9  UNL     1     -12.580  45.248 -15.840  1.00  0.00    -0.775 OA
HETATM   52  H44 UNL     1     -12.865  45.013 -14.930  1.00  0.00     0.167 HD
ENDBRANCH  49  51
ENDBRANCH  35  49
ENDBRANCH  33  35
ENDBRANCH  30  31
ENDBRANCH  29  30
ENDBRANCH  27  29
ENDBRANCH   1  27
TORSDOF 14
ENDMDL
MODEL 4
REMARK minimizedAffinity -9.7530632
REMARK CNNscore 0.42424342
REMARK CNNaffinity 6.98173904
REMARK  14 active torsions:
REMARK  status: ('A' for Active; 'I' for Inactive)
REMARK    1  A    between atoms: C19_20  and  O2_21 
REMARK    2  A    between atoms: C19_20  and  C20_22 
REMARK    3  A    between atoms: C20_22  and  C21_24 
REMARK    4  A    between atoms: C21_24  and  O4_25 
REMARK    5  A    between atoms: O4_25  and  C22_26 
REMARK    6  A    between atoms: C22_26  and  C23_28 
REMARK    7  A    between atoms: C23_28  and  C24_29 
REMARK    8  A    between atoms: C24_29  and  C25_30 
REMARK       I    between atoms: C25_30  and  N1_32 
REMARK    9  A    between atoms: N1_32  and  C26_33 
REMARK   10  A    between atoms: C26_33  and  C27_34 
REMARK   11  A    between atoms: C26_33  and  C36_45 
REMARK   12  A    between atoms: C27_34  and  C28_35 
REMARK   13  A    between atoms: C33_41  and  O7_42 
REMARK   14  A    between atoms: C36_45  and  O9_47 
ROOT
HETATM    1  O4  UNL     1      -4.000  48.087 -28.147  1.00  0.00    -0.314 OA
ENDROOT
BRANCH   1   2
HETATM    2  C21 UNL     1      -5.034  48.369 -29.093  1.00  0.00     0.260 C 
BRANCH   2   3
HETATM    3  C20 UNL     1      -6.421  47.981 -28.568  1.00  0.00     0.185 C 
HETATM    4  O3  UNL     1      -6.542  47.429 -27.470  1.00  0.00    -0.292 OA
BRANCH   3   5
HETATM    5  C19 UNL     1      -7.625  48.212 -29.528  1.00  0.00     0.128 C 
HETATM    6  C14 UNL     1      -8.481  46.949 -29.875  1.00  0.00    -0.002 C 
HETATM    7  C13 UNL     1      -9.850  47.359 -30.496  1.00  0.00     0.013 C 
HETATM    8  C15 UNL     1      -8.750  46.062 -28.644  1.00  0.00     0.019 C 
HETATM    9  C16 UNL     1      -7.605  46.236 -30.929  1.00  0.00     0.002 C 
HETATM   10  C12 UNL     1     -10.565  46.229 -31.241  1.00  0.00     0.007 C 
HETATM   11  C11 UNL     1      -9.682  45.622 -32.347  1.00  0.00     0.002 C 
HETATM   12  C2  UNL     1     -10.392  44.495 -33.186  1.00  0.00    -0.016 C 
HETATM   13  C10 UNL     1      -8.339  45.133 -31.724  1.00  0.00    -0.004 C 
HETATM   14  C1  UNL     1     -10.874  43.324 -32.290  1.00  0.00     0.020 C 
HETATM   15  C3  UNL     1     -11.662  44.994 -33.937  1.00  0.00     0.022 C 
HETATM   16  C7  UNL     1      -9.350  44.002 -34.194  1.00  0.00    -0.068 C 
HETATM   17  C4  UNL     1     -11.363  45.836 -35.165  1.00  0.00     0.084 C 
HETATM   18  C5  UNL     1     -10.472  45.070 -36.110  1.00  0.00     0.149 C 
HETATM   19  O1  UNL     1     -10.518  45.216 -37.330  1.00  0.00    -0.293 OA
HETATM   20  C6  UNL     1      -9.419  44.208 -35.523  1.00  0.00     0.053 C 
HETATM   21  C8  UNL     1      -8.101  43.407 -33.594  1.00  0.00     0.035 C 
HETATM   22  C9  UNL     1      -7.403  44.485 -32.766  1.00  0.00     0.010 C 
HETATM   23  C17 UNL     1      -7.014  47.386 -31.765  1.00  0.00     0.009 C 
HETATM   24  C18 UNL     1      -7.049  48.643 -30.889  1.00  0.00     0.047 C 
BRANCH   5  25
HETATM   25  O2  UNL     1      -8.463  49.253 -29.028  1.00  0.00    -0.381 OA
HETATM   26  H27 UNL     1      -8.956  48.900 -28.262  1.00  0.00     0.211 HD
ENDBRANCH   5  25
ENDBRANCH   3   5
ENDBRANCH   2   3
ENDBRANCH   1   2
BRANCH   1  27
HETATM   27  C22 UNL     1      -3.385  49.208 -27.673  1.00  0.00     0.259 C 
HETATM   28  O5  UNL     1      -3.392  50.298 -28.239  1.00  0.00    -0.265 OA
BRANCH  27  29
HETATM   29  C23 UNL     1      -2.772  48.988 -26.307  1.00  0.00     0.120 C 
BRANCH  29  30
HETATM   30  C24 UNL     1      -3.744  48.479 -25.248  1.00  0.00     0.112 C 
BRANCH  30  31
HETATM   31  C25 UNL     1      -3.317  48.868 -23.849  1.00  0.00     0.218 C 
HETATM   32  O6  UNL     1      -2.931  48.059 -23.008  1.00  0.00    -0.274 OA
HETATM   33  N1  UNL     1      -3.381  50.218 -23.621  1.00  0.00    -0.346 N 
HETATM   34  H34 UNL     1      -3.582  50.864 -24.380  1.00  0.00     0.163 HD
BRANCH  33  35
HETATM   35  C26 UNL     1      -3.055  50.812 -22.316  1.00  0.00     0.186 C 
BRANCH  35  36
HETATM   36  C27 UNL     1      -1.766  50.186 -21.769  1.00  0.00     0.077 C 
BRANCH  36  37
HETATM   37  C28 UNL     1      -0.883  51.142 -21.029  1.00  0.00    -0.028 A 
HETATM   38  C29 UNL     1      -0.691  51.173 -19.661  1.00  0.00     0.096 A 
HETATM   39  N2  UNL     1       0.166  52.197 -19.369  1.00  0.00    -0.365 N 
HETATM   40  C30 UNL     1       0.542  52.847 -20.521  1.00  0.00     0.043 A 
HETATM   41  H39 UNL     1       0.476  52.448 -18.440  1.00  0.00     0.165 HD
HETATM   42  C31 UNL     1       1.396  53.943 -20.698  1.00  0.00     0.033 A 
HETATM   43  C35 UNL     1      -0.104  52.209 -21.581  1.00  0.00     0.001 A 
HETATM   44  C32 UNL     1       1.598  54.403 -22.005  1.00  0.00     0.039 A 
HETATM   45  C33 UNL     1       0.965  53.781 -23.075  1.00  0.00     0.066 A 
HETATM   46  C34 UNL     1       0.113  52.693 -22.888  1.00  0.00     0.050 A 
BRANCH  45  47
HETATM   47  O7  UNL     1       1.155  54.218 -24.357  1.00  0.00    -0.361 OA
HETATM   48  H42 UNL     1       1.803  54.943 -24.340  1.00  0.00     0.217 HD
ENDBRANCH  45  47
ENDBRANCH  36  37
ENDBRANCH  35  36
BRANCH  35  49
HETATM   49  C36 UNL     1      -4.218  50.567 -21.352  1.00  0.00     0.163 C 
HETATM   50  O8  UNL     1      -4.368  49.623 -20.590  1.00  0.00    -0.648 OA
BRANCH  49  51
HETATM   51  O9  UNL     1      -5.184  51.520 -21.419  1.00  0.00    -0.775 OA
HETATM   52  H44 UNL     1      -5.838  51.206 -20.756  1.00  0.00     0.167 HD
ENDBRANCH  49  51
ENDBRANCH  35  49
ENDBRANCH  33  35
ENDBRANCH  30  31
ENDBRANCH  29  30
ENDBRANCH  27  29
ENDBRANCH   1  27
TORSDOF 14
ENDMDL
MODEL 5
REMARK minimizedAffinity -8.90224361
REMARK CNNscore 0.358211011
REMARK CNNaffinity 6.471766
REMARK  14 active torsions:
REMARK  status: ('A' for Active; 'I' for Inactive)
REMARK    1  A    between atoms: C19_20  and  O2_21 
REMARK    2  A    between atoms: C19_20  and  C20_22 
REMARK    3  A    between atoms: C20_22  and  C21_24 
REMARK    4  A    between atoms: C21_24  and  O4_25 
REMARK    5  A    between atoms: O4_25  and  C22_26 
REMARK    6  A    between atoms: C22_26  and  C23_28 
REMARK    7  A    between atoms: C23_28  and  C24_29 
REMARK    8  A    between atoms: C24_29  and  C25_30 
REMARK       I    between atoms: C25_30  and  N1_32 
REMARK    9  A    between atoms: N1_32  and  C26_33 
REMARK   10  A    between atoms: C26_33  and  C27_34 
REMARK   11  A    between atoms: C26_33  and  C36_45 
REMARK   12  A    between atoms: C27_34  and  C28_35 
REMARK   13  A    between atoms: C33_41  and  O7_42 
REMARK   14  A    between atoms: C36_45  and  O9_47 
ROOT
HETATM    1  O4  UNL     1      -7.451  47.049 -19.737  1.00  0.00    -0.314 OA
ENDROOT
BRANCH   1   2
HETATM    2  C21 UNL     1      -6.418  48.032 -19.649  1.00  0.00     0.260 C 
BRANCH   2   3
HETATM    3  C20 UNL     1      -5.245  47.726 -20.588  1.00  0.00     0.185 C 
HETATM    4  O3  UNL     1      -5.185  46.644 -21.180  1.00  0.00    -0.292 OA
BRANCH   3   5
HETATM    5  C19 UNL     1      -4.107  48.786 -20.659  1.00  0.00     0.128 C 
HETATM    6  C14 UNL     1      -4.166  49.780 -21.867  1.00  0.00    -0.002 C 
HETATM    7  C13 UNL     1      -3.240  51.008 -21.621  1.00  0.00     0.013 C 
HETATM    8  C15 UNL     1      -5.593  50.291 -22.141  1.00  0.00     0.019 C 
HETATM    9  C16 UNL     1      -3.620  48.920 -23.028  1.00  0.00     0.002 C 
HETATM   10  C12 UNL     1      -2.906  51.805 -22.884  1.00  0.00     0.007 C 
HETATM   11  C11 UNL     1      -2.272  50.918 -23.971  1.00  0.00     0.002 C 
HETATM   12  C2  UNL     1      -1.852  51.700 -25.271  1.00  0.00    -0.016 C 
HETATM   13  C10 UNL     1      -3.227  49.726 -24.286  1.00  0.00    -0.004 C 
HETATM   14  C1  UNL     1      -3.056  52.431 -25.921  1.00  0.00     0.020 C 
HETATM   15  C3  UNL     1      -0.788  52.807 -25.008  1.00  0.00     0.022 C 
HETATM   16  C7  UNL     1      -1.285  50.650 -26.230  1.00  0.00    -0.068 C 
HETATM   17  C4  UNL     1       0.615  52.272 -24.775  1.00  0.00     0.084 C 
HETATM   18  C5  UNL     1       1.038  51.415 -25.942  1.00  0.00     0.149 C 
HETATM   19  O1  UNL     1       2.210  51.323 -26.306  1.00  0.00    -0.293 OA
HETATM   20  C6  UNL     1       0.011  50.560 -26.582  1.00  0.00     0.053 C 
HETATM   21  C8  UNL     1      -2.247  49.563 -26.641  1.00  0.00     0.035 C 
HETATM   22  C9  UNL     1      -2.675  48.799 -25.389  1.00  0.00     0.010 C 
HETATM   23  C17 UNL     1      -2.494  48.090 -22.383  1.00  0.00     0.009 C 
HETATM   24  C18 UNL     1      -2.787  48.026 -20.880  1.00  0.00     0.047 C 
BRANCH   5  25
HETATM   25  O2  UNL     1      -4.027  49.508 -19.431  1.00  0.00    -0.381 OA
HETATM   26  H27 UNL     1      -4.789  50.118 -19.391  1.00  0.00     0.211 HD
ENDBRANCH   5  25
ENDBRANCH   3   5
ENDBRANCH   2   3
ENDBRANCH   1   2
BRANCH   1  27
HETATM   27  C22 UNL     1      -8.669  47.576 -20.052  1.00  0.00     0.259 C 
HETATM   28  O5  UNL     1      -9.164  47.561 -21.176  1.00  0.00    -0.265 OA
BRANCH  27  29
HETATM   29  C23 UNL     1      -9.397  48.098 -18.833  1.00  0.00     0.120 C 
BRANCH  29  30
HETATM   30  C24 UNL     1     -10.512  47.192 -18.322  1.00  0.00     0.112 C 
BRANCH  30  31
HETATM   31  C25 UNL     1     -11.868  47.596 -18.862  1.00  0.00     0.218 C 
HETATM   32  O6  UNL     1     -12.041  48.551 -19.614  1.00  0.00    -0.274 OA
HETATM   33  N1  UNL     1     -12.881  46.772 -18.446  1.00  0.00    -0.346 N 
HETATM   34  H34 UNL     1     -12.679  45.919 -17.929  1.00  0.00     0.163 HD
BRANCH  33  35
HETATM   35  C26 UNL     1     -14.286  47.006 -18.812  1.00  0.00     0.186 C 
BRANCH  35  36
HETATM   36  C27 UNL     1     -14.682  46.074 -19.964  1.00  0.00     0.077 C 
BRANCH  36  37
HETATM   37  C28 UNL     1     -16.148  46.056 -20.265  1.00  0.00    -0.028 A 
HETATM   38  C29 UNL     1     -17.161  45.861 -19.345  1.00  0.00     0.096 A 
HETATM   39  N2  UNL     1     -18.356  45.891 -20.007  1.00  0.00    -0.365 N 
HETATM   40  C30 UNL     1     -18.152  46.099 -21.351  1.00  0.00     0.043 A 
HETATM   41  H39 UNL     1     -19.262  45.772 -19.575  1.00  0.00     0.165 HD
HETATM   42  C31 UNL     1     -19.078  46.199 -22.398  1.00  0.00     0.033 A 
HETATM   43  C35 UNL     1     -16.774  46.203 -21.545  1.00  0.00     0.001 A 
HETATM   44  C32 UNL     1     -18.578  46.413 -23.687  1.00  0.00     0.039 A 
HETATM   45  C33 UNL     1     -17.209  46.520 -23.902  1.00  0.00     0.066 A 
HETATM   46  C34 UNL     1     -16.295  46.415 -22.854  1.00  0.00     0.050 A 
BRANCH  45  47
HETATM   47  O7  UNL     1     -16.707  46.733 -25.156  1.00  0.00    -0.361 OA
HETATM   48  H42 UNL     1     -17.453  46.832 -25.771  1.00  0.00     0.217 HD
ENDBRANCH  45  47
ENDBRANCH  36  37
ENDBRANCH  35  36
BRANCH  35  49
HETATM   49  C36 UNL     1     -14.456  48.469 -19.228  1.00  0.00     0.163 C 
HETATM   50  O8  UNL     1     -14.742  49.418 -18.514  1.00  0.00    -0.648 OA
BRANCH  49  51
HETATM   51  O9  UNL     1     -14.295  48.673 -20.562  1.00  0.00    -0.775 OA
HETATM   52  H44 UNL     1     -14.443  49.640 -20.648  1.00  0.00     0.167 HD
ENDBRANCH  49  51
ENDBRANCH  35  49
ENDBRANCH  33  35
ENDBRANCH  30  31
ENDBRANCH  29  30
ENDBRANCH  27  29
ENDBRANCH   1  27
TORSDOF 14
ENDMDL
MODEL 6
REMARK minimizedAffinity -9.14778996
REMARK CNNscore 0.354669452
REMARK CNNaffinity 6.81453562
REMARK  14 active torsions:
REMARK  status: ('A' for Active; 'I' for Inactive)
REMARK    1  A    between atoms: C19_20  and  O2_21 
REMARK    2  A    between atoms: C19_20  and  C20_22 
REMARK    3  A    between atoms: C20_22  and  C21_24 
REMARK    4  A    between atoms: C21_24  and  O4_25 
REMARK    5  A    between atoms: O4_25  and  C22_26 
REMARK    6  A    between atoms: C22_26  and  C23_28 
REMARK    7  A    between atoms: C23_28  and  C24_29 
REMARK    8  A    between atoms: C24_29  and  C25_30 
REMARK       I    between atoms: C25_30  and  N1_32 
REMARK    9  A    between atoms: N1_32  and  C26_33 
REMARK   10  A    between atoms: C26_33  and  C27_34 
REMARK   11  A    between atoms: C26_33  and  C36_45 
REMARK   12  A    between atoms: C27_34  and  C28_35 
REMARK   13  A    between atoms: C33_41  and  O7_42 
REMARK   14  A    between atoms: C36_45  and  O9_47 
ROOT
HETATM    1  O4  UNL     1       0.801  51.059 -15.899  1.00  0.00    -0.314 OA
ENDROOT
BRANCH   1   2
HETATM    2  C21 UNL     1       1.389  51.469 -14.662  1.00  0.00     0.260 C 
BRANCH   2   3
HETATM    3  C20 UNL     1       0.341  51.679 -13.563  1.00  0.00     0.185 C 
HETATM    4  O3  UNL     1      -0.783  52.108 -13.846  1.00  0.00    -0.292 OA
BRANCH   3   5
HETATM    5  C19 UNL     1       0.802  51.437 -12.096  1.00  0.00     0.128 C 
HETATM    6  C14 UNL     1       0.591  52.628 -11.103  1.00  0.00    -0.002 C 
HETATM    7  C13 UNL     1       0.711  52.147  -9.626  1.00  0.00     0.013 C 
HETATM    8  C15 UNL     1      -0.777  53.312 -11.284  1.00  0.00     0.019 C 
HETATM    9  C16 UNL     1       1.766  53.566 -11.459  1.00  0.00     0.002 C 
HETATM   10  C12 UNL     1       0.938  53.274  -8.616  1.00  0.00     0.007 C 
HETATM   11  C11 UNL     1       2.179  54.116  -8.964  1.00  0.00     0.002 C 
HETATM   12  C2  UNL     1       2.495  55.252  -7.921  1.00  0.00    -0.016 C 
HETATM   13  C10 UNL     1       2.036  54.671 -10.413  1.00  0.00    -0.004 C 
HETATM   14  C1  UNL     1       1.306  56.235  -7.760  1.00  0.00     0.020 C 
HETATM   15  C3  UNL     1       2.785  54.713  -6.489  1.00  0.00     0.022 C 
HETATM   16  C7  UNL     1       3.725  55.988  -8.460  1.00  0.00    -0.068 C 
HETATM   17  C4  UNL     1       4.155  54.075  -6.335  1.00  0.00     0.084 C 
HETATM   18  C5  UNL     1       5.226  55.054  -6.745  1.00  0.00     0.149 C 
HETATM   19  O1  UNL     1       6.346  55.062  -6.236  1.00  0.00    -0.293 OA
HETATM   20  C6  UNL     1       4.945  55.948  -7.892  1.00  0.00     0.053 C 
HETATM   21  C8  UNL     1       3.550  56.639  -9.809  1.00  0.00     0.035 C 
HETATM   22  C9  UNL     1       3.232  55.551 -10.833  1.00  0.00     0.010 C 
HETATM   23  C17 UNL     1       2.938  52.609 -11.743  1.00  0.00     0.009 C 
HETATM   24  C18 UNL     1       2.330  51.254 -12.121  1.00  0.00     0.047 C 
BRANCH   5  25
HETATM   25  O2  UNL     1       0.201  50.252 -11.579  1.00  0.00    -0.381 OA
HETATM   26  H27 UNL     1      -0.741  50.444 -11.403  1.00  0.00     0.211 HD
ENDBRANCH   5  25
ENDBRANCH   3   5
ENDBRANCH   2   3
ENDBRANCH   1   2
BRANCH   1  27
HETATM   27  C22 UNL     1       1.066  51.913 -16.929  1.00  0.00     0.259 C 
HETATM   28  O5  UNL     1       1.934  52.782 -16.906  1.00  0.00    -0.265 OA
BRANCH  27  29
HETATM   29  C23 UNL     1       0.233  51.606 -18.153  1.00  0.00     0.120 C 
BRANCH  29  30
HETATM   30  C24 UNL     1       0.097  52.764 -19.137  1.00  0.00     0.112 C 
BRANCH  30  31
HETATM   31  C25 UNL     1       0.215  52.306 -20.575  1.00  0.00     0.218 C 
HETATM   32  O6  UNL     1       1.278  52.270 -21.190  1.00  0.00    -0.274 OA
HETATM   33  N1  UNL     1      -0.982  51.913 -21.115  1.00  0.00    -0.346 N 
HETATM   34  H34 UNL     1      -1.814  51.836 -20.535  1.00  0.00     0.163 HD
BRANCH  33  35
HETATM   35  C26 UNL     1      -1.108  51.474 -22.513  1.00  0.00     0.186 C 
BRANCH  35  36
HETATM   36  C27 UNL     1      -1.999  52.455 -23.285  1.00  0.00     0.077 C 
BRANCH  36  37
HETATM   37  C28 UNL     1      -1.998  52.251 -24.768  1.00  0.00    -0.028 A 
HETATM   38  C29 UNL     1      -3.117  52.117 -25.567  1.00  0.00     0.096 A 
HETATM   39  N2  UNL     1      -2.707  51.926 -26.857  1.00  0.00    -0.365 N 
HETATM   40  C30 UNL     1      -1.333  51.928 -26.925  1.00  0.00     0.043 A 
HETATM   41  H39 UNL     1      -3.321  51.795 -27.649  1.00  0.00     0.165 HD
HETATM   42  C31 UNL     1      -0.486  51.767 -28.029  1.00  0.00     0.033 A 
HETATM   43  C35 UNL     1      -0.859  52.126 -25.627  1.00  0.00     0.001 A 
HETATM   44  C32 UNL     1       0.894  51.812 -27.799  1.00  0.00     0.039 A 
HETATM   45  C33 UNL     1       1.387  52.010 -26.515  1.00  0.00     0.066 A 
HETATM   46  C34 UNL     1       0.536  52.165 -25.421  1.00  0.00     0.050 A 
BRANCH  45  47
HETATM   47  O7  UNL     1       2.733  52.059 -26.277  1.00  0.00    -0.361 OA
HETATM   48  H42 UNL     1       3.197  51.985 -27.128  1.00  0.00     0.217 HD
ENDBRANCH  45  47
ENDBRANCH  36  37
ENDBRANCH  35  36
BRANCH  35  49
HETATM   49  C36 UNL     1      -1.714  50.068 -22.542  1.00  0.00     0.163 C 
HETATM   50  O8  UNL     1      -2.699  49.694 -23.159  1.00  0.00    -0.648 OA
BRANCH  49  51
HETATM   51  O9  UNL     1      -1.062  49.184 -21.743  1.00  0.00    -0.775 OA
HETATM   52  H44 UNL     1      -1.577  48.358 -21.875  1.00  0.00     0.167 HD
ENDBRANCH  49  51
ENDBRANCH  35  49
ENDBRANCH  33  35
ENDBRANCH  30  31
ENDBRANCH  29  30
ENDBRANCH  27  29
ENDBRANCH   1  27
TORSDOF 14
ENDMDL
MODEL 7
REMARK minimizedAffinity -8.79102993
REMARK CNNscore 0.331666529
REMARK CNNaffinity 6.3250618
REMARK  14 active torsions:
REMARK  status: ('A' for Active; 'I' for Inactive)
REMARK    1  A    between atoms: C19_20  and  O2_21 
REMARK    2  A    between atoms: C19_20  and  C20_22 
REMARK    3  A    between atoms: C20_22  and  C21_24 
REMARK    4  A    between atoms: C21_24  and  O4_25 
REMARK    5  A    between atoms: O4_25  and  C22_26 
REMARK    6  A    between atoms: C22_26  and  C23_28 
REMARK    7  A    between atoms: C23_28  and  C24_29 
REMARK    8  A    between atoms: C24_29  and  C25_30 
REMARK       I    between atoms: C25_30  and  N1_32 
REMARK    9  A    between atoms: N1_32  and  C26_33 
REMARK   10  A    between atoms: C26_33  and  C27_34 
REMARK   11  A    between atoms: C26_33  and  C36_45 
REMARK   12  A    between atoms: C27_34  and  C28_35 
REMARK   13  A    between atoms: C33_41  and  O7_42 
REMARK   14  A    between atoms: C36_45  and  O9_47 
ROOT
HETATM    1  O4  UNL     1      -6.089  48.741 -19.116  1.00  0.00    -0.314 OA
ENDROOT
BRANCH   1   2
HETATM    2  C21 UNL     1      -5.672  49.677 -20.112  1.00  0.00     0.260 C 
BRANCH   2   3
HETATM    3  C20 UNL     1      -4.650  49.074 -21.083  1.00  0.00     0.185 C 
HETATM    4  O3  UNL     1      -3.800  48.276 -20.678  1.00  0.00    -0.292 OA
BRANCH   3   5
HETATM    5  C19 UNL     1      -4.675  49.603 -22.546  1.00  0.00     0.128 C 
HETATM    6  C14 UNL     1      -3.340  49.463 -23.352  1.00  0.00    -0.002 C 
HETATM    7  C13 UNL     1      -3.592  49.647 -24.878  1.00  0.00     0.013 C 
HETATM    8  C15 UNL     1      -2.659  48.099 -23.130  1.00  0.00     0.019 C 
HETATM    9  C16 UNL     1      -2.498  50.634 -22.801  1.00  0.00     0.002 C 
HETATM   10  C12 UNL     1      -2.328  49.943 -25.690  1.00  0.00     0.007 C 
HETATM   11  C11 UNL     1      -1.581  51.180 -25.160  1.00  0.00     0.002 C 
HETATM   12  C2  UNL     1      -0.306  51.567 -25.997  1.00  0.00    -0.016 C 
HETATM   13  C10 UNL     1      -1.252  50.975 -23.649  1.00  0.00    -0.004 C 
HETATM   14  C1  UNL     1       0.719  50.404 -26.059  1.00  0.00     0.020 C 
HETATM   15  C3  UNL     1      -0.626  51.918 -27.481  1.00  0.00     0.022 C 
HETATM   16  C7  UNL     1       0.307  52.781 -25.295  1.00  0.00    -0.068 C 
HETATM   17  C4  UNL     1      -1.266  53.282 -27.669  1.00  0.00     0.084 C 
HETATM   18  C5  UNL     1      -0.389  54.349 -27.063  1.00  0.00     0.149 C 
HETATM   19  O1  UNL     1      -0.330  55.493 -27.512  1.00  0.00    -0.293 OA
HETATM   20  C6  UNL     1       0.325  54.027 -25.805  1.00  0.00     0.053 C 
HETATM   21  C8  UNL     1       0.748  52.551 -23.871  1.00  0.00     0.035 C 
HETATM   22  C9  UNL     1      -0.477  52.164 -23.044  1.00  0.00     0.010 C 
HETATM   23  C17 UNL     1      -3.516  51.774 -22.615  1.00  0.00     0.009 C 
HETATM   24  C18 UNL     1      -4.898  51.125 -22.480  1.00  0.00     0.047 C 
BRANCH   5  25
HETATM   25  O2  UNL     1      -5.751  49.008 -23.269  1.00  0.00    -0.381 OA
HETATM   26  H27 UNL     1      -5.511  48.080 -23.456  1.00  0.00     0.211 HD
ENDBRANCH   5  25
ENDBRANCH   3   5
ENDBRANCH   2   3
ENDBRANCH   1   2
BRANCH   1  27
HETATM   27  C22 UNL     1      -7.139  47.966 -19.515  1.00  0.00     0.259 C 
HETATM   28  O5  UNL     1      -7.076  47.104 -20.387  1.00  0.00    -0.265 OA
BRANCH  27  29
HETATM   29  C23 UNL     1      -8.379  48.217 -18.685  1.00  0.00     0.120 C 
BRANCH  29  30
HETATM   30  C24 UNL     1      -9.637  48.515 -19.497  1.00  0.00     0.112 C 
BRANCH  30  31
HETATM   31  C25 UNL     1     -10.708  47.465 -19.294  1.00  0.00     0.218 C 
HETATM   32  O6  UNL     1     -10.489  46.257 -19.329  1.00  0.00    -0.274 OA
HETATM   33  N1  UNL     1     -11.945  47.999 -19.043  1.00  0.00    -0.346 N 
HETATM   34  H34 UNL     1     -12.060  48.999 -18.894  1.00  0.00     0.163 HD
BRANCH  33  35
HETATM   35  C26 UNL     1     -13.141  47.163 -18.860  1.00  0.00     0.186 C 
BRANCH  35  36
HETATM   36  C27 UNL     1     -14.400  47.988 -19.154  1.00  0.00     0.077 C 
BRANCH  36  37
HETATM   37  C28 UNL     1     -15.492  47.224 -19.834  1.00  0.00    -0.028 A 
HETATM   38  C29 UNL     1     -16.526  46.557 -19.205  1.00  0.00     0.096 A 
HETATM   39  N2  UNL     1     -17.303  45.966 -20.162  1.00  0.00    -0.365 N 
HETATM   40  C30 UNL     1     -16.799  46.227 -21.414  1.00  0.00     0.043 A 
HETATM   41  H39 UNL     1     -18.128  45.410 -19.979  1.00  0.00     0.165 HD
HETATM   42  C31 UNL     1     -17.263  45.827 -22.674  1.00  0.00     0.033 A 
HETATM   43  C35 UNL     1     -15.658  47.013 -21.241  1.00  0.00     0.001 A 
HETATM   44  C32 UNL     1     -16.538  46.244 -23.795  1.00  0.00     0.039 A 
HETATM   45  C33 UNL     1     -15.400  47.028 -23.645  1.00  0.00     0.066 A 
HETATM   46  C34 UNL     1     -14.943  47.418 -22.386  1.00  0.00     0.050 A 
BRANCH  45  47
HETATM   47  O7  UNL     1     -14.683  47.446 -24.732  1.00  0.00    -0.361 OA
HETATM   48  H42 UNL     1     -15.140  47.143 -25.534  1.00  0.00     0.217 HD
ENDBRANCH  45  47
ENDBRANCH  36  37
ENDBRANCH  35  36
BRANCH  35  49
HETATM   49  C36 UNL     1     -13.170  46.641 -17.421  1.00  0.00     0.163 C 
HETATM   50  O8  UNL     1     -13.654  47.185 -16.441  1.00  0.00    -0.648 OA
BRANCH  49  51
HETATM   51  O9  UNL     1     -12.538  45.448 -17.268  1.00  0.00    -0.775 OA
HETATM   52  H44 UNL     1     -12.644  45.274 -16.307  1.00  0.00     0.167 HD
ENDBRANCH  49  51
ENDBRANCH  35  49
ENDBRANCH  33  35
ENDBRANCH  30  31
ENDBRANCH  29  30
ENDBRANCH  27  29
ENDBRANCH   1  27
TORSDOF 14
ENDMDL
MODEL 8
REMARK minimizedAffinity -8.8858757
REMARK CNNscore 0.326197565
REMARK CNNaffinity 6.47275305
REMARK  14 active torsions:
REMARK  status: ('A' for Active; 'I' for Inactive)
REMARK    1  A    between atoms: C19_20  and  O2_21 
REMARK    2  A    between atoms: C19_20  and  C20_22 
REMARK    3  A    between atoms: C20_22  and  C21_24 
REMARK    4  A    between atoms: C21_24  and  O4_25 
REMARK    5  A    between atoms: O4_25  and  C22_26 
REMARK    6  A    between atoms: C22_26  and  C23_28 
REMARK    7  A    between atoms: C23_28  and  C24_29 
REMARK    8  A    between atoms: C24_29  and  C25_30 
REMARK       I    between atoms: C25_30  and  N1_32 
REMARK    9  A    between atoms: N1_32  and  C26_33 
REMARK   10  A    between atoms: C26_33  and  C27_34 
REMARK   11  A    between atoms: C26_33  and  C36_45 
REMARK   12  A    between atoms: C27_34  and  C28_35 
REMARK   13  A    between atoms: C33_41  and  O7_42 
REMARK   14  A    between atoms: C36_45  and  O9_47 
ROOT
HETATM    1  O4  UNL     1      -2.503  51.227 -13.046  1.00  0.00    -0.314 OA
ENDROOT
BRANCH   1   2
HETATM    2  C21 UNL     1      -1.566  50.698 -12.105  1.00  0.00     0.260 C 
BRANCH   2   3
HETATM    3  C20 UNL     1      -1.719  51.331 -10.717  1.00  0.00     0.185 C 
HETATM    4  O3  UNL     1      -2.210  50.684  -9.786  1.00  0.00    -0.292 OA
BRANCH   3   5
HETATM    5  C19 UNL     1      -1.338  52.835 -10.584  1.00  0.00     0.128 C 
HETATM    6  C14 UNL     1       0.192  53.163 -10.621  1.00  0.00    -0.002 C 
HETATM    7  C13 UNL     1       0.428  54.681 -10.879  1.00  0.00     0.013 C 
HETATM    8  C15 UNL     1       0.942  52.361 -11.702  1.00  0.00     0.019 C 
HETATM    9  C16 UNL     1       0.644  52.784  -9.193  1.00  0.00     0.002 C 
HETATM   10  C12 UNL     1       1.835  55.166 -10.521  1.00  0.00     0.007 C 
HETATM   11  C11 UNL     1       2.195  54.852  -9.057  1.00  0.00     0.002 C 
HETATM   12  C2  UNL     1       3.610  55.385  -8.617  1.00  0.00    -0.016 C 
HETATM   13  C10 UNL     1       2.040  53.321  -8.805  1.00  0.00    -0.004 C 
HETATM   14  C1  UNL     1       4.746  54.809  -9.502  1.00  0.00     0.020 C 
HETATM   15  C3  UNL     1       3.745  56.934  -8.723  1.00  0.00     0.022 C 
HETATM   16  C7  UNL     1       3.792  54.945  -7.162  1.00  0.00    -0.068 C 
HETATM   17  C4  UNL     1       3.023  57.694  -7.623  1.00  0.00     0.084 C 
HETATM   18  C5  UNL     1       3.504  57.224  -6.274  1.00  0.00     0.149 C 
HETATM   19  O1  UNL     1       3.551  57.964  -5.292  1.00  0.00    -0.293 OA
HETATM   20  C6  UNL     1       3.807  55.783  -6.109  1.00  0.00     0.053 C 
HETATM   21  C8  UNL     1       3.772  53.454  -6.931  1.00  0.00     0.035 C 
HETATM   22  C9  UNL     1       2.409  52.917  -7.362  1.00  0.00     0.010 C 
HETATM   23  C17 UNL     1      -0.523  53.238  -8.297  1.00  0.00     0.009 C 
HETATM   24  C18 UNL     1      -1.773  53.296  -9.181  1.00  0.00     0.047 C 
BRANCH   5  25
HETATM   25  O2  UNL     1      -2.031  53.608 -11.562  1.00  0.00    -0.381 OA
HETATM   26  H27 UNL     1      -1.620  53.432 -12.431  1.00  0.00     0.211 HD
ENDBRANCH   5  25
ENDBRANCH   3   5
ENDBRANCH   2   3
ENDBRANCH   1   2
BRANCH   1  27
HETATM   27  C22 UNL     1      -2.041  51.211 -14.329  1.00  0.00     0.259 C 
HETATM   28  O5  UNL     1      -0.868  51.385 -14.649  1.00  0.00    -0.265 OA
BRANCH  27  29
HETATM   29  C23 UNL     1      -3.126  50.853 -15.321  1.00  0.00     0.120 C 
BRANCH  29  30
HETATM   30  C24 UNL     1      -2.638  50.086 -16.547  1.00  0.00     0.112 C 
BRANCH  30  31
HETATM   31  C25 UNL     1      -2.291  51.009 -17.695  1.00  0.00     0.218 C 
HETATM   32  O6  UNL     1      -3.120  51.692 -18.291  1.00  0.00    -0.274 OA
HETATM   33  N1  UNL     1      -0.952  51.025 -17.988  1.00  0.00    -0.346 N 
HETATM   34  H34 UNL     1      -0.283  50.545 -17.390  1.00  0.00     0.163 HD
BRANCH  33  35
HETATM   35  C26 UNL     1      -0.397  51.816 -19.096  1.00  0.00     0.186 C 
BRANCH  35  36
HETATM   36  C27 UNL     1       0.176  50.879 -20.166  1.00  0.00     0.077 C 
BRANCH  36  37
HETATM   37  C28 UNL     1      -0.484  50.996 -21.505  1.00  0.00    -0.028 A 
HETATM   38  C29 UNL     1      -1.482  50.173 -21.990  1.00  0.00     0.096 A 
HETATM   39  N2  UNL     1      -1.806  50.586 -23.252  1.00  0.00    -0.365 N 
HETATM   40  C30 UNL     1      -1.036  51.668 -23.612  1.00  0.00     0.043 A 
HETATM   41  H39 UNL     1      -2.506  50.158 -23.842  1.00  0.00     0.165 HD
HETATM   42  C31 UNL     1      -1.024  52.409 -24.801  1.00  0.00     0.033 A 
HETATM   43  C35 UNL     1      -0.192  51.946 -22.535  1.00  0.00     0.001 A 
HETATM   44  C32 UNL     1      -0.119  53.473 -24.893  1.00  0.00     0.039 A 
HETATM   45  C33 UNL     1       0.729  53.768 -23.832  1.00  0.00     0.066 A 
HETATM   46  C34 UNL     1       0.713  53.022 -22.654  1.00  0.00     0.050 A 
BRANCH  45  47
HETATM   47  O7  UNL     1       1.616  54.806 -23.907  1.00  0.00    -0.361 OA
HETATM   48  H42 UNL     1       1.483  55.261 -24.755  1.00  0.00     0.217 HD
ENDBRANCH  45  47
ENDBRANCH  36  37
ENDBRANCH  35  36
BRANCH  35  49
HETATM   49  C36 UNL     1       0.698  52.738 -18.552  1.00  0.00     0.163 C 
HETATM   50  O8  UNL     1       1.311  52.627 -17.501  1.00  0.00    -0.648 OA
BRANCH  49  51
HETATM   51  O9  UNL     1       0.952  53.804 -19.354  1.00  0.00    -0.775 OA
HETATM   52  H44 UNL     1       1.656  54.278 -18.859  1.00  0.00     0.167 HD
ENDBRANCH  49  51
ENDBRANCH  35  49
ENDBRANCH  33  35
ENDBRANCH  30  31
ENDBRANCH  29  30
ENDBRANCH  27  29
ENDBRANCH   1  27
TORSDOF 14
ENDMDL
MODEL 9
REMARK minimizedAffinity -9.43908596
REMARK CNNscore 0.304410011
REMARK CNNaffinity 6.81070471
REMARK  14 active torsions:
REMARK  status: ('A' for Active; 'I' for Inactive)
REMARK    1  A    between atoms: C19_20  and  O2_21 
REMARK    2  A    between atoms: C19_20  and  C20_22 
REMARK    3  A    between atoms: C20_22  and  C21_24 
REMARK    4  A    between atoms: C21_24  and  O4_25 
REMARK    5  A    between atoms: O4_25  and  C22_26 
REMARK    6  A    between atoms: C22_26  and  C23_28 
REMARK    7  A    between atoms: C23_28  and  C24_29 
REMARK    8  A    between atoms: C24_29  and  C25_30 
REMARK       I    between atoms: C25_30  and  N1_32 
REMARK    9  A    between atoms: N1_32  and  C26_33 
REMARK   10  A    between atoms: C26_33  and  C27_34 
REMARK   11  A    between atoms: C26_33  and  C36_45 
REMARK   12  A    between atoms: C27_34  and  C28_35 
REMARK   13  A    between atoms: C33_41  and  O7_42 
REMARK   14  A    between atoms: C36_45  and  O9_47 
ROOT
HETATM    1  O4  UNL     1      -5.442  46.837 -30.059  1.00  0.00    -0.314 OA
ENDROOT
BRANCH   1   2
HETATM    2  C21 UNL     1      -6.255  46.769 -31.232  1.00  0.00     0.260 C 
BRANCH   2   3
HETATM    3  C20 UNL     1      -7.194  45.557 -31.216  1.00  0.00     0.185 C 
HETATM    4  O3  UNL     1      -6.764  44.437 -30.923  1.00  0.00    -0.292 OA
BRANCH   3   5
HETATM    5  C19 UNL     1      -8.657  45.796 -31.692  1.00  0.00     0.128 C 
HETATM    6  C14 UNL     1      -9.010  45.273 -33.125  1.00  0.00    -0.002 C 
HETATM    7  C13 UNL     1     -10.553  45.206 -33.327  1.00  0.00     0.013 C 
HETATM    8  C15 UNL     1      -8.419  43.878 -33.406  1.00  0.00     0.019 C 
HETATM    9  C16 UNL     1      -8.396  46.362 -34.032  1.00  0.00     0.002 C 
HETATM   10  C12 UNL     1     -10.989  45.118 -34.792  1.00  0.00     0.007 C 
HETATM   11  C11 UNL     1     -10.431  46.283 -35.629  1.00  0.00     0.002 C 
HETATM   12  C2  UNL     1     -10.901  46.275 -37.131  1.00  0.00    -0.016 C 
HETATM   13  C10 UNL     1      -8.878  46.313 -35.499  1.00  0.00    -0.004 C 
HETATM   14  C1  UNL     1     -10.505  44.960 -37.854  1.00  0.00     0.020 C 
HETATM   15  C3  UNL     1     -12.446  46.389 -37.295  1.00  0.00     0.022 C 
HETATM   16  C7  UNL     1     -10.217  47.474 -37.793  1.00  0.00    -0.068 C 
HETATM   17  C4  UNL     1     -12.992  47.784 -37.044  1.00  0.00     0.084 C 
HETATM   18  C5  UNL     1     -12.302  48.775 -37.947  1.00  0.00     0.149 C 
HETATM   19  O1  UNL     1     -12.862  49.786 -38.372  1.00  0.00    -0.293 OA
HETATM   20  C6  UNL     1     -10.859  48.578 -38.218  1.00  0.00     0.053 C 
HETATM   21  C8  UNL     1      -8.709  47.444 -37.785  1.00  0.00     0.035 C 
HETATM   22  C9  UNL     1      -8.234  47.441 -36.333  1.00  0.00     0.010 C 
HETATM   23  C17 UNL     1      -8.669  47.677 -33.279  1.00  0.00     0.009 C 
HETATM   24  C18 UNL     1      -8.861  47.318 -31.802  1.00  0.00     0.047 C 
BRANCH   5  25
HETATM   25  O2  UNL     1      -9.579  45.272 -30.737  1.00  0.00    -0.381 OA
HETATM   26  H27 UNL     1      -9.563  44.298 -30.806  1.00  0.00     0.211 HD
ENDBRANCH   5  25
ENDBRANCH   3   5
ENDBRANCH   2   3
ENDBRANCH   1   2
BRANCH   1  27
HETATM   27  C22 UNL     1      -5.246  48.112 -29.615  1.00  0.00     0.259 C 
HETATM   28  O5  UNL     1      -5.305  49.112 -30.325  1.00  0.00    -0.265 OA
BRANCH  27  29
HETATM   29  C23 UNL     1      -5.045  48.169 -28.117  1.00  0.00     0.120 C 
BRANCH  29  30
HETATM   30  C24 UNL     1      -3.589  48.272 -27.674  1.00  0.00     0.112 C 
BRANCH  30  31
HETATM   31  C25 UNL     1      -3.363  49.427 -26.722  1.00  0.00     0.218 C 
HETATM   32  O6  UNL     1      -4.213  49.832 -25.933  1.00  0.00    -0.274 OA
HETATM   33  N1  UNL     1      -2.104  49.961 -26.811  1.00  0.00    -0.346 N 
HETATM   34  H34 UNL     1      -1.390  49.516 -27.382  1.00  0.00     0.163 HD
BRANCH  33  35
HETATM   35  C26 UNL     1      -1.682  51.120 -26.010  1.00  0.00     0.186 C 
BRANCH  35  36
HETATM   36  C27 UNL     1      -1.873  50.817 -24.519  1.00  0.00     0.077 C 
BRANCH  36  37
HETATM   37  C28 UNL     1      -0.922  51.539 -23.617  1.00  0.00    -0.028 A 
HETATM   38  C29 UNL     1       0.236  52.183 -24.010  1.00  0.00     0.096 A 
HETATM   39  N2  UNL     1       0.840  52.700 -22.899  1.00  0.00    -0.365 N 
HETATM   40  C30 UNL     1       0.104  52.406 -21.775  1.00  0.00     0.043 A 
HETATM   41  H39 UNL     1       1.708  53.219 -22.898  1.00  0.00     0.165 HD
HETATM   42  C31 UNL     1       0.341  52.730 -20.433  1.00  0.00     0.033 A 
HETATM   43  C35 UNL     1      -1.008  51.674 -22.194  1.00  0.00     0.001 A 
HETATM   44  C32 UNL     1      -0.591  52.291 -19.485  1.00  0.00     0.039 A 
HETATM   45  C33 UNL     1      -1.706  51.562 -19.881  1.00  0.00     0.066 A 
HETATM   46  C34 UNL     1      -1.931  51.240 -21.220  1.00  0.00     0.050 A 
BRANCH  45  47
HETATM   47  O7  UNL     1      -2.626  51.129 -18.967  1.00  0.00    -0.361 OA
HETATM   48  H42 UNL     1      -2.368  51.463 -18.092  1.00  0.00     0.217 HD
ENDBRANCH  45  47
ENDBRANCH  36  37
ENDBRANCH  35  36
BRANCH  35  49
HETATM   49  C36 UNL     1      -2.516  52.338 -26.418  1.00  0.00     0.163 C 
HETATM   50  O8  UNL     1      -2.370  53.044 -27.404  1.00  0.00    -0.648 OA
BRANCH  49  51
HETATM   51  O9  UNL     1      -3.493  52.644 -25.526  1.00  0.00    -0.775 OA
HETATM   52  H44 UNL     1      -3.912  53.435 -25.933  1.00  0.00     0.167 HD
ENDBRANCH  49  51
ENDBRANCH  35  49
ENDBRANCH  33  35
ENDBRANCH  30  31
ENDBRANCH  29  30
ENDBRANCH  27  29
ENDBRANCH   1  27
TORSDOF 14
ENDMDL
