MODEL 1
REMARK minimizedAffinity -9.0825243
REMARK  8 active torsions:
REMARK  status: ('A' for Active; 'I' for Inactive)
REMARK    1  A    between atoms: C4_4  and  C5_5 
REMARK    2  A    between atoms: C5_5  and  C6_6 
REMARK    3  A    between atoms: C6_6  and  C7_7 
REMARK    4  A    between atoms: C7_7  and  C9_9 
REMARK    5  A    between atoms: C25_26  and  C27_28 
REMARK    6  A    between atoms: C27_28  and  O3_30 
REMARK    7  A    between atoms: C28_31  and  O4_32 
REMARK    8  A    between atoms: C30_34  and  O5_35 
ROOT
HETATM    1  C9  UNL     1      -2.207   6.123  13.551  1.00  0.00    -0.002 C 
HETATM    2  C10 UNL     1      -2.309   5.610  12.088  1.00  0.00     0.007 C 
HETATM    3  C11 UNL     1      -0.903   5.739  11.462  1.00  0.00     0.015 C 
HETATM    4  C12 UNL     1       0.044   6.031  12.647  1.00  0.00    -0.005 C 
HETATM    5  C13 UNL     1       0.409   4.652  13.282  1.00  0.00     0.021 C 
HETATM    6  C14 UNL     1       1.392   6.706  12.426  1.00  0.00    -0.000 C 
HETATM    7  C15 UNL     1       1.963   7.484  13.384  1.00  0.00    -0.058 C 
HETATM    8  C16 UNL     1       1.207   7.802  14.686  1.00  0.00     0.036 C 
HETATM    9  C17 UNL     1      -0.198   7.198  14.861  1.00  0.00     0.015 C 
HETATM   10  C18 UNL     1      -0.895   6.963  13.521  1.00  0.00    -0.028 C 
HETATM   11  C19 UNL     1      -1.133   8.354  12.858  1.00  0.00     0.016 C 
HETATM   12  C20 UNL     1       3.373   8.153  13.227  1.00  0.00     0.011 C 
HETATM   13  C21 UNL     1       3.056   9.618  12.832  1.00  0.00     0.023 C 
HETATM   14  C22 UNL     1       4.184   7.387  12.133  1.00  0.00     0.029 C 
HETATM   15  C23 UNL     1       3.380   7.194  10.846  1.00  0.00     0.090 C 
HETATM   16  C24 UNL     1       2.103   6.445  11.134  1.00  0.00     0.157 C 
HETATM   17  O1  UNL     1       1.650   5.667  10.296  1.00  0.00    -0.293 OA
HETATM   18  C25 UNL     1       5.670   7.857  11.899  1.00  0.00     0.072 C 
HETATM   19  C26 UNL     1       6.481   6.569  11.546  1.00  0.00     0.030 C 
HETATM   20  C28 UNL     1       6.312   8.453  13.183  1.00  0.00     0.139 C 
HETATM   21  C29 UNL     1       5.715   7.848  14.448  1.00  0.00     0.065 C 
HETATM   22  C30 UNL     1       4.193   8.050  14.572  1.00  0.00     0.133 C 
ENDROOT
BRANCH   1  23
HETATM   23  C7  UNL     1      -3.572   6.632  14.107  1.00  0.00    -0.014 C 
HETATM   24  C8  UNL     1      -3.915   6.209  15.543  1.00  0.00     0.010 C 
BRANCH  23  25
HETATM   25  C6  UNL     1      -4.802   6.349  13.206  1.00  0.00     0.008 C 
BRANCH  25  26
HETATM   26  C5  UNL     1      -5.631   5.109  13.581  1.00  0.00     0.028 C 
BRANCH  26  27
HETATM   27  C4  UNL     1      -5.438   3.936  12.659  1.00  0.00    -0.025 C 
HETATM   28  C2  UNL     1      -6.319   2.964  12.346  1.00  0.00    -0.091 C 
HETATM   29  C1  UNL     1      -7.714   2.853  12.899  1.00  0.00     0.042 C 
HETATM   30  C3  UNL     1      -5.947   1.867  11.377  1.00  0.00     0.042 C 
ENDBRANCH  26  27
ENDBRANCH  25  26
ENDBRANCH  23  25
ENDBRANCH   1  23
BRANCH  22  31
HETATM   31  O5  UNL     1       3.961   9.182  15.415  1.00  0.00    -0.394 OA
HETATM   32  H46 UNL     1       4.368   9.953  14.975  1.00  0.00     0.210 HD
ENDBRANCH  22  31
BRANCH  18  33
HETATM   33  C27 UNL     1       5.901   8.811  10.724  1.00  0.00     0.151 C 
HETATM   34  O2  UNL     1       5.036   9.263   9.986  1.00  0.00    -0.649 OA
BRANCH  33  35
HETATM   35  O3  UNL     1       7.186   9.133  10.512  1.00  0.00    -0.776 OA
HETATM   36  H40 UNL     1       7.158   9.694   9.706  1.00  0.00     0.167 HD
ENDBRANCH  33  35
ENDBRANCH  18  33
BRANCH  20  37
HETATM   37  O4  UNL     1       6.187   9.874  13.298  1.00  0.00    -0.394 OA
HETATM   38  H42 UNL     1       6.887  10.157  13.912  1.00  0.00     0.210 HD
ENDBRANCH  20  37
TORSDOF 8
ENDMDL
MODEL 2
REMARK minimizedAffinity -9.02804852
REMARK  8 active torsions:
REMARK  status: ('A' for Active; 'I' for Inactive)
REMARK    1  A    between atoms: C4_4  and  C5_5 
REMARK    2  A    between atoms: C5_5  and  C6_6 
REMARK    3  A    between atoms: C6_6  and  C7_7 
REMARK    4  A    between atoms: C7_7  and  C9_9 
REMARK    5  A    between atoms: C25_26  and  C27_28 
REMARK    6  A    between atoms: C27_28  and  O3_30 
REMARK    7  A    between atoms: C28_31  and  O4_32 
REMARK    8  A    between atoms: C30_34  and  O5_35 
ROOT
HETATM    1  C9  UNL     1      -5.700   7.043  14.416  1.00  0.00    -0.002 C 
HETATM    2  C10 UNL     1      -5.455   8.224  15.396  1.00  0.00     0.007 C 
HETATM    3  C11 UNL     1      -3.996   8.687  15.194  1.00  0.00     0.015 C 
HETATM    4  C12 UNL     1      -3.520   7.982  13.905  1.00  0.00    -0.005 C 
HETATM    5  C13 UNL     1      -4.007   8.857  12.707  1.00  0.00     0.021 C 
HETATM    6  C14 UNL     1      -2.037   7.767  13.629  1.00  0.00    -0.000 C 
HETATM    7  C15 UNL     1      -1.597   6.712  12.892  1.00  0.00    -0.058 C 
HETATM    8  C16 UNL     1      -2.578   5.631  12.408  1.00  0.00     0.036 C 
HETATM    9  C17 UNL     1      -4.064   5.801  12.775  1.00  0.00     0.015 C 
HETATM   10  C18 UNL     1      -4.250   6.584  14.075  1.00  0.00    -0.028 C 
HETATM   11  C19 UNL     1      -3.643   5.735  15.234  1.00  0.00     0.016 C 
HETATM   12  C20 UNL     1      -0.087   6.479  12.534  1.00  0.00     0.011 C 
HETATM   13  C21 UNL     1       0.385   5.414  13.555  1.00  0.00     0.023 C 
HETATM   14  C22 UNL     1       0.684   7.833  12.661  1.00  0.00     0.029 C 
HETATM   15  C23 UNL     1       0.405   8.533  13.992  1.00  0.00     0.090 C 
HETATM   16  C24 UNL     1      -1.073   8.787  14.151  1.00  0.00     0.157 C 
HETATM   17  O1  UNL     1      -1.459   9.799  14.734  1.00  0.00    -0.293 OA
HETATM   18  C25 UNL     1       2.204   7.820  12.247  1.00  0.00     0.072 C 
HETATM   19  C26 UNL     1       2.491   9.217  11.608  1.00  0.00     0.030 C 
HETATM   20  C28 UNL     1       2.512   6.757  11.155  1.00  0.00     0.139 C 
HETATM   21  C29 UNL     1       1.302   6.491  10.267  1.00  0.00     0.065 C 
HETATM   22  C30 UNL     1       0.064   5.997  11.039  1.00  0.00     0.133 C 
ENDROOT
BRANCH   1  23
HETATM   23  C7  UNL     1      -6.841   6.092  14.891  1.00  0.00    -0.014 C 
HETATM   24  C8  UNL     1      -7.140   6.100  16.397  1.00  0.00     0.010 C 
BRANCH  23  25
HETATM   25  C6  UNL     1      -6.716   4.619  14.423  1.00  0.00     0.008 C 
BRANCH  25  26
HETATM   26  C5  UNL     1      -7.231   4.326  13.004  1.00  0.00     0.028 C 
BRANCH  26  27
HETATM   27  C4  UNL     1      -7.009   2.910  12.548  1.00  0.00    -0.025 C 
HETATM   28  C2  UNL     1      -6.149   2.456  11.614  1.00  0.00    -0.091 C 
HETATM   29  C1  UNL     1      -5.223   3.321  10.801  1.00  0.00     0.042 C 
HETATM   30  C3  UNL     1      -6.054   0.982  11.301  1.00  0.00     0.042 C 
ENDBRANCH  26  27
ENDBRANCH  25  26
ENDBRANCH  23  25
ENDBRANCH   1  23
BRANCH  22  31
HETATM   31  O5  UNL     1       0.018   4.571  10.941  1.00  0.00    -0.394 OA
HETATM   32  H46 UNL     1       0.833   4.231  11.358  1.00  0.00     0.210 HD
ENDBRANCH  22  31
BRANCH  18  33
HETATM   33  C27 UNL     1       3.216   7.684  13.388  1.00  0.00     0.151 C 
HETATM   34  O2  UNL     1       4.310   8.228  13.444  1.00  0.00    -0.649 OA
BRANCH  33  35
HETATM   35  O3  UNL     1       2.831   6.867  14.380  1.00  0.00    -0.776 OA
HETATM   36  H40 UNL     1       3.603   6.854  14.987  1.00  0.00     0.167 HD
ENDBRANCH  33  35
ENDBRANCH  18  33
BRANCH  20  37
HETATM   37  O4  UNL     1       2.940   5.492  11.669  1.00  0.00    -0.394 OA
HETATM   38  H42 UNL     1       3.415   5.052  10.941  1.00  0.00     0.210 HD
ENDBRANCH  20  37
TORSDOF 8
ENDMDL
MODEL 3
REMARK minimizedAffinity -9.00578403
REMARK  8 active torsions:
REMARK  status: ('A' for Active; 'I' for Inactive)
REMARK    1  A    between atoms: C4_4  and  C5_5 
REMARK    2  A    between atoms: C5_5  and  C6_6 
REMARK    3  A    between atoms: C6_6  and  C7_7 
REMARK    4  A    between atoms: C7_7  and  C9_9 
REMARK    5  A    between atoms: C25_26  and  C27_28 
REMARK    6  A    between atoms: C27_28  and  O3_30 
REMARK    7  A    between atoms: C28_31  and  O4_32 
REMARK    8  A    between atoms: C30_34  and  O5_35 
ROOT
HETATM    1  C9  UNL     1       1.012   6.968  12.926  1.00  0.00    -0.002 C 
HETATM    2  C10 UNL     1       1.005   5.701  12.025  1.00  0.00     0.007 C 
HETATM    3  C11 UNL     1      -0.456   5.207  11.947  1.00  0.00     0.015 C 
HETATM    4  C12 UNL     1      -1.305   6.353  12.540  1.00  0.00    -0.005 C 
HETATM    5  C13 UNL     1      -1.546   7.378  11.388  1.00  0.00     0.021 C 
HETATM    6  C14 UNL     1      -2.697   6.090  13.100  1.00  0.00    -0.000 C 
HETATM    7  C15 UNL     1      -3.215   6.847  14.104  1.00  0.00    -0.058 C 
HETATM    8  C16 UNL     1      -2.360   7.928  14.789  1.00  0.00     0.036 C 
HETATM    9  C17 UNL     1      -0.918   8.122  14.286  1.00  0.00     0.015 C 
HETATM   10  C18 UNL     1      -0.335   6.837  13.698  1.00  0.00    -0.028 C 
HETATM   11  C19 UNL     1      -0.222   5.794  14.852  1.00  0.00     0.016 C 
HETATM   12  C20 UNL     1      -4.662   6.652  14.675  1.00  0.00     0.011 C 
HETATM   13  C21 UNL     1      -4.451   5.838  15.976  1.00  0.00     0.023 C 
HETATM   14  C22 UNL     1      -5.533   5.899  13.618  1.00  0.00     0.029 C 
HETATM   15  C23 UNL     1      -4.840   4.643  13.088  1.00  0.00     0.090 C 
HETATM   16  C24 UNL     1      -3.509   4.998  12.474  1.00  0.00     0.157 C 
HETATM   17  O1  UNL     1      -3.098   4.368  11.501  1.00  0.00    -0.293 OA
HETATM   18  C25 UNL     1      -7.054   5.694  13.974  1.00  0.00     0.072 C 
HETATM   19  C26 UNL     1      -7.833   5.794  12.623  1.00  0.00     0.030 C 
HETATM   20  C28 UNL     1      -7.605   6.820  14.894  1.00  0.00     0.139 C 
HETATM   21  C29 UNL     1      -6.869   8.136  14.679  1.00  0.00     0.065 C 
HETATM   22  C30 UNL     1      -5.352   8.047  14.937  1.00  0.00     0.133 C 
ENDROOT
BRANCH   1  23
HETATM   23  C7  UNL     1       2.397   7.222  13.596  1.00  0.00    -0.014 C 
HETATM   24  C8  UNL     1       2.368   7.561  15.093  1.00  0.00     0.010 C 
BRANCH  23  25
HETATM   25  C6  UNL     1       3.303   8.253  12.876  1.00  0.00     0.008 C 
BRANCH  25  26
HETATM   26  C5  UNL     1       4.150   7.701  11.717  1.00  0.00     0.028 C 
BRANCH  26  27
HETATM   27  C4  UNL     1       3.827   8.301  10.376  1.00  0.00    -0.025 C 
HETATM   28  C2  UNL     1       3.346   7.684   9.278  1.00  0.00    -0.091 C 
HETATM   29  C1  UNL     1       3.051   6.212   9.174  1.00  0.00     0.042 C 
HETATM   30  C3  UNL     1       3.064   8.463   8.015  1.00  0.00     0.042 C 
ENDBRANCH  26  27
ENDBRANCH  25  26
ENDBRANCH  23  25
ENDBRANCH   1  23
BRANCH  22  31
HETATM   31  O5  UNL     1      -5.098   8.517  16.264  1.00  0.00    -0.394 OA
HETATM   32  H46 UNL     1      -5.578   7.923  16.873  1.00  0.00     0.210 HD
ENDBRANCH  22  31
BRANCH  18  33
HETATM   33  C27 UNL     1      -7.434   4.329  14.556  1.00  0.00     0.151 C 
HETATM   34  O2  UNL     1      -7.439   3.268  13.949  1.00  0.00    -0.649 OA
BRANCH  33  35
HETATM   35  O3  UNL     1      -7.810   4.358  15.844  1.00  0.00    -0.776 OA
HETATM   36  H40 UNL     1      -8.066   3.430  16.035  1.00  0.00     0.167 HD
ENDBRANCH  33  35
ENDBRANCH  18  33
BRANCH  20  37
HETATM   37  O4  UNL     1      -7.536   6.524  16.291  1.00  0.00    -0.394 OA
HETATM   38  H42 UNL     1      -8.190   7.103  16.722  1.00  0.00     0.210 HD
ENDBRANCH  20  37
TORSDOF 8
ENDMDL
MODEL 4
REMARK minimizedAffinity -8.98073673
REMARK  8 active torsions:
REMARK  status: ('A' for Active; 'I' for Inactive)
REMARK    1  A    between atoms: C4_4  and  C5_5 
REMARK    2  A    between atoms: C5_5  and  C6_6 
REMARK    3  A    between atoms: C6_6  and  C7_7 
REMARK    4  A    between atoms: C7_7  and  C9_9 
REMARK    5  A    between atoms: C25_26  and  C27_28 
REMARK    6  A    between atoms: C27_28  and  O3_30 
REMARK    7  A    between atoms: C28_31  and  O4_32 
REMARK    8  A    between atoms: C30_34  and  O5_35 
ROOT
HETATM    1  C9  UNL     1      -1.656   7.300  13.472  1.00  0.00    -0.002 C 
HETATM    2  C10 UNL     1      -1.424   6.971  14.973  1.00  0.00     0.007 C 
HETATM    3  C11 UNL     1       0.072   7.214  15.266  1.00  0.00     0.015 C 
HETATM    4  C12 UNL     1       0.613   7.962  14.028  1.00  0.00    -0.005 C 
HETATM    5  C13 UNL     1       0.285   9.474  14.237  1.00  0.00     0.021 C 
HETATM    6  C14 UNL     1       2.098   7.948  13.690  1.00  0.00    -0.000 C 
HETATM    7  C15 UNL     1       2.536   8.051  12.406  1.00  0.00    -0.058 C 
HETATM    8  C16 UNL     1       1.535   8.069  11.237  1.00  0.00     0.036 C 
HETATM    9  C17 UNL     1       0.037   7.983  11.580  1.00  0.00     0.015 C 
HETATM   10  C18 UNL     1      -0.212   7.232  12.888  1.00  0.00    -0.028 C 
HETATM   11  C19 UNL     1       0.241   5.753  12.682  1.00  0.00     0.016 C 
HETATM   12  C20 UNL     1       4.053   8.098  12.012  1.00  0.00     0.011 C 
HETATM   13  C21 UNL     1       4.371   6.653  11.552  1.00  0.00     0.023 C 
HETATM   14  C22 UNL     1       4.892   8.543  13.253  1.00  0.00     0.029 C 
HETATM   15  C23 UNL     1       4.543   7.735  14.505  1.00  0.00     0.090 C 
HETATM   16  C24 UNL     1       3.075   7.869  14.823  1.00  0.00     0.157 C 
HETATM   17  O1  UNL     1       2.701   7.875  15.995  1.00  0.00    -0.293 OA
HETATM   18  C25 UNL     1       6.438   8.741  13.026  1.00  0.00     0.072 C 
HETATM   19  C26 UNL     1       6.864   9.928  13.950  1.00  0.00     0.030 C 
HETATM   20  C28 UNL     1       6.773   9.166  11.568  1.00  0.00     0.139 C 
HETATM   21  C29 UNL     1       5.631   9.945  10.929  1.00  0.00     0.065 C 
HETATM   22  C30 UNL     1       4.303   9.166  10.876  1.00  0.00     0.133 C 
ENDROOT
BRANCH   1  23
HETATM   23  C7  UNL     1      -2.889   6.556  12.875  1.00  0.00    -0.014 C 
HETATM   24  C8  UNL     1      -4.235   7.285  12.987  1.00  0.00     0.010 C 
BRANCH  23  25
HETATM   25  C6  UNL     1      -3.080   5.095  13.360  1.00  0.00     0.008 C 
BRANCH  25  26
HETATM   26  C5  UNL     1      -3.867   4.176  12.410  1.00  0.00     0.028 C 
BRANCH  26  27
HETATM   27  C4  UNL     1      -5.311   3.988  12.789  1.00  0.00    -0.025 C 
HETATM   28  C2  UNL     1      -6.159   3.017  12.396  1.00  0.00    -0.091 C 
HETATM   29  C1  UNL     1      -5.814   1.902  11.446  1.00  0.00     0.042 C 
HETATM   30  C3  UNL     1      -7.582   2.983  12.901  1.00  0.00     0.042 C 
ENDBRANCH  26  27
ENDBRANCH  25  26
ENDBRANCH  23  25
ENDBRANCH   1  23
BRANCH  22  31
HETATM   31  O5  UNL     1       4.179   8.585   9.574  1.00  0.00    -0.394 OA
HETATM   32  H46 UNL     1       4.933   7.974   9.463  1.00  0.00     0.210 HD
ENDBRANCH  22  31
BRANCH  18  33
HETATM   33  C27 UNL     1       7.338   7.571  13.435  1.00  0.00     0.151 C 
HETATM   34  O2  UNL     1       8.517   7.437  13.138  1.00  0.00    -0.649 OA
BRANCH  33  35
HETATM   35  O3  UNL     1       6.726   6.625  14.163  1.00  0.00    -0.776 OA
HETATM   36  H40 UNL     1       7.419   5.940  14.288  1.00  0.00     0.167 HD
ENDBRANCH  33  35
ENDBRANCH  18  33
BRANCH  20  37
HETATM   37  O4  UNL     1       7.078   8.076  10.694  1.00  0.00    -0.394 OA
HETATM   38  H42 UNL     1       7.586   8.456   9.955  1.00  0.00     0.210 HD
ENDBRANCH  20  37
TORSDOF 8
ENDMDL
MODEL 5
REMARK minimizedAffinity -8.94463253
REMARK  8 active torsions:
REMARK  status: ('A' for Active; 'I' for Inactive)
REMARK    1  A    between atoms: C4_4  and  C5_5 
REMARK    2  A    between atoms: C5_5  and  C6_6 
REMARK    3  A    between atoms: C6_6  and  C7_7 
REMARK    4  A    between atoms: C7_7  and  C9_9 
REMARK    5  A    between atoms: C25_26  and  C27_28 
REMARK    6  A    between atoms: C27_28  and  O3_30 
REMARK    7  A    between atoms: C28_31  and  O4_32 
REMARK    8  A    between atoms: C30_34  and  O5_35 
ROOT
HETATM    1  C9  UNL     1      -2.740   4.475  13.089  1.00  0.00    -0.002 C 
HETATM    2  C10 UNL     1      -1.891   4.840  11.839  1.00  0.00     0.007 C 
HETATM    3  C11 UNL     1      -1.297   6.243  12.087  1.00  0.00     0.015 C 
HETATM    4  C12 UNL     1      -1.554   6.535  13.582  1.00  0.00    -0.005 C 
HETATM    5  C13 UNL     1      -0.395   5.859  14.379  1.00  0.00     0.021 C 
HETATM    6  C14 UNL     1      -1.581   7.965  14.108  1.00  0.00    -0.000 C 
HETATM    7  C15 UNL     1      -2.338   8.312  15.183  1.00  0.00    -0.058 C 
HETATM    8  C16 UNL     1      -3.286   7.291  15.835  1.00  0.00     0.036 C 
HETATM    9  C17 UNL     1      -3.329   5.874  15.236  1.00  0.00     0.015 C 
HETATM   10  C18 UNL     1      -2.982   5.868  13.747  1.00  0.00    -0.028 C 
HETATM   11  C19 UNL     1      -4.097   6.657  12.995  1.00  0.00     0.016 C 
HETATM   12  C20 UNL     1      -2.356   9.756  15.796  1.00  0.00     0.011 C 
HETATM   13  C21 UNL     1      -3.645  10.397  15.222  1.00  0.00     0.023 C 
HETATM   14  C22 UNL     1      -1.056  10.510  15.370  1.00  0.00     0.029 C 
HETATM   15  C23 UNL     1      -0.803  10.419  13.864  1.00  0.00     0.090 C 
HETATM   16  C24 UNL     1      -0.704   8.976  13.436  1.00  0.00     0.157 C 
HETATM   17  O1  UNL     1       0.062   8.660  12.527  1.00  0.00    -0.293 OA
HETATM   18  C25 UNL     1      -0.848  11.951  15.971  1.00  0.00     0.072 C 
HETATM   19  C26 UNL     1       0.692  12.113  16.187  1.00  0.00     0.030 C 
HETATM   20  C28 UNL     1      -1.515  12.115  17.365  1.00  0.00     0.139 C 
HETATM   21  C29 UNL     1      -1.581  10.792  18.119  1.00  0.00     0.065 C 
HETATM   22  C30 UNL     1      -2.360   9.693  17.374  1.00  0.00     0.133 C 
ENDROOT
BRANCH   1  23
HETATM   23  C7  UNL     1      -3.860   3.437  12.775  1.00  0.00    -0.014 C 
HETATM   24  C8  UNL     1      -3.457   2.264  11.870  1.00  0.00     0.010 C 
BRANCH  23  25
HETATM   25  C6  UNL     1      -5.188   4.034  12.242  1.00  0.00     0.008 C 
BRANCH  25  26
HETATM   26  C5  UNL     1      -6.471   3.487  12.891  1.00  0.00     0.028 C 
BRANCH  26  27
HETATM   27  C4  UNL     1      -7.652   4.416  12.799  1.00  0.00    -0.025 C 
HETATM   28  C2  UNL     1      -7.983   5.431  13.623  1.00  0.00    -0.091 C 
HETATM   29  C1  UNL     1      -7.215   5.831  14.853  1.00  0.00     0.042 C 
HETATM   30  C3  UNL     1      -9.209   6.272  13.357  1.00  0.00     0.042 C 
ENDBRANCH  26  27
ENDBRANCH  25  26
ENDBRANCH  23  25
ENDBRANCH   1  23
BRANCH  22  31
HETATM   31  O5  UNL     1      -3.693   9.661  17.893  1.00  0.00    -0.394 OA
HETATM   32  H46 UNL     1      -4.089  10.536  17.713  1.00  0.00     0.210 HD
ENDBRANCH  22  31
BRANCH  18  33
HETATM   33  C27 UNL     1      -1.252  13.125  15.073  1.00  0.00     0.151 C 
HETATM   34  O2  UNL     1      -1.332  14.296  15.417  1.00  0.00    -0.649 OA
BRANCH  33  35
HETATM   35  O3  UNL     1      -1.558  12.782  13.812  1.00  0.00    -0.776 OA
HETATM   36  H40 UNL     1      -1.841  13.628  13.401  1.00  0.00     0.167 HD
ENDBRANCH  33  35
ENDBRANCH  18  33
BRANCH  20  37
HETATM   37  O4  UNL     1      -2.845  12.640  17.323  1.00  0.00    -0.394 OA
HETATM   38  H42 UNL     1      -3.017  13.010  18.207  1.00  0.00     0.210 HD
ENDBRANCH  20  37
TORSDOF 8
ENDMDL
MODEL 6
REMARK minimizedAffinity -8.86858273
REMARK  8 active torsions:
REMARK  status: ('A' for Active; 'I' for Inactive)
REMARK    1  A    between atoms: C4_4  and  C5_5 
REMARK    2  A    between atoms: C5_5  and  C6_6 
REMARK    3  A    between atoms: C6_6  and  C7_7 
REMARK    4  A    between atoms: C7_7  and  C9_9 
REMARK    5  A    between atoms: C25_26  and  C27_28 
REMARK    6  A    between atoms: C27_28  and  O3_30 
REMARK    7  A    between atoms: C28_31  and  O4_32 
REMARK    8  A    between atoms: C30_34  and  O5_35 
ROOT
HETATM    1  C9  UNL     1      -2.674   9.044  14.911  1.00  0.00    -0.002 C 
HETATM    2  C10 UNL     1      -1.876   8.369  16.060  1.00  0.00     0.007 C 
HETATM    3  C11 UNL     1      -0.559   7.841  15.451  1.00  0.00     0.015 C 
HETATM    4  C12 UNL     1      -0.477   8.480  14.047  1.00  0.00    -0.005 C 
HETATM    5  C13 UNL     1       0.133   9.904  14.235  1.00  0.00     0.021 C 
HETATM    6  C14 UNL     1       0.374   7.853  12.949  1.00  0.00    -0.000 C 
HETATM    7  C15 UNL     1       0.050   7.986  11.635  1.00  0.00    -0.058 C 
HETATM    8  C16 UNL     1      -1.259   8.680  11.218  1.00  0.00     0.036 C 
HETATM    9  C17 UNL     1      -2.165   9.224  12.338  1.00  0.00     0.015 C 
HETATM   10  C18 UNL     1      -2.009   8.437  13.639  1.00  0.00    -0.028 C 
HETATM   11  C19 UNL     1      -2.513   6.984  13.381  1.00  0.00     0.016 C 
HETATM   12  C20 UNL     1       0.923   7.409  10.467  1.00  0.00     0.011 C 
HETATM   13  C21 UNL     1       0.205   6.095  10.070  1.00  0.00     0.023 C 
HETATM   14  C22 UNL     1       2.380   7.179  10.982  1.00  0.00     0.029 C 
HETATM   15  C23 UNL     1       2.411   6.399  12.298  1.00  0.00     0.090 C 
HETATM   16  C24 UNL     1       1.618   7.125  13.356  1.00  0.00     0.157 C 
HETATM   17  O1  UNL     1       1.981   7.079  14.530  1.00  0.00    -0.293 OA
HETATM   18  C25 UNL     1       3.435   6.689   9.920  1.00  0.00     0.072 C 
HETATM   19  C26 UNL     1       4.793   7.351  10.319  1.00  0.00     0.030 C 
HETATM   20  C28 UNL     1       3.102   7.181   8.483  1.00  0.00     0.139 C 
HETATM   21  C29 UNL     1       2.341   8.501   8.500  1.00  0.00     0.065 C 
HETATM   22  C30 UNL     1       1.010   8.439   9.273  1.00  0.00     0.133 C 
ENDROOT
BRANCH   1  23
HETATM   23  C7  UNL     1      -4.210   9.072  15.179  1.00  0.00    -0.014 C 
HETATM   24  C8  UNL     1      -4.665   9.876  16.405  1.00  0.00     0.010 C 
BRANCH  23  25
HETATM   25  C6  UNL     1      -4.902   7.685  15.217  1.00  0.00     0.008 C 
BRANCH  25  26
HETATM   26  C5  UNL     1      -6.136   7.532  14.311  1.00  0.00     0.028 C 
BRANCH  26  27
HETATM   27  C4  UNL     1      -6.328   6.145  13.760  1.00  0.00    -0.025 C 
HETATM   28  C2  UNL     1      -6.947   5.095  14.335  1.00  0.00    -0.091 C 
HETATM   29  C1  UNL     1      -7.572   5.105  15.704  1.00  0.00     0.042 C 
HETATM   30  C3  UNL     1      -7.057   3.773  13.613  1.00  0.00     0.042 C 
ENDBRANCH  26  27
ENDBRANCH  25  26
ENDBRANCH  23  25
ENDBRANCH   1  23
BRANCH  22  31
HETATM   31  O5  UNL     1      -0.045   8.237   8.329  1.00  0.00    -0.394 OA
HETATM   32  H46 UNL     1       0.127   7.383   7.888  1.00  0.00     0.210 HD
ENDBRANCH  22  31
BRANCH  18  33
HETATM   33  C27 UNL     1       3.717   5.184   9.889  1.00  0.00     0.151 C 
HETATM   34  O2  UNL     1       2.897   4.306   9.656  1.00  0.00    -0.649 OA
BRANCH  33  35
HETATM   35  O3  UNL     1       4.985   4.848  10.172  1.00  0.00    -0.776 OA
HETATM   36  H40 UNL     1       4.975   3.866  10.163  1.00  0.00     0.167 HD
ENDBRANCH  33  35
ENDBRANCH  18  33
BRANCH  20  37
HETATM   37  O4  UNL     1       2.326   6.260   7.711  1.00  0.00    -0.394 OA
HETATM   38  H42 UNL     1       2.473   6.498   6.778  1.00  0.00     0.210 HD
ENDBRANCH  20  37
TORSDOF 8
ENDMDL
MODEL 7
REMARK minimizedAffinity -8.85387993
REMARK  8 active torsions:
REMARK  status: ('A' for Active; 'I' for Inactive)
REMARK    1  A    between atoms: C4_4  and  C5_5 
REMARK    2  A    between atoms: C5_5  and  C6_6 
REMARK    3  A    between atoms: C6_6  and  C7_7 
REMARK    4  A    between atoms: C7_7  and  C9_9 
REMARK    5  A    between atoms: C25_26  and  C27_28 
REMARK    6  A    between atoms: C27_28  and  O3_30 
REMARK    7  A    between atoms: C28_31  and  O4_32 
REMARK    8  A    between atoms: C30_34  and  O5_35 
ROOT
HETATM    1  C9  UNL     1      -5.540   5.383  13.596  1.00  0.00    -0.002 C 
HETATM    2  C10 UNL     1      -5.794   5.922  15.031  1.00  0.00     0.007 C 
HETATM    3  C11 UNL     1      -4.519   6.675  15.467  1.00  0.00     0.015 C 
HETATM    4  C12 UNL     1      -3.674   6.823  14.182  1.00  0.00    -0.005 C 
HETATM    5  C13 UNL     1      -4.211   8.082  13.432  1.00  0.00     0.021 C 
HETATM    6  C14 UNL     1      -2.169   7.046  14.254  1.00  0.00    -0.000 C 
HETATM    7  C15 UNL     1      -1.338   6.612  13.269  1.00  0.00    -0.058 C 
HETATM    8  C16 UNL     1      -1.882   5.772  12.100  1.00  0.00     0.036 C 
HETATM    9  C17 UNL     1      -3.390   5.464  12.085  1.00  0.00     0.015 C 
HETATM   10  C18 UNL     1      -3.985   5.429  13.492  1.00  0.00    -0.028 C 
HETATM   11  C19 UNL     1      -3.336   4.232  14.254  1.00  0.00     0.016 C 
HETATM   12  C20 UNL     1       0.210   6.867  13.270  1.00  0.00     0.011 C 
HETATM   13  C21 UNL     1       0.814   5.534  13.780  1.00  0.00     0.023 C 
HETATM   14  C22 UNL     1       0.529   8.079  14.203  1.00  0.00     0.029 C 
HETATM   15  C23 UNL     1      -0.135   7.943  15.574  1.00  0.00     0.090 C 
HETATM   16  C24 UNL     1      -1.629   7.812  15.423  1.00  0.00     0.157 C 
HETATM   17  O1  UNL     1      -2.374   8.298  16.272  1.00  0.00    -0.293 OA
HETATM   18  C25 UNL     1       2.031   8.550  14.258  1.00  0.00     0.072 C 
HETATM   19  C26 UNL     1       1.992  10.104  14.431  1.00  0.00     0.030 C 
HETATM   20  C28 UNL     1       2.791   8.266  12.932  1.00  0.00     0.139 C 
HETATM   21  C29 UNL     1       1.855   8.278  11.730  1.00  0.00     0.065 C 
HETATM   22  C30 UNL     1       0.713   7.249  11.823  1.00  0.00     0.133 C 
ENDROOT
BRANCH   1  23
HETATM   23  C7  UNL     1      -6.413   4.137  13.257  1.00  0.00    -0.014 C 
HETATM   24  C8  UNL     1      -6.002   3.345  12.007  1.00  0.00     0.010 C 
BRANCH  23  25
HETATM   25  C6  UNL     1      -7.941   4.396  13.193  1.00  0.00     0.008 C 
BRANCH  25  26
HETATM   26  C5  UNL     1      -8.366   5.707  12.511  1.00  0.00     0.028 C 
BRANCH  26  27
HETATM   27  C4  UNL     1      -9.718   6.213  12.935  1.00  0.00    -0.025 C 
HETATM   28  C2  UNL     1     -10.030   6.963  14.012  1.00  0.00    -0.091 C 
HETATM   29  C1  UNL     1      -9.047   7.437  15.048  1.00  0.00     0.042 C 
HETATM   30  C3  UNL     1     -11.455   7.394  14.266  1.00  0.00     0.042 C 
ENDBRANCH  26  27
ENDBRANCH  25  26
ENDBRANCH  23  25
ENDBRANCH   1  23
BRANCH  22  31
HETATM   31  O5  UNL     1       1.097   6.089  11.079  1.00  0.00    -0.394 OA
HETATM   32  H46 UNL     1       1.905   5.735  11.500  1.00  0.00     0.210 HD
ENDBRANCH  22  31
BRANCH  18  33
HETATM   33  C27 UNL     1       2.858   8.036  15.440  1.00  0.00     0.151 C 
HETATM   34  O2  UNL     1       3.441   8.729  16.262  1.00  0.00    -0.649 OA
BRANCH  33  35
HETATM   35  O3  UNL     1       2.940   6.699  15.523  1.00  0.00    -0.776 OA
HETATM   36  H40 UNL     1       3.538   6.548  16.287  1.00  0.00     0.167 HD
ENDBRANCH  33  35
ENDBRANCH  18  33
BRANCH  20  37
HETATM   37  O4  UNL     1       3.486   7.016  12.910  1.00  0.00    -0.394 OA
HETATM   38  H42 UNL     1       4.170   7.100  12.222  1.00  0.00     0.210 HD
ENDBRANCH  20  37
TORSDOF 8
ENDMDL
MODEL 8
REMARK minimizedAffinity -8.84368229
REMARK  8 active torsions:
REMARK  status: ('A' for Active; 'I' for Inactive)
REMARK    1  A    between atoms: C4_4  and  C5_5 
REMARK    2  A    between atoms: C5_5  and  C6_6 
REMARK    3  A    between atoms: C6_6  and  C7_7 
REMARK    4  A    between atoms: C7_7  and  C9_9 
REMARK    5  A    between atoms: C25_26  and  C27_28 
REMARK    6  A    between atoms: C27_28  and  O3_30 
REMARK    7  A    between atoms: C28_31  and  O4_32 
REMARK    8  A    between atoms: C30_34  and  O5_35 
ROOT
HETATM    1  C9  UNL     1      -5.488   6.745  15.193  1.00  0.00    -0.002 C 
HETATM    2  C10 UNL     1      -5.943   5.564  14.291  1.00  0.00     0.007 C 
HETATM    3  C11 UNL     1      -4.764   5.226  13.354  1.00  0.00     0.015 C 
HETATM    4  C12 UNL     1      -3.555   5.998  13.927  1.00  0.00    -0.005 C 
HETATM    5  C13 UNL     1      -2.956   5.116  15.067  1.00  0.00     0.021 C 
HETATM    6  C14 UNL     1      -2.356   6.339  13.052  1.00  0.00    -0.000 C 
HETATM    7  C15 UNL     1      -1.597   7.444  13.284  1.00  0.00    -0.058 C 
HETATM    8  C16 UNL     1      -1.998   8.453  14.374  1.00  0.00     0.036 C 
HETATM    9  C17 UNL     1      -3.269   8.155  15.190  1.00  0.00     0.015 C 
HETATM   10  C18 UNL     1      -4.281   7.328  14.397  1.00  0.00    -0.028 C 
HETATM   11  C19 UNL     1      -4.768   8.195  13.195  1.00  0.00     0.016 C 
HETATM   12  C20 UNL     1      -0.321   7.808  12.448  1.00  0.00     0.011 C 
HETATM   13  C21 UNL     1      -0.816   8.882  11.447  1.00  0.00     0.023 C 
HETATM   14  C22 UNL     1       0.215   6.519  11.745  1.00  0.00     0.029 C 
HETATM   15  C23 UNL     1      -0.889   5.765  11.001  1.00  0.00     0.090 C 
HETATM   16  C24 UNL     1      -1.998   5.389  11.951  1.00  0.00     0.157 C 
HETATM   17  O1  UNL     1      -2.611   4.335  11.788  1.00  0.00    -0.293 OA
HETATM   18  C25 UNL     1       1.555   6.665  10.931  1.00  0.00     0.072 C 
HETATM   19  C26 UNL     1       2.318   5.312  11.103  1.00  0.00     0.030 C 
HETATM   20  C28 UNL     1       2.480   7.776  11.504  1.00  0.00     0.139 C 
HETATM   21  C29 UNL     1       2.275   7.964  13.002  1.00  0.00     0.065 C 
HETATM   22  C30 UNL     1       0.831   8.337  13.388  1.00  0.00     0.133 C 
ENDROOT
BRANCH   1  23
HETATM   23  C7  UNL     1      -6.684   7.587  15.732  1.00  0.00    -0.014 C 
HETATM   24  C8  UNL     1      -7.480   6.965  16.887  1.00  0.00     0.010 C 
BRANCH  23  25
HETATM   25  C6  UNL     1      -7.685   8.081  14.656  1.00  0.00     0.008 C 
BRANCH  25  26
HETATM   26  C5  UNL     1      -8.895   8.871  15.184  1.00  0.00     0.028 C 
BRANCH  26  27
HETATM   27  C4  UNL     1     -10.210   8.462  14.580  1.00  0.00    -0.025 C 
HETATM   28  C2  UNL     1     -10.487   7.370  13.838  1.00  0.00    -0.091 C 
HETATM   29  C1  UNL     1      -9.484   6.322  13.438  1.00  0.00     0.042 C 
HETATM   30  C3  UNL     1     -11.885   7.117  13.328  1.00  0.00     0.042 C 
ENDBRANCH  26  27
ENDBRANCH  25  26
ENDBRANCH  23  25
ENDBRANCH   1  23
BRANCH  22  31
HETATM   31  O5  UNL     1       0.765   9.757  13.549  1.00  0.00    -0.394 OA
HETATM   32  H46 UNL     1       0.996  10.152  12.685  1.00  0.00     0.210 HD
ENDBRANCH  22  31
BRANCH  18  33
HETATM   33  C27 UNL     1       1.411   6.854   9.417  1.00  0.00     0.151 C 
HETATM   34  O2  UNL     1       1.918   6.150   8.556  1.00  0.00    -0.649 OA
BRANCH  33  35
HETATM   35  O3  UNL     1       0.672   7.914   9.056  1.00  0.00    -0.776 OA
HETATM   36  H40 UNL     1       0.729   7.917   8.076  1.00  0.00     0.167 HD
ENDBRANCH  33  35
ENDBRANCH  18  33
BRANCH  20  37
HETATM   37  O4  UNL     1       2.307   9.058  10.893  1.00  0.00    -0.394 OA
HETATM   38  H42 UNL     1       3.127   9.553  11.068  1.00  0.00     0.210 HD
ENDBRANCH  20  37
TORSDOF 8
ENDMDL
MODEL 9
REMARK minimizedAffinity -8.82889843
REMARK  8 active torsions:
REMARK  status: ('A' for Active; 'I' for Inactive)
REMARK    1  A    between atoms: C4_4  and  C5_5 
REMARK    2  A    between atoms: C5_5  and  C6_6 
REMARK    3  A    between atoms: C6_6  and  C7_7 
REMARK    4  A    between atoms: C7_7  and  C9_9 
REMARK    5  A    between atoms: C25_26  and  C27_28 
REMARK    6  A    between atoms: C27_28  and  O3_30 
REMARK    7  A    between atoms: C28_31  and  O4_32 
REMARK    8  A    between atoms: C30_34  and  O5_35 
ROOT
HETATM    1  C9  UNL     1      -4.647   8.832  14.704  1.00  0.00    -0.002 C 
HETATM    2  C10 UNL     1      -4.463   9.346  16.159  1.00  0.00     0.007 C 
HETATM    3  C11 UNL     1      -2.947   9.527  16.390  1.00  0.00     0.015 C 
HETATM    4  C12 UNL     1      -2.306   9.412  14.989  1.00  0.00    -0.005 C 
HETATM    5  C13 UNL     1      -2.415  10.821  14.327  1.00  0.00     0.021 C 
HETATM    6  C14 UNL     1      -0.838   9.038  14.827  1.00  0.00    -0.000 C 
HETATM    7  C15 UNL     1      -0.392   8.374  13.727  1.00  0.00    -0.058 C 
HETATM    8  C16 UNL     1      -1.380   7.875  12.659  1.00  0.00     0.036 C 
HETATM    9  C17 UNL     1      -2.875   8.169  12.878  1.00  0.00     0.015 C 
HETATM   10  C18 UNL     1      -3.228   8.285  14.361  1.00  0.00    -0.028 C 
HETATM   11  C19 UNL     1      -2.990   6.890  15.018  1.00  0.00     0.016 C 
HETATM   12  C20 UNL     1       1.117   8.016  13.487  1.00  0.00     0.011 C 
HETATM   13  C21 UNL     1       1.225   6.527  13.902  1.00  0.00     0.023 C 
HETATM   14  C22 UNL     1       2.011   8.960  14.355  1.00  0.00     0.029 C 
HETATM   15  C23 UNL     1       1.552   9.010  15.813  1.00  0.00     0.090 C 
HETATM   16  C24 UNL     1       0.118   9.470  15.895  1.00  0.00     0.157 C 
HETATM   17  O1  UNL     1      -0.250  10.156  16.847  1.00  0.00    -0.293 OA
HETATM   18  C25 UNL     1       3.569   8.815  14.175  1.00  0.00     0.072 C 
HETATM   19  C26 UNL     1       4.161  10.252  14.346  1.00  0.00     0.030 C 
HETATM   20  C28 UNL     1       3.961   8.336  12.749  1.00  0.00     0.139 C 
HETATM   21  C29 UNL     1       2.940   8.774  11.706  1.00  0.00     0.065 C 
HETATM   22  C30 UNL     1       1.515   8.257  11.978  1.00  0.00     0.133 C 
ENDROOT
BRANCH   1  23
HETATM   23  C7  UNL     1      -5.974   8.037  14.509  1.00  0.00    -0.014 C 
HETATM   24  C8  UNL     1      -6.582   7.421  15.776  1.00  0.00     0.010 C 
BRANCH  23  25
HETATM   25  C6  UNL     1      -5.940   6.952  13.402  1.00  0.00     0.008 C 
BRANCH  25  26
HETATM   26  C5  UNL     1      -6.130   5.503  13.885  1.00  0.00     0.028 C 
BRANCH  26  27
HETATM   27  C4  UNL     1      -5.649   4.461  12.912  1.00  0.00    -0.025 C 
HETATM   28  C2  UNL     1      -6.271   3.330  12.522  1.00  0.00    -0.091 C 
HETATM   29  C1  UNL     1      -7.612   2.866  13.024  1.00  0.00     0.042 C 
HETATM   30  C3  UNL     1      -5.634   2.407  11.512  1.00  0.00     0.042 C 
ENDBRANCH  26  27
ENDBRANCH  25  26
ENDBRANCH  23  25
ENDBRANCH   1  23
BRANCH  22  31
HETATM   31  O5  UNL     1       1.308   7.083  11.188  1.00  0.00    -0.394 OA
HETATM   32  H46 UNL     1       1.967   6.423  11.481  1.00  0.00     0.210 HD
ENDBRANCH  22  31
BRANCH  18  33
HETATM   33  C27 UNL     1       4.294   7.957  15.217  1.00  0.00     0.151 C 
HETATM   34  O2  UNL     1       5.368   8.220  15.740  1.00  0.00    -0.649 OA
BRANCH  33  35
HETATM   35  O3  UNL     1       3.665   6.815  15.532  1.00  0.00    -0.776 OA
HETATM   36  H40 UNL     1       4.282   6.373  16.157  1.00  0.00     0.167 HD
ENDBRANCH  33  35
ENDBRANCH  18  33
BRANCH  20  37
HETATM   37  O4  UNL     1       4.106   6.919  12.624  1.00  0.00    -0.394 OA
HETATM   38  H42 UNL     1       4.663   6.773  11.838  1.00  0.00     0.210 HD
ENDBRANCH  20  37
TORSDOF 8
ENDMDL
