MODEL 1
REMARK minimizedAffinity -9.04062843
REMARK CNNscore 0.769068539
REMARK CNNaffinity 7.27189684
REMARK  18 active torsions:
REMARK  status: ('A' for Active; 'I' for Inactive)
REMARK    1  A    between atoms: C2_2  and  C4_4 
REMARK    2  A    between atoms: C4_4  and  N1_5 
REMARK    3  A    between atoms: C4_4  and  C30_38 
REMARK       I    between atoms: N1_5  and  C5_6 
REMARK    4  A    between atoms: C5_6  and  C6_8 
REMARK    5  A    between atoms: C6_8  and  C7_9 
REMARK    6  A    between atoms: C7_9  and  C8_10 
REMARK    7  A    between atoms: C8_10  and  O3_12 
REMARK    8  A    between atoms: O3_12  and  C9_13 
REMARK    9  A    between atoms: C9_13  and  C10_14 
REMARK   10  A    between atoms: C10_14  and  C11_16 
REMARK   11  A    between atoms: C11_16  and  O5_17 
REMARK   12  A    between atoms: C26_33  and  O7_34 
REMARK       I    between atoms: C30_38  and  N2_40 
REMARK   13  A    between atoms: N2_40  and  C31_41 
REMARK   14  A    between atoms: C31_41  and  C32_42 
REMARK   15  A    between atoms: C32_42  and  C33_43 
REMARK   16  A    between atoms: C32_42  and  C35_47 
REMARK   17  A    between atoms: C33_43  and  C34_44 
REMARK   18  A    between atoms: C34_44  and  O10_46 
ROOT
HETATM    1  C8  UNL     1      -5.504   5.295  14.068  1.00  0.00     0.259 C 
HETATM    2  O2  UNL     1      -6.007   4.373  13.439  1.00  0.00    -0.265 OA
ENDROOT
BRANCH   1   3
HETATM    3  C7  UNL     1      -6.288   6.290  14.873  1.00  0.00     0.120 C 
BRANCH   3   4
HETATM    4  C6  UNL     1      -7.423   5.569  15.582  1.00  0.00     0.112 C 
BRANCH   4   5
HETATM    5  C5  UNL     1      -8.564   6.503  15.910  1.00  0.00     0.218 C 
HETATM    6  N1  UNL     1      -9.309   6.844  14.805  1.00  0.00    -0.347 N 
HETATM    7  H9  UNL     1      -9.257   6.240  13.992  1.00  0.00     0.163 HD
HETATM    8  O1  UNL     1      -8.828   6.896  17.043  1.00  0.00    -0.274 OA
BRANCH   6   9
HETATM    9  C4  UNL     1     -10.479   7.728  14.901  1.00  0.00     0.179 C 
BRANCH   9  10
HETATM   10  C2  UNL     1     -10.105   9.188  14.549  1.00  0.00     0.009 C 
HETATM   11  C1  UNL     1     -11.275  10.144  14.834  1.00  0.00     0.012 C 
HETATM   12  C3  UNL     1      -8.877   9.668  15.333  1.00  0.00     0.012 C 
ENDBRANCH   9  10
BRANCH   9  13
HETATM   13  C30 UNL     1     -11.576   7.151  13.967  1.00  0.00     0.240 C 
HETATM   14  O8  UNL     1     -11.507   7.180  12.740  1.00  0.00    -0.271 OA
HETATM   15  N2  UNL     1     -12.648   6.603  14.649  1.00  0.00    -0.359 N 
HETATM   16  H43 UNL     1     -12.606   6.597  15.665  1.00  0.00     0.162 HD
BRANCH  15  17
HETATM   17  C31 UNL     1     -13.813   6.062  13.973  1.00  0.00     0.132 C 
BRANCH  17  18
HETATM   18  C32 UNL     1     -15.157   6.536  14.562  1.00  0.00     0.046 C 
BRANCH  18  19
HETATM   19  C33 UNL     1     -15.878   7.487  13.590  1.00  0.00     0.120 C 
BRANCH  19  20
HETATM   20  C34 UNL     1     -16.229   6.817  12.289  1.00  0.00     0.140 C 
HETATM   21  O9  UNL     1     -16.840   5.770  12.159  1.00  0.00    -0.650 OA
BRANCH  20  22
HETATM   22  O10 UNL     1     -15.711   7.452  11.218  1.00  0.00    -0.776 OA
HETATM   23  H49 UNL     1     -15.948   6.883  10.457  1.00  0.00     0.167 HD
ENDBRANCH  20  22
ENDBRANCH  19  20
ENDBRANCH  18  19
BRANCH  18  24
HETATM   24  C35 UNL     1     -15.992   5.360  15.064  1.00  0.00    -0.052 A 
HETATM   25  C36 UNL     1     -15.508   4.055  14.869  1.00  0.00     0.007 A 
HETATM   26  C37 UNL     1     -16.251   2.945  15.277  1.00  0.00     0.001 A 
HETATM   27  C38 UNL     1     -17.490   3.122  15.886  1.00  0.00     0.000 A 
HETATM   28  C39 UNL     1     -17.987   4.407  16.081  1.00  0.00     0.001 A 
HETATM   29  C40 UNL     1     -17.248   5.518  15.670  1.00  0.00     0.007 A 
ENDBRANCH  18  24
ENDBRANCH  17  18
ENDBRANCH  15  17
ENDBRANCH   9  13
ENDBRANCH   6   9
ENDBRANCH   4   5
ENDBRANCH   3   4
ENDBRANCH   1   3
BRANCH   1  30
HETATM   30  O3  UNL     1      -4.171   5.523  14.204  1.00  0.00    -0.314 OA
BRANCH  30  31
HETATM   31  C9  UNL     1      -3.791   6.508  15.179  1.00  0.00     0.260 C 
BRANCH  31  32
HETATM   32  C10 UNL     1      -2.439   7.094  14.795  1.00  0.00     0.185 C 
HETATM   33  O4  UNL     1      -1.640   7.482  15.663  1.00  0.00    -0.292 OA
BRANCH  32  34
HETATM   34  C11 UNL     1      -2.046   7.247  13.305  1.00  0.00     0.128 C 
HETATM   35  C12 UNL     1      -2.721   8.407  12.538  1.00  0.00     0.047 C 
HETATM   36  C13 UNL     1      -1.736   8.809  11.413  1.00  0.00     0.009 C 
HETATM   37  C14 UNL     1      -0.642   7.743  11.465  1.00  0.00     0.002 C 
HETATM   38  C15 UNL     1       0.708   8.014  10.782  1.00  0.00    -0.002 C 
HETATM   39  C28 UNL     1      -0.530   7.409  12.972  1.00  0.00     0.001 C 
HETATM   40  C16 UNL     1       0.492   8.408   9.304  1.00  0.00     0.010 C 
HETATM   41  C25 UNL     1       1.598   6.724  10.916  1.00  0.00     0.031 C 
HETATM   42  C17 UNL     1       1.789   8.462   8.495  1.00  0.00     0.035 C 
HETATM   43  C18 UNL     1       2.548   7.171   8.686  1.00  0.00    -0.068 C 
HETATM   44  C19 UNL     1       2.707   6.325   7.651  1.00  0.00     0.053 C 
HETATM   45  C23 UNL     1       2.956   6.847  10.129  1.00  0.00    -0.014 C 
HETATM   46  C20 UNL     1       3.169   4.934   7.863  1.00  0.00     0.149 C 
HETATM   47  O6  UNL     1       3.360   4.206   6.894  1.00  0.00    -0.293 OA
HETATM   48  C21 UNL     1       3.277   4.436   9.282  1.00  0.00     0.084 C 
HETATM   49  C22 UNL     1       3.813   5.547  10.166  1.00  0.00     0.022 C 
HETATM   50  C24 UNL     1       3.884   7.966  10.671  1.00  0.00     0.020 C 
HETATM   51  C26 UNL     1       1.693   6.223  12.386  1.00  0.00     0.124 C 
HETATM   52  C27 UNL     1       0.327   6.131  13.100  1.00  0.00     0.045 C 
HETATM   53  C29 UNL     1       0.084   8.567  13.796  1.00  0.00     0.019 C 
BRANCH  34  54
HETATM   54  O5  UNL     1      -2.531   6.042  12.665  1.00  0.00    -0.381 OA
HETATM   55  H16 UNL     1      -2.588   5.353  13.360  1.00  0.00     0.211 HD
ENDBRANCH  34  54
BRANCH  51  56
HETATM   56  O7  UNL     1       2.587   6.982  13.186  1.00  0.00    -0.395 OA
HETATM   57  H37 UNL     1       2.589   7.902  12.883  1.00  0.00     0.210 HD
ENDBRANCH  51  56
ENDBRANCH  32  34
ENDBRANCH  31  32
ENDBRANCH  30  31
ENDBRANCH   1  30
TORSDOF 18
ENDMDL
MODEL 2
REMARK minimizedAffinity -9.80075836
REMARK CNNscore 0.630423784
REMARK CNNaffinity 7.5899272
REMARK  18 active torsions:
REMARK  status: ('A' for Active; 'I' for Inactive)
REMARK    1  A    between atoms: C2_2  and  C4_4 
REMARK    2  A    between atoms: C4_4  and  N1_5 
REMARK    3  A    between atoms: C4_4  and  C30_38 
REMARK       I    between atoms: N1_5  and  C5_6 
REMARK    4  A    between atoms: C5_6  and  C6_8 
REMARK    5  A    between atoms: C6_8  and  C7_9 
REMARK    6  A    between atoms: C7_9  and  C8_10 
REMARK    7  A    between atoms: C8_10  and  O3_12 
REMARK    8  A    between atoms: O3_12  and  C9_13 
REMARK    9  A    between atoms: C9_13  and  C10_14 
REMARK   10  A    between atoms: C10_14  and  C11_16 
REMARK   11  A    between atoms: C11_16  and  O5_17 
REMARK   12  A    between atoms: C26_33  and  O7_34 
REMARK       I    between atoms: C30_38  and  N2_40 
REMARK   13  A    between atoms: N2_40  and  C31_41 
REMARK   14  A    between atoms: C31_41  and  C32_42 
REMARK   15  A    between atoms: C32_42  and  C33_43 
REMARK   16  A    between atoms: C32_42  and  C35_47 
REMARK   17  A    between atoms: C33_43  and  C34_44 
REMARK   18  A    between atoms: C34_44  and  O10_46 
ROOT
HETATM    1  C8  UNL     1      -4.252   5.343  13.670  1.00  0.00     0.259 C 
HETATM    2  O2  UNL     1      -4.896   6.358  13.441  1.00  0.00    -0.265 OA
ENDROOT
BRANCH   1   3
HETATM    3  C7  UNL     1      -4.703   3.960  13.300  1.00  0.00     0.120 C 
BRANCH   3   4
HETATM    4  C6  UNL     1      -5.940   4.061  12.420  1.00  0.00     0.112 C 
BRANCH   4   5
HETATM    5  C5  UNL     1      -7.205   4.165  13.239  1.00  0.00     0.218 C 
HETATM    6  N1  UNL     1      -7.534   5.464  13.551  1.00  0.00    -0.347 N 
HETATM    7  H9  UNL     1      -7.137   6.204  12.982  1.00  0.00     0.163 HD
HETATM    8  O1  UNL     1      -7.893   3.202  13.567  1.00  0.00    -0.274 OA
BRANCH   6   9
HETATM    9  C4  UNL     1      -8.738   5.794  14.324  1.00  0.00     0.179 C 
BRANCH   9  10
HETATM   10  C2  UNL     1      -8.415   6.798  15.458  1.00  0.00     0.009 C 
HETATM   11  C1  UNL     1      -7.334   6.243  16.398  1.00  0.00     0.012 C 
HETATM   12  C3  UNL     1      -7.941   8.148  14.907  1.00  0.00     0.012 C 
ENDBRANCH   9  10
BRANCH   9  13
HETATM   13  C30 UNL     1      -9.797   6.339  13.328  1.00  0.00     0.240 C 
HETATM   14  O8  UNL     1      -9.560   6.568  12.144  1.00  0.00    -0.271 OA
HETATM   15  N2  UNL     1     -11.037   6.548  13.903  1.00  0.00    -0.359 N 
HETATM   16  H43 UNL     1     -11.150   6.303  14.883  1.00  0.00     0.162 HD
BRANCH  15  17
HETATM   17  C31 UNL     1     -12.156   7.110  13.169  1.00  0.00     0.132 C 
BRANCH  17  18
HETATM   18  C32 UNL     1     -13.317   7.590  14.064  1.00  0.00     0.046 C 
BRANCH  18  19
HETATM   19  C33 UNL     1     -13.446   9.123  14.021  1.00  0.00     0.120 C 
BRANCH  19  20
HETATM   20  C34 UNL     1     -12.696   9.728  12.866  1.00  0.00     0.140 C 
HETATM   21  O9  UNL     1     -13.157  10.005  11.771  1.00  0.00    -0.650 OA
BRANCH  20  22
HETATM   22  O10 UNL     1     -11.378   9.869  13.115  1.00  0.00    -0.776 OA
HETATM   23  H49 UNL     1     -11.003  10.198  12.272  1.00  0.00     0.167 HD
ENDBRANCH  20  22
ENDBRANCH  19  20
ENDBRANCH  18  19
BRANCH  18  24
HETATM   24  C35 UNL     1     -14.602   6.819  13.772  1.00  0.00    -0.052 A 
HETATM   25  C36 UNL     1     -15.392   7.210  12.676  1.00  0.00     0.007 A 
HETATM   26  C37 UNL     1     -16.593   6.560  12.388  1.00  0.00     0.001 A 
HETATM   27  C38 UNL     1     -17.027   5.509  13.192  1.00  0.00     0.000 A 
HETATM   28  C39 UNL     1     -16.262   5.114  14.285  1.00  0.00     0.001 A 
HETATM   29  C40 UNL     1     -15.061   5.764  14.577  1.00  0.00     0.007 A 
ENDBRANCH  18  24
ENDBRANCH  17  18
ENDBRANCH  15  17
ENDBRANCH   9  13
ENDBRANCH   6   9
ENDBRANCH   4   5
ENDBRANCH   3   4
ENDBRANCH   1   3
BRANCH   1  30
HETATM   30  O3  UNL     1      -3.008   5.303  14.216  1.00  0.00    -0.314 OA
BRANCH  30  31
HETATM   31  C9  UNL     1      -2.730   6.276  15.236  1.00  0.00     0.260 C 
BRANCH  31  32
HETATM   32  C10 UNL     1      -1.794   7.336  14.672  1.00  0.00     0.185 C 
HETATM   33  O4  UNL     1      -1.260   8.178  15.412  1.00  0.00    -0.292 OA
BRANCH  32  34
HETATM   34  C11 UNL     1      -1.513   7.404  13.150  1.00  0.00     0.128 C 
HETATM   35  C12 UNL     1      -2.227   8.538  12.376  1.00  0.00     0.047 C 
HETATM   36  C13 UNL     1      -1.324   8.861  11.161  1.00  0.00     0.009 C 
HETATM   37  C14 UNL     1      -0.246   7.777  11.186  1.00  0.00     0.002 C 
HETATM   38  C15 UNL     1       1.052   7.985  10.389  1.00  0.00    -0.002 C 
HETATM   39  C28 UNL     1      -0.025   7.518  12.696  1.00  0.00     0.001 C 
HETATM   40  C16 UNL     1       0.730   8.307   8.913  1.00  0.00     0.010 C 
HETATM   41  C25 UNL     1       1.927   6.685  10.523  1.00  0.00     0.031 C 
HETATM   42  C17 UNL     1       1.961   8.292   8.007  1.00  0.00     0.035 C 
HETATM   43  C18 UNL     1       2.711   6.999   8.208  1.00  0.00    -0.068 C 
HETATM   44  C19 UNL     1       2.776   6.097   7.210  1.00  0.00     0.053 C 
HETATM   45  C23 UNL     1       3.223   6.740   9.631  1.00  0.00    -0.014 C 
HETATM   46  C20 UNL     1       3.230   4.710   7.459  1.00  0.00     0.149 C 
HETATM   47  O6  UNL     1       3.334   3.929   6.518  1.00  0.00    -0.293 OA
HETATM   48  C21 UNL     1       3.438   4.283   8.890  1.00  0.00     0.084 C 
HETATM   49  C22 UNL     1       4.058   5.426   9.672  1.00  0.00     0.022 C 
HETATM   50  C24 UNL     1       4.208   7.867  10.042  1.00  0.00     0.020 C 
HETATM   51  C26 UNL     1       2.127   6.258  12.007  1.00  0.00     0.124 C 
HETATM   52  C27 UNL     1       0.818   6.231  12.825  1.00  0.00     0.045 C 
HETATM   53  C29 UNL     1       0.669   8.704  13.408  1.00  0.00     0.019 C 
BRANCH  34  54
HETATM   54  O5  UNL     1      -2.066   6.178  12.613  1.00  0.00    -0.381 OA
HETATM   55  H16 UNL     1      -2.081   5.527  13.346  1.00  0.00     0.211 HD
ENDBRANCH  34  54
BRANCH  51  56
HETATM   56  O7  UNL     1       3.092   7.039  12.696  1.00  0.00    -0.395 OA
HETATM   57  H37 UNL     1       3.085   7.942  12.345  1.00  0.00     0.210 HD
ENDBRANCH  51  56
ENDBRANCH  32  34
ENDBRANCH  31  32
ENDBRANCH  30  31
ENDBRANCH   1  30
TORSDOF 18
ENDMDL
MODEL 3
REMARK minimizedAffinity -9.2535696
REMARK CNNscore 0.457373053
REMARK CNNaffinity 7.45843124
REMARK  18 active torsions:
REMARK  status: ('A' for Active; 'I' for Inactive)
REMARK    1  A    between atoms: C2_2  and  C4_4 
REMARK    2  A    between atoms: C4_4  and  N1_5 
REMARK    3  A    between atoms: C4_4  and  C30_38 
REMARK       I    between atoms: N1_5  and  C5_6 
REMARK    4  A    between atoms: C5_6  and  C6_8 
REMARK    5  A    between atoms: C6_8  and  C7_9 
REMARK    6  A    between atoms: C7_9  and  C8_10 
REMARK    7  A    between atoms: C8_10  and  O3_12 
REMARK    8  A    between atoms: O3_12  and  C9_13 
REMARK    9  A    between atoms: C9_13  and  C10_14 
REMARK   10  A    between atoms: C10_14  and  C11_16 
REMARK   11  A    between atoms: C11_16  and  O5_17 
REMARK   12  A    between atoms: C26_33  and  O7_34 
REMARK       I    between atoms: C30_38  and  N2_40 
REMARK   13  A    between atoms: N2_40  and  C31_41 
REMARK   14  A    between atoms: C31_41  and  C32_42 
REMARK   15  A    between atoms: C32_42  and  C33_43 
REMARK   16  A    between atoms: C32_42  and  C35_47 
REMARK   17  A    between atoms: C33_43  and  C34_44 
REMARK   18  A    between atoms: C34_44  and  O10_46 
ROOT
HETATM    1  C8  UNL     1      -3.846   2.973  11.350  1.00  0.00     0.259 C 
HETATM    2  O2  UNL     1      -3.305   1.946  11.737  1.00  0.00    -0.265 OA
ENDROOT
BRANCH   1   3
HETATM    3  C7  UNL     1      -5.250   3.036  10.821  1.00  0.00     0.120 C 
BRANCH   3   4
HETATM    4  C6  UNL     1      -6.107   2.027  11.569  1.00  0.00     0.112 C 
BRANCH   4   5
HETATM    5  C5  UNL     1      -7.018   2.696  12.570  1.00  0.00     0.218 C 
HETATM    6  N1  UNL     1      -6.547   3.921  12.985  1.00  0.00    -0.347 N 
HETATM    7  H9  UNL     1      -5.868   4.393  12.398  1.00  0.00     0.163 HD
HETATM    8  O1  UNL     1      -8.085   2.225  12.953  1.00  0.00    -0.274 OA
BRANCH   6   9
HETATM    9  C4  UNL     1      -7.288   4.753  13.943  1.00  0.00     0.179 C 
BRANCH   9  10
HETATM   10  C2  UNL     1      -6.331   5.667  14.745  1.00  0.00     0.009 C 
HETATM   11  C1  UNL     1      -6.088   6.995  14.012  1.00  0.00     0.012 C 
HETATM   12  C3  UNL     1      -6.874   5.972  16.147  1.00  0.00     0.012 C 
ENDBRANCH   9  10
BRANCH   9  13
HETATM   13  C30 UNL     1      -8.347   5.555  13.141  1.00  0.00     0.240 C 
HETATM   14  O8  UNL     1      -8.260   5.778  11.936  1.00  0.00    -0.271 OA
HETATM   15  N2  UNL     1      -9.402   6.002  13.916  1.00  0.00    -0.359 N 
HETATM   16  H43 UNL     1      -9.406   5.745  14.900  1.00  0.00     0.162 HD
BRANCH  15  17
HETATM   17  C31 UNL     1     -10.474   6.824  13.382  1.00  0.00     0.132 C 
BRANCH  17  18
HETATM   18  C32 UNL     1     -11.487   7.300  14.442  1.00  0.00     0.046 C 
BRANCH  18  19
HETATM   19  C33 UNL     1     -11.213   8.759  14.847  1.00  0.00     0.120 C 
BRANCH  19  20
HETATM   20  C34 UNL     1     -10.165   8.868  15.922  1.00  0.00     0.140 C 
HETATM   21  O9  UNL     1     -10.366   9.071  17.107  1.00  0.00    -0.650 OA
BRANCH  20  22
HETATM   22  O10 UNL     1      -8.909   8.806  15.436  1.00  0.00    -0.776 OA
HETATM   23  H49 UNL     1      -8.336   8.961  16.215  1.00  0.00     0.167 HD
ENDBRANCH  20  22
ENDBRANCH  19  20
ENDBRANCH  18  19
BRANCH  18  24
HETATM   24  C35 UNL     1     -12.922   6.999  14.017  1.00  0.00    -0.052 A 
HETATM   25  C36 UNL     1     -13.501   7.773  12.996  1.00  0.00     0.007 A 
HETATM   26  C37 UNL     1     -14.822   7.562  12.596  1.00  0.00     0.001 A 
HETATM   27  C38 UNL     1     -15.587   6.574  13.211  1.00  0.00     0.000 A 
HETATM   28  C39 UNL     1     -15.032   5.804  14.228  1.00  0.00     0.001 A 
HETATM   29  C40 UNL     1     -13.712   6.016  14.632  1.00  0.00     0.007 A 
ENDBRANCH  18  24
ENDBRANCH  17  18
ENDBRANCH  15  17
ENDBRANCH   9  13
ENDBRANCH   6   9
ENDBRANCH   4   5
ENDBRANCH   3   4
ENDBRANCH   1   3
BRANCH   1  30
HETATM   30  O3  UNL     1      -3.306   4.219  11.405  1.00  0.00    -0.314 OA
BRANCH  30  31
HETATM   31  C9  UNL     1      -2.467   4.499  12.538  1.00  0.00     0.260 C 
BRANCH  31  32
HETATM   32  C10 UNL     1      -1.093   4.932  12.045  1.00  0.00     0.185 C 
HETATM   33  O4  UNL     1      -0.673   4.583  10.930  1.00  0.00    -0.292 OA
BRANCH  32  34
HETATM   34  C11 UNL     1      -0.174   5.796  12.945  1.00  0.00     0.128 C 
HETATM   35  C12 UNL     1       1.299   5.921  12.492  1.00  0.00     0.047 C 
HETATM   36  C13 UNL     1       1.801   7.281  13.037  1.00  0.00     0.009 C 
HETATM   37  C14 UNL     1       0.666   7.776  13.933  1.00  0.00     0.002 C 
HETATM   38  C15 UNL     1       0.611   9.259  14.333  1.00  0.00    -0.002 C 
HETATM   39  C28 UNL     1      -0.610   7.268  13.219  1.00  0.00     0.001 C 
HETATM   40  C16 UNL     1       1.949   9.691  14.972  1.00  0.00     0.010 C 
HETATM   41  C25 UNL     1      -0.596   9.461  15.320  1.00  0.00     0.031 C 
HETATM   42  C17 UNL     1       1.896  11.080  15.610  1.00  0.00     0.035 C 
HETATM   43  C18 UNL     1       0.713  11.153  16.544  1.00  0.00    -0.068 C 
HETATM   44  C19 UNL     1       0.911  11.269  17.871  1.00  0.00     0.053 C 
HETATM   45  C23 UNL     1      -0.660  10.924  15.898  1.00  0.00    -0.014 C 
HETATM   46  C20 UNL     1      -0.192  11.038  18.832  1.00  0.00     0.149 C 
HETATM   47  O6  UNL     1       0.006  11.210  20.031  1.00  0.00    -0.293 OA
HETATM   48  C21 UNL     1      -1.490  10.489  18.298  1.00  0.00     0.084 C 
HETATM   49  C22 UNL     1      -1.789  11.124  16.953  1.00  0.00     0.022 C 
HETATM   50  C24 UNL     1      -0.911  12.006  14.815  1.00  0.00     0.020 C 
HETATM   51  C26 UNL     1      -1.926   8.884  14.753  1.00  0.00     0.124 C 
HETATM   52  C27 UNL     1      -1.791   7.449  14.197  1.00  0.00     0.045 C 
HETATM   53  C29 UNL     1      -0.881   8.008  11.886  1.00  0.00     0.019 C 
BRANCH  34  54
HETATM   54  O5  UNL     1      -0.118   5.090  14.209  1.00  0.00    -0.381 OA
HETATM   55  H16 UNL     1      -0.932   4.546  14.268  1.00  0.00     0.211 HD
ENDBRANCH  34  54
BRANCH  51  56
HETATM   56  O7  UNL     1      -2.527   9.711  13.768  1.00  0.00    -0.395 OA
HETATM   57  H37 UNL     1      -1.838  10.178  13.274  1.00  0.00     0.210 HD
ENDBRANCH  51  56
ENDBRANCH  32  34
ENDBRANCH  31  32
ENDBRANCH  30  31
ENDBRANCH   1  30
TORSDOF 18
ENDMDL
MODEL 4
REMARK minimizedAffinity -10.0308838
REMARK CNNscore 0.441701025
REMARK CNNaffinity 7.34835434
REMARK  18 active torsions:
REMARK  status: ('A' for Active; 'I' for Inactive)
REMARK    1  A    between atoms: C2_2  and  C4_4 
REMARK    2  A    between atoms: C4_4  and  N1_5 
REMARK    3  A    between atoms: C4_4  and  C30_38 
REMARK       I    between atoms: N1_5  and  C5_6 
REMARK    4  A    between atoms: C5_6  and  C6_8 
REMARK    5  A    between atoms: C6_8  and  C7_9 
REMARK    6  A    between atoms: C7_9  and  C8_10 
REMARK    7  A    between atoms: C8_10  and  O3_12 
REMARK    8  A    between atoms: O3_12  and  C9_13 
REMARK    9  A    between atoms: C9_13  and  C10_14 
REMARK   10  A    between atoms: C10_14  and  C11_16 
REMARK   11  A    between atoms: C11_16  and  O5_17 
REMARK   12  A    between atoms: C26_33  and  O7_34 
REMARK       I    between atoms: C30_38  and  N2_40 
REMARK   13  A    between atoms: N2_40  and  C31_41 
REMARK   14  A    between atoms: C31_41  and  C32_42 
REMARK   15  A    between atoms: C32_42  and  C33_43 
REMARK   16  A    between atoms: C32_42  and  C35_47 
REMARK   17  A    between atoms: C33_43  and  C34_44 
REMARK   18  A    between atoms: C34_44  and  O10_46 
ROOT
HETATM    1  C8  UNL     1      -3.690   3.913  11.429  1.00  0.00     0.259 C 
HETATM    2  O2  UNL     1      -3.159   3.776  10.335  1.00  0.00    -0.265 OA
ENDROOT
BRANCH   1   3
HETATM    3  C7  UNL     1      -4.374   2.806  12.177  1.00  0.00     0.120 C 
BRANCH   3   4
HETATM    4  C6  UNL     1      -5.772   2.614  11.608  1.00  0.00     0.112 C 
BRANCH   4   5
HETATM    5  C5  UNL     1      -6.839   3.060  12.580  1.00  0.00     0.218 C 
HETATM    6  N1  UNL     1      -6.666   4.357  13.005  1.00  0.00    -0.347 N 
HETATM    7  H9  UNL     1      -6.093   4.971  12.437  1.00  0.00     0.163 HD
HETATM    8  O1  UNL     1      -7.784   2.360  12.934  1.00  0.00    -0.274 OA
BRANCH   6   9
HETATM    9  C4  UNL     1      -7.602   4.998  13.938  1.00  0.00     0.179 C 
BRANCH   9  10
HETATM   10  C2  UNL     1      -6.860   5.952  14.906  1.00  0.00     0.009 C 
HETATM   11  C1  UNL     1      -6.470   7.262  14.204  1.00  0.00     0.012 C 
HETATM   12  C3  UNL     1      -7.709   6.290  16.138  1.00  0.00     0.012 C 
ENDBRANCH   9  10
BRANCH   9  13
HETATM   13  C30 UNL     1      -8.679   5.728  13.090  1.00  0.00     0.240 C 
HETATM   14  O8  UNL     1      -8.570   5.928  11.883  1.00  0.00    -0.271 OA
HETATM   15  N2  UNL     1      -9.775   6.137  13.827  1.00  0.00    -0.359 N 
HETATM   16  H43 UNL     1      -9.793   5.902  14.816  1.00  0.00     0.162 HD
BRANCH  15  17
HETATM   17  C31 UNL     1     -10.872   6.891  13.246  1.00  0.00     0.132 C 
BRANCH  17  18
HETATM   18  C32 UNL     1     -11.624   7.783  14.255  1.00  0.00     0.046 C 
BRANCH  18  19
HETATM   19  C33 UNL     1     -11.694   9.237  13.755  1.00  0.00     0.120 C 
BRANCH  19  20
HETATM   20  C34 UNL     1     -12.422   9.356  12.443  1.00  0.00     0.140 C 
HETATM   21  O9  UNL     1     -13.624   9.234  12.272  1.00  0.00    -0.650 OA
BRANCH  20  22
HETATM   22  O10 UNL     1     -11.590   9.533  11.398  1.00  0.00    -0.776 OA
HETATM   23  H49 UNL     1     -12.176   9.521  10.613  1.00  0.00     0.167 HD
ENDBRANCH  20  22
ENDBRANCH  19  20
ENDBRANCH  18  19
BRANCH  18  24
HETATM   24  C35 UNL     1     -12.961   7.166  14.658  1.00  0.00    -0.052 A 
HETATM   25  C36 UNL     1     -13.778   7.858  15.568  1.00  0.00     0.007 A 
HETATM   26  C37 UNL     1     -14.994   7.320  15.995  1.00  0.00     0.001 A 
HETATM   27  C38 UNL     1     -15.412   6.080  15.521  1.00  0.00     0.000 A 
HETATM   28  C39 UNL     1     -14.612   5.378  14.624  1.00  0.00     0.001 A 
HETATM   29  C40 UNL     1     -13.394   5.913  14.198  1.00  0.00     0.007 A 
ENDBRANCH  18  24
ENDBRANCH  17  18
ENDBRANCH  15  17
ENDBRANCH   9  13
ENDBRANCH   6   9
ENDBRANCH   4   5
ENDBRANCH   3   4
ENDBRANCH   1   3
BRANCH   1  30
HETATM   30  O3  UNL     1      -3.682   5.051  12.173  1.00  0.00    -0.314 OA
BRANCH  30  31
HETATM   31  C9  UNL     1      -2.770   5.078  13.283  1.00  0.00     0.260 C 
BRANCH  31  32
HETATM   32  C10 UNL     1      -1.751   6.188  13.065  1.00  0.00     0.185 C 
HETATM   33  O4  UNL     1      -2.081   7.383  13.138  1.00  0.00    -0.292 OA
BRANCH  32  34
HETATM   34  C11 UNL     1      -0.282   5.847  12.713  1.00  0.00     0.128 C 
HETATM   35  C12 UNL     1      -0.068   4.968  11.459  1.00  0.00     0.047 C 
HETATM   36  C13 UNL     1       1.332   5.335  10.910  1.00  0.00     0.009 C 
HETATM   37  C14 UNL     1       1.931   6.254  11.976  1.00  0.00     0.002 C 
HETATM   38  C15 UNL     1       3.134   7.141  11.618  1.00  0.00    -0.002 C 
HETATM   39  C28 UNL     1       0.707   7.036  12.510  1.00  0.00     0.001 C 
HETATM   40  C16 UNL     1       4.275   6.284  11.028  1.00  0.00     0.010 C 
HETATM   41  C25 UNL     1       3.590   7.902  12.916  1.00  0.00     0.031 C 
HETATM   42  C17 UNL     1       5.589   7.050  10.868  1.00  0.00     0.035 C 
HETATM   43  C18 UNL     1       5.933   7.724  12.173  1.00  0.00    -0.068 C 
HETATM   44  C19 UNL     1       7.011   7.324  12.873  1.00  0.00     0.053 C 
HETATM   45  C23 UNL     1       4.904   8.739  12.690  1.00  0.00    -0.014 C 
HETATM   46  C20 UNL     1       7.209   7.739  14.280  1.00  0.00     0.149 C 
HETATM   47  O6  UNL     1       8.232   7.406  14.871  1.00  0.00    -0.293 OA
HETATM   48  C21 UNL     1       6.081   8.466  14.966  1.00  0.00     0.084 C 
HETATM   49  C22 UNL     1       5.431   9.425  13.985  1.00  0.00     0.022 C 
HETATM   50  C24 UNL     1       4.738   9.883  11.656  1.00  0.00     0.020 C 
HETATM   51  C26 UNL     1       2.410   8.643  13.611  1.00  0.00     0.124 C 
HETATM   52  C27 UNL     1       1.151   7.767  13.796  1.00  0.00     0.045 C 
HETATM   53  C29 UNL     1       0.142   8.039  11.475  1.00  0.00     0.019 C 
BRANCH  34  54
HETATM   54  O5  UNL     1       0.190   5.040  13.820  1.00  0.00    -0.381 OA
HETATM   55  H16 UNL     1      -0.363   5.271  14.597  1.00  0.00     0.211 HD
ENDBRANCH  34  54
BRANCH  51  56
HETATM   56  O7  UNL     1       2.045   9.855  12.968  1.00  0.00    -0.395 OA
HETATM   57  H37 UNL     1       2.202   9.775  12.016  1.00  0.00     0.210 HD
ENDBRANCH  51  56
ENDBRANCH  32  34
ENDBRANCH  31  32
ENDBRANCH  30  31
ENDBRANCH   1  30
TORSDOF 18
ENDMDL
MODEL 5
REMARK minimizedAffinity -8.44099331
REMARK CNNscore 0.397853762
REMARK CNNaffinity 7.33915854
REMARK  18 active torsions:
REMARK  status: ('A' for Active; 'I' for Inactive)
REMARK    1  A    between atoms: C2_2  and  C4_4 
REMARK    2  A    between atoms: C4_4  and  N1_5 
REMARK    3  A    between atoms: C4_4  and  C30_38 
REMARK       I    between atoms: N1_5  and  C5_6 
REMARK    4  A    between atoms: C5_6  and  C6_8 
REMARK    5  A    between atoms: C6_8  and  C7_9 
REMARK    6  A    between atoms: C7_9  and  C8_10 
REMARK    7  A    between atoms: C8_10  and  O3_12 
REMARK    8  A    between atoms: O3_12  and  C9_13 
REMARK    9  A    between atoms: C9_13  and  C10_14 
REMARK   10  A    between atoms: C10_14  and  C11_16 
REMARK   11  A    between atoms: C11_16  and  O5_17 
REMARK   12  A    between atoms: C26_33  and  O7_34 
REMARK       I    between atoms: C30_38  and  N2_40 
REMARK   13  A    between atoms: N2_40  and  C31_41 
REMARK   14  A    between atoms: C31_41  and  C32_42 
REMARK   15  A    between atoms: C32_42  and  C33_43 
REMARK   16  A    between atoms: C32_42  and  C35_47 
REMARK   17  A    between atoms: C33_43  and  C34_44 
REMARK   18  A    between atoms: C34_44  and  O10_46 
ROOT
HETATM    1  C8  UNL     1      -3.920   7.785  15.841  1.00  0.00     0.259 C 
HETATM    2  O2  UNL     1      -3.709   6.584  15.946  1.00  0.00    -0.265 OA
ENDROOT
BRANCH   1   3
HETATM    3  C7  UNL     1      -5.246   8.376  15.461  1.00  0.00     0.120 C 
BRANCH   3   4
HETATM    4  C6  UNL     1      -6.356   7.560  16.106  1.00  0.00     0.112 C 
BRANCH   4   5
HETATM    5  C5  UNL     1      -7.432   7.192  15.113  1.00  0.00     0.218 C 
HETATM    6  N1  UNL     1      -7.547   5.834  14.928  1.00  0.00    -0.347 N 
HETATM    7  H9  UNL     1      -7.176   5.223  15.648  1.00  0.00     0.163 HD
HETATM    8  O1  UNL     1      -8.157   8.008  14.550  1.00  0.00    -0.274 OA
BRANCH   6   9
HETATM    9  C4  UNL     1      -8.546   5.256  14.019  1.00  0.00     0.179 C 
BRANCH   9  10
HETATM   10  C2  UNL     1      -9.141   6.337  13.085  1.00  0.00     0.009 C 
HETATM   11  C1  UNL     1      -8.988   5.939  11.608  1.00  0.00     0.012 C 
HETATM   12  C3  UNL     1     -10.627   6.587  13.374  1.00  0.00     0.012 C 
ENDBRANCH   9  10
BRANCH   9  13
HETATM   13  C30 UNL     1      -7.856   4.106  13.238  1.00  0.00     0.240 C 
HETATM   14  O8  UNL     1      -8.438   3.086  12.877  1.00  0.00    -0.271 OA
HETATM   15  N2  UNL     1      -6.515   4.338  12.989  1.00  0.00    -0.359 N 
HETATM   16  H43 UNL     1      -6.124   5.223  13.299  1.00  0.00     0.162 HD
BRANCH  15  17
HETATM   17  C31 UNL     1      -5.663   3.367  12.325  1.00  0.00     0.132 C 
BRANCH  17  18
HETATM   18  C32 UNL     1      -4.469   3.991  11.573  1.00  0.00     0.046 C 
BRANCH  18  19
HETATM   19  C33 UNL     1      -3.957   5.246  12.302  1.00  0.00     0.120 C 
BRANCH  19  20
HETATM   20  C34 UNL     1      -2.654   5.003  13.013  1.00  0.00     0.140 C 
HETATM   21  O9  UNL     1      -1.539   5.098  12.528  1.00  0.00    -0.650 OA
BRANCH  20  22
HETATM   22  O10 UNL     1      -2.821   4.563  14.276  1.00  0.00    -0.776 OA
HETATM   23  H49 UNL     1      -1.914   4.377  14.594  1.00  0.00     0.167 HD
ENDBRANCH  20  22
ENDBRANCH  19  20
ENDBRANCH  18  19
BRANCH  18  24
HETATM   24  C35 UNL     1      -3.405   2.945  11.250  1.00  0.00    -0.052 A 
HETATM   25  C36 UNL     1      -3.477   1.690  11.879  1.00  0.00     0.007 A 
HETATM   26  C37 UNL     1      -2.509   0.711  11.644  1.00  0.00     0.001 A 
HETATM   27  C38 UNL     1      -1.451   0.973  10.777  1.00  0.00     0.000 A 
HETATM   28  C39 UNL     1      -1.360   2.212  10.152  1.00  0.00     0.001 A 
HETATM   29  C40 UNL     1      -2.326   3.193  10.388  1.00  0.00     0.007 A 
ENDBRANCH  18  24
ENDBRANCH  17  18
ENDBRANCH  15  17
ENDBRANCH   9  13
ENDBRANCH   6   9
ENDBRANCH   4   5
ENDBRANCH   3   4
ENDBRANCH   1   3
BRANCH   1  30
HETATM   30  O3  UNL     1      -3.027   8.771  16.122  1.00  0.00    -0.314 OA
BRANCH  30  31
HETATM   31  C9  UNL     1      -1.779   8.353  16.698  1.00  0.00     0.260 C 
BRANCH  31  32
HETATM   32  C10 UNL     1      -0.638   8.800  15.793  1.00  0.00     0.185 C 
HETATM   33  O4  UNL     1       0.302   9.480  16.237  1.00  0.00    -0.292 OA
BRANCH  32  34
HETATM   34  C11 UNL     1      -0.644   8.439  14.287  1.00  0.00     0.128 C 
HETATM   35  C12 UNL     1      -1.689   9.173  13.415  1.00  0.00     0.047 C 
HETATM   36  C13 UNL     1      -1.092   9.231  11.988  1.00  0.00     0.009 C 
HETATM   37  C14 UNL     1       0.165   8.365  12.064  1.00  0.00     0.002 C 
HETATM   38  C15 UNL     1       1.239   8.496  10.972  1.00  0.00    -0.002 C 
HETATM   39  C28 UNL     1       0.691   8.611  13.498  1.00  0.00     0.001 C 
HETATM   40  C16 UNL     1       0.609   8.305   9.575  1.00  0.00     0.010 C 
HETATM   41  C25 UNL     1       2.362   7.432  11.253  1.00  0.00     0.031 C 
HETATM   42  C17 UNL     1       1.643   8.184   8.454  1.00  0.00     0.035 C 
HETATM   43  C18 UNL     1       2.656   7.129   8.825  1.00  0.00    -0.068 C 
HETATM   44  C19 UNL     1       2.723   5.984   8.120  1.00  0.00     0.053 C 
HETATM   45  C23 UNL     1       3.447   7.389  10.114  1.00  0.00    -0.014 C 
HETATM   46  C20 UNL     1       3.476   4.815   8.627  1.00  0.00     0.149 C 
HETATM   47  O6  UNL     1       3.567   3.806   7.933  1.00  0.00    -0.293 OA
HETATM   48  C21 UNL     1       4.009   4.877  10.036  1.00  0.00     0.084 C 
HETATM   49  C22 UNL     1       4.519   6.278  10.320  1.00  0.00     0.022 C 
HETATM   50  C24 UNL     1       4.248   8.711   9.974  1.00  0.00     0.020 C 
HETATM   51  C26 UNL     1       2.896   7.509  12.714  1.00  0.00     0.124 C 
HETATM   52  C27 UNL     1       1.779   7.554  13.780  1.00  0.00     0.045 C 
HETATM   53  C29 UNL     1       1.251  10.042  13.690  1.00  0.00     0.019 C 
BRANCH  34  54
HETATM   54  O5  UNL     1      -1.030   7.044  14.239  1.00  0.00    -0.381 OA
HETATM   55  H16 UNL     1      -0.789   6.651  15.105  1.00  0.00     0.211 HD
ENDBRANCH  34  54
BRANCH  51  56
HETATM   56  O7  UNL     1       3.793   8.587  12.932  1.00  0.00    -0.395 OA
HETATM   57  H37 UNL     1       3.549   9.330  12.361  1.00  0.00     0.210 HD
ENDBRANCH  51  56
ENDBRANCH  32  34
ENDBRANCH  31  32
ENDBRANCH  30  31
ENDBRANCH   1  30
TORSDOF 18
ENDMDL
MODEL 6
REMARK minimizedAffinity -8.34929943
REMARK CNNscore 0.308587432
REMARK CNNaffinity 6.92375183
REMARK  18 active torsions:
REMARK  status: ('A' for Active; 'I' for Inactive)
REMARK    1  A    between atoms: C2_2  and  C4_4 
REMARK    2  A    between atoms: C4_4  and  N1_5 
REMARK    3  A    between atoms: C4_4  and  C30_38 
REMARK       I    between atoms: N1_5  and  C5_6 
REMARK    4  A    between atoms: C5_6  and  C6_8 
REMARK    5  A    between atoms: C6_8  and  C7_9 
REMARK    6  A    between atoms: C7_9  and  C8_10 
REMARK    7  A    between atoms: C8_10  and  O3_12 
REMARK    8  A    between atoms: O3_12  and  C9_13 
REMARK    9  A    between atoms: C9_13  and  C10_14 
REMARK   10  A    between atoms: C10_14  and  C11_16 
REMARK   11  A    between atoms: C11_16  and  O5_17 
REMARK   12  A    between atoms: C26_33  and  O7_34 
REMARK       I    between atoms: C30_38  and  N2_40 
REMARK   13  A    between atoms: N2_40  and  C31_41 
REMARK   14  A    between atoms: C31_41  and  C32_42 
REMARK   15  A    between atoms: C32_42  and  C33_43 
REMARK   16  A    between atoms: C32_42  and  C35_47 
REMARK   17  A    between atoms: C33_43  and  C34_44 
REMARK   18  A    between atoms: C34_44  and  O10_46 
ROOT
HETATM    1  C8  UNL     1      -6.286   5.640  13.746  1.00  0.00     0.259 C 
HETATM    2  O2  UNL     1      -6.117   4.955  12.746  1.00  0.00    -0.265 OA
ENDROOT
BRANCH   1   3
HETATM    3  C7  UNL     1      -7.622   5.868  14.393  1.00  0.00     0.120 C 
BRANCH   3   4
HETATM    4  C6  UNL     1      -8.682   5.995  13.310  1.00  0.00     0.112 C 
BRANCH   4   5
HETATM    5  C5  UNL     1      -9.942   6.644  13.832  1.00  0.00     0.218 C 
HETATM    6  N1  UNL     1      -9.703   7.522  14.863  1.00  0.00    -0.347 N 
HETATM    7  H9  UNL     1      -8.764   7.893  14.964  1.00  0.00     0.163 HD
HETATM    8  O1  UNL     1     -11.062   6.442  13.370  1.00  0.00    -0.274 OA
BRANCH   6   9
HETATM    9  C4  UNL     1     -10.787   8.278  15.505  1.00  0.00     0.179 C 
BRANCH   9  10
HETATM   10  C2  UNL     1     -10.224   9.363  16.455  1.00  0.00     0.009 C 
HETATM   11  C1  UNL     1     -10.303  10.757  15.813  1.00  0.00     0.012 C 
HETATM   12  C3  UNL     1     -10.974   9.396  17.792  1.00  0.00     0.012 C 
ENDBRANCH   9  10
BRANCH   9  13
HETATM   13  C30 UNL     1     -11.672   8.873  14.377  1.00  0.00     0.240 C 
HETATM   14  O8  UNL     1     -11.273   9.713  13.574  1.00  0.00    -0.271 OA
HETATM   15  N2  UNL     1     -12.959   8.369  14.363  1.00  0.00    -0.359 N 
HETATM   16  H43 UNL     1     -13.193   7.654  15.048  1.00  0.00     0.162 HD
BRANCH  15  17
HETATM   17  C31 UNL     1     -13.972   8.831  13.431  1.00  0.00     0.132 C 
BRANCH  17  18
HETATM   18  C32 UNL     1     -15.400   8.851  14.014  1.00  0.00     0.046 C 
BRANCH  18  19
HETATM   19  C33 UNL     1     -16.423   9.273  12.944  1.00  0.00     0.120 C 
BRANCH  19  20
HETATM   20  C34 UNL     1     -16.590   8.233  11.870  1.00  0.00     0.140 C 
HETATM   21  O9  UNL     1     -15.762   7.923  11.030  1.00  0.00    -0.650 OA
BRANCH  20  22
HETATM   22  O10 UNL     1     -17.828   7.699  11.848  1.00  0.00    -0.776 OA
HETATM   23  H49 UNL     1     -17.824   7.103  11.071  1.00  0.00     0.167 HD
ENDBRANCH  20  22
ENDBRANCH  19  20
ENDBRANCH  18  19
BRANCH  18  24
HETATM   24  C35 UNL     1     -15.721   7.551  14.747  1.00  0.00    -0.052 A 
HETATM   25  C36 UNL     1     -15.450   6.329  14.108  1.00  0.00     0.007 A 
HETATM   26  C37 UNL     1     -15.758   5.113  14.722  1.00  0.00     0.001 A 
HETATM   27  C38 UNL     1     -16.345   5.100  15.985  1.00  0.00     0.000 A 
HETATM   28  C39 UNL     1     -16.628   6.300  16.628  1.00  0.00     0.001 A 
HETATM   29  C40 UNL     1     -16.323   7.517  16.015  1.00  0.00     0.007 A 
ENDBRANCH  18  24
ENDBRANCH  17  18
ENDBRANCH  15  17
ENDBRANCH   9  13
ENDBRANCH   6   9
ENDBRANCH   4   5
ENDBRANCH   3   4
ENDBRANCH   1   3
BRANCH   1  30
HETATM   30  O3  UNL     1      -5.303   6.235  14.473  1.00  0.00    -0.314 OA
BRANCH  30  31
HETATM   31  C9  UNL     1      -4.087   6.536  13.769  1.00  0.00     0.260 C 
BRANCH  31  32
HETATM   32  C10 UNL     1      -2.933   6.577  14.763  1.00  0.00     0.185 C 
HETATM   33  O4  UNL     1      -3.061   6.122  15.911  1.00  0.00    -0.292 OA
BRANCH  32  34
HETATM   34  C11 UNL     1      -1.581   7.220  14.368  1.00  0.00     0.128 C 
HETATM   35  C12 UNL     1      -0.624   7.564  15.533  1.00  0.00     0.047 C 
HETATM   36  C13 UNL     1       0.808   7.498  14.947  1.00  0.00     0.009 C 
HETATM   37  C14 UNL     1       0.597   7.314  13.444  1.00  0.00     0.002 C 
HETATM   38  C15 UNL     1       1.759   6.808  12.575  1.00  0.00    -0.002 C 
HETATM   39  C28 UNL     1      -0.680   6.443  13.359  1.00  0.00     0.001 C 
HETATM   40  C16 UNL     1       3.007   7.696  12.779  1.00  0.00     0.010 C 
HETATM   41  C25 UNL     1       1.288   6.803  11.074  1.00  0.00     0.031 C 
HETATM   42  C17 UNL     1       4.127   7.407  11.778  1.00  0.00     0.035 C 
HETATM   43  C18 UNL     1       3.565   7.443  10.378  1.00  0.00    -0.068 C 
HETATM   44  C19 UNL     1       3.945   8.413   9.526  1.00  0.00     0.053 C 
HETATM   45  C23 UNL     1       2.452   6.429  10.082  1.00  0.00    -0.014 C 
HETATM   46  C20 UNL     1       3.203   8.663   8.270  1.00  0.00     0.149 C 
HETATM   47  O6  UNL     1       3.610   9.516   7.486  1.00  0.00    -0.293 OA
HETATM   48  C21 UNL     1       1.903   7.929   8.061  1.00  0.00     0.084 C 
HETATM   49  C22 UNL     1       2.037   6.510   8.582  1.00  0.00     0.022 C 
HETATM   50  C24 UNL     1       2.994   4.989  10.281  1.00  0.00     0.020 C 
HETATM   51  C26 UNL     1      -0.057   6.044  10.880  1.00  0.00     0.124 C 
HETATM   52  C27 UNL     1      -1.151   6.455  11.889  1.00  0.00     0.045 C 
HETATM   53  C29 UNL     1      -0.445   4.993  13.849  1.00  0.00     0.019 C 
BRANCH  34  54
HETATM   54  O5  UNL     1      -1.931   8.498  13.781  1.00  0.00    -0.381 OA
HETATM   55  H16 UNL     1      -2.850   8.417  13.449  1.00  0.00     0.211 HD
ENDBRANCH  34  54
BRANCH  51  56
HETATM   56  O7  UNL     1       0.083   4.632  10.893  1.00  0.00    -0.395 OA
HETATM   57  H37 UNL     1       0.811   4.385  11.482  1.00  0.00     0.210 HD
ENDBRANCH  51  56
ENDBRANCH  32  34
ENDBRANCH  31  32
ENDBRANCH  30  31
ENDBRANCH   1  30
TORSDOF 18
ENDMDL
MODEL 7
REMARK minimizedAffinity -9.71144199
REMARK CNNscore 0.265583634
REMARK CNNaffinity 6.54519415
REMARK  18 active torsions:
REMARK  status: ('A' for Active; 'I' for Inactive)
REMARK    1  A    between atoms: C2_2  and  C4_4 
REMARK    2  A    between atoms: C4_4  and  N1_5 
REMARK    3  A    between atoms: C4_4  and  C30_38 
REMARK       I    between atoms: N1_5  and  C5_6 
REMARK    4  A    between atoms: C5_6  and  C6_8 
REMARK    5  A    between atoms: C6_8  and  C7_9 
REMARK    6  A    between atoms: C7_9  and  C8_10 
REMARK    7  A    between atoms: C8_10  and  O3_12 
REMARK    8  A    between atoms: O3_12  and  C9_13 
REMARK    9  A    between atoms: C9_13  and  C10_14 
REMARK   10  A    between atoms: C10_14  and  C11_16 
REMARK   11  A    between atoms: C11_16  and  O5_17 
REMARK   12  A    between atoms: C26_33  and  O7_34 
REMARK       I    between atoms: C30_38  and  N2_40 
REMARK   13  A    between atoms: N2_40  and  C31_41 
REMARK   14  A    between atoms: C31_41  and  C32_42 
REMARK   15  A    between atoms: C32_42  and  C33_43 
REMARK   16  A    between atoms: C32_42  and  C35_47 
REMARK   17  A    between atoms: C33_43  and  C34_44 
REMARK   18  A    between atoms: C34_44  and  O10_46 
ROOT
HETATM    1  C8  UNL     1      -1.981  10.313  16.477  1.00  0.00     0.259 C 
HETATM    2  O2  UNL     1      -1.955  10.733  15.327  1.00  0.00    -0.265 OA
ENDROOT
BRANCH   1   3
HETATM    3  C7  UNL     1      -2.318  11.156  17.672  1.00  0.00     0.120 C 
BRANCH   3   4
HETATM    4  C6  UNL     1      -1.554  10.632  18.879  1.00  0.00     0.112 C 
BRANCH   4   5
HETATM    5  C5  UNL     1      -0.142  11.164  18.923  1.00  0.00     0.218 C 
HETATM    6  N1  UNL     1       0.781  10.273  18.425  1.00  0.00    -0.347 N 
HETATM    7  H9  UNL     1       0.448   9.536  17.813  1.00  0.00     0.163 HD
HETATM    8  O1  UNL     1       0.159  12.285  19.325  1.00  0.00    -0.274 OA
BRANCH   6   9
HETATM    9  C4  UNL     1       2.213  10.597  18.356  1.00  0.00     0.179 C 
BRANCH   9  10
HETATM   10  C2  UNL     1       2.582  11.205  16.981  1.00  0.00     0.009 C 
HETATM   11  C1  UNL     1       3.067  10.120  16.007  1.00  0.00     0.012 C 
HETATM   12  C3  UNL     1       1.396  11.941  16.345  1.00  0.00     0.012 C 
ENDBRANCH   9  10
BRANCH   9  13
HETATM   13  C30 UNL     1       2.532  11.552  19.537  1.00  0.00     0.240 C 
HETATM   14  O8  UNL     1       2.967  12.692  19.389  1.00  0.00    -0.271 OA
HETATM   15  N2  UNL     1       2.283  10.996  20.778  1.00  0.00    -0.359 N 
HETATM   16  H43 UNL     1       1.896  10.056  20.804  1.00  0.00     0.162 HD
BRANCH  15  17
HETATM   17  C31 UNL     1       2.568  11.692  22.020  1.00  0.00     0.132 C 
BRANCH  17  18
HETATM   18  C32 UNL     1       3.651  11.015  22.885  1.00  0.00     0.046 C 
BRANCH  18  19
HETATM   19  C33 UNL     1       3.846   9.546  22.468  1.00  0.00     0.120 C 
BRANCH  19  20
HETATM   20  C34 UNL     1       2.700   8.671  22.899  1.00  0.00     0.140 C 
HETATM   21  O9  UNL     1       1.973   8.022  22.167  1.00  0.00    -0.650 OA
BRANCH  20  22
HETATM   22  O10 UNL     1       2.467   8.731  24.226  1.00  0.00    -0.776 OA
HETATM   23  H49 UNL     1       1.665   8.185  24.359  1.00  0.00     0.167 HD
ENDBRANCH  20  22
ENDBRANCH  19  20
ENDBRANCH  18  19
BRANCH  18  24
HETATM   24  C35 UNL     1       4.926  11.852  22.939  1.00  0.00    -0.052 A 
HETATM   25  C36 UNL     1       4.837  13.236  22.712  1.00  0.00     0.007 A 
HETATM   26  C37 UNL     1       5.978  14.041  22.716  1.00  0.00     0.001 A 
HETATM   27  C38 UNL     1       7.229  13.474  22.946  1.00  0.00     0.000 A 
HETATM   28  C39 UNL     1       7.337  12.104  23.166  1.00  0.00     0.001 A 
HETATM   29  C40 UNL     1       6.197  11.297  23.159  1.00  0.00     0.007 A 
ENDBRANCH  18  24
ENDBRANCH  17  18
ENDBRANCH  15  17
ENDBRANCH   9  13
ENDBRANCH   6   9
ENDBRANCH   4   5
ENDBRANCH   3   4
ENDBRANCH   1   3
BRANCH   1  30
HETATM   30  O3  UNL     1      -1.790   9.020  16.850  1.00  0.00    -0.314 OA
BRANCH  30  31
HETATM   31  C9  UNL     1      -0.964   8.224  15.984  1.00  0.00     0.260 C 
BRANCH  31  32
HETATM   32  C10 UNL     1      -1.855   7.422  15.044  1.00  0.00     0.185 C 
HETATM   33  O4  UNL     1      -2.783   6.724  15.482  1.00  0.00    -0.292 OA
BRANCH  32  34
HETATM   34  C11 UNL     1      -1.599   7.440  13.517  1.00  0.00     0.128 C 
HETATM   35  C12 UNL     1      -2.400   8.483  12.703  1.00  0.00     0.047 C 
HETATM   36  C13 UNL     1      -1.537   8.812  11.461  1.00  0.00     0.009 C 
HETATM   37  C14 UNL     1      -0.385   7.808  11.518  1.00  0.00     0.002 C 
HETATM   38  C15 UNL     1       0.885   8.070  10.693  1.00  0.00    -0.002 C 
HETATM   39  C28 UNL     1      -0.128   7.636  13.034  1.00  0.00     0.001 C 
HETATM   40  C16 UNL     1       0.523   8.299   9.209  1.00  0.00     0.010 C 
HETATM   41  C25 UNL     1       1.852   6.842  10.872  1.00  0.00     0.031 C 
HETATM   42  C17 UNL     1       1.741   8.329   8.285  1.00  0.00     0.035 C 
HETATM   43  C18 UNL     1       2.584   7.102   8.533  1.00  0.00    -0.068 C 
HETATM   44  C19 UNL     1       2.700   6.162   7.577  1.00  0.00     0.053 C 
HETATM   45  C23 UNL     1       3.129   6.947   9.959  1.00  0.00    -0.014 C 
HETATM   46  C20 UNL     1       3.253   4.823   7.881  1.00  0.00     0.149 C 
HETATM   47  O6  UNL     1       3.401   4.009   6.975  1.00  0.00    -0.293 OA
HETATM   48  C21 UNL     1       3.509   4.478   9.326  1.00  0.00     0.084 C 
HETATM   49  C22 UNL     1       4.056   5.697  10.046  1.00  0.00     0.022 C 
HETATM   50  C24 UNL     1       4.037   8.157  10.302  1.00  0.00     0.020 C 
HETATM   51  C26 UNL     1       2.099   6.499  12.371  1.00  0.00     0.124 C 
HETATM   52  C27 UNL     1       0.805   6.419  13.210  1.00  0.00     0.045 C 
HETATM   53  C29 UNL     1       0.489   8.900  13.682  1.00  0.00     0.019 C 
BRANCH  34  54
HETATM   54  O5  UNL     1      -2.070   6.154  13.044  1.00  0.00    -0.381 OA
HETATM   55  H16 UNL     1      -2.030   5.538  13.806  1.00  0.00     0.211 HD
ENDBRANCH  34  54
BRANCH  51  56
HETATM   56  O7  UNL     1       3.015   7.377  13.008  1.00  0.00    -0.395 OA
HETATM   57  H37 UNL     1       2.940   8.260  12.617  1.00  0.00     0.210 HD
ENDBRANCH  51  56
ENDBRANCH  32  34
ENDBRANCH  31  32
ENDBRANCH  30  31
ENDBRANCH   1  30
TORSDOF 18
ENDMDL
MODEL 8
REMARK minimizedAffinity -8.69387627
REMARK CNNscore 0.26181826
REMARK CNNaffinity 6.48881769
REMARK  18 active torsions:
REMARK  status: ('A' for Active; 'I' for Inactive)
REMARK    1  A    between atoms: C2_2  and  C4_4 
REMARK    2  A    between atoms: C4_4  and  N1_5 
REMARK    3  A    between atoms: C4_4  and  C30_38 
REMARK       I    between atoms: N1_5  and  C5_6 
REMARK    4  A    between atoms: C5_6  and  C6_8 
REMARK    5  A    between atoms: C6_8  and  C7_9 
REMARK    6  A    between atoms: C7_9  and  C8_10 
REMARK    7  A    between atoms: C8_10  and  O3_12 
REMARK    8  A    between atoms: O3_12  and  C9_13 
REMARK    9  A    between atoms: C9_13  and  C10_14 
REMARK   10  A    between atoms: C10_14  and  C11_16 
REMARK   11  A    between atoms: C11_16  and  O5_17 
REMARK   12  A    between atoms: C26_33  and  O7_34 
REMARK       I    between atoms: C30_38  and  N2_40 
REMARK   13  A    between atoms: N2_40  and  C31_41 
REMARK   14  A    between atoms: C31_41  and  C32_42 
REMARK   15  A    between atoms: C32_42  and  C33_43 
REMARK   16  A    between atoms: C32_42  and  C35_47 
REMARK   17  A    between atoms: C33_43  and  C34_44 
REMARK   18  A    between atoms: C34_44  and  O10_46 
ROOT
HETATM    1  C8  UNL     1     -16.741   5.840  15.189  1.00  0.00     0.259 C 
HETATM    2  O2  UNL     1     -17.464   5.773  14.203  1.00  0.00    -0.265 OA
ENDROOT
BRANCH   1   3
HETATM    3  C7  UNL     1     -15.981   7.070  15.593  1.00  0.00     0.120 C 
BRANCH   3   4
HETATM    4  C6  UNL     1     -14.508   6.718  15.730  1.00  0.00     0.112 C 
BRANCH   4   5
HETATM    5  C5  UNL     1     -13.636   7.612  14.880  1.00  0.00     0.218 C 
HETATM    6  N1  UNL     1     -12.303   7.531  15.213  1.00  0.00    -0.347 N 
HETATM    7  H9  UNL     1     -11.989   6.711  15.721  1.00  0.00     0.163 HD
HETATM    8  O1  UNL     1     -14.056   8.314  13.964  1.00  0.00    -0.274 OA
BRANCH   6   9
HETATM    9  C4  UNL     1     -11.277   8.303  14.499  1.00  0.00     0.179 C 
BRANCH   9  10
HETATM   10  C2  UNL     1     -10.276   8.949  15.487  1.00  0.00     0.009 C 
HETATM   11  C1  UNL     1      -9.802  10.319  14.978  1.00  0.00     0.012 C 
HETATM   12  C3  UNL     1     -10.886   9.128  16.883  1.00  0.00     0.012 C 
ENDBRANCH   9  10
BRANCH   9  13
HETATM   13  C30 UNL     1     -10.588   7.342  13.494  1.00  0.00     0.240 C 
HETATM   14  O8  UNL     1     -10.833   7.329  12.290  1.00  0.00    -0.271 OA
HETATM   15  N2  UNL     1      -9.669   6.493  14.085  1.00  0.00    -0.359 N 
HETATM   16  H43 UNL     1      -9.509   6.594  15.084  1.00  0.00     0.162 HD
BRANCH  15  17
HETATM   17  C31 UNL     1      -8.953   5.473  13.340  1.00  0.00     0.132 C 
BRANCH  17  18
HETATM   18  C32 UNL     1      -7.525   5.205  13.858  1.00  0.00     0.046 C 
BRANCH  18  19
HETATM   19  C33 UNL     1      -7.515   5.059  15.390  1.00  0.00     0.120 C 
BRANCH  19  20
HETATM   20  C34 UNL     1      -6.601   6.053  16.054  1.00  0.00     0.140 C 
HETATM   21  O9  UNL     1      -5.456   6.312  15.724  1.00  0.00    -0.650 OA
BRANCH  20  22
HETATM   22  O10 UNL     1      -7.143   6.606  17.157  1.00  0.00    -0.776 OA
HETATM   23  H49 UNL     1      -6.430   7.167  17.527  1.00  0.00     0.167 HD
ENDBRANCH  20  22
ENDBRANCH  19  20
ENDBRANCH  18  19
BRANCH  18  24
HETATM   24  C35 UNL     1      -6.857   4.067  13.090  1.00  0.00    -0.052 A 
HETATM   25  C36 UNL     1      -5.563   4.264  12.578  1.00  0.00     0.007 A 
HETATM   26  C37 UNL     1      -4.923   3.267  11.838  1.00  0.00     0.001 A 
HETATM   27  C38 UNL     1      -5.568   2.057  11.597  1.00  0.00     0.000 A 
HETATM   28  C39 UNL     1      -6.852   1.847  12.091  1.00  0.00     0.001 A 
HETATM   29  C40 UNL     1      -7.495   2.844  12.828  1.00  0.00     0.007 A 
ENDBRANCH  18  24
ENDBRANCH  17  18
ENDBRANCH  15  17
ENDBRANCH   9  13
ENDBRANCH   6   9
ENDBRANCH   4   5
ENDBRANCH   3   4
ENDBRANCH   1   3
BRANCH   1  30
HETATM   30  O3  UNL     1     -16.570   4.856  16.111  1.00  0.00    -0.314 OA
BRANCH  30  31
HETATM   31  C9  UNL     1     -16.955   3.532  15.707  1.00  0.00     0.260 C 
BRANCH  31  32
HETATM   32  C10 UNL     1     -15.713   2.759  15.283  1.00  0.00     0.185 C 
HETATM   33  O4  UNL     1     -14.748   3.337  14.756  1.00  0.00    -0.292 OA
BRANCH  32  34
HETATM   34  C11 UNL     1     -15.642   1.224  15.474  1.00  0.00     0.128 C 
HETATM   35  C12 UNL     1     -16.290   0.667  16.762  1.00  0.00     0.047 C 
HETATM   36  C13 UNL     1     -16.733  -0.779  16.430  1.00  0.00     0.009 C 
HETATM   37  C14 UNL     1     -16.148  -1.048  15.043  1.00  0.00     0.002 C 
HETATM   38  C15 UNL     1     -16.698  -2.213  14.205  1.00  0.00    -0.002 C 
HETATM   39  C28 UNL     1     -16.230   0.328  14.340  1.00  0.00     0.001 C 
HETATM   40  C16 UNL     1     -16.641  -3.529  15.013  1.00  0.00     0.010 C 
HETATM   41  C25 UNL     1     -15.858  -2.309  12.879  1.00  0.00     0.031 C 
HETATM   42  C17 UNL     1     -16.946  -4.770  14.174  1.00  0.00     0.035 C 
HETATM   43  C18 UNL     1     -16.075  -4.763  12.942  1.00  0.00    -0.068 C 
HETATM   44  C19 UNL     1     -15.118  -5.699  12.789  1.00  0.00     0.053 C 
HETATM   45  C23 UNL     1     -16.252  -3.559  12.008  1.00  0.00    -0.014 C 
HETATM   46  C20 UNL     1     -14.058  -5.551  11.766  1.00  0.00     0.149 C 
HETATM   47  O6  UNL     1     -13.236  -6.450  11.613  1.00  0.00    -0.293 OA
HETATM   48  C21 UNL     1     -13.969  -4.240  11.028  1.00  0.00     0.084 C 
HETATM   49  C22 UNL     1     -15.368  -3.730  10.736  1.00  0.00     0.022 C 
HETATM   50  C24 UNL     1     -17.714  -3.514  11.490  1.00  0.00     0.020 C 
HETATM   51  C26 UNL     1     -15.773  -0.945  12.134  1.00  0.00     0.124 C 
HETATM   52  C27 UNL     1     -15.388   0.238  13.049  1.00  0.00     0.045 C 
HETATM   53  C29 UNL     1     -17.685   0.748  14.019  1.00  0.00     0.019 C 
BRANCH  34  54
HETATM   54  O5  UNL     1     -14.230   0.928  15.607  1.00  0.00    -0.381 OA
HETATM   55  H16 UNL     1     -13.743   1.653  15.161  1.00  0.00     0.211 HD
ENDBRANCH  34  54
BRANCH  51  56
HETATM   56  O7  UNL     1     -16.956  -0.617  11.420  1.00  0.00    -0.395 OA
HETATM   57  H37 UNL     1     -17.724  -0.981  11.883  1.00  0.00     0.210 HD
ENDBRANCH  51  56
ENDBRANCH  32  34
ENDBRANCH  31  32
ENDBRANCH  30  31
ENDBRANCH   1  30
TORSDOF 18
ENDMDL
MODEL 9
REMARK minimizedAffinity -8.99841881
REMARK CNNscore 0.258507341
REMARK CNNaffinity 6.36595345
REMARK  18 active torsions:
REMARK  status: ('A' for Active; 'I' for Inactive)
REMARK    1  A    between atoms: C2_2  and  C4_4 
REMARK    2  A    between atoms: C4_4  and  N1_5 
REMARK    3  A    between atoms: C4_4  and  C30_38 
REMARK       I    between atoms: N1_5  and  C5_6 
REMARK    4  A    between atoms: C5_6  and  C6_8 
REMARK    5  A    between atoms: C6_8  and  C7_9 
REMARK    6  A    between atoms: C7_9  and  C8_10 
REMARK    7  A    between atoms: C8_10  and  O3_12 
REMARK    8  A    between atoms: O3_12  and  C9_13 
REMARK    9  A    between atoms: C9_13  and  C10_14 
REMARK   10  A    between atoms: C10_14  and  C11_16 
REMARK   11  A    between atoms: C11_16  and  O5_17 
REMARK   12  A    between atoms: C26_33  and  O7_34 
REMARK       I    between atoms: C30_38  and  N2_40 
REMARK   13  A    between atoms: N2_40  and  C31_41 
REMARK   14  A    between atoms: C31_41  and  C32_42 
REMARK   15  A    between atoms: C32_42  and  C33_43 
REMARK   16  A    between atoms: C32_42  and  C35_47 
REMARK   17  A    between atoms: C33_43  and  C34_44 
REMARK   18  A    between atoms: C34_44  and  O10_46 
ROOT
HETATM    1  C8  UNL     1      -2.325  10.297  17.236  1.00  0.00     0.259 C 
HETATM    2  O2  UNL     1      -3.349  10.857  16.869  1.00  0.00    -0.265 OA
ENDROOT
BRANCH   1   3
HETATM    3  C7  UNL     1      -1.086  11.016  17.683  1.00  0.00     0.120 C 
BRANCH   3   4
HETATM    4  C6  UNL     1      -0.846  10.720  19.155  1.00  0.00     0.112 C 
BRANCH   4   5
HETATM    5  C5  UNL     1       0.550  11.107  19.585  1.00  0.00     0.218 C 
HETATM    6  N1  UNL     1       1.528  10.393  18.931  1.00  0.00    -0.347 N 
HETATM    7  H9  UNL     1       1.284   9.946  18.054  1.00  0.00     0.163 HD
HETATM    8  O1  UNL     1       0.798  11.988  20.403  1.00  0.00    -0.274 OA
BRANCH   6   9
HETATM    9  C4  UNL     1       2.956  10.625  19.183  1.00  0.00     0.179 C 
BRANCH   9  10
HETATM   10  C2  UNL     1       3.381  12.041  18.726  1.00  0.00     0.009 C 
HETATM   11  C1  UNL     1       2.692  12.429  17.409  1.00  0.00     0.012 C 
HETATM   12  C3  UNL     1       3.055  13.104  19.782  1.00  0.00     0.012 C 
ENDBRANCH   9  10
BRANCH   9  13
HETATM   13  C30 UNL     1       3.207  10.385  20.696  1.00  0.00     0.240 C 
HETATM   14  O8  UNL     1       2.419   9.793  21.430  1.00  0.00    -0.271 OA
HETATM   15  N2  UNL     1       4.406  10.909  21.145  1.00  0.00    -0.359 N 
HETATM   16  H43 UNL     1       5.010  11.357  20.461  1.00  0.00     0.162 HD
BRANCH  15  17
HETATM   17  C31 UNL     1       4.814  10.852  22.538  1.00  0.00     0.132 C 
BRANCH  17  18
HETATM   18  C32 UNL     1       5.611  12.085  23.009  1.00  0.00     0.046 C 
BRANCH  18  19
HETATM   19  C33 UNL     1       6.927  12.220  22.222  1.00  0.00     0.120 C 
BRANCH  19  20
HETATM   20  C34 UNL     1       8.126  12.321  23.126  1.00  0.00     0.140 C 
HETATM   21  O9  UNL     1       8.636  13.349  23.537  1.00  0.00    -0.650 OA
BRANCH  20  22
HETATM   22  O10 UNL     1       8.682  11.122  23.392  1.00  0.00    -0.776 OA
HETATM   23  H49 UNL     1       9.481  11.332  23.918  1.00  0.00     0.167 HD
ENDBRANCH  20  22
ENDBRANCH  19  20
ENDBRANCH  18  19
BRANCH  18  24
HETATM   24  C35 UNL     1       4.738  13.337  23.038  1.00  0.00    -0.052 A 
HETATM   25  C36 UNL     1       5.329  14.581  22.760  1.00  0.00     0.007 A 
HETATM   26  C37 UNL     1       4.581  15.759  22.809  1.00  0.00     0.001 A 
HETATM   27  C38 UNL     1       3.229  15.713  23.140  1.00  0.00     0.000 A 
HETATM   28  C39 UNL     1       2.629  14.490  23.425  1.00  0.00     0.001 A 
HETATM   29  C40 UNL     1       3.376  13.311  23.380  1.00  0.00     0.007 A 
ENDBRANCH  18  24
ENDBRANCH  17  18
ENDBRANCH  15  17
ENDBRANCH   9  13
ENDBRANCH   6   9
ENDBRANCH   4   5
ENDBRANCH   3   4
ENDBRANCH   1   3
BRANCH   1  30
HETATM   30  O3  UNL     1      -2.166   8.954  17.373  1.00  0.00    -0.314 OA
BRANCH  30  31
HETATM   31  C9  UNL     1      -2.437   8.159  16.206  1.00  0.00     0.260 C 
BRANCH  31  32
HETATM   32  C10 UNL     1      -1.122   7.819  15.517  1.00  0.00     0.185 C 
HETATM   33  O4  UNL     1      -0.082   7.646  16.173  1.00  0.00    -0.292 OA
BRANCH  32  34
HETATM   34  C11 UNL     1      -1.050   7.714  13.974  1.00  0.00     0.128 C 
HETATM   35  C12 UNL     1      -2.013   8.630  13.183  1.00  0.00     0.047 C 
HETATM   36  C13 UNL     1      -1.329   8.897  11.820  1.00  0.00     0.009 C 
HETATM   37  C14 UNL     1      -0.111   7.972  11.816  1.00  0.00     0.002 C 
HETATM   38  C15 UNL     1       1.031   8.232  10.821  1.00  0.00    -0.002 C 
HETATM   39  C28 UNL     1       0.335   7.952  13.298  1.00  0.00     0.001 C 
HETATM   40  C16 UNL     1       0.480   8.305   9.380  1.00  0.00     0.010 C 
HETATM   41  C25 UNL     1       2.095   7.084  10.979  1.00  0.00     0.031 C 
HETATM   42  C17 UNL     1       1.575   8.323   8.312  1.00  0.00     0.035 C 
HETATM   43  C18 UNL     1       2.524   7.175   8.554  1.00  0.00    -0.068 C 
HETATM   44  C19 UNL     1       2.591   6.161   7.671  1.00  0.00     0.053 C 
HETATM   45  C23 UNL     1       3.245   7.181   9.908  1.00  0.00    -0.014 C 
HETATM   46  C20 UNL     1       3.268   4.890   8.013  1.00  0.00     0.149 C 
HETATM   47  O6  UNL     1       3.363   4.008   7.165  1.00  0.00    -0.293 OA
HETATM   48  C21 UNL     1       3.716   4.692   9.439  1.00  0.00     0.084 C 
HETATM   49  C22 UNL     1       4.259   6.001   9.982  1.00  0.00     0.022 C 
HETATM   50  C24 UNL     1       4.101   8.468  10.036  1.00  0.00     0.020 C 
HETATM   51  C26 UNL     1       2.541   6.893  12.458  1.00  0.00     0.124 C 
HETATM   52  C27 UNL     1       1.365   6.812  13.455  1.00  0.00     0.045 C 
HETATM   53  C29 UNL     1       0.936   9.303  13.757  1.00  0.00     0.019 C 
BRANCH  34  54
HETATM   54  O5  UNL     1      -1.484   6.365  13.670  1.00  0.00    -0.381 OA
HETATM   55  H16 UNL     1      -1.312   5.824  14.469  1.00  0.00     0.211 HD
ENDBRANCH  34  54
BRANCH  51  56
HETATM   56  O7  UNL     1       3.463   7.877  12.903  1.00  0.00    -0.395 OA
HETATM   57  H37 UNL     1       3.282   8.715  12.453  1.00  0.00     0.210 HD
ENDBRANCH  51  56
ENDBRANCH  32  34
ENDBRANCH  31  32
ENDBRANCH  30  31
ENDBRANCH   1  30
TORSDOF 18
ENDMDL
