MODEL 1
REMARK minimizedAffinity -10.2026491
REMARK  5 active torsions:
REMARK  status: ('A' for Active; 'I' for Inactive)
REMARK    1  A    between atoms: N1_2  and  C2_3 
REMARK    2  A    between atoms: C4_5  and  N4_34 
REMARK    3  A    between atoms: C5_7  and  N2_12 
REMARK    4  A    between atoms: C7_9  and  O2_10 
REMARK    5  A    between atoms: C27_35  and  C28_36 
ROOT
HETATM    1  C2  UNL     1      11.396  -7.751  28.073  1.00  0.00     0.257 C 
HETATM    2  C3  UNL     1      10.251  -8.120  29.025  1.00  0.00     0.092 C 
HETATM    3  C4  UNL     1       9.229  -9.052  28.362  1.00  0.00     0.234 C 
HETATM    4  O1  UNL     1       9.598  -9.513  27.065  1.00  0.00    -0.333 OA
HETATM    5  C5  UNL     1      10.032  -8.526  26.097  1.00  0.00     0.168 C 
HETATM    6  C6  UNL     1      11.039  -9.377  25.288  1.00  0.00     0.074 C 
HETATM    7  C7  UNL     1      10.765  -7.298  26.733  1.00  0.00     0.209 C 
ENDROOT
BRANCH   1   8
HETATM    8  N1  UNL     1      12.273  -6.706  28.647  1.00  0.00     0.086 N 
HETATM    9  C1  UNL     1      12.880  -7.093  29.914  1.00  0.00     0.307 C 
HETATM   10  H4  UNL     1      13.013  -6.473  27.986  1.00  0.00     0.316 HD
ENDBRANCH   1   8
BRANCH   7  11
HETATM   11  O2  UNL     1       9.830  -6.239  27.024  1.00  0.00    -0.384 OA
HETATM   12  C8  UNL     1      10.315  -4.947  26.686  1.00  0.00     0.202 C 
ENDBRANCH   7  11
BRANCH   3  13
HETATM   13  N4  UNL     1       7.843  -8.597  28.369  1.00  0.00    -0.316 N 
HETATM   14  C26 UNL     1       6.821  -9.172  27.629  1.00  0.00     0.048 A 
HETATM   15  C21 UNL     1       5.688  -8.354  27.773  1.00  0.00     0.004 A 
HETATM   16  C25 UNL     1       6.803 -10.334  26.837  1.00  0.00     0.030 A 
HETATM   17  C20 UNL     1       6.047  -7.270  28.632  1.00  0.00     0.022 A 
HETATM   18  C22 UNL     1       4.507  -8.727  27.096  1.00  0.00     0.014 A 
HETATM   19  C19 UNL     1       5.466  -6.125  29.189  1.00  0.00     0.062 A 
HETATM   20  C27 UNL     1       7.370  -7.478  28.985  1.00  0.00     0.077 A 
HETATM   21  C16 UNL     1       6.137  -5.242  30.071  1.00  0.00     0.062 A 
HETATM   22  C18 UNL     1       4.108  -5.609  29.021  1.00  0.00     0.260 A 
HETATM   23  C15 UNL     1       7.461  -5.413  30.501  1.00  0.00     0.022 A 
HETATM   24  C17 UNL     1       5.177  -4.199  30.436  1.00  0.00     0.260 A 
HETATM   25  C14 UNL     1       8.386  -4.810  31.402  1.00  0.00     0.004 A 
HETATM   26  C28 UNL     1       8.112  -6.506  29.961  1.00  0.00     0.078 A 
HETATM   27  C9  UNL     1       9.556  -5.597  31.406  1.00  0.00     0.049 A 
HETATM   28  C13 UNL     1       8.316  -3.695  32.267  1.00  0.00     0.014 A 
HETATM   29  N2  UNL     1       9.395  -6.584  30.437  1.00  0.00    -0.308 N 
HETATM   30  C10 UNL     1      10.604  -5.312  32.304  1.00  0.00     0.030 A 
HETATM   31  C11 UNL     1      10.499  -4.204  33.150  1.00  0.00     0.002 A 
HETATM   32  C12 UNL     1       9.375  -3.396  33.125  1.00  0.00     0.001 A 
HETATM   33  O3  UNL     1       5.360  -3.250  31.170  1.00  0.00    -0.267 OA
HETATM   34  N3  UNL     1       4.020  -4.489  29.784  1.00  0.00    -0.289 N 
HETATM   35  H20 UNL     1       3.189  -3.926  29.852  1.00  0.00     0.172 HD
HETATM   36  O4  UNL     1       3.219  -6.075  28.336  1.00  0.00    -0.267 OA
HETATM   37  C23 UNL     1       4.483  -9.884  26.309  1.00  0.00     0.001 A 
HETATM   38  C24 UNL     1       5.617 -10.675  26.183  1.00  0.00     0.002 A 
ENDBRANCH   3  13
TORSDOF 5
ENDMDL
MODEL 2
REMARK minimizedAffinity -10.2022028
REMARK  5 active torsions:
REMARK  status: ('A' for Active; 'I' for Inactive)
REMARK    1  A    between atoms: N1_2  and  C2_3 
REMARK    2  A    between atoms: C4_5  and  N4_34 
REMARK    3  A    between atoms: C5_7  and  N2_12 
REMARK    4  A    between atoms: C7_9  and  O2_10 
REMARK    5  A    between atoms: C27_35  and  C28_36 
ROOT
HETATM    1  C2  UNL     1      11.662  -7.781  27.504  1.00  0.00     0.257 C 
HETATM    2  C3  UNL     1      10.837  -7.479  28.762  1.00  0.00     0.092 C 
HETATM    3  C4  UNL     1       9.699  -8.489  28.961  1.00  0.00     0.234 C 
HETATM    4  O1  UNL     1       9.708  -9.582  28.047  1.00  0.00    -0.333 OA
HETATM    5  C5  UNL     1       9.827  -9.279  26.635  1.00  0.00     0.168 C 
HETATM    6  C6  UNL     1      10.595 -10.536  26.162  1.00  0.00     0.074 C 
HETATM    7  C7  UNL     1      10.671  -7.996  26.333  1.00  0.00     0.209 C 
ENDROOT
BRANCH   1   8
HETATM    8  N1  UNL     1      12.631  -6.703  27.210  1.00  0.00     0.086 N 
HETATM    9  C1  UNL     1      13.608  -7.066  26.192  1.00  0.00     0.307 C 
HETATM   10  H4  UNL     1      12.137  -5.865  26.907  1.00  0.00     0.316 HD
ENDBRANCH   1   8
BRANCH   7  11
HETATM   11  O2  UNL     1       9.821  -6.832  26.258  1.00  0.00    -0.384 OA
HETATM   12  C8  UNL     1       8.606  -7.064  25.560  1.00  0.00     0.202 C 
ENDBRANCH   7  11
BRANCH   3  13
HETATM   13  N4  UNL     1       8.356  -7.930  29.080  1.00  0.00    -0.316 N 
HETATM   14  C26 UNL     1       7.228  -8.456  28.470  1.00  0.00     0.048 A 
HETATM   15  C21 UNL     1       6.176  -7.550  28.683  1.00  0.00     0.004 A 
HETATM   16  C25 UNL     1       7.049  -9.645  27.740  1.00  0.00     0.030 A 
HETATM   17  C20 UNL     1       6.694  -6.463  29.452  1.00  0.00     0.022 A 
HETATM   18  C22 UNL     1       4.910  -7.861  28.142  1.00  0.00     0.014 A 
HETATM   19  C19 UNL     1       6.254  -5.256  30.007  1.00  0.00     0.062 A 
HETATM   20  C27 UNL     1       8.028  -6.755  29.685  1.00  0.00     0.077 A 
HETATM   21  C16 UNL     1       7.070  -4.391  30.777  1.00  0.00     0.062 A 
HETATM   22  C18 UNL     1       4.926  -4.646  29.945  1.00  0.00     0.260 A 
HETATM   23  C15 UNL     1       8.415  -4.643  31.085  1.00  0.00     0.022 A 
HETATM   24  C17 UNL     1       6.228  -3.265  31.183  1.00  0.00     0.260 A 
HETATM   25  C14 UNL     1       9.465  -4.076  31.863  1.00  0.00     0.004 A 
HETATM   26  C28 UNL     1       8.930  -5.803  30.537  1.00  0.00     0.078 A 
HETATM   27  C9  UNL     1      10.572  -4.948  31.792  1.00  0.00     0.049 A 
HETATM   28  C13 UNL     1       9.561  -2.925  32.677  1.00  0.00     0.014 A 
HETATM   29  N2  UNL     1      10.245  -5.958  30.891  1.00  0.00    -0.308 N 
HETATM   30  C10 UNL     1      11.721  -4.706  32.570  1.00  0.00     0.030 A 
HETATM   31  C11 UNL     1      11.780  -3.560  33.369  1.00  0.00     0.002 A 
HETATM   32  C12 UNL     1      10.719  -2.672  33.414  1.00  0.00     0.001 A 
HETATM   33  O3  UNL     1       6.550  -2.303  31.850  1.00  0.00    -0.267 OA
HETATM   34  N3  UNL     1       4.995  -3.493  30.660  1.00  0.00    -0.289 N 
HETATM   35  H20 UNL     1       4.215  -2.867  30.780  1.00  0.00     0.172 HD
HETATM   36  O4  UNL     1       3.943  -5.071  29.372  1.00  0.00    -0.267 OA
HETATM   37  C23 UNL     1       4.725  -9.043  27.416  1.00  0.00     0.001 A 
HETATM   38  C24 UNL     1       5.783  -9.922  27.220  1.00  0.00     0.002 A 
ENDBRANCH   3  13
TORSDOF 5
ENDMDL
MODEL 3
REMARK minimizedAffinity -10.1889839
REMARK  5 active torsions:
REMARK  status: ('A' for Active; 'I' for Inactive)
REMARK    1  A    between atoms: N1_2  and  C2_3 
REMARK    2  A    between atoms: C4_5  and  N4_34 
REMARK    3  A    between atoms: C5_7  and  N2_12 
REMARK    4  A    between atoms: C7_9  and  O2_10 
REMARK    5  A    between atoms: C27_35  and  C28_36 
ROOT
HETATM    1  C2  UNL     1      11.788  -9.311  27.934  1.00  0.00     0.257 C 
HETATM    2  C3  UNL     1      11.254  -8.883  29.308  1.00  0.00     0.092 C 
HETATM    3  C4  UNL     1       9.798  -8.407  29.236  1.00  0.00     0.234 C 
HETATM    4  O1  UNL     1       9.175  -8.584  27.966  1.00  0.00    -0.333 OA
HETATM    5  C5  UNL     1       9.885  -8.108  26.796  1.00  0.00     0.168 C 
HETATM    6  C6  UNL     1       9.392  -9.139  25.753  1.00  0.00     0.074 C 
HETATM    7  C7  UNL     1      11.442  -8.186  26.926  1.00  0.00     0.209 C 
ENDROOT
BRANCH   1   8
HETATM    8  N1  UNL     1      13.242  -9.585  27.970  1.00  0.00     0.086 N 
HETATM    9  C1  UNL     1      13.665 -10.297  29.170  1.00  0.00     0.307 C 
HETATM   10  H4  UNL     1      13.513 -10.130  27.153  1.00  0.00     0.316 HD
ENDBRANCH   1   8
BRANCH   7  11
HETATM   11  O2  UNL     1      11.975  -6.951  27.446  1.00  0.00    -0.384 OA
HETATM   12  C8  UNL     1      11.422  -5.795  26.834  1.00  0.00     0.202 C 
ENDBRANCH   7  11
BRANCH   3  13
HETATM   13  N4  UNL     1       9.532  -7.069  29.755  1.00  0.00    -0.316 N 
HETATM   14  C26 UNL     1      10.478  -6.258  30.363  1.00  0.00     0.048 A 
HETATM   15  C21 UNL     1       9.803  -5.137  30.873  1.00  0.00     0.004 A 
HETATM   16  C25 UNL     1      11.866  -6.425  30.518  1.00  0.00     0.030 A 
HETATM   17  C20 UNL     1       8.420  -5.283  30.546  1.00  0.00     0.022 A 
HETATM   18  C22 UNL     1      10.557  -4.158  31.555  1.00  0.00     0.014 A 
HETATM   19  C19 UNL     1       7.213  -4.596  30.723  1.00  0.00     0.062 A 
HETATM   20  C27 UNL     1       8.311  -6.472  29.844  1.00  0.00     0.077 A 
HETATM   21  C16 UNL     1       5.966  -5.036  30.213  1.00  0.00     0.062 A 
HETATM   22  C18 UNL     1       6.968  -3.331  31.415  1.00  0.00     0.260 A 
HETATM   23  C15 UNL     1       5.790  -6.207  29.462  1.00  0.00     0.022 A 
HETATM   24  C17 UNL     1       4.975  -4.029  30.595  1.00  0.00     0.260 A 
HETATM   25  C14 UNL     1       4.758  -6.884  28.750  1.00  0.00     0.004 A 
HETATM   26  C28 UNL     1       6.936  -6.958  29.279  1.00  0.00     0.078 A 
HETATM   27  C9  UNL     1       5.336  -8.006  28.120  1.00  0.00     0.049 A 
HETATM   28  C13 UNL     1       3.389  -6.615  28.532  1.00  0.00     0.014 A 
HETATM   29  N2  UNL     1       6.661  -8.079  28.539  1.00  0.00    -0.308 N 
HETATM   30  C10 UNL     1       4.576  -8.798  27.237  1.00  0.00     0.030 A 
HETATM   31  C11 UNL     1       3.224  -8.499  27.039  1.00  0.00     0.002 A 
HETATM   32  C12 UNL     1       2.632  -7.428  27.687  1.00  0.00     0.001 A 
HETATM   33  O3  UNL     1       3.785  -4.035  30.355  1.00  0.00    -0.267 OA
HETATM   34  N3  UNL     1       5.641  -3.070  31.289  1.00  0.00    -0.289 N 
HETATM   35  H20 UNL     1       5.196  -2.255  31.679  1.00  0.00     0.172 HD
HETATM   36  O4  UNL     1       7.779  -2.637  31.995  1.00  0.00    -0.267 OA
HETATM   37  C23 UNL     1      11.939  -4.317  31.710  1.00  0.00     0.001 A 
HETATM   38  C24 UNL     1      12.582  -5.436  31.197  1.00  0.00     0.002 A 
ENDBRANCH   3  13
TORSDOF 5
ENDMDL
MODEL 4
REMARK minimizedAffinity -9.94084167
REMARK  5 active torsions:
REMARK  status: ('A' for Active; 'I' for Inactive)
REMARK    1  A    between atoms: N1_2  and  C2_3 
REMARK    2  A    between atoms: C4_5  and  N4_34 
REMARK    3  A    between atoms: C5_7  and  N2_12 
REMARK    4  A    between atoms: C7_9  and  O2_10 
REMARK    5  A    between atoms: C27_35  and  C28_36 
ROOT
HETATM    1  C2  UNL     1      12.181  -7.770  28.611  1.00  0.00     0.257 C 
HETATM    2  C3  UNL     1      11.173  -7.686  29.765  1.00  0.00     0.092 C 
HETATM    3  C4  UNL     1       9.733  -7.917  29.289  1.00  0.00     0.234 C 
HETATM    4  O1  UNL     1       9.612  -8.304  27.923  1.00  0.00    -0.333 OA
HETATM    5  C5  UNL     1      10.313  -7.512  26.933  1.00  0.00     0.168 C 
HETATM    6  C6  UNL     1      10.625  -8.611  25.890  1.00  0.00     0.074 C 
HETATM    7  C7  UNL     1      11.648  -6.884  27.457  1.00  0.00     0.209 C 
ENDROOT
BRANCH   1   8
HETATM    8  N1  UNL     1      13.538  -7.360  29.035  1.00  0.00     0.086 N 
HETATM    9  C1  UNL     1      14.109  -8.226  30.058  1.00  0.00     0.307 C 
HETATM   10  H4  UNL     1      14.163  -7.345  28.230  1.00  0.00     0.316 HD
ENDBRANCH   1   8
BRANCH   7  11
HETATM   11  O2  UNL     1      11.417  -5.563  27.989  1.00  0.00    -0.384 OA
HETATM   12  C8  UNL     1      10.623  -4.744  27.143  1.00  0.00     0.202 C 
ENDBRANCH   7  11
BRANCH   3  13
HETATM   13  N4  UNL     1       8.773  -6.866  29.611  1.00  0.00    -0.316 N 
HETATM   14  C26 UNL     1       9.051  -5.759  30.398  1.00  0.00     0.048 A 
HETATM   15  C21 UNL     1       7.840  -5.081  30.612  1.00  0.00     0.004 A 
HETATM   16  C25 UNL     1      10.264  -5.306  30.949  1.00  0.00     0.030 A 
HETATM   17  C20 UNL     1       6.817  -5.801  29.921  1.00  0.00     0.022 A 
HETATM   18  C22 UNL     1       7.861  -3.912  31.403  1.00  0.00     0.014 A 
HETATM   19  C19 UNL     1       5.437  -5.727  29.700  1.00  0.00     0.062 A 
HETATM   20  C27 UNL     1       7.445  -6.873  29.309  1.00  0.00     0.077 A 
HETATM   21  C16 UNL     1       4.712  -6.640  28.895  1.00  0.00     0.062 A 
HETATM   22  C18 UNL     1       4.478  -4.742  30.198  1.00  0.00     0.260 A 
HETATM   23  C15 UNL     1       5.288  -7.722  28.215  1.00  0.00     0.022 A 
HETATM   24  C17 UNL     1       3.317  -6.197  28.907  1.00  0.00     0.260 A 
HETATM   25  C14 UNL     1       4.907  -8.741  27.295  1.00  0.00     0.004 A 
HETATM   26  C28 UNL     1       6.646  -7.880  28.418  1.00  0.00     0.078 A 
HETATM   27  C9  UNL     1       6.070  -9.455  26.938  1.00  0.00     0.049 A 
HETATM   28  C13 UNL     1       3.683  -9.089  26.680  1.00  0.00     0.014 A 
HETATM   29  N2  UNL     1       7.113  -8.962  27.717  1.00  0.00    -0.308 N 
HETATM   30  C10 UNL     1       6.019 -10.447  25.939  1.00  0.00     0.030 A 
HETATM   31  C11 UNL     1       4.792 -10.763  25.347  1.00  0.00     0.002 A 
HETATM   32  C12 UNL     1       3.634 -10.102  25.720  1.00  0.00     0.001 A 
HETATM   33  O3  UNL     1       2.373  -6.711  28.343  1.00  0.00    -0.267 OA
HETATM   34  N3  UNL     1       3.268  -5.085  29.686  1.00  0.00    -0.289 N 
HETATM   35  H20 UNL     1       2.420  -4.574  29.872  1.00  0.00     0.172 HD
HETATM   36  O4  UNL     1       4.700  -3.798  30.929  1.00  0.00    -0.267 OA
HETATM   37  C23 UNL     1       9.065  -3.456  31.952  1.00  0.00     0.001 A 
HETATM   38  C24 UNL     1      10.249  -4.145  31.725  1.00  0.00     0.002 A 
ENDBRANCH   3  13
TORSDOF 5
ENDMDL
MODEL 5
REMARK minimizedAffinity -9.93245029
REMARK  5 active torsions:
REMARK  status: ('A' for Active; 'I' for Inactive)
REMARK    1  A    between atoms: N1_2  and  C2_3 
REMARK    2  A    between atoms: C4_5  and  N4_34 
REMARK    3  A    between atoms: C5_7  and  N2_12 
REMARK    4  A    between atoms: C7_9  and  O2_10 
REMARK    5  A    between atoms: C27_35  and  C28_36 
ROOT
HETATM    1  C2  UNL     1      10.506 -10.798  27.162  1.00  0.00     0.257 C 
HETATM    2  C3  UNL     1      10.134 -10.306  28.568  1.00  0.00     0.092 C 
HETATM    3  C4  UNL     1       8.849  -9.468  28.563  1.00  0.00     0.234 C 
HETATM    4  O1  UNL     1       8.170  -9.427  27.310  1.00  0.00    -0.333 OA
HETATM    5  C5  UNL     1       8.949  -9.100  26.133  1.00  0.00     0.168 C 
HETATM    6  C6  UNL     1       8.181  -9.925  25.074  1.00  0.00     0.074 C 
HETATM    7  C7  UNL     1      10.437  -9.581  26.206  1.00  0.00     0.209 C 
ENDROOT
BRANCH   1   8
HETATM    8  N1  UNL     1      11.840 -11.438  27.139  1.00  0.00     0.086 N 
HETATM    9  C1  UNL     1      12.202 -12.064  28.404  1.00  0.00     0.307 C 
HETATM   10  H4  UNL     1      11.874 -12.142  26.402  1.00  0.00     0.316 HD
ENDBRANCH   1   8
BRANCH   7  11
HETATM   11  O2  UNL     1      11.283  -8.547  26.749  1.00  0.00    -0.384 OA
HETATM   12  C8  UNL     1      11.081  -7.277  26.145  1.00  0.00     0.202 C 
ENDBRANCH   7  11
BRANCH   3  13
HETATM   13  N4  UNL     1       8.950  -8.130  29.137  1.00  0.00    -0.316 N 
HETATM   14  C26 UNL     1      10.115  -7.579  29.648  1.00  0.00     0.048 A 
HETATM   15  C21 UNL     1       9.770  -6.360  30.254  1.00  0.00     0.004 A 
HETATM   16  C25 UNL     1      11.438  -8.056  29.637  1.00  0.00     0.030 A 
HETATM   17  C20 UNL     1       8.363  -6.179  30.087  1.00  0.00     0.022 A 
HETATM   18  C22 UNL     1      10.796  -5.606  30.864  1.00  0.00     0.014 A 
HETATM   19  C19 UNL     1       7.369  -5.251  30.416  1.00  0.00     0.062 A 
HETATM   20  C27 UNL     1       7.913  -7.281  29.379  1.00  0.00     0.077 A 
HETATM   21  C16 UNL     1       6.007  -5.379  30.046  1.00  0.00     0.062 A 
HETATM   22  C18 UNL     1       7.493  -3.996  31.157  1.00  0.00     0.260 A 
HETATM   23  C15 UNL     1       5.491  -6.446  29.296  1.00  0.00     0.022 A 
HETATM   24  C17 UNL     1       5.316  -4.195  30.560  1.00  0.00     0.260 A 
HETATM   25  C14 UNL     1       4.262  -6.843  28.695  1.00  0.00     0.004 A 
HETATM   26  C28 UNL     1       6.411  -7.424  28.967  1.00  0.00     0.078 A 
HETATM   27  C9  UNL     1       4.499  -8.035  27.979  1.00  0.00     0.049 A 
HETATM   28  C13 UNL     1       2.973  -6.266  28.642  1.00  0.00     0.014 A 
HETATM   29  N2  UNL     1       5.811  -8.421  28.241  1.00  0.00    -0.308 N 
HETATM   30  C10 UNL     1       3.489  -8.597  27.175  1.00  0.00     0.030 A 
HETATM   31  C11 UNL     1       2.226  -7.997  27.141  1.00  0.00     0.002 A 
HETATM   32  C12 UNL     1       1.965  -6.852  27.874  1.00  0.00     0.001 A 
HETATM   33  O3  UNL     1       4.137  -3.925  30.459  1.00  0.00    -0.267 OA
HETATM   34  N3  UNL     1       6.254  -3.441  31.191  1.00  0.00    -0.289 N 
HETATM   35  H20 UNL     1       6.049  -2.566  31.646  1.00  0.00     0.172 HD
HETATM   36  O4  UNL     1       8.497  -3.526  31.653  1.00  0.00    -0.267 OA
HETATM   37  C23 UNL     1      12.114  -6.075  30.855  1.00  0.00     0.001 A 
HETATM   38  C24 UNL     1      12.428  -7.284  30.248  1.00  0.00     0.002 A 
ENDBRANCH   3  13
TORSDOF 5
ENDMDL
MODEL 6
REMARK minimizedAffinity -9.14128494
REMARK  5 active torsions:
REMARK  status: ('A' for Active; 'I' for Inactive)
REMARK    1  A    between atoms: N1_2  and  C2_3 
REMARK    2  A    between atoms: C4_5  and  N4_34 
REMARK    3  A    between atoms: C5_7  and  N2_12 
REMARK    4  A    between atoms: C7_9  and  O2_10 
REMARK    5  A    between atoms: C27_35  and  C28_36 
ROOT
HETATM    1  C2  UNL     1       7.903  -9.636  26.255  1.00  0.00     0.257 C 
HETATM    2  C3  UNL     1       8.040  -9.475  27.775  1.00  0.00     0.092 C 
HETATM    3  C4  UNL     1       6.850  -8.720  28.383  1.00  0.00     0.234 C 
HETATM    4  O1  UNL     1       5.791  -8.445  27.470  1.00  0.00    -0.333 OA
HETATM    5  C5  UNL     1       6.136  -7.836  26.202  1.00  0.00     0.168 C 
HETATM    6  C6  UNL     1       5.034  -8.453  25.307  1.00  0.00     0.074 C 
HETATM    7  C7  UNL     1       7.548  -8.248  25.666  1.00  0.00     0.209 C 
ENDROOT
BRANCH   1   8
HETATM    8  N1  UNL     1       9.134 -10.189  25.648  1.00  0.00     0.086 N 
HETATM    9  C1  UNL     1       8.881 -10.986  24.454  1.00  0.00     0.307 C 
HETATM   10  H4  UNL     1       9.773  -9.433  25.409  1.00  0.00     0.316 HD
ENDBRANCH   1   8
BRANCH   7  11
HETATM   11  O2  UNL     1       8.554  -7.313  26.106  1.00  0.00    -0.384 OA
HETATM   12  C8  UNL     1       9.662  -7.218  25.223  1.00  0.00     0.202 C 
ENDBRANCH   7  11
BRANCH   3  13
HETATM   13  N4  UNL     1       7.174  -7.533  29.167  1.00  0.00    -0.316 N 
HETATM   14  C26 UNL     1       6.273  -6.527  29.481  1.00  0.00     0.048 A 
HETATM   15  C21 UNL     1       6.998  -5.490  30.091  1.00  0.00     0.004 A 
HETATM   16  C25 UNL     1       4.885  -6.439  29.267  1.00  0.00     0.030 A 
HETATM   17  C20 UNL     1       8.365  -5.899  30.150  1.00  0.00     0.022 A 
HETATM   18  C22 UNL     1       6.295  -4.335  30.497  1.00  0.00     0.014 A 
HETATM   19  C19 UNL     1       9.598  -5.408  30.595  1.00  0.00     0.062 A 
HETATM   20  C27 UNL     1       8.415  -7.165  29.590  1.00  0.00     0.077 A 
HETATM   21  C16 UNL     1      10.814  -6.131  30.522  1.00  0.00     0.062 A 
HETATM   22  C18 UNL     1       9.903  -4.122  31.220  1.00  0.00     0.260 A 
HETATM   23  C15 UNL     1      10.931  -7.429  30.006  1.00  0.00     0.022 A 
HETATM   24  C17 UNL     1      11.848  -5.278  31.111  1.00  0.00     0.260 A 
HETATM   25  C14 UNL     1      11.919  -8.445  29.860  1.00  0.00     0.004 A 
HETATM   26  C28 UNL     1       9.756  -7.966  29.511  1.00  0.00     0.078 A 
HETATM   27  C9  UNL     1      11.288  -9.585  29.319  1.00  0.00     0.049 A 
HETATM   28  C13 UNL     1      13.289  -8.525  30.194  1.00  0.00     0.014 A 
HETATM   29  N2  UNL     1       9.973  -9.230  29.027  1.00  0.00    -0.308 N 
HETATM   30  C10 UNL     1      11.996 -10.794  29.182  1.00  0.00     0.030 A 
HETATM   31  C11 UNL     1      13.350 -10.840  29.528  1.00  0.00     0.002 A 
HETATM   32  C12 UNL     1      13.995  -9.716  30.017  1.00  0.00     0.001 A 
HETATM   33  O3  UNL     1      13.030  -5.527  31.236  1.00  0.00    -0.267 OA
HETATM   34  N3  UNL     1      11.233  -4.128  31.494  1.00  0.00    -0.289 N 
HETATM   35  H20 UNL     1      11.716  -3.357  31.926  1.00  0.00     0.172 HD
HETATM   36  O4  UNL     1       9.132  -3.212  31.454  1.00  0.00    -0.267 OA
HETATM   37  C23 UNL     1       4.914  -4.243  30.289  1.00  0.00     0.001 A 
HETATM   38  C24 UNL     1       4.221  -5.282  29.683  1.00  0.00     0.002 A 
ENDBRANCH   3  13
TORSDOF 5
ENDMDL
MODEL 7
REMARK minimizedAffinity -9.13008308
REMARK  5 active torsions:
REMARK  status: ('A' for Active; 'I' for Inactive)
REMARK    1  A    between atoms: N1_2  and  C2_3 
REMARK    2  A    between atoms: C4_5  and  N4_34 
REMARK    3  A    between atoms: C5_7  and  N2_12 
REMARK    4  A    between atoms: C7_9  and  O2_10 
REMARK    5  A    between atoms: C27_35  and  C28_36 
ROOT
HETATM    1  C2  UNL     1      11.447  -6.397  29.491  1.00  0.00     0.257 C 
HETATM    2  C3  UNL     1      10.164  -6.688  30.280  1.00  0.00     0.092 C 
HETATM    3  C4  UNL     1       9.188  -7.567  29.487  1.00  0.00     0.234 C 
HETATM    4  O1  UNL     1       9.702  -8.064  28.254  1.00  0.00    -0.333 OA
HETATM    5  C5  UNL     1      10.320  -7.115  27.351  1.00  0.00     0.168 C 
HETATM    6  C6  UNL     1      11.375  -8.033  26.690  1.00  0.00     0.074 C 
HETATM    7  C7  UNL     1      11.031  -5.924  28.076  1.00  0.00     0.209 C 
ENDROOT
BRANCH   1   8
HETATM    8  N1  UNL     1      12.298  -5.398  30.174  1.00  0.00     0.086 N 
HETATM    9  C1  UNL     1      11.738  -4.928  31.435  1.00  0.00     0.307 C 
HETATM   10  H4  UNL     1      13.222  -5.792  30.351  1.00  0.00     0.316 HD
ENDBRANCH   1   8
BRANCH   7  11
HETATM   11  O2  UNL     1      10.130  -4.809  28.232  1.00  0.00    -0.384 OA
HETATM   12  C8  UNL     1      10.720  -3.556  27.919  1.00  0.00     0.202 C 
ENDBRANCH   7  11
BRANCH   3  13
HETATM   13  N4  UNL     1       7.842  -7.032  29.304  1.00  0.00    -0.316 N 
HETATM   14  C26 UNL     1       7.361  -5.886  29.918  1.00  0.00     0.048 A 
HETATM   15  C21 UNL     1       5.989  -5.800  29.627  1.00  0.00     0.004 A 
HETATM   16  C25 UNL     1       8.014  -4.927  30.713  1.00  0.00     0.030 A 
HETATM   17  C20 UNL     1       5.653  -6.921  28.808  1.00  0.00     0.022 A 
HETATM   18  C22 UNL     1       5.263  -4.711  30.156  1.00  0.00     0.014 A 
HETATM   19  C19 UNL     1       4.532  -7.468  28.172  1.00  0.00     0.062 A 
HETATM   20  C27 UNL     1       6.827  -7.632  28.623  1.00  0.00     0.077 A 
HETATM   21  C16 UNL     1       4.564  -8.636  27.371  1.00  0.00     0.062 A 
HETATM   22  C18 UNL     1       3.152  -6.985  28.167  1.00  0.00     0.260 A 
HETATM   23  C15 UNL     1       5.723  -9.381  27.110  1.00  0.00     0.022 A 
HETATM   24  C17 UNL     1       3.202  -8.849  26.880  1.00  0.00     0.260 A 
HETATM   25  C14 UNL     1       6.130 -10.498  26.324  1.00  0.00     0.004 A 
HETATM   26  C28 UNL     1       6.865  -8.920  27.737  1.00  0.00     0.078 A 
HETATM   27  C9  UNL     1       7.525 -10.642  26.472  1.00  0.00     0.049 A 
HETATM   28  C13 UNL     1       5.448 -11.370  25.446  1.00  0.00     0.014 A 
HETATM   29  N2  UNL     1       7.938  -9.714  27.424  1.00  0.00    -0.308 N 
HETATM   30  C10 UNL     1       8.229 -11.594  25.708  1.00  0.00     0.030 A 
HETATM   31  C11 UNL     1       7.523 -12.437  24.844  1.00  0.00     0.002 A 
HETATM   32  C12 UNL     1       6.148 -12.337  24.722  1.00  0.00     0.001 A 
HETATM   33  O3  UNL     1       2.805  -9.746  26.165  1.00  0.00    -0.267 OA
HETATM   34  N3  UNL     1       2.443  -7.842  27.387  1.00  0.00    -0.289 N 
HETATM   35  H20 UNL     1       1.456  -7.748  27.212  1.00  0.00     0.172 HD
HETATM   36  O4  UNL     1       2.707  -6.012  28.741  1.00  0.00    -0.267 OA
HETATM   37  C23 UNL     1       5.908  -3.753  30.946  1.00  0.00     0.001 A 
HETATM   38  C24 UNL     1       7.265  -3.862  31.219  1.00  0.00     0.002 A 
ENDBRANCH   3  13
TORSDOF 5
ENDMDL
MODEL 8
REMARK minimizedAffinity -8.99331665
REMARK  5 active torsions:
REMARK  status: ('A' for Active; 'I' for Inactive)
REMARK    1  A    between atoms: N1_2  and  C2_3 
REMARK    2  A    between atoms: C4_5  and  N4_34 
REMARK    3  A    between atoms: C5_7  and  N2_12 
REMARK    4  A    between atoms: C7_9  and  O2_10 
REMARK    5  A    between atoms: C27_35  and  C28_36 
ROOT
HETATM    1  C2  UNL     1      11.088  -5.751  28.098  1.00  0.00     0.257 C 
HETATM    2  C3  UNL     1      10.090  -6.618  28.878  1.00  0.00     0.092 C 
HETATM    3  C4  UNL     1      10.401  -8.114  28.744  1.00  0.00     0.234 C 
HETATM    4  O1  UNL     1      11.616  -8.411  28.061  1.00  0.00    -0.333 OA
HETATM    5  C5  UNL     1      11.846  -7.767  26.784  1.00  0.00     0.168 C 
HETATM    6  C6  UNL     1      13.388  -7.651  26.823  1.00  0.00     0.074 C 
HETATM    7  C7  UNL     1      11.208  -6.342  26.671  1.00  0.00     0.209 C 
ENDROOT
BRANCH   1   8
HETATM    8  N1  UNL     1      10.676  -4.330  28.069  1.00  0.00     0.086 N 
HETATM    9  C1  UNL     1      11.371  -3.548  27.055  1.00  0.00     0.307 C 
HETATM   10  H4  UNL     1       9.672  -4.263  27.905  1.00  0.00     0.316 HD
ENDBRANCH   1   8
BRANCH   7  11
HETATM   11  O2  UNL     1       9.880  -6.418  26.114  1.00  0.00    -0.384 OA
HETATM   12  C8  UNL     1       9.752  -7.395  25.091  1.00  0.00     0.202 C 
ENDBRANCH   7  11
BRANCH   3  13
HETATM   13  N4  UNL     1       9.316  -8.955  28.250  1.00  0.00    -0.316 N 
HETATM   14  C26 UNL     1       9.491 -10.186  27.636  1.00  0.00     0.048 A 
HETATM   15  C21 UNL     1       8.237 -10.597  27.156  1.00  0.00     0.004 A 
HETATM   16  C25 UNL     1      10.649 -10.964  27.454  1.00  0.00     0.030 A 
HETATM   17  C20 UNL     1       7.290  -9.586  27.506  1.00  0.00     0.022 A 
HETATM   18  C22 UNL     1       8.156 -11.831  26.475  1.00  0.00     0.014 A 
HETATM   19  C19 UNL     1       5.923  -9.321  27.362  1.00  0.00     0.062 A 
HETATM   20  C27 UNL     1       7.999  -8.613  28.192  1.00  0.00     0.077 A 
HETATM   21  C16 UNL     1       5.277  -8.175  27.887  1.00  0.00     0.062 A 
HETATM   22  C18 UNL     1       4.898 -10.121  26.693  1.00  0.00     0.260 A 
HETATM   23  C15 UNL     1       5.923  -7.173  28.624  1.00  0.00     0.022 A 
HETATM   24  C17 UNL     1       3.860  -8.293  27.538  1.00  0.00     0.260 A 
HETATM   25  C14 UNL     1       5.598  -5.987  29.345  1.00  0.00     0.004 A 
HETATM   26  C28 UNL     1       7.286  -7.349  28.775  1.00  0.00     0.078 A 
HETATM   27  C9  UNL     1       6.782  -5.513  29.948  1.00  0.00     0.049 A 
HETATM   28  C13 UNL     1       4.389  -5.300  29.592  1.00  0.00     0.014 A 
HETATM   29  N2  UNL     1       7.825  -6.320  29.503  1.00  0.00    -0.308 N 
HETATM   30  C10 UNL     1       6.742  -4.417  30.832  1.00  0.00     0.030 A 
HETATM   31  C11 UNL     1       5.526  -3.763  31.059  1.00  0.00     0.002 A 
HETATM   32  C12 UNL     1       4.365  -4.190  30.439  1.00  0.00     0.001 A 
HETATM   33  O3  UNL     1       2.967  -7.514  27.800  1.00  0.00    -0.267 OA
HETATM   34  N3  UNL     1       3.724  -9.455  26.847  1.00  0.00    -0.289 N 
HETATM   35  H20 UNL     1       2.847  -9.782  26.478  1.00  0.00     0.172 HD
HETATM   36  O4  UNL     1       5.047 -11.175  26.109  1.00  0.00    -0.267 OA
HETATM   37  C23 UNL     1       9.304 -12.610  26.292  1.00  0.00     0.001 A 
HETATM   38  C24 UNL     1      10.532 -12.181  26.777  1.00  0.00     0.002 A 
ENDBRANCH   3  13
TORSDOF 5
ENDMDL
MODEL 9
REMARK minimizedAffinity -8.94626617
REMARK  5 active torsions:
REMARK  status: ('A' for Active; 'I' for Inactive)
REMARK    1  A    between atoms: N1_2  and  C2_3 
REMARK    2  A    between atoms: C4_5  and  N4_34 
REMARK    3  A    between atoms: C5_7  and  N2_12 
REMARK    4  A    between atoms: C7_9  and  O2_10 
REMARK    5  A    between atoms: C27_35  and  C28_36 
ROOT
HETATM    1  C2  UNL     1       7.376 -10.249  26.692  1.00  0.00     0.257 C 
HETATM    2  C3  UNL     1       8.206 -10.337  27.980  1.00  0.00     0.092 C 
HETATM    3  C4  UNL     1       8.108  -9.056  28.817  1.00  0.00     0.234 C 
HETATM    4  O1  UNL     1       7.169  -8.099  28.333  1.00  0.00    -0.333 OA
HETATM    5  C5  UNL     1       7.235  -7.741  26.931  1.00  0.00     0.168 C 
HETATM    6  C6  UNL     1       5.739  -7.447  26.665  1.00  0.00     0.074 C 
HETATM    7  C7  UNL     1       7.720  -8.905  26.003  1.00  0.00     0.209 C 
ENDROOT
BRANCH   1   8
HETATM    8  N1  UNL     1       7.623 -11.401  25.799  1.00  0.00     0.086 N 
HETATM    9  C1  UNL     1       8.669 -12.293  26.282  1.00  0.00     0.307 C 
HETATM   10  H4  UNL     1       6.764 -11.938  25.678  1.00  0.00     0.316 HD
ENDBRANCH   1   8
BRANCH   7  11
HETATM   11  O2  UNL     1       9.151  -8.855  25.827  1.00  0.00    -0.384 OA
HETATM   12  C8  UNL     1       9.636  -7.562  25.498  1.00  0.00     0.202 C 
ENDBRANCH   7  11
BRANCH   3  13
HETATM   13  N4  UNL     1       9.372  -8.409  29.155  1.00  0.00    -0.316 N 
HETATM   14  C26 UNL     1      10.623  -8.977  28.964  1.00  0.00     0.048 A 
HETATM   15  C21 UNL     1      11.565  -8.126  29.564  1.00  0.00     0.004 A 
HETATM   16  C25 UNL     1      11.000 -10.172  28.325  1.00  0.00     0.030 A 
HETATM   17  C20 UNL     1      10.853  -7.016  30.115  1.00  0.00     0.022 A 
HETATM   18  C22 UNL     1      12.926  -8.497  29.512  1.00  0.00     0.014 A 
HETATM   19  C19 UNL     1      11.114  -5.839  30.826  1.00  0.00     0.062 A 
HETATM   20  C27 UNL     1       9.517  -7.229  29.819  1.00  0.00     0.077 A 
HETATM   21  C16 UNL     1      10.121  -4.902  31.204  1.00  0.00     0.062 A 
HETATM   22  C18 UNL     1      12.395  -5.319  31.302  1.00  0.00     0.260 A 
HETATM   23  C15 UNL     1       8.758  -5.034  30.903  1.00  0.00     0.022 A 
HETATM   24  C17 UNL     1      10.810  -3.815  31.902  1.00  0.00     0.260 A 
HETATM   25  C14 UNL     1       7.550  -4.290  31.037  1.00  0.00     0.004 A 
HETATM   26  C28 UNL     1       8.419  -6.194  30.233  1.00  0.00     0.078 A 
HETATM   27  C9  UNL     1       6.525  -5.016  30.395  1.00  0.00     0.049 A 
HETATM   28  C13 UNL     1       7.240  -3.030  31.595  1.00  0.00     0.014 A 
HETATM   29  N2  UNL     1       7.071  -6.231  29.989  1.00  0.00    -0.308 N 
HETATM   30  C10 UNL     1       5.237  -4.461  30.256  1.00  0.00     0.030 A 
HETATM   31  C11 UNL     1       4.966  -3.209  30.817  1.00  0.00     0.002 A 
HETATM   32  C12 UNL     1       5.951  -2.505  31.489  1.00  0.00     0.001 A 
HETATM   33  O3  UNL     1      10.316  -2.819  32.388  1.00  0.00    -0.267 OA
HETATM   34  N3  UNL     1      12.131  -4.135  31.913  1.00  0.00    -0.289 N 
HETATM   35  H20 UNL     1      12.838  -3.559  32.339  1.00  0.00     0.172 HD
HETATM   36  O4  UNL     1      13.491  -5.831  31.186  1.00  0.00    -0.267 OA
HETATM   37  C23 UNL     1      13.308  -9.684  28.876  1.00  0.00     0.001 A 
HETATM   38  C24 UNL     1      12.355 -10.508  28.291  1.00  0.00     0.002 A 
ENDBRANCH   3  13
TORSDOF 5
ENDMDL
