MODEL 1
REMARK minimizedAffinity -10.9774599
REMARK CNNscore 0.914964736
REMARK CNNaffinity 7.79247808
REMARK  9 active torsions:
REMARK  status: ('A' for Active; 'I' for Inactive)
REMARK    1  A    between atoms: C2_2  and  O1_3 
REMARK    2  A    between atoms: O1_3  and  C3_4 
REMARK    3  A    between atoms: C3_4  and  C4_6 
REMARK    4  A    between atoms: C4_6  and  O3_7 
REMARK    5  A    between atoms: C6_9  and  N4_37 
REMARK    6  A    between atoms: C7_11  and  N1_13 
REMARK    7  A    between atoms: C12_17  and  O5_18 
REMARK    8  A    between atoms: C13_19  and  N2_20 
REMARK    9  A    between atoms: C27_38  and  C28_39 
ROOT
HETATM    1  C4  UNL     1      -0.358   7.799  12.856  1.00  0.00     0.200 C 
HETATM    2  C5  UNL     1       0.492   7.208  13.968  1.00  0.00     0.108 C 
HETATM    3  C6  UNL     1      -0.481   7.061  15.132  1.00  0.00     0.235 C 
HETATM    4  O4  UNL     1      -1.788   7.462  14.701  1.00  0.00    -0.332 OA
HETATM    5  C7  UNL     1      -1.814   7.440  13.244  1.00  0.00     0.181 C 
HETATM    6  C8  UNL     1      -2.837   8.545  12.924  1.00  0.00     0.075 C 
ENDROOT
BRANCH   1   7
HETATM    7  C3  UNL     1       0.008   7.341  11.447  1.00  0.00     0.298 C 
HETATM    8  O2  UNL     1       1.049   6.731  11.223  1.00  0.00    -0.262 OA
BRANCH   7   9
HETATM    9  O1  UNL     1      -0.912   7.697  10.519  1.00  0.00    -0.319 OA
BRANCH   9  10
HETATM   10  C2  UNL     1      -0.535   8.753   9.619  1.00  0.00     0.174 C 
HETATM   11  C1  UNL     1      -0.218   8.180   8.252  1.00  0.00     0.034 C 
ENDBRANCH   9  10
ENDBRANCH   7   9
ENDBRANCH   1   7
BRANCH   1  12
HETATM   12  O3  UNL     1      -0.140   9.232  12.923  1.00  0.00    -0.375 OA
HETATM   13  H6  UNL     1      -0.274   9.585  12.017  1.00  0.00     0.211 HD
ENDBRANCH   1  12
BRANCH   5  14
HETATM   14  N1  UNL     1      -2.263   6.093  12.817  1.00  0.00    -0.307 N 
HETATM   15  C9  UNL     1      -1.466   5.052  12.347  1.00  0.00     0.051 A 
HETATM   16  C10 UNL     1      -0.061   4.948  12.255  1.00  0.00     0.033 A 
HETATM   17  C14 UNL     1      -2.320   3.988  11.947  1.00  0.00     0.028 A 
HETATM   18  C11 UNL     1       0.519   3.792  11.751  1.00  0.00     0.040 A 
HETATM   19  C12 UNL     1      -0.293   2.760  11.348  1.00  0.00     0.087 A 
HETATM   20  C13 UNL     1      -1.704   2.820  11.402  1.00  0.00     0.053 A 
HETATM   21  C15 UNL     1      -3.671   4.394  12.262  1.00  0.00     0.024 C 
HETATM   22  C16 UNL     1      -5.002   3.921  12.195  1.00  0.00     0.062 A 
HETATM   23  C28 UNL     1      -3.555   5.641  12.862  1.00  0.00     0.078 C 
HETATM   24  C17 UNL     1      -5.541   2.714  11.564  1.00  0.00     0.260 A 
HETATM   25  C19 UNL     1      -6.131   4.588  12.754  1.00  0.00     0.062 A 
HETATM   26  O6  UNL     1      -4.937   1.920  10.871  1.00  0.00    -0.267 OA
HETATM   27  N3  UNL     1      -6.868   2.662  11.839  1.00  0.00    -0.289 N 
HETATM   28  C18 UNL     1      -7.308   3.764  12.493  1.00  0.00     0.260 A 
HETATM   29  H18 UNL     1      -7.487   1.958  11.469  1.00  0.00     0.172 HD
HETATM   30  O7  UNL     1      -8.462   4.011  12.779  1.00  0.00    -0.267 OA
HETATM   31  C20 UNL     1      -6.069   5.811  13.425  1.00  0.00     0.022 A 
HETATM   32  C21 UNL     1      -6.926   6.729  14.108  1.00  0.00     0.004 A 
HETATM   33  C27 UNL     1      -4.804   6.356  13.476  1.00  0.00     0.077 A 
HETATM   34  C22 UNL     1      -8.304   6.756  14.410  1.00  0.00     0.014 A 
HETATM   35  C26 UNL     1      -6.132   7.805  14.546  1.00  0.00     0.048 A 
HETATM   36  C23 UNL     1      -8.845   7.828  15.128  1.00  0.00     0.001 A 
HETATM   37  C24 UNL     1      -8.037   8.876  15.551  1.00  0.00     0.002 A 
HETATM   38  C25 UNL     1      -6.669   8.884  15.269  1.00  0.00     0.030 A 
HETATM   39  N4  UNL     1      -4.845   7.550  14.126  1.00  0.00    -0.316 N 
BRANCH  19  40
HETATM   40  O5  UNL     1       0.300   1.594  10.932  1.00  0.00    -0.359 OA
HETATM   41  H15 UNL     1      -0.431   0.943  10.977  1.00  0.00     0.217 HD
ENDBRANCH  19  40
BRANCH  20  42
HETATM   42  N2  UNL     1      -2.367   1.654  10.935  1.00  0.00    -0.300 NA
HETATM   43  H16 UNL     1      -2.136   1.489   9.955  1.00  0.00     0.124 HD
HETATM   44  H17 UNL     1      -3.389   1.733  10.989  1.00  0.00     0.124 HD
ENDBRANCH  20  42
ENDBRANCH   5  14
TORSDOF 9
ENDMDL
MODEL 2
REMARK minimizedAffinity -12.1500359
REMARK CNNscore 0.912051737
REMARK CNNaffinity 7.61879349
REMARK  9 active torsions:
REMARK  status: ('A' for Active; 'I' for Inactive)
REMARK    1  A    between atoms: C2_2  and  O1_3 
REMARK    2  A    between atoms: O1_3  and  C3_4 
REMARK    3  A    between atoms: C3_4  and  C4_6 
REMARK    4  A    between atoms: C4_6  and  O3_7 
REMARK    5  A    between atoms: C6_9  and  N4_37 
REMARK    6  A    between atoms: C7_11  and  N1_13 
REMARK    7  A    between atoms: C12_17  and  O5_18 
REMARK    8  A    between atoms: C13_19  and  N2_20 
REMARK    9  A    between atoms: C27_38  and  C28_39 
ROOT
HETATM    1  C4  UNL     1      -1.959   7.817  14.504  1.00  0.00     0.200 C 
HETATM    2  C5  UNL     1      -3.240   7.981  15.302  1.00  0.00     0.108 C 
HETATM    3  C6  UNL     1      -4.278   8.360  14.254  1.00  0.00     0.235 C 
HETATM    4  O4  UNL     1      -3.661   8.342  12.959  1.00  0.00    -0.332 OA
HETATM    5  C7  UNL     1      -2.433   7.564  13.051  1.00  0.00     0.181 C 
HETATM    6  C8  UNL     1      -1.550   8.229  11.980  1.00  0.00     0.075 C 
ENDROOT
BRANCH   1   7
HETATM    7  C3  UNL     1      -1.011   6.734  15.013  1.00  0.00     0.298 C 
HETATM    8  O2  UNL     1      -1.178   5.552  14.727  1.00  0.00    -0.262 OA
BRANCH   7   9
HETATM    9  O1  UNL     1      -0.023   7.222  15.801  1.00  0.00    -0.319 OA
BRANCH   9  10
HETATM   10  C2  UNL     1       1.165   7.672  15.129  1.00  0.00     0.174 C 
HETATM   11  C1  UNL     1       1.438   6.798  13.920  1.00  0.00     0.034 C 
ENDBRANCH   9  10
ENDBRANCH   7   9
ENDBRANCH   1   7
BRANCH   1  12
HETATM   12  O3  UNL     1      -1.270   9.089  14.612  1.00  0.00    -0.375 OA
HETATM   13  H6  UNL     1      -0.310   8.904  14.526  1.00  0.00     0.211 HD
ENDBRANCH   1  12
BRANCH   5  14
HETATM   14  N1  UNL     1      -2.763   6.153  12.736  1.00  0.00    -0.307 N 
HETATM   15  C9  UNL     1      -1.885   5.158  12.312  1.00  0.00     0.051 A 
HETATM   16  C10 UNL     1      -0.480   5.179  12.175  1.00  0.00     0.033 A 
HETATM   17  C14 UNL     1      -2.645   3.994  12.018  1.00  0.00     0.028 A 
HETATM   18  C11 UNL     1       0.193   4.049  11.732  1.00  0.00     0.040 A 
HETATM   19  C12 UNL     1      -0.529   2.919  11.433  1.00  0.00     0.087 A 
HETATM   20  C13 UNL     1      -1.937   2.851  11.535  1.00  0.00     0.053 A 
HETATM   21  C15 UNL     1      -4.018   4.294  12.353  1.00  0.00     0.024 C 
HETATM   22  C16 UNL     1      -5.300   3.695  12.369  1.00  0.00     0.062 A 
HETATM   23  C28 UNL     1      -4.004   5.587  12.860  1.00  0.00     0.078 C 
HETATM   24  C17 UNL     1      -5.740   2.401  11.844  1.00  0.00     0.260 A 
HETATM   25  C19 UNL     1      -6.470   4.293  12.921  1.00  0.00     0.062 A 
HETATM   26  O6  UNL     1      -5.084   1.618  11.187  1.00  0.00    -0.267 OA
HETATM   27  N3  UNL     1      -7.047   2.245  12.171  1.00  0.00    -0.289 N 
HETATM   28  C18 UNL     1      -7.570   3.346  12.762  1.00  0.00     0.260 A 
HETATM   29  H18 UNL     1      -7.607   1.462  11.875  1.00  0.00     0.172 HD
HETATM   30  O7  UNL     1      -8.733   3.506  13.072  1.00  0.00    -0.267 OA
HETATM   31  C20 UNL     1      -6.505   5.563  13.502  1.00  0.00     0.022 A 
HETATM   32  C21 UNL     1      -7.425   6.445  14.150  1.00  0.00     0.004 A 
HETATM   33  C27 UNL     1      -5.297   6.225  13.468  1.00  0.00     0.077 A 
HETATM   34  C22 UNL     1      -8.790   6.365  14.500  1.00  0.00     0.014 A 
HETATM   35  C26 UNL     1      -6.724   7.619  14.482  1.00  0.00     0.048 A 
HETATM   36  C23 UNL     1      -9.409   7.433  15.160  1.00  0.00     0.001 A 
HETATM   37  C24 UNL     1      -8.691   8.579  15.479  1.00  0.00     0.002 A 
HETATM   38  C25 UNL     1      -7.340   8.693  15.147  1.00  0.00     0.030 A 
HETATM   39  N4  UNL     1      -5.432   7.455  14.034  1.00  0.00    -0.316 N 
BRANCH  19  40
HETATM   40  O5  UNL     1       0.160   1.786  11.078  1.00  0.00    -0.359 OA
HETATM   41  H15 UNL     1      -0.504   1.075  11.195  1.00  0.00     0.217 HD
ENDBRANCH  19  40
BRANCH  20  42
HETATM   42  N2  UNL     1      -2.500   1.597  11.175  1.00  0.00    -0.300 NA
HETATM   43  H16 UNL     1      -2.283   1.383  10.201  1.00  0.00     0.124 HD
HETATM   44  H17 UNL     1      -3.522   1.585  11.261  1.00  0.00     0.124 HD
ENDBRANCH  20  42
ENDBRANCH   5  14
TORSDOF 9
ENDMDL
MODEL 3
REMARK minimizedAffinity -10.6469812
REMARK CNNscore 0.834046602
REMARK CNNaffinity 7.42271566
REMARK  9 active torsions:
REMARK  status: ('A' for Active; 'I' for Inactive)
REMARK    1  A    between atoms: C2_2  and  O1_3 
REMARK    2  A    between atoms: O1_3  and  C3_4 
REMARK    3  A    between atoms: C3_4  and  C4_6 
REMARK    4  A    between atoms: C4_6  and  O3_7 
REMARK    5  A    between atoms: C6_9  and  N4_37 
REMARK    6  A    between atoms: C7_11  and  N1_13 
REMARK    7  A    between atoms: C12_17  and  O5_18 
REMARK    8  A    between atoms: C13_19  and  N2_20 
REMARK    9  A    between atoms: C27_38  and  C28_39 
ROOT
HETATM    1  C4  UNL     1      -2.571   8.178  13.918  1.00  0.00     0.200 C 
HETATM    2  C5  UNL     1      -1.963   7.631  12.638  1.00  0.00     0.108 C 
HETATM    3  C6  UNL     1      -1.624   6.186  12.983  1.00  0.00     0.235 C 
HETATM    4  O4  UNL     1      -2.067   5.909  14.318  1.00  0.00    -0.332 OA
HETATM    5  C7  UNL     1      -3.045   6.923  14.693  1.00  0.00     0.181 C 
HETATM    6  C8  UNL     1      -2.843   7.016  16.217  1.00  0.00     0.075 C 
ENDROOT
BRANCH   1   7
HETATM    7  C3  UNL     1      -3.683   9.205  13.721  1.00  0.00     0.298 C 
HETATM    8  O2  UNL     1      -4.627   8.988  12.966  1.00  0.00    -0.262 OA
BRANCH   7   9
HETATM    9  O1  UNL     1      -3.490  10.339  14.436  1.00  0.00    -0.319 OA
BRANCH   9  10
HETATM   10  C2  UNL     1      -4.065  10.367  15.753  1.00  0.00     0.174 C 
HETATM   11  C1  UNL     1      -4.359  11.799  16.158  1.00  0.00     0.034 C 
ENDBRANCH   9  10
ENDBRANCH   7   9
ENDBRANCH   1   7
BRANCH   1  12
HETATM   12  O3  UNL     1      -1.482   8.838  14.613  1.00  0.00    -0.375 OA
HETATM   13  H6  UNL     1      -1.879   9.551  15.158  1.00  0.00     0.211 HD
ENDBRANCH   1  12
BRANCH   5  14
HETATM   14  N1  UNL     1      -4.388   6.423  14.315  1.00  0.00    -0.307 N 
HETATM   15  C9  UNL     1      -5.614   7.032  14.569  1.00  0.00     0.051 A 
HETATM   16  C10 UNL     1      -5.907   8.294  15.131  1.00  0.00     0.033 A 
HETATM   17  C14 UNL     1      -6.643   6.153  14.135  1.00  0.00     0.028 A 
HETATM   18  C11 UNL     1      -7.226   8.698  15.284  1.00  0.00     0.040 A 
HETATM   19  C12 UNL     1      -8.233   7.854  14.880  1.00  0.00     0.087 A 
HETATM   20  C13 UNL     1      -7.994   6.575  14.329  1.00  0.00     0.053 A 
HETATM   21  C15 UNL     1      -5.993   5.010  13.535  1.00  0.00     0.024 C 
HETATM   22  C16 UNL     1      -6.296   3.787  12.892  1.00  0.00     0.062 A 
HETATM   23  C28 UNL     1      -4.632   5.278  13.603  1.00  0.00     0.078 C 
HETATM   24  C17 UNL     1      -7.585   3.116  12.707  1.00  0.00     0.260 A 
HETATM   25  C19 UNL     1      -5.335   2.929  12.283  1.00  0.00     0.062 A 
HETATM   26  O6  UNL     1      -8.655   3.448  13.176  1.00  0.00    -0.267 OA
HETATM   27  N3  UNL     1      -7.368   2.006  11.958  1.00  0.00    -0.289 N 
HETATM   28  C18 UNL     1      -6.053   1.793  11.711  1.00  0.00     0.260 A 
HETATM   29  H18 UNL     1      -8.085   1.334  11.737  1.00  0.00     0.172 HD
HETATM   30  O7  UNL     1      -5.580   0.829  11.144  1.00  0.00    -0.267 OA
HETATM   31  C20 UNL     1      -3.961   3.176  12.262  1.00  0.00     0.022 A 
HETATM   32  C21 UNL     1      -2.752   2.601  11.758  1.00  0.00     0.004 A 
HETATM   33  C27 UNL     1      -3.591   4.328  12.924  1.00  0.00     0.077 A 
HETATM   34  C22 UNL     1      -2.448   1.450  11.001  1.00  0.00     0.014 A 
HETATM   35  C26 UNL     1      -1.690   3.440  12.144  1.00  0.00     0.048 A 
HETATM   36  C23 UNL     1      -1.122   1.170  10.651  1.00  0.00     0.001 A 
HETATM   37  C24 UNL     1      -0.093   2.018  11.043  1.00  0.00     0.002 A 
HETATM   38  C25 UNL     1      -0.357   3.165  11.794  1.00  0.00     0.030 A 
HETATM   39  N4  UNL     1      -2.239   4.474  12.869  1.00  0.00    -0.316 N 
BRANCH  19  40
HETATM   40  O5  UNL     1      -9.526   8.305  14.961  1.00  0.00    -0.359 OA
HETATM   41  H15 UNL     1     -10.015   7.688  14.377  1.00  0.00     0.217 HD
ENDBRANCH  19  40
BRANCH  20  42
HETATM   42  N2  UNL     1      -9.165   5.850  13.979  1.00  0.00    -0.300 NA
HETATM   43  H16 UNL     1      -9.739   5.691  14.807  1.00  0.00     0.124 HD
HETATM   44  H17 UNL     1      -8.954   4.928  13.583  1.00  0.00     0.124 HD
ENDBRANCH  20  42
ENDBRANCH   5  14
TORSDOF 9
ENDMDL
MODEL 4
REMARK minimizedAffinity -11.4465084
REMARK CNNscore 0.613300622
REMARK CNNaffinity 7.28226995
REMARK  9 active torsions:
REMARK  status: ('A' for Active; 'I' for Inactive)
REMARK    1  A    between atoms: C2_2  and  O1_3 
REMARK    2  A    between atoms: O1_3  and  C3_4 
REMARK    3  A    between atoms: C3_4  and  C4_6 
REMARK    4  A    between atoms: C4_6  and  O3_7 
REMARK    5  A    between atoms: C6_9  and  N4_37 
REMARK    6  A    between atoms: C7_11  and  N1_13 
REMARK    7  A    between atoms: C12_17  and  O5_18 
REMARK    8  A    between atoms: C13_19  and  N2_20 
REMARK    9  A    between atoms: C27_38  and  C28_39 
ROOT
HETATM    1  C4  UNL     1      -3.799   7.893  15.066  1.00  0.00     0.200 C 
HETATM    2  C5  UNL     1      -5.142   7.975  15.771  1.00  0.00     0.108 C 
HETATM    3  C6  UNL     1      -6.101   8.428  14.678  1.00  0.00     0.235 C 
HETATM    4  O4  UNL     1      -5.385   8.527  13.440  1.00  0.00    -0.332 OA
HETATM    5  C7  UNL     1      -4.153   7.757  13.564  1.00  0.00     0.181 C 
HETATM    6  C8  UNL     1      -3.201   8.520  12.626  1.00  0.00     0.075 C 
ENDROOT
BRANCH   1   7
HETATM    7  C3  UNL     1      -2.875   6.782  15.558  1.00  0.00     0.298 C 
HETATM    8  O2  UNL     1      -3.305   5.831  16.205  1.00  0.00    -0.262 OA
BRANCH   7   9
HETATM    9  O1  UNL     1      -1.578   6.984  15.222  1.00  0.00    -0.319 OA
BRANCH   9  10
HETATM   10  C2  UNL     1      -0.773   7.688  16.181  1.00  0.00     0.174 C 
HETATM   11  C1  UNL     1       0.672   7.719  15.721  1.00  0.00     0.034 C 
ENDBRANCH   9  10
ENDBRANCH   7   9
ENDBRANCH   1   7
BRANCH   1  12
HETATM   12  O3  UNL     1      -3.144   9.160  15.334  1.00  0.00    -0.375 OA
HETATM   13  H6  UNL     1      -2.178   8.994  15.310  1.00  0.00     0.211 HD
ENDBRANCH   1  12
BRANCH   5  14
HETATM   14  N1  UNL     1      -4.432   6.375  13.109  1.00  0.00    -0.307 N 
HETATM   15  C9  UNL     1      -5.668   5.733  13.075  1.00  0.00     0.051 A 
HETATM   16  C10 UNL     1      -6.962   6.230  13.347  1.00  0.00     0.033 A 
HETATM   17  C14 UNL     1      -5.456   4.385  12.679  1.00  0.00     0.028 A 
HETATM   18  C11 UNL     1      -8.064   5.394  13.242  1.00  0.00     0.040 A 
HETATM   19  C12 UNL     1      -7.875   4.085  12.871  1.00  0.00     0.087 A 
HETATM   20  C13 UNL     1      -6.600   3.533  12.607  1.00  0.00     0.053 A 
HETATM   21  C15 UNL     1      -4.046   4.248  12.397  1.00  0.00     0.024 C 
HETATM   22  C16 UNL     1      -3.102   3.289  11.959  1.00  0.00     0.062 A 
HETATM   23  C28 UNL     1      -3.501   5.510  12.596  1.00  0.00     0.078 C 
HETATM   24  C17 UNL     1      -3.260   1.851  11.731  1.00  0.00     0.260 A 
HETATM   25  C19 UNL     1      -1.738   3.570  11.657  1.00  0.00     0.062 A 
HETATM   26  O6  UNL     1      -4.237   1.174  11.980  1.00  0.00    -0.267 OA
HETATM   27  N3  UNL     1      -2.087   1.380  11.238  1.00  0.00    -0.289 N 
HETATM   28  C18 UNL     1      -1.115   2.324  11.216  1.00  0.00     0.260 A 
HETATM   29  H18 UNL     1      -1.911   0.406  11.052  1.00  0.00     0.172 HD
HETATM   30  O7  UNL     1       0.046   2.147  10.908  1.00  0.00    -0.267 OA
HETATM   31  C20 UNL     1      -1.149   4.831  11.775  1.00  0.00     0.022 A 
HETATM   32  C21 UNL     1       0.107   5.477  11.556  1.00  0.00     0.004 A 
HETATM   33  C27 UNL     1      -2.003   5.802  12.254  1.00  0.00     0.077 A 
HETATM   34  C22 UNL     1       1.364   5.054  11.075  1.00  0.00     0.014 A 
HETATM   35  C26 UNL     1      -0.043   6.829  11.917  1.00  0.00     0.048 A 
HETATM   36  C23 UNL     1       2.418   5.969  10.966  1.00  0.00     0.001 A 
HETATM   37  C24 UNL     1       2.241   7.298  11.328  1.00  0.00     0.002 A 
HETATM   38  C25 UNL     1       1.011   7.752  11.808  1.00  0.00     0.030 A 
HETATM   39  N4  UNL     1      -1.339   6.985  12.356  1.00  0.00    -0.316 N 
BRANCH  19  40
HETATM   40  O5  UNL     1      -8.983   3.296  12.691  1.00  0.00    -0.359 OA
HETATM   41  H15 UNL     1      -8.638   2.540  12.172  1.00  0.00     0.217 HD
ENDBRANCH  19  40
BRANCH  20  42
HETATM   42  N2  UNL     1      -6.611   2.160  12.243  1.00  0.00    -0.300 NA
HETATM   43  H16 UNL     1      -7.001   1.600  13.002  1.00  0.00     0.124 HD
HETATM   44  H17 UNL     1      -5.671   1.793  12.059  1.00  0.00     0.124 HD
ENDBRANCH  20  42
ENDBRANCH   5  14
TORSDOF 9
ENDMDL
MODEL 5
REMARK minimizedAffinity -10.4063969
REMARK CNNscore 0.47772184
REMARK CNNaffinity 7.44466162
REMARK  9 active torsions:
REMARK  status: ('A' for Active; 'I' for Inactive)
REMARK    1  A    between atoms: C2_2  and  O1_3 
REMARK    2  A    between atoms: O1_3  and  C3_4 
REMARK    3  A    between atoms: C3_4  and  C4_6 
REMARK    4  A    between atoms: C4_6  and  O3_7 
REMARK    5  A    between atoms: C6_9  and  N4_37 
REMARK    6  A    between atoms: C7_11  and  N1_13 
REMARK    7  A    between atoms: C12_17  and  O5_18 
REMARK    8  A    between atoms: C13_19  and  N2_20 
REMARK    9  A    between atoms: C27_38  and  C28_39 
ROOT
HETATM    1  C4  UNL     1      -1.349   8.595  15.375  1.00  0.00     0.200 C 
HETATM    2  C5  UNL     1      -2.464   8.193  16.325  1.00  0.00     0.108 C 
HETATM    3  C6  UNL     1      -3.735   8.459  15.529  1.00  0.00     0.235 C 
HETATM    4  O4  UNL     1      -3.378   8.904  14.214  1.00  0.00    -0.332 OA
HETATM    5  C7  UNL     1      -1.992   8.529  13.967  1.00  0.00     0.181 C 
HETATM    6  C8  UNL     1      -1.522   9.641  13.012  1.00  0.00     0.075 C 
ENDROOT
BRANCH   1   7
HETATM    7  C3  UNL     1      -0.074   7.763  15.482  1.00  0.00     0.298 C 
HETATM    8  O2  UNL     1      -0.100   6.538  15.395  1.00  0.00    -0.262 OA
BRANCH   7   9
HETATM    9  O1  UNL     1       1.033   8.514  15.697  1.00  0.00    -0.319 OA
BRANCH   9  10
HETATM   10  C2  UNL     1       2.005   8.534  14.639  1.00  0.00     0.174 C 
HETATM   11  C1  UNL     1       3.294   7.887  15.109  1.00  0.00     0.034 C 
ENDBRANCH   9  10
ENDBRANCH   7   9
ENDBRANCH   1   7
BRANCH   1  12
HETATM   12  O3  UNL     1      -1.013   9.961  15.729  1.00  0.00    -0.375 OA
HETATM   13  H6  UNL     1      -0.069  10.095  15.494  1.00  0.00     0.211 HD
ENDBRANCH   1  12
BRANCH   5  14
HETATM   14  N1  UNL     1      -1.989   7.186  13.340  1.00  0.00    -0.307 N 
HETATM   15  C9  UNL     1      -0.905   6.530  12.760  1.00  0.00     0.051 A 
HETATM   16  C10 UNL     1       0.459   6.893  12.708  1.00  0.00     0.033 A 
HETATM   17  C14 UNL     1      -1.377   5.321  12.182  1.00  0.00     0.028 A 
HETATM   18  C11 UNL     1       1.374   6.067  12.070  1.00  0.00     0.040 A 
HETATM   19  C12 UNL     1       0.932   4.900  11.497  1.00  0.00     0.087 A 
HETATM   20  C13 UNL     1      -0.424   4.500  11.505  1.00  0.00     0.053 A 
HETATM   21  C15 UNL     1      -2.783   5.226  12.499  1.00  0.00     0.024 C 
HETATM   22  C16 UNL     1      -3.894   4.369  12.315  1.00  0.00     0.062 A 
HETATM   23  C28 UNL     1      -3.068   6.344  13.271  1.00  0.00     0.078 C 
HETATM   24  C17 UNL     1      -4.023   3.158  11.502  1.00  0.00     0.260 A 
HETATM   25  C19 UNL     1      -5.172   4.554  12.918  1.00  0.00     0.062 A 
HETATM   26  O6  UNL     1      -3.203   2.706  10.729  1.00  0.00    -0.267 OA
HETATM   27  N3  UNL     1      -5.262   2.647  11.716  1.00  0.00    -0.289 N 
HETATM   28  C18 UNL     1      -6.026   3.446  12.500  1.00  0.00     0.260 A 
HETATM   29  H18 UNL     1      -5.626   1.844  11.229  1.00  0.00     0.172 HD
HETATM   30  O7  UNL     1      -7.196   3.270  12.773  1.00  0.00    -0.267 OA
HETATM   31  C20 UNL     1      -5.499   5.624  13.755  1.00  0.00     0.022 A 
HETATM   32  C21 UNL     1      -6.600   6.113  14.526  1.00  0.00     0.004 A 
HETATM   33  C27 UNL     1      -4.475   6.529  13.930  1.00  0.00     0.077 A 
HETATM   34  C22 UNL     1      -7.911   5.657  14.776  1.00  0.00     0.014 A 
HETATM   35  C26 UNL     1      -6.187   7.310  15.141  1.00  0.00     0.048 A 
HETATM   36  C23 UNL     1      -8.761   6.386  15.615  1.00  0.00     0.001 A 
HETATM   37  C24 UNL     1      -8.326   7.563  16.211  1.00  0.00     0.002 A 
HETATM   38  C25 UNL     1      -7.036   8.046  15.986  1.00  0.00     0.030 A 
HETATM   39  N4  UNL     1      -4.891   7.541  14.739  1.00  0.00    -0.316 N 
BRANCH  19  40
HETATM   40  O5  UNL     1       1.864   4.056  10.945  1.00  0.00    -0.359 OA
HETATM   41  H15 UNL     1       1.379   3.208  10.871  1.00  0.00     0.217 HD
ENDBRANCH  19  40
BRANCH  20  42
HETATM   42  N2  UNL     1      -0.683   3.264  10.854  1.00  0.00    -0.300 NA
HETATM   43  H16 UNL     1      -0.419   3.324   9.870  1.00  0.00     0.124 HD
HETATM   44  H17 UNL     1      -1.675   3.005  10.879  1.00  0.00     0.124 HD
ENDBRANCH  20  42
ENDBRANCH   5  14
TORSDOF 9
ENDMDL
MODEL 6
REMARK minimizedAffinity -9.21218395
REMARK CNNscore 0.433141708
REMARK CNNaffinity 7.26804495
REMARK  9 active torsions:
REMARK  status: ('A' for Active; 'I' for Inactive)
REMARK    1  A    between atoms: C2_2  and  O1_3 
REMARK    2  A    between atoms: O1_3  and  C3_4 
REMARK    3  A    between atoms: C3_4  and  C4_6 
REMARK    4  A    between atoms: C4_6  and  O3_7 
REMARK    5  A    between atoms: C6_9  and  N4_37 
REMARK    6  A    between atoms: C7_11  and  N1_13 
REMARK    7  A    between atoms: C12_17  and  O5_18 
REMARK    8  A    between atoms: C13_19  and  N2_20 
REMARK    9  A    between atoms: C27_38  and  C28_39 
ROOT
HETATM    1  C4  UNL     1      -5.609   7.172  14.715  1.00  0.00     0.200 C 
HETATM    2  C5  UNL     1      -5.461   8.420  13.862  1.00  0.00     0.108 C 
HETATM    3  C6  UNL     1      -4.058   8.919  14.184  1.00  0.00     0.235 C 
HETATM    4  O4  UNL     1      -3.431   7.997  15.087  1.00  0.00    -0.332 OA
HETATM    5  C7  UNL     1      -4.155   6.734  15.023  1.00  0.00     0.181 C 
HETATM    6  C8  UNL     1      -3.957   6.178  16.445  1.00  0.00     0.075 C 
ENDROOT
BRANCH   1   7
HETATM    7  C3  UNL     1      -6.443   6.056  14.093  1.00  0.00     0.298 C 
HETATM    8  O2  UNL     1      -6.691   5.023  14.709  1.00  0.00    -0.262 OA
BRANCH   7   9
HETATM    9  O1  UNL     1      -6.836   6.331  12.826  1.00  0.00    -0.319 OA
BRANCH   9  10
HETATM   10  C2  UNL     1      -8.247   6.514  12.622  1.00  0.00     0.174 C 
HETATM   11  C1  UNL     1      -8.816   5.338  11.852  1.00  0.00     0.034 C 
ENDBRANCH   9  10
ENDBRANCH   7   9
ENDBRANCH   1   7
BRANCH   1  12
HETATM   12  O3  UNL     1      -6.288   7.607  15.921  1.00  0.00    -0.375 OA
HETATM   13  H6  UNL     1      -6.788   6.835  16.264  1.00  0.00     0.211 HD
ENDBRANCH   1  12
BRANCH   5  14
HETATM   14  N1  UNL     1      -3.519   5.897  13.979  1.00  0.00    -0.307 N 
HETATM   15  C9  UNL     1      -4.097   4.840  13.280  1.00  0.00     0.051 A 
HETATM   16  C10 UNL     1      -5.426   4.360  13.286  1.00  0.00     0.033 A 
HETATM   17  C14 UNL     1      -3.096   4.249  12.462  1.00  0.00     0.028 A 
HETATM   18  C11 UNL     1      -5.778   3.279  12.491  1.00  0.00     0.040 A 
HETATM   19  C12 UNL     1      -4.819   2.690  11.703  1.00  0.00     0.087 A 
HETATM   20  C13 UNL     1      -3.472   3.119  11.674  1.00  0.00     0.053 A 
HETATM   21  C15 UNL     1      -1.897   5.038  12.633  1.00  0.00     0.024 C 
HETATM   22  C16 UNL     1      -0.559   5.111  12.180  1.00  0.00     0.062 A 
HETATM   23  C28 UNL     1      -2.247   6.067  13.497  1.00  0.00     0.078 C 
HETATM   24  C17 UNL     1       0.205   4.180  11.347  1.00  0.00     0.260 A 
HETATM   25  C19 UNL     1       0.346   6.168  12.489  1.00  0.00     0.062 A 
HETATM   26  O6  UNL     1      -0.151   3.086  10.961  1.00  0.00    -0.267 OA
HETATM   27  N3  UNL     1       1.424   4.731  11.124  1.00  0.00    -0.289 N 
HETATM   28  C18 UNL     1       1.609   5.884  11.812  1.00  0.00     0.260 A 
HETATM   29  H18 UNL     1       2.165   4.264  10.626  1.00  0.00     0.172 HD
HETATM   30  O7  UNL     1       2.636   6.529  11.862  1.00  0.00    -0.267 OA
HETATM   31  C20 UNL     1       0.033   7.261  13.300  1.00  0.00     0.022 A 
HETATM   32  C21 UNL     1       0.627   8.465  13.792  1.00  0.00     0.004 A 
HETATM   33  C27 UNL     1      -1.243   7.221  13.821  1.00  0.00     0.077 A 
HETATM   34  C22 UNL     1       1.883   9.086  13.627  1.00  0.00     0.014 A 
HETATM   35  C26 UNL     1      -0.327   9.108  14.602  1.00  0.00     0.048 A 
HETATM   36  C23 UNL     1       2.152  10.307  14.256  1.00  0.00     0.001 A 
HETATM   37  C24 UNL     1       1.190  10.921  15.047  1.00  0.00     0.002 A 
HETATM   38  C25 UNL     1      -0.064  10.336  15.235  1.00  0.00     0.030 A 
HETATM   39  N4  UNL     1      -1.450   8.310  14.610  1.00  0.00    -0.316 N 
BRANCH  19  40
HETATM   40  O5  UNL     1      -5.205   1.677  10.861  1.00  0.00    -0.359 OA
HETATM   41  H15 UNL     1      -4.462   1.620  10.226  1.00  0.00     0.217 HD
ENDBRANCH  19  40
BRANCH  20  42
HETATM   42  N2  UNL     1      -2.631   2.379  10.801  1.00  0.00    -0.300 NA
HETATM   43  H16 UNL     1      -2.603   1.400  11.089  1.00  0.00     0.124 HD
HETATM   44  H17 UNL     1      -1.663   2.717  10.806  1.00  0.00     0.124 HD
ENDBRANCH  20  42
ENDBRANCH   5  14
TORSDOF 9
ENDMDL
MODEL 7
REMARK minimizedAffinity -10.3192968
REMARK CNNscore 0.212891459
REMARK CNNaffinity 7.06057215
REMARK  9 active torsions:
REMARK  status: ('A' for Active; 'I' for Inactive)
REMARK    1  A    between atoms: C2_2  and  O1_3 
REMARK    2  A    between atoms: O1_3  and  C3_4 
REMARK    3  A    between atoms: C3_4  and  C4_6 
REMARK    4  A    between atoms: C4_6  and  O3_7 
REMARK    5  A    between atoms: C6_9  and  N4_37 
REMARK    6  A    between atoms: C7_11  and  N1_13 
REMARK    7  A    between atoms: C12_17  and  O5_18 
REMARK    8  A    between atoms: C13_19  and  N2_20 
REMARK    9  A    between atoms: C27_38  and  C28_39 
ROOT
HETATM    1  C4  UNL     1      -1.141   8.955  15.803  1.00  0.00     0.200 C 
HETATM    2  C5  UNL     1      -2.123   8.189  16.672  1.00  0.00     0.108 C 
HETATM    3  C6  UNL     1      -3.416   8.209  15.866  1.00  0.00     0.235 C 
HETATM    4  O4  UNL     1      -3.175   8.866  14.614  1.00  0.00    -0.332 OA
HETATM    5  C7  UNL     1      -1.737   8.879  14.376  1.00  0.00     0.181 C 
HETATM    6  C8  UNL     1      -1.559  10.168  13.553  1.00  0.00     0.075 C 
ENDROOT
BRANCH   1   7
HETATM    7  C3  UNL     1       0.303   8.464  15.867  1.00  0.00     0.298 C 
HETATM    8  O2  UNL     1       0.573   7.313  16.197  1.00  0.00    -0.262 OA
BRANCH   7   9
HETATM    9  O1  UNL     1       1.204   9.424  15.548  1.00  0.00    -0.319 OA
BRANCH   9  10
HETATM   10  C2  UNL     1       2.396   9.471  16.349  1.00  0.00     0.174 C 
HETATM   11  C1  UNL     1       2.113  10.186  17.656  1.00  0.00     0.034 C 
ENDBRANCH   9  10
ENDBRANCH   7   9
ENDBRANCH   1   7
BRANCH   1  12
HETATM   12  O3  UNL     1      -1.163  10.317  16.304  1.00  0.00    -0.375 OA
HETATM   13  H6  UNL     1      -0.283  10.708  16.114  1.00  0.00     0.211 HD
ENDBRANCH   1  12
BRANCH   5  14
HETATM   14  N1  UNL     1      -1.391   7.654  13.617  1.00  0.00    -0.307 N 
HETATM   15  C9  UNL     1      -0.143   7.306  13.106  1.00  0.00     0.051 A 
HETATM   16  C10 UNL     1       1.112   7.936  13.256  1.00  0.00     0.033 A 
HETATM   17  C14 UNL     1      -0.291   6.110  12.353  1.00  0.00     0.028 A 
HETATM   18  C11 UNL     1       2.238   7.396  12.650  1.00  0.00     0.040 A 
HETATM   19  C12 UNL     1       2.109   6.246  11.909  1.00  0.00     0.087 A 
HETATM   20  C13 UNL     1       0.874   5.587  11.712  1.00  0.00     0.053 A 
HETATM   21  C15 UNL     1      -1.670   5.698  12.487  1.00  0.00     0.024 C 
HETATM   22  C16 UNL     1      -2.551   4.669  12.083  1.00  0.00     0.062 A 
HETATM   23  C28 UNL     1      -2.256   6.631  13.332  1.00  0.00     0.078 C 
HETATM   24  C17 UNL     1      -2.344   3.569  11.138  1.00  0.00     0.260 A 
HETATM   25  C19 UNL     1      -3.891   4.519  12.544  1.00  0.00     0.062 A 
HETATM   26  O6  UNL     1      -1.376   3.391  10.426  1.00  0.00    -0.267 OA
HETATM   27  N3  UNL     1      -3.461   2.800  11.148  1.00  0.00    -0.289 N 
HETATM   28  C18 UNL     1      -4.448   3.325  11.914  1.00  0.00     0.260 A 
HETATM   29  H18 UNL     1      -3.599   2.009  10.539  1.00  0.00     0.172 HD
HETATM   30  O7  UNL     1      -5.575   2.887  12.024  1.00  0.00    -0.267 OA
HETATM   31  C20 UNL     1      -4.516   5.387  13.443  1.00  0.00     0.022 A 
HETATM   32  C21 UNL     1      -5.764   5.546  14.123  1.00  0.00     0.004 A 
HETATM   33  C27 UNL     1      -3.727   6.447  13.833  1.00  0.00     0.077 A 
HETATM   34  C22 UNL     1      -6.967   4.811  14.165  1.00  0.00     0.014 A 
HETATM   35  C26 UNL     1      -5.674   6.714  14.904  1.00  0.00     0.048 A 
HETATM   36  C23 UNL     1      -8.028   5.244  14.967  1.00  0.00     0.001 A 
HETATM   37  C24 UNL     1      -7.911   6.399  15.731  1.00  0.00     0.002 A 
HETATM   38  C25 UNL     1      -6.735   7.153  15.714  1.00  0.00     0.030 A 
HETATM   39  N4  UNL     1      -4.423   7.246  14.687  1.00  0.00    -0.316 N 
BRANCH  19  40
HETATM   40  O5  UNL     1       3.246   5.681  11.388  1.00  0.00    -0.359 OA
HETATM   41  H15 UNL     1       2.962   4.770  11.168  1.00  0.00     0.217 HD
ENDBRANCH  19  40
BRANCH  20  42
HETATM   42  N2  UNL     1       0.945   4.417  10.910  1.00  0.00    -0.300 NA
HETATM   43  H16 UNL     1       1.283   4.653   9.977  1.00  0.00     0.124 HD
HETATM   44  H17 UNL     1       0.032   3.966  10.789  1.00  0.00     0.124 HD
ENDBRANCH  20  42
ENDBRANCH   5  14
TORSDOF 9
ENDMDL
MODEL 8
REMARK minimizedAffinity -7.03787374
REMARK CNNscore 0.185102805
REMARK CNNaffinity 5.56970167
REMARK  9 active torsions:
REMARK  status: ('A' for Active; 'I' for Inactive)
REMARK    1  A    between atoms: C2_2  and  O1_3 
REMARK    2  A    between atoms: O1_3  and  C3_4 
REMARK    3  A    between atoms: C3_4  and  C4_6 
REMARK    4  A    between atoms: C4_6  and  O3_7 
REMARK    5  A    between atoms: C6_9  and  N4_37 
REMARK    6  A    between atoms: C7_11  and  N1_13 
REMARK    7  A    between atoms: C12_17  and  O5_18 
REMARK    8  A    between atoms: C13_19  and  N2_20 
REMARK    9  A    between atoms: C27_38  and  C28_39 
ROOT
HETATM    1  C4  UNL     1       8.157  14.258  22.776  1.00  0.00     0.200 C 
HETATM    2  C5  UNL     1       8.351  12.766  22.980  1.00  0.00     0.108 C 
HETATM    3  C6  UNL     1       6.933  12.234  23.152  1.00  0.00     0.235 C 
HETATM    4  O4  UNL     1       6.006  13.316  22.990  1.00  0.00    -0.332 OA
HETATM    5  C7  UNL     1       6.690  14.402  22.299  1.00  0.00     0.181 C 
HETATM    6  C8  UNL     1       5.969  15.642  22.857  1.00  0.00     0.075 C 
ENDROOT
BRANCH   1   7
HETATM    7  C3  UNL     1       9.154  14.919  21.828  1.00  0.00     0.298 C 
HETATM    8  O2  UNL     1       9.879  14.251  21.096  1.00  0.00    -0.262 OA
BRANCH   7   9
HETATM    9  O1  UNL     1       9.149  16.271  21.911  1.00  0.00    -0.319 OA
BRANCH   9  10
HETATM   10  C2  UNL     1      10.140  16.861  22.769  1.00  0.00     0.174 C 
HETATM   11  C1  UNL     1      10.934  17.901  22.003  1.00  0.00     0.034 C 
ENDBRANCH   9  10
ENDBRANCH   7   9
ENDBRANCH   1   7
BRANCH   1  12
HETATM   12  O3  UNL     1       8.338  14.853  24.087  1.00  0.00    -0.375 OA
HETATM   13  H6  UNL     1       8.667  15.767  23.945  1.00  0.00     0.211 HD
ENDBRANCH   1  12
BRANCH   5  14
HETATM   14  N1  UNL     1       6.484  14.217  20.843  1.00  0.00    -0.307 N 
HETATM   15  C9  UNL     1       7.122  14.900  19.810  1.00  0.00     0.051 A 
HETATM   16  C10 UNL     1       8.177  15.838  19.851  1.00  0.00     0.033 A 
HETATM   17  C14 UNL     1       6.539  14.488  18.581  1.00  0.00     0.028 A 
HETATM   18  C11 UNL     1       8.661  16.392  18.675  1.00  0.00     0.040 A 
HETATM   19  C12 UNL     1       8.100  16.013  17.479  1.00  0.00     0.087 A 
HETATM   20  C13 UNL     1       7.031  15.093  17.384  1.00  0.00     0.053 A 
HETATM   21  C15 UNL     1       5.568  13.467  18.900  1.00  0.00     0.024 C 
HETATM   22  C16 UNL     1       4.642  12.600  18.274  1.00  0.00     0.062 A 
HETATM   23  C28 UNL     1       5.647  13.293  20.276  1.00  0.00     0.078 C 
HETATM   24  C17 UNL     1       4.209  12.536  16.876  1.00  0.00     0.260 A 
HETATM   25  C19 UNL     1       3.908  11.577  18.941  1.00  0.00     0.062 A 
HETATM   26  O6  UNL     1       4.501  13.309  15.986  1.00  0.00    -0.267 OA
HETATM   27  N3  UNL     1       3.364  11.483  16.753  1.00  0.00    -0.289 N 
HETATM   28  C18 UNL     1       3.088  10.894  17.942  1.00  0.00     0.260 A 
HETATM   29  H18 UNL     1       2.876  11.255  15.901  1.00  0.00     0.172 HD
HETATM   30  O7  UNL     1       2.297   9.993  18.127  1.00  0.00    -0.267 OA
HETATM   31  C20 UNL     1       3.992  11.312  20.310  1.00  0.00     0.022 A 
HETATM   32  C21 UNL     1       3.466  10.408  21.285  1.00  0.00     0.004 A 
HETATM   33  C27 UNL     1       4.838  12.161  20.990  1.00  0.00     0.077 A 
HETATM   34  C22 UNL     1       2.574   9.316  21.238  1.00  0.00     0.014 A 
HETATM   35  C26 UNL     1       4.021  10.756  22.529  1.00  0.00     0.048 A 
HETATM   36  C23 UNL     1       2.266   8.610  22.407  1.00  0.00     0.001 A 
HETATM   37  C24 UNL     1       2.832   8.974  23.622  1.00  0.00     0.002 A 
HETATM   38  C25 UNL     1       3.718  10.051  23.706  1.00  0.00     0.030 A 
HETATM   39  N4  UNL     1       4.840  11.842  22.313  1.00  0.00    -0.316 N 
BRANCH  19  40
HETATM   40  O5  UNL     1       8.648  16.506  16.322  1.00  0.00    -0.359 OA
HETATM   41  H15 UNL     1       8.298  15.903  15.634  1.00  0.00     0.217 HD
ENDBRANCH  19  40
BRANCH  20  42
HETATM   42  N2  UNL     1       6.586  14.834  16.061  1.00  0.00    -0.300 NA
HETATM   43  H16 UNL     1       6.247  15.695  15.631  1.00  0.00     0.124 HD
HETATM   44  H17 UNL     1       5.810  14.163  16.030  1.00  0.00     0.124 HD
ENDBRANCH  20  42
ENDBRANCH   5  14
TORSDOF 9
ENDMDL
MODEL 9
REMARK minimizedAffinity -10.5433197
REMARK CNNscore 0.120003335
REMARK CNNaffinity 6.7497716
REMARK  9 active torsions:
REMARK  status: ('A' for Active; 'I' for Inactive)
REMARK    1  A    between atoms: C2_2  and  O1_3 
REMARK    2  A    between atoms: O1_3  and  C3_4 
REMARK    3  A    between atoms: C3_4  and  C4_6 
REMARK    4  A    between atoms: C4_6  and  O3_7 
REMARK    5  A    between atoms: C6_9  and  N4_37 
REMARK    6  A    between atoms: C7_11  and  N1_13 
REMARK    7  A    between atoms: C12_17  and  O5_18 
REMARK    8  A    between atoms: C13_19  and  N2_20 
REMARK    9  A    between atoms: C27_38  and  C28_39 
ROOT
HETATM    1  C4  UNL     1      -0.273   5.996  11.614  1.00  0.00     0.200 C 
HETATM    2  C5  UNL     1      -1.255   5.002  11.019  1.00  0.00     0.108 C 
HETATM    3  C6  UNL     1      -1.690   4.160  12.212  1.00  0.00     0.235 C 
HETATM    4  O4  UNL     1      -1.069   4.674  13.397  1.00  0.00    -0.332 OA
HETATM    5  C7  UNL     1      -0.620   6.033  13.123  1.00  0.00     0.181 C 
HETATM    6  C8  UNL     1       0.606   6.158  14.045  1.00  0.00     0.075 C 
ENDROOT
BRANCH   1   7
HETATM    7  C3  UNL     1      -0.282   7.380  10.972  1.00  0.00     0.298 C 
HETATM    8  O2  UNL     1      -0.657   8.371  11.592  1.00  0.00    -0.262 OA
BRANCH   7   9
HETATM    9  O1  UNL     1       0.137   7.369   9.683  1.00  0.00    -0.319 OA
BRANCH   9  10
HETATM   10  C2  UNL     1       1.279   8.187   9.377  1.00  0.00     0.174 C 
HETATM   11  C1  UNL     1       1.823   7.824   8.009  1.00  0.00     0.034 C 
ENDBRANCH   9  10
ENDBRANCH   7   9
ENDBRANCH   1   7
BRANCH   1  12
HETATM   12  O3  UNL     1       1.040   5.419  11.396  1.00  0.00    -0.375 OA
HETATM   13  H6  UNL     1       1.675   6.165  11.336  1.00  0.00     0.211 HD
ENDBRANCH   1  12
BRANCH   5  14
HETATM   14  N1  UNL     1      -1.719   6.958  13.491  1.00  0.00    -0.307 N 
HETATM   15  C9  UNL     1      -1.605   8.301  13.842  1.00  0.00     0.051 A 
HETATM   16  C10 UNL     1      -0.479   9.153  13.838  1.00  0.00     0.033 A 
HETATM   17  C14 UNL     1      -2.891   8.768  14.227  1.00  0.00     0.028 A 
HETATM   18  C11 UNL     1      -0.608  10.478  14.230  1.00  0.00     0.040 A 
HETATM   19  C12 UNL     1      -1.842  10.942  14.616  1.00  0.00     0.087 A 
HETATM   20  C13 UNL     1      -2.996  10.126  14.656  1.00  0.00     0.053 A 
HETATM   21  C15 UNL     1      -3.812   7.673  14.025  1.00  0.00     0.024 C 
HETATM   22  C16 UNL     1      -5.186   7.358  14.146  1.00  0.00     0.062 A 
HETATM   23  C28 UNL     1      -3.051   6.637  13.499  1.00  0.00     0.078 C 
HETATM   24  C17 UNL     1      -6.281   8.135  14.732  1.00  0.00     0.260 A 
HETATM   25  C19 UNL     1      -5.783   6.142  13.704  1.00  0.00     0.062 A 
HETATM   26  O6  UNL     1      -6.190   9.186  15.333  1.00  0.00    -0.267 OA
HETATM   27  N3  UNL     1      -7.429   7.440  14.539  1.00  0.00    -0.289 N 
HETATM   28  C18 UNL     1      -7.214   6.222  13.985  1.00  0.00     0.260 A 
HETATM   29  H18 UNL     1      -8.324   7.729  14.901  1.00  0.00     0.172 HD
HETATM   30  O7  UNL     1      -8.055   5.368  13.790  1.00  0.00    -0.267 OA
HETATM   31  C20 UNL     1      -5.081   5.091  13.109  1.00  0.00     0.022 A 
HETATM   32  C21 UNL     1      -5.317   3.800  12.542  1.00  0.00     0.004 A 
HETATM   33  C27 UNL     1      -3.724   5.312  13.013  1.00  0.00     0.077 A 
HETATM   34  C22 UNL     1      -6.466   3.009  12.331  1.00  0.00     0.014 A 
HETATM   35  C26 UNL     1      -4.075   3.288  12.124  1.00  0.00     0.048 A 
HETATM   36  C23 UNL     1      -6.353   1.756  11.718  1.00  0.00     0.001 A 
HETATM   37  C24 UNL     1      -5.114   1.276  11.312  1.00  0.00     0.002 A 
HETATM   38  C25 UNL     1      -3.955   2.031  11.506  1.00  0.00     0.030 A 
HETATM   39  N4  UNL     1      -3.124   4.231  12.444  1.00  0.00    -0.316 N 
BRANCH  19  40
HETATM   40  O5  UNL     1      -1.968  12.274  14.919  1.00  0.00    -0.359 OA
HETATM   41  H15 UNL     1      -2.936  12.422  14.879  1.00  0.00     0.217 HD
ENDBRANCH  19  40
BRANCH  20  42
HETATM   42  N2  UNL     1      -4.177  10.787  15.089  1.00  0.00    -0.300 NA
HETATM   43  H16 UNL     1      -4.054  11.136  16.040  1.00  0.00     0.124 HD
HETATM   44  H17 UNL     1      -4.993  10.167  15.105  1.00  0.00     0.124 HD
ENDBRANCH  20  42
ENDBRANCH   5  14
TORSDOF 9
ENDMDL
