MODEL 1
REMARK minimizedAffinity -9.57925034
REMARK  5 active torsions:
REMARK  status: ('A' for Active; 'I' for Inactive)
REMARK    1  A    between atoms: C2_2  and  C25_28 
REMARK    2  A    between atoms: C3_3  and  C4_4 
REMARK    3  A    between atoms: C4_4  and  C6_6 
REMARK    4  A    between atoms: C20_20  and  O1_21 
REMARK    5  A    between atoms: C25_28  and  C27_30 
ROOT
HETATM    1  C6  UNL     1      -5.658   6.295  13.429  1.00  0.00     0.001 C 
HETATM    2  C7  UNL     1      -5.905   7.788  13.800  1.00  0.00     0.006 C 
HETATM    3  C8  UNL     1      -4.575   8.533  13.594  1.00  0.00     0.009 C 
HETATM    4  C9  UNL     1      -3.655   7.475  12.991  1.00  0.00     0.036 C 
HETATM    5  C10 UNL     1      -4.111   6.142  13.639  1.00  0.00    -0.033 C 
HETATM    6  C11 UNL     1      -3.765   6.007  15.137  1.00  0.00     0.016 C 
HETATM    7  C12 UNL     1      -3.441   5.008  12.836  1.00  0.00     0.010 C 
HETATM    8  C13 UNL     1      -1.907   5.138  12.807  1.00  0.00     0.010 C 
HETATM    9  C14 UNL     1      -1.429   6.505  12.278  1.00  0.00     0.039 C 
HETATM   10  C15 UNL     1      -2.146   7.731  12.942  1.00  0.00     0.123 C 
HETATM   11  C16 UNL     1      -1.475   8.188  14.210  1.00  0.00     0.014 C 
HETATM   12  C17 UNL     1      -0.187   8.525  14.036  1.00  0.00     0.014 C 
HETATM   13  C18 UNL     1       0.338   8.257  12.637  1.00  0.00     0.124 C 
HETATM   14  C19 UNL     1       1.779   8.751  12.457  1.00  0.00     0.078 C 
HETATM   15  C20 UNL     1       2.456   8.237  11.181  1.00  0.00     0.121 C 
HETATM   16  C21 UNL     1       1.518   7.513  10.219  1.00  0.00     0.033 C 
HETATM   17  C22 UNL     1       0.746   6.377  10.895  1.00  0.00     0.015 C 
HETATM   18  C23 UNL     1       0.142   6.735  12.290  1.00  0.00     0.001 C 
HETATM   19  C24 UNL     1       0.862   5.848  13.342  1.00  0.00     0.019 C 
HETATM   20  O2  UNL     1      -0.496   9.015  11.716  1.00  0.00    -0.223 OA
HETATM   21  O3  UNL     1      -1.944   8.850  12.032  1.00  0.00    -0.224 OA
ENDROOT
BRANCH   1  22
HETATM   22  C4  UNL     1      -6.633   5.337  14.164  1.00  0.00     0.009 C 
HETATM   23  C5  UNL     1      -6.789   3.969  13.491  1.00  0.00     0.014 C 
BRANCH  22  24
HETATM   24  C3  UNL     1      -8.028   5.876  14.465  1.00  0.00    -0.019 C 
HETATM   25  C2  UNL     1      -9.040   6.263  13.658  1.00  0.00    -0.083 C 
HETATM   26  C1  UNL     1      -8.988   6.187  12.154  1.00  0.00     0.043 C 
BRANCH  25  27
HETATM   27  C25 UNL     1     -10.364   6.811  14.223  1.00  0.00     0.013 C 
HETATM   28  C26 UNL     1     -11.296   7.320  13.102  1.00  0.00     0.015 C 
BRANCH  27  29
HETATM   29  C27 UNL     1     -10.144   7.892  15.330  1.00  0.00    -0.015 C 
HETATM   30  C28 UNL     1      -8.996   7.531  16.281  1.00  0.00     0.010 C 
HETATM   31  C29 UNL     1      -9.872   9.285  14.748  1.00  0.00     0.010 C 
ENDBRANCH  27  29
ENDBRANCH  25  27
ENDBRANCH  22  24
ENDBRANCH   1  22
BRANCH  15  32
HETATM   32  O1  UNL     1       3.514   7.353  11.570  1.00  0.00    -0.395 OA
HETATM   33  H28 UNL     1       3.882   6.950  10.763  1.00  0.00     0.210 HD
ENDBRANCH  15  32
TORSDOF 5
ENDMDL
MODEL 2
REMARK minimizedAffinity -9.48801804
REMARK  5 active torsions:
REMARK  status: ('A' for Active; 'I' for Inactive)
REMARK    1  A    between atoms: C2_2  and  C25_28 
REMARK    2  A    between atoms: C3_3  and  C4_4 
REMARK    3  A    between atoms: C4_4  and  C6_6 
REMARK    4  A    between atoms: C20_20  and  O1_21 
REMARK    5  A    between atoms: C25_28  and  C27_30 
ROOT
HETATM    1  C6  UNL     1      -4.051   7.262  13.502  1.00  0.00     0.001 C 
HETATM    2  C7  UNL     1      -3.619   8.381  14.495  1.00  0.00     0.006 C 
HETATM    3  C8  UNL     1      -2.127   8.662  14.242  1.00  0.00     0.009 C 
HETATM    4  C9  UNL     1      -1.794   7.793  13.033  1.00  0.00     0.036 C 
HETATM    5  C10 UNL     1      -2.694   6.540  13.189  1.00  0.00    -0.033 C 
HETATM    6  C11 UNL     1      -2.287   5.599  14.343  1.00  0.00     0.016 C 
HETATM    7  C12 UNL     1      -2.638   5.785  11.845  1.00  0.00     0.010 C 
HETATM    8  C13 UNL     1      -1.200   5.413  11.441  1.00  0.00     0.010 C 
HETATM    9  C14 UNL     1      -0.254   6.629  11.396  1.00  0.00     0.039 C 
HETATM   10  C15 UNL     1      -0.328   7.541  12.669  1.00  0.00     0.123 C 
HETATM   11  C16 UNL     1       0.595   7.090  13.770  1.00  0.00     0.014 C 
HETATM   12  C17 UNL     1       1.883   7.036  13.392  1.00  0.00     0.014 C 
HETATM   13  C18 UNL     1       2.106   7.321  11.918  1.00  0.00     0.124 C 
HETATM   14  C19 UNL     1       3.597   7.348  11.555  1.00  0.00     0.078 C 
HETATM   15  C20 UNL     1       3.868   7.324  10.046  1.00  0.00     0.121 C 
HETATM   16  C21 UNL     1       2.624   7.496   9.180  1.00  0.00     0.033 C 
HETATM   17  C22 UNL     1       1.522   6.491   9.528  1.00  0.00     0.015 C 
HETATM   18  C23 UNL     1       1.264   6.308  11.058  1.00  0.00     0.001 C 
HETATM   19  C24 UNL     1       1.653   4.847  11.415  1.00  0.00     0.019 C 
HETATM   20  O2  UNL     1       1.574   8.649  11.655  1.00  0.00    -0.223 OA
HETATM   21  O3  UNL     1       0.228   8.827  12.270  1.00  0.00    -0.224 OA
ENDROOT
BRANCH   1  22
HETATM   22  C4  UNL     1      -5.257   6.440  14.031  1.00  0.00     0.009 C 
HETATM   23  C5  UNL     1      -5.187   6.123  15.529  1.00  0.00     0.014 C 
BRANCH  22  24
HETATM   24  C3  UNL     1      -5.584   5.147  13.290  1.00  0.00    -0.019 C 
HETATM   25  C2  UNL     1      -6.724   4.698  12.720  1.00  0.00    -0.083 C 
HETATM   26  C1  UNL     1      -8.005   5.490  12.670  1.00  0.00     0.043 C 
BRANCH  25  27
HETATM   27  C25 UNL     1      -6.804   3.314  12.048  1.00  0.00     0.013 C 
HETATM   28  C26 UNL     1      -7.539   2.289  12.939  1.00  0.00     0.015 C 
BRANCH  27  29
HETATM   29  C27 UNL     1      -5.406   2.787  11.588  1.00  0.00    -0.015 C 
HETATM   30  C28 UNL     1      -5.360   1.256  11.499  1.00  0.00     0.010 C 
HETATM   31  C29 UNL     1      -4.973   3.366  10.236  1.00  0.00     0.010 C 
ENDBRANCH  27  29
ENDBRANCH  25  27
ENDBRANCH  22  24
ENDBRANCH   1  22
BRANCH  15  32
HETATM   32  O1  UNL     1       4.498   6.076   9.733  1.00  0.00    -0.395 OA
HETATM   33  H28 UNL     1       4.583   6.016   8.763  1.00  0.00     0.210 HD
ENDBRANCH  15  32
TORSDOF 5
ENDMDL
MODEL 3
REMARK minimizedAffinity -9.46843433
REMARK  5 active torsions:
REMARK  status: ('A' for Active; 'I' for Inactive)
REMARK    1  A    between atoms: C2_2  and  C25_28 
REMARK    2  A    between atoms: C3_3  and  C4_4 
REMARK    3  A    between atoms: C4_4  and  C6_6 
REMARK    4  A    between atoms: C20_20  and  O1_21 
REMARK    5  A    between atoms: C25_28  and  C27_30 
ROOT
HETATM    1  C6  UNL     1      -1.601   5.406  13.131  1.00  0.00     0.001 C 
HETATM    2  C7  UNL     1      -1.624   4.747  11.719  1.00  0.00     0.006 C 
HETATM    3  C8  UNL     1      -0.295   5.103  11.031  1.00  0.00     0.009 C 
HETATM    4  C9  UNL     1       0.491   5.837  12.113  1.00  0.00     0.036 C 
HETATM    5  C10 UNL     1      -0.585   6.586  12.941  1.00  0.00    -0.033 C 
HETATM    6  C11 UNL     1      -1.246   7.773  12.207  1.00  0.00     0.016 C 
HETATM    7  C12 UNL     1       0.109   7.079  14.227  1.00  0.00     0.010 C 
HETATM    8  C13 UNL     1       1.329   7.970  13.930  1.00  0.00     0.010 C 
HETATM    9  C14 UNL     1       2.360   7.290  13.008  1.00  0.00     0.039 C 
HETATM   10  C15 UNL     1       1.736   6.639  11.725  1.00  0.00     0.123 C 
HETATM   11  C16 UNL     1       1.613   7.605  10.577  1.00  0.00     0.014 C 
HETATM   12  C17 UNL     1       2.785   8.153  10.216  1.00  0.00     0.014 C 
HETATM   13  C18 UNL     1       3.946   7.773  11.118  1.00  0.00     0.124 C 
HETATM   14  C19 UNL     1       5.279   8.337  10.610  1.00  0.00     0.078 C 
HETATM   15  C20 UNL     1       6.420   8.248  11.631  1.00  0.00     0.121 C 
HETATM   16  C21 UNL     1       6.089   7.427  12.873  1.00  0.00     0.033 C 
HETATM   17  C22 UNL     1       4.806   7.897  13.564  1.00  0.00     0.015 C 
HETATM   18  C23 UNL     1       3.610   8.180  12.600  1.00  0.00     0.001 C 
HETATM   19  C24 UNL     1       3.306   9.700  12.683  1.00  0.00     0.019 C 
HETATM   20  O2  UNL     1       4.053   6.322  11.088  1.00  0.00    -0.223 OA
HETATM   21  O3  UNL     1       2.720   5.675  11.250  1.00  0.00    -0.224 OA
ENDROOT
BRANCH   1  22
HETATM   22  C4  UNL     1      -3.028   5.696  13.668  1.00  0.00     0.009 C 
HETATM   23  C5  UNL     1      -3.124   5.728  15.197  1.00  0.00     0.014 C 
BRANCH  22  24
HETATM   24  C3  UNL     1      -4.153   4.810  13.143  1.00  0.00    -0.019 C 
HETATM   25  C2  UNL     1      -5.491   4.989  13.084  1.00  0.00    -0.083 C 
HETATM   26  C1  UNL     1      -6.188   6.246  13.536  1.00  0.00     0.043 C 
BRANCH  25  27
HETATM   27  C25 UNL     1      -6.430   3.904  12.525  1.00  0.00     0.013 C 
HETATM   28  C26 UNL     1      -7.366   3.341  13.617  1.00  0.00     0.015 C 
BRANCH  27  29
HETATM   29  C27 UNL     1      -5.660   2.768  11.778  1.00  0.00    -0.015 C 
HETATM   30  C28 UNL     1      -6.468   1.465  11.705  1.00  0.00     0.010 C 
HETATM   31  C29 UNL     1      -5.253   3.168  10.354  1.00  0.00     0.010 C 
ENDBRANCH  27  29
ENDBRANCH  25  27
ENDBRANCH  22  24
ENDBRANCH   1  22
BRANCH  15  32
HETATM   32  O1  UNL     1       6.767   9.582  12.020  1.00  0.00    -0.395 OA
HETATM   33  H28 UNL     1       7.423   9.525  12.739  1.00  0.00     0.210 HD
ENDBRANCH  15  32
TORSDOF 5
ENDMDL
MODEL 4
REMARK minimizedAffinity -9.14930725
REMARK  5 active torsions:
REMARK  status: ('A' for Active; 'I' for Inactive)
REMARK    1  A    between atoms: C2_2  and  C25_28 
REMARK    2  A    between atoms: C3_3  and  C4_4 
REMARK    3  A    between atoms: C4_4  and  C6_6 
REMARK    4  A    between atoms: C20_20  and  O1_21 
REMARK    5  A    between atoms: C25_28  and  C27_30 
ROOT
HETATM    1  C6  UNL     1       1.718   7.062  10.373  1.00  0.00     0.001 C 
HETATM    2  C7  UNL     1       2.058   5.606  10.810  1.00  0.00     0.006 C 
HETATM    3  C8  UNL     1       0.957   5.156  11.786  1.00  0.00     0.009 C 
HETATM    4  C9  UNL     1      -0.037   6.314  11.772  1.00  0.00     0.036 C 
HETATM    5  C10 UNL     1       0.835   7.579  11.562  1.00  0.00    -0.033 C 
HETATM    6  C11 UNL     1       1.709   7.963  12.775  1.00  0.00     0.016 C 
HETATM    7  C12 UNL     1      -0.132   8.731  11.220  1.00  0.00     0.010 C 
HETATM    8  C13 UNL     1      -1.200   8.943  12.308  1.00  0.00     0.010 C 
HETATM    9  C14 UNL     1      -2.002   7.664  12.621  1.00  0.00     0.039 C 
HETATM   10  C15 UNL     1      -1.111   6.396  12.860  1.00  0.00     0.123 C 
HETATM   11  C16 UNL     1      -0.665   6.252  14.291  1.00  0.00     0.014 C 
HETATM   12  C17 UNL     1      -1.687   6.191  15.161  1.00  0.00     0.014 C 
HETATM   13  C18 UNL     1      -3.050   6.402  14.527  1.00  0.00     0.124 C 
HETATM   14  C19 UNL     1      -4.190   6.224  15.537  1.00  0.00     0.078 C 
HETATM   15  C20 UNL     1      -5.550   6.722  15.033  1.00  0.00     0.121 C 
HETATM   16  C21 UNL     1      -5.573   7.100  13.555  1.00  0.00     0.033 C 
HETATM   17  C22 UNL     1      -4.480   8.108  13.190  1.00  0.00     0.015 C 
HETATM   18  C23 UNL     1      -3.071   7.791  13.787  1.00  0.00     0.001 C 
HETATM   19  C24 UNL     1      -2.729   8.934  14.782  1.00  0.00     0.019 C 
HETATM   20  O2  UNL     1      -3.211   5.375  13.509  1.00  0.00    -0.223 OA
HETATM   21  O3  UNL     1      -1.989   5.251  12.664  1.00  0.00    -0.224 OA
ENDROOT
BRANCH   1  22
HETATM   22  C4  UNL     1       2.980   7.859   9.948  1.00  0.00     0.009 C 
HETATM   23  C5  UNL     1       3.129   8.030   8.432  1.00  0.00     0.014 C 
BRANCH  22  24
HETATM   24  C3  UNL     1       4.317   7.375  10.502  1.00  0.00    -0.019 C 
HETATM   25  C2  UNL     1       5.481   8.018  10.739  1.00  0.00    -0.083 C 
HETATM   26  C1  UNL     1       5.684   9.494  10.517  1.00  0.00     0.043 C 
BRANCH  25  27
HETATM   27  C25 UNL     1       6.718   7.279  11.283  1.00  0.00     0.013 C 
HETATM   28  C26 UNL     1       6.676   5.772  10.947  1.00  0.00     0.015 C 
BRANCH  27  29
HETATM   29  C27 UNL     1       6.947   7.527  12.809  1.00  0.00    -0.015 C 
HETATM   30  C28 UNL     1       7.811   8.766  13.077  1.00  0.00     0.010 C 
HETATM   31  C29 UNL     1       5.632   7.673  13.586  1.00  0.00     0.010 C 
ENDBRANCH  27  29
ENDBRANCH  25  27
ENDBRANCH  22  24
ENDBRANCH   1  22
BRANCH  15  32
HETATM   32  O1  UNL     1      -5.922   7.858  15.822  1.00  0.00    -0.395 OA
HETATM   33  H28 UNL     1      -6.737   8.235  15.442  1.00  0.00     0.210 HD
ENDBRANCH  15  32
TORSDOF 5
ENDMDL
MODEL 5
REMARK minimizedAffinity -9.06246281
REMARK  5 active torsions:
REMARK  status: ('A' for Active; 'I' for Inactive)
REMARK    1  A    between atoms: C2_2  and  C25_28 
REMARK    2  A    between atoms: C3_3  and  C4_4 
REMARK    3  A    between atoms: C4_4  and  C6_6 
REMARK    4  A    between atoms: C20_20  and  O1_21 
REMARK    5  A    between atoms: C25_28  and  C27_30 
ROOT
HETATM    1  C6  UNL     1       0.444   7.459  14.272  1.00  0.00     0.001 C 
HETATM    2  C7  UNL     1       0.328   9.003  14.097  1.00  0.00     0.006 C 
HETATM    3  C8  UNL     1      -1.164   9.361  14.214  1.00  0.00     0.009 C 
HETATM    4  C9  UNL     1      -1.829   8.038  14.580  1.00  0.00     0.036 C 
HETATM    5  C10 UNL     1      -0.983   6.959  13.855  1.00  0.00    -0.033 C 
HETATM    6  C11 UNL     1      -1.139   6.947  12.320  1.00  0.00     0.016 C 
HETATM    7  C12 UNL     1      -1.406   5.597  14.441  1.00  0.00     0.010 C 
HETATM    8  C13 UNL     1      -2.917   5.338  14.293  1.00  0.00     0.010 C 
HETATM    9  C14 UNL     1      -3.782   6.461  14.901  1.00  0.00     0.039 C 
HETATM   10  C15 UNL     1      -3.350   7.904  14.467  1.00  0.00     0.123 C 
HETATM   11  C16 UNL     1      -3.995   8.349  13.181  1.00  0.00     0.014 C 
HETATM   12  C17 UNL     1      -5.337   8.331  13.228  1.00  0.00     0.014 C 
HETATM   13  C18 UNL     1      -5.902   7.755  14.514  1.00  0.00     0.124 C 
HETATM   14  C19 UNL     1      -7.433   7.849  14.564  1.00  0.00     0.078 C 
HETATM   15  C20 UNL     1      -8.069   7.015  15.683  1.00  0.00     0.121 C 
HETATM   16  C21 UNL     1      -7.069   6.422  16.671  1.00  0.00     0.033 C 
HETATM   17  C22 UNL     1      -5.968   5.613  15.979  1.00  0.00     0.015 C 
HETATM   18  C23 UNL     1      -5.350   6.296  14.717  1.00  0.00     0.001 C 
HETATM   19  C24 UNL     1      -5.713   5.410  13.495  1.00  0.00     0.019 C 
HETATM   20  O2  UNL     1      -5.384   8.563  15.607  1.00  0.00    -0.223 OA
HETATM   21  O3  UNL     1      -3.921   8.804  15.459  1.00  0.00    -0.224 OA
ENDROOT
BRANCH   1  22
HETATM   22  C4  UNL     1       1.700   6.880  13.566  1.00  0.00     0.009 C 
HETATM   23  C5  UNL     1       2.977   7.696  13.797  1.00  0.00     0.014 C 
BRANCH  22  24
HETATM   24  C3  UNL     1       1.581   6.602  12.071  1.00  0.00    -0.019 C 
HETATM   25  C2  UNL     1       2.500   6.586  11.080  1.00  0.00    -0.083 C 
HETATM   26  C1  UNL     1       3.971   6.824  11.298  1.00  0.00     0.043 C 
BRANCH  25  27
HETATM   27  C25 UNL     1       2.109   6.303   9.618  1.00  0.00     0.013 C 
HETATM   28  C26 UNL     1       3.132   5.379   8.922  1.00  0.00     0.015 C 
BRANCH  27  29
HETATM   29  C27 UNL     1       1.855   7.609   8.798  1.00  0.00    -0.015 C 
HETATM   30  C28 UNL     1       2.095   7.412   7.295  1.00  0.00     0.010 C 
HETATM   31  C29 UNL     1       0.439   8.164   8.995  1.00  0.00     0.010 C 
ENDBRANCH  27  29
ENDBRANCH  25  27
ENDBRANCH  22  24
ENDBRANCH   1  22
BRANCH  15  32
HETATM   32  O1  UNL     1      -8.819   5.959  15.072  1.00  0.00    -0.395 OA
HETATM   33  H28 UNL     1      -9.143   5.371  15.779  1.00  0.00     0.210 HD
ENDBRANCH  15  32
TORSDOF 5
ENDMDL
MODEL 6
REMARK minimizedAffinity -9.04798412
REMARK  5 active torsions:
REMARK  status: ('A' for Active; 'I' for Inactive)
REMARK    1  A    between atoms: C2_2  and  C25_28 
REMARK    2  A    between atoms: C3_3  and  C4_4 
REMARK    3  A    between atoms: C4_4  and  C6_6 
REMARK    4  A    between atoms: C20_20  and  O1_21 
REMARK    5  A    between atoms: C25_28  and  C27_30 
ROOT
HETATM    1  C6  UNL     1      -5.043   8.670  14.412  1.00  0.00     0.001 C 
HETATM    2  C7  UNL     1      -4.780   9.547  15.673  1.00  0.00     0.006 C 
HETATM    3  C8  UNL     1      -3.255   9.658  15.837  1.00  0.00     0.009 C 
HETATM    4  C9  UNL     1      -2.703   8.956  14.600  1.00  0.00     0.036 C 
HETATM    5  C10 UNL     1      -3.724   7.829  14.299  1.00  0.00    -0.033 C 
HETATM    6  C11 UNL     1      -3.717   6.669  15.317  1.00  0.00     0.016 C 
HETATM    7  C12 UNL     1      -3.394   7.298  12.889  1.00  0.00     0.010 C 
HETATM    8  C13 UNL     1      -1.941   6.803  12.774  1.00  0.00     0.010 C 
HETATM    9  C14 UNL     1      -0.907   7.870  13.185  1.00  0.00     0.039 C 
HETATM   10  C15 UNL     1      -1.222   8.568  14.553  1.00  0.00     0.123 C 
HETATM   11  C16 UNL     1      -0.659   7.826  15.735  1.00  0.00     0.014 C 
HETATM   12  C17 UNL     1       0.672   7.657  15.671  1.00  0.00     0.014 C 
HETATM   13  C18 UNL     1       1.292   8.141  14.372  1.00  0.00     0.124 C 
HETATM   14  C19 UNL     1       2.822   8.022  14.384  1.00  0.00     0.078 C 
HETATM   15  C20 UNL     1       3.469   8.203  13.006  1.00  0.00     0.121 C 
HETATM   16  C21 UNL     1       2.511   8.679  11.919  1.00  0.00     0.033 C 
HETATM   17  C22 UNL     1       1.269   7.792  11.800  1.00  0.00     0.015 C 
HETATM   18  C23 UNL     1       0.610   7.403  13.162  1.00  0.00     0.001 C 
HETATM   19  C24 UNL     1       0.758   5.865  13.319  1.00  0.00     0.019 C 
HETATM   20  O2  UNL     1       0.970   9.554  14.246  1.00  0.00    -0.223 OA
HETATM   21  O3  UNL     1      -0.466   9.814  14.547  1.00  0.00    -0.224 OA
ENDROOT
BRANCH   1  22
HETATM   22  C4  UNL     1      -6.415   7.946  14.475  1.00  0.00     0.009 C 
HETATM   23  C5  UNL     1      -6.834   7.525  15.888  1.00  0.00     0.014 C 
BRANCH  22  24
HETATM   24  C3  UNL     1      -6.602   6.747  13.551  1.00  0.00    -0.019 C 
HETATM   25  C2  UNL     1      -6.917   5.457  13.799  1.00  0.00    -0.083 C 
HETATM   26  C1  UNL     1      -7.212   4.916  15.174  1.00  0.00     0.043 C 
BRANCH  25  27
HETATM   27  C25 UNL     1      -7.015   4.415  12.668  1.00  0.00     0.013 C 
HETATM   28  C26 UNL     1      -8.391   3.715  12.656  1.00  0.00     0.015 C 
BRANCH  27  29
HETATM   29  C27 UNL     1      -5.840   3.385  12.695  1.00  0.00    -0.015 C 
HETATM   30  C28 UNL     1      -5.874   2.428  11.496  1.00  0.00     0.010 C 
HETATM   31  C29 UNL     1      -4.464   4.060  12.738  1.00  0.00     0.010 C 
ENDBRANCH  27  29
ENDBRANCH  25  27
ENDBRANCH  22  24
ENDBRANCH   1  22
BRANCH  15  32
HETATM   32  O1  UNL     1       4.041   6.947  12.621  1.00  0.00    -0.395 OA
HETATM   33  H28 UNL     1       4.366   7.032  11.706  1.00  0.00     0.210 HD
ENDBRANCH  15  32
TORSDOF 5
ENDMDL
MODEL 7
REMARK minimizedAffinity -9.02430153
REMARK  5 active torsions:
REMARK  status: ('A' for Active; 'I' for Inactive)
REMARK    1  A    between atoms: C2_2  and  C25_28 
REMARK    2  A    between atoms: C3_3  and  C4_4 
REMARK    3  A    between atoms: C4_4  and  C6_6 
REMARK    4  A    between atoms: C20_20  and  O1_21 
REMARK    5  A    between atoms: C25_28  and  C27_30 
ROOT
HETATM    1  C6  UNL     1      -2.957   3.933  12.583  1.00  0.00     0.001 C 
HETATM    2  C7  UNL     1      -2.386   3.851  11.136  1.00  0.00     0.006 C 
HETATM    3  C8  UNL     1      -1.146   4.760  11.086  1.00  0.00     0.009 C 
HETATM    4  C9  UNL     1      -0.976   5.224  12.529  1.00  0.00     0.036 C 
HETATM    5  C10 UNL     1      -2.420   5.318  13.085  1.00  0.00    -0.033 C 
HETATM    6  C11 UNL     1      -3.255   6.480  12.505  1.00  0.00     0.016 C 
HETATM    7  C12 UNL     1      -2.296   5.468  14.615  1.00  0.00     0.010 C 
HETATM    8  C13 UNL     1      -1.444   6.685  15.019  1.00  0.00     0.010 C 
HETATM    9  C14 UNL     1      -0.041   6.675  14.380  1.00  0.00     0.039 C 
HETATM   10  C15 UNL     1      -0.046   6.401  12.836  1.00  0.00     0.123 C 
HETATM   11  C16 UNL     1      -0.214   7.653  12.017  1.00  0.00     0.014 C 
HETATM   12  C17 UNL     1       0.735   8.574  12.256  1.00  0.00     0.014 C 
HETATM   13  C18 UNL     1       1.688   8.201  13.378  1.00  0.00     0.124 C 
HETATM   14  C19 UNL     1       2.812   9.232  13.546  1.00  0.00     0.078 C 
HETATM   15  C20 UNL     1       3.612   9.071  14.844  1.00  0.00     0.121 C 
HETATM   16  C21 UNL     1       3.296   7.798  15.624  1.00  0.00     0.033 C 
HETATM   17  C22 UNL     1       1.800   7.640  15.910  1.00  0.00     0.015 C 
HETATM   18  C23 UNL     1       0.866   7.940  14.694  1.00  0.00     0.001 C 
HETATM   19  C24 UNL     1       0.027   9.194  15.061  1.00  0.00     0.019 C 
HETATM   20  O2  UNL     1       2.311   6.940  13.007  1.00  0.00    -0.223 OA
HETATM   21  O3  UNL     1       1.303   5.962  12.507  1.00  0.00    -0.224 OA
ENDROOT
BRANCH   1  22
HETATM   22  C4  UNL     1      -4.479   3.633  12.633  1.00  0.00     0.009 C 
HETATM   23  C5  UNL     1      -5.057   3.120  11.310  1.00  0.00     0.014 C 
BRANCH  22  24
HETATM   24  C3  UNL     1      -5.383   4.752  13.141  1.00  0.00    -0.019 C 
HETATM   25  C2  UNL     1      -6.643   4.743  13.629  1.00  0.00    -0.083 C 
HETATM   26  C1  UNL     1      -7.459   3.490  13.821  1.00  0.00     0.043 C 
BRANCH  25  27
HETATM   27  C25 UNL     1      -7.358   6.040  14.052  1.00  0.00     0.013 C 
HETATM   28  C26 UNL     1      -6.428   7.268  13.935  1.00  0.00     0.015 C 
BRANCH  27  29
HETATM   29  C27 UNL     1      -8.006   5.936  15.470  1.00  0.00    -0.015 C 
HETATM   30  C28 UNL     1      -7.000   6.214  16.595  1.00  0.00     0.010 C 
HETATM   31  C29 UNL     1      -9.202   6.882  15.643  1.00  0.00     0.010 C 
ENDBRANCH  27  29
ENDBRANCH  25  27
ENDBRANCH  22  24
ENDBRANCH   1  22
BRANCH  15  32
HETATM   32  O1  UNL     1       3.348  10.212  15.668  1.00  0.00    -0.395 OA
HETATM   33  H28 UNL     1       3.776  10.067  16.531  1.00  0.00     0.210 HD
ENDBRANCH  15  32
TORSDOF 5
ENDMDL
MODEL 8
REMARK minimizedAffinity -8.9721117
REMARK  5 active torsions:
REMARK  status: ('A' for Active; 'I' for Inactive)
REMARK    1  A    between atoms: C2_2  and  C25_28 
REMARK    2  A    between atoms: C3_3  and  C4_4 
REMARK    3  A    between atoms: C4_4  and  C6_6 
REMARK    4  A    between atoms: C20_20  and  O1_21 
REMARK    5  A    between atoms: C25_28  and  C27_30 
ROOT
HETATM    1  C6  UNL     1      -4.759   6.361  14.840  1.00  0.00     0.001 C 
HETATM    2  C7  UNL     1      -3.379   5.685  14.583  1.00  0.00     0.006 C 
HETATM    3  C8  UNL     1      -2.295   6.707  14.966  1.00  0.00     0.009 C 
HETATM    4  C9  UNL     1      -3.085   7.875  15.548  1.00  0.00     0.036 C 
HETATM    5  C10 UNL     1      -4.414   7.888  14.749  1.00  0.00    -0.033 C 
HETATM    6  C11 UNL     1      -4.273   8.338  13.278  1.00  0.00     0.016 C 
HETATM    7  C12 UNL     1      -5.374   8.832  15.501  1.00  0.00     0.010 C 
HETATM    8  C13 UNL     1      -4.792  10.247  15.671  1.00  0.00     0.010 C 
HETATM    9  C14 UNL     1      -3.411  10.251  16.357  1.00  0.00     0.039 C 
HETATM   10  C15 UNL     1      -2.393   9.227  15.746  1.00  0.00     0.123 C 
HETATM   11  C16 UNL     1      -1.618   9.790  14.585  1.00  0.00     0.014 C 
HETATM   12  C17 UNL     1      -0.929  10.900  14.896  1.00  0.00     0.014 C 
HETATM   13  C18 UNL     1      -1.179  11.407  16.305  1.00  0.00     0.124 C 
HETATM   14  C19 UNL     1      -0.296  12.613  16.649  1.00  0.00     0.078 C 
HETATM   15  C20 UNL     1      -0.720  13.347  17.927  1.00  0.00     0.121 C 
HETATM   16  C21 UNL     1      -1.794  12.629  18.739  1.00  0.00     0.033 C 
HETATM   17  C22 UNL     1      -3.028  12.283  17.903  1.00  0.00     0.015 C 
HETATM   18  C23 UNL     1      -2.718  11.672  16.499  1.00  0.00     0.001 C 
HETATM   19  C24 UNL     1      -3.224  12.686  15.437  1.00  0.00     0.019 C 
HETATM   20  O2  UNL     1      -0.814  10.332  17.216  1.00  0.00    -0.223 OA
HETATM   21  O3  UNL     1      -1.373   9.025  16.766  1.00  0.00    -0.224 OA
ENDROOT
BRANCH   1  22
HETATM   22  C4  UNL     1      -5.879   5.769  13.943  1.00  0.00     0.009 C 
HETATM   23  C5  UNL     1      -7.054   5.172  14.726  1.00  0.00     0.014 C 
BRANCH  22  24
HETATM   24  C3  UNL     1      -5.451   4.755  12.888  1.00  0.00    -0.019 C 
HETATM   25  C2  UNL     1      -6.032   3.621  12.437  1.00  0.00    -0.083 C 
HETATM   26  C1  UNL     1      -7.371   3.119  12.914  1.00  0.00     0.043 C 
BRANCH  25  27
HETATM   27  C25 UNL     1      -5.365   2.739  11.365  1.00  0.00     0.013 C 
HETATM   28  C26 UNL     1      -5.990   1.328  11.318  1.00  0.00     0.015 C 
BRANCH  27  29
HETATM   29  C27 UNL     1      -3.810   2.680  11.516  1.00  0.00    -0.015 C 
HETATM   30  C28 UNL     1      -3.286   1.242  11.607  1.00  0.00     0.010 C 
HETATM   31  C29 UNL     1      -3.079   3.393  10.371  1.00  0.00     0.010 C 
ENDBRANCH  27  29
ENDBRANCH  25  27
ENDBRANCH  22  24
ENDBRANCH   1  22
BRANCH  15  32
HETATM   32  O1  UNL     1      -1.194  14.645  17.552  1.00  0.00    -0.395 OA
HETATM   33  H28 UNL     1      -1.554  15.077  18.349  1.00  0.00     0.210 HD
ENDBRANCH  15  32
TORSDOF 5
ENDMDL
MODEL 9
REMARK minimizedAffinity -8.78663635
REMARK  5 active torsions:
REMARK  status: ('A' for Active; 'I' for Inactive)
REMARK    1  A    between atoms: C2_2  and  C25_28 
REMARK    2  A    between atoms: C3_3  and  C4_4 
REMARK    3  A    between atoms: C4_4  and  C6_6 
REMARK    4  A    between atoms: C20_20  and  O1_21 
REMARK    5  A    between atoms: C25_28  and  C27_30 
ROOT
HETATM    1  C6  UNL     1      -1.887   5.302  13.233  1.00  0.00     0.001 C 
HETATM    2  C7  UNL     1      -0.851   5.898  12.234  1.00  0.00     0.006 C 
HETATM    3  C8  UNL     1      -0.492   7.306  12.739  1.00  0.00     0.009 C 
HETATM    4  C9  UNL     1      -1.231   7.415  14.070  1.00  0.00     0.036 C 
HETATM    5  C10 UNL     1      -2.525   6.585  13.871  1.00  0.00    -0.033 C 
HETATM    6  C11 UNL     1      -3.555   7.225  12.915  1.00  0.00     0.016 C 
HETATM    7  C12 UNL     1      -3.148   6.394  15.268  1.00  0.00     0.010 C 
HETATM    8  C13 UNL     1      -3.426   7.732  15.975  1.00  0.00     0.010 C 
HETATM    9  C14 UNL     1      -2.177   8.630  16.079  1.00  0.00     0.039 C 
HETATM   10  C15 UNL     1      -1.392   8.787  14.730  1.00  0.00     0.123 C 
HETATM   11  C16 UNL     1      -1.910   9.914  13.877  1.00  0.00     0.014 C 
HETATM   12  C17 UNL     1      -1.881  11.105  14.497  1.00  0.00     0.014 C 
HETATM   13  C18 UNL     1      -1.450  11.033  15.951  1.00  0.00     0.124 C 
HETATM   14  C19 UNL     1      -1.333  12.424  16.588  1.00  0.00     0.078 C 
HETATM   15  C20 UNL     1      -1.205  12.398  18.116  1.00  0.00     0.121 C 
HETATM   16  C21 UNL     1      -0.999  11.007  18.706  1.00  0.00     0.033 C 
HETATM   17  C22 UNL     1      -2.072  10.012  18.256  1.00  0.00     0.015 C 
HETATM   18  C23 UNL     1      -2.408  10.058  16.731  1.00  0.00     0.001 C 
HETATM   19  C24 UNL     1      -3.880  10.536  16.602  1.00  0.00     0.019 C 
HETATM   20  O2  UNL     1      -0.124  10.436  15.974  1.00  0.00    -0.223 OA
HETATM   21  O3  UNL     1      -0.055   9.231  15.099  1.00  0.00    -0.224 OA
ENDROOT
BRANCH   1  22
HETATM   22  C4  UNL     1      -2.800   4.237  12.569  1.00  0.00     0.009 C 
HETATM   23  C5  UNL     1      -2.752   4.243  11.037  1.00  0.00     0.014 C 
BRANCH  22  24
HETATM   24  C3  UNL     1      -4.264   4.225  12.995  1.00  0.00    -0.019 C 
HETATM   25  C2  UNL     1      -5.315   3.475  12.594  1.00  0.00    -0.083 C 
HETATM   26  C1  UNL     1      -5.215   2.370  11.575  1.00  0.00     0.043 C 
BRANCH  25  27
HETATM   27  C25 UNL     1      -6.727   3.686  13.170  1.00  0.00     0.013 C 
HETATM   28  C26 UNL     1      -7.731   2.652  12.614  1.00  0.00     0.015 C 
BRANCH  27  29
HETATM   29  C27 UNL     1      -7.241   5.151  12.984  1.00  0.00    -0.015 C 
HETATM   30  C28 UNL     1      -8.603   5.207  12.281  1.00  0.00     0.010 C 
HETATM   31  C29 UNL     1      -7.348   5.911  14.312  1.00  0.00     0.010 C 
ENDBRANCH  27  29
ENDBRANCH  25  27
ENDBRANCH  22  24
ENDBRANCH   1  22
BRANCH  15  32
HETATM   32  O1  UNL     1      -2.393  12.978  18.667  1.00  0.00    -0.395 OA
HETATM   33  H28 UNL     1      -2.358  12.875  19.635  1.00  0.00     0.210 HD
ENDBRANCH  15  32
TORSDOF 5
ENDMDL
