MODEL 1
REMARK minimizedAffinity -7.89791203
REMARK CNNscore 0.608285964
REMARK CNNaffinity 7.00943804
REMARK  13 active torsions:
REMARK  status: ('A' for Active; 'I' for Inactive)
REMARK    1  A    between atoms: C2_2  and  C3_3 
REMARK    2  A    between atoms: C3_3  and  C5_5 
REMARK    3  A    between atoms: C5_5  and  N1_6 
REMARK    4  A    between atoms: C5_5  and  C31_39 
REMARK       I    between atoms: N1_6  and  C6_7 
REMARK    5  A    between atoms: C6_7  and  C7_9 
REMARK    6  A    between atoms: C7_9  and  C8_10 
REMARK    7  A    between atoms: C8_10  and  C9_11 
REMARK    8  A    between atoms: C9_11  and  O3_13 
REMARK    9  A    between atoms: O3_13  and  C10_14 
REMARK   10  A    between atoms: C10_14  and  C11_15 
REMARK   11  A    between atoms: C11_15  and  C12_17 
REMARK   12  A    between atoms: C12_17  and  O5_18 
REMARK   13  A    between atoms: C31_39  and  O9_41 
ROOT
HETATM    1  C12 UNL     1      -1.885   5.929  13.777  1.00  0.00     0.128 C 
HETATM    2  C13 UNL     1      -0.720   6.312  12.837  1.00  0.00     0.047 C 
HETATM    3  C14 UNL     1      -0.361   7.775  13.166  1.00  0.00     0.009 C 
HETATM    4  C15 UNL     1      -1.222   8.127  14.376  1.00  0.00     0.002 C 
HETATM    5  C16 UNL     1      -1.496   9.608  14.676  1.00  0.00     0.003 C 
HETATM    6  C17 UNL     1      -0.185  10.388  14.848  1.00  0.00     0.010 C 
HETATM    7  C18 UNL     1      -0.453  11.849  15.184  1.00  0.00     0.035 C 
HETATM    8  C19 UNL     1      -1.346  11.997  16.393  1.00  0.00    -0.067 C 
HETATM    9  C20 UNL     1      -0.971  12.816  17.391  1.00  0.00     0.053 C 
HETATM   10  C21 UNL     1      -1.853  13.096  18.546  1.00  0.00     0.149 C 
HETATM   11  O6  UNL     1      -1.445  13.807  19.461  1.00  0.00    -0.293 OA
HETATM   12  C22 UNL     1      -3.257  12.555  18.507  1.00  0.00     0.084 C 
HETATM   13  C23 UNL     1      -3.278  11.196  17.822  1.00  0.00     0.022 C 
HETATM   14  C24 UNL     1      -2.664  11.199  16.389  1.00  0.00    -0.009 C 
HETATM   15  C25 UNL     1      -3.629  11.904  15.409  1.00  0.00     0.021 C 
HETATM   16  C26 UNL     1      -2.357   9.715  15.969  1.00  0.00     0.072 C 
HETATM   17  C27 UNL     1      -3.585   8.784  15.862  1.00  0.00     0.133 C 
HETATM   18  O7  UNL     1      -4.729   9.138  16.137  1.00  0.00    -0.297 OA
HETATM   19  C28 UNL     1      -3.314   7.336  15.468  1.00  0.00     0.091 C 
HETATM   20  C29 UNL     1      -2.515   7.298  14.159  1.00  0.00     0.005 C 
HETATM   21  C30 UNL     1      -3.404   7.841  13.011  1.00  0.00     0.019 C 
ENDROOT
BRANCH   1  22
HETATM   22  C11 UNL     1      -2.874   4.867  13.259  1.00  0.00     0.185 C 
HETATM   23  O4  UNL     1      -4.044   4.889  13.668  1.00  0.00    -0.292 OA
BRANCH  22  24
HETATM   24  C10 UNL     1      -2.377   3.794  12.294  1.00  0.00     0.260 C 
BRANCH  24  25
HETATM   25  O3  UNL     1      -3.441   2.996  11.774  1.00  0.00    -0.314 OA
BRANCH  25  26
HETATM   26  C9  UNL     1      -3.963   3.447  10.601  1.00  0.00     0.259 C 
HETATM   27  O2  UNL     1      -3.302   3.820   9.641  1.00  0.00    -0.265 OA
BRANCH  26  28
HETATM   28  C8  UNL     1      -5.461   3.446  10.657  1.00  0.00     0.120 C 
BRANCH  28  29
HETATM   29  C7  UNL     1      -5.947   2.277  11.497  1.00  0.00     0.112 C 
BRANCH  29  30
HETATM   30  C6  UNL     1      -6.916   2.729  12.566  1.00  0.00     0.218 C 
HETATM   31  N1  UNL     1      -6.810   4.070  12.853  1.00  0.00    -0.346 N 
HETATM   32  H11 UNL     1      -6.359   4.670  12.167  1.00  0.00     0.163 HD
HETATM   33  O1  UNL     1      -7.698   1.976  13.133  1.00  0.00    -0.274 OA
BRANCH  31  34
HETATM   34  C5  UNL     1      -7.765   4.749  13.741  1.00  0.00     0.186 C 
BRANCH  34  35
HETATM   35  C3  UNL     1      -7.039   5.696  14.736  1.00  0.00     0.014 C 
HETATM   36  C4  UNL     1      -6.789   7.069  14.093  1.00  0.00     0.012 C 
BRANCH  35  37
HETATM   37  C2  UNL     1      -7.835   5.855  16.055  1.00  0.00     0.002 C 
HETATM   38  C1  UNL     1      -7.732   7.239  16.685  1.00  0.00     0.005 C 
ENDBRANCH  35  37
ENDBRANCH  34  35
BRANCH  34  39
HETATM   39  C31 UNL     1      -8.743   5.533  12.844  1.00  0.00     0.163 C 
HETATM   40  O8  UNL     1      -9.710   6.185  13.203  1.00  0.00    -0.648 OA
BRANCH  39  41
HETATM   41  O9  UNL     1      -8.401   5.514  11.531  1.00  0.00    -0.775 OA
HETATM   42  H43 UNL     1      -9.097   6.056  11.103  1.00  0.00     0.167 HD
ENDBRANCH  39  41
ENDBRANCH  34  39
ENDBRANCH  31  34
ENDBRANCH  29  30
ENDBRANCH  28  29
ENDBRANCH  26  28
ENDBRANCH  25  26
ENDBRANCH  24  25
ENDBRANCH  22  24
ENDBRANCH   1  22
BRANCH   1  43
HETATM   43  O5  UNL     1      -1.287   5.338  14.950  1.00  0.00    -0.381 OA
HETATM   44  H18 UNL     1      -1.995   4.832  15.399  1.00  0.00     0.211 HD
ENDBRANCH   1  43
TORSDOF 13
ENDMDL
MODEL 2
REMARK minimizedAffinity -9.28860188
REMARK CNNscore 0.579928696
REMARK CNNaffinity 6.79278183
REMARK  13 active torsions:
REMARK  status: ('A' for Active; 'I' for Inactive)
REMARK    1  A    between atoms: C2_2  and  C3_3 
REMARK    2  A    between atoms: C3_3  and  C5_5 
REMARK    3  A    between atoms: C5_5  and  N1_6 
REMARK    4  A    between atoms: C5_5  and  C31_39 
REMARK       I    between atoms: N1_6  and  C6_7 
REMARK    5  A    between atoms: C6_7  and  C7_9 
REMARK    6  A    between atoms: C7_9  and  C8_10 
REMARK    7  A    between atoms: C8_10  and  C9_11 
REMARK    8  A    between atoms: C9_11  and  O3_13 
REMARK    9  A    between atoms: O3_13  and  C10_14 
REMARK   10  A    between atoms: C10_14  and  C11_15 
REMARK   11  A    between atoms: C11_15  and  C12_17 
REMARK   12  A    between atoms: C12_17  and  O5_18 
REMARK   13  A    between atoms: C31_39  and  O9_41 
ROOT
HETATM    1  C12 UNL     1      -1.392   7.925  13.315  1.00  0.00     0.128 C 
HETATM    2  C13 UNL     1      -1.051   6.514  12.787  1.00  0.00     0.047 C 
HETATM    3  C14 UNL     1      -2.361   5.702  12.842  1.00  0.00     0.009 C 
HETATM    4  C15 UNL     1      -3.430   6.712  13.250  1.00  0.00     0.002 C 
HETATM    5  C16 UNL     1      -4.735   6.188  13.869  1.00  0.00     0.003 C 
HETATM    6  C17 UNL     1      -5.430   5.192  12.932  1.00  0.00     0.010 C 
HETATM    7  C18 UNL     1      -6.744   4.701  13.525  1.00  0.00     0.035 C 
HETATM    8  C19 UNL     1      -7.660   5.844  13.893  1.00  0.00    -0.067 C 
HETATM    9  C20 UNL     1      -8.936   5.827  13.469  1.00  0.00     0.053 C 
HETATM   10  C21 UNL     1      -9.915   6.853  13.892  1.00  0.00     0.149 C 
HETATM   11  O6  UNL     1     -11.054   6.829  13.434  1.00  0.00    -0.293 OA
HETATM   12  C22 UNL     1      -9.486   7.844  14.940  1.00  0.00     0.084 C 
HETATM   13  C23 UNL     1      -8.016   8.197  14.762  1.00  0.00     0.022 C 
HETATM   14  C24 UNL     1      -7.063   6.962  14.769  1.00  0.00    -0.009 C 
HETATM   15  C25 UNL     1      -6.937   6.408  16.206  1.00  0.00     0.021 C 
HETATM   16  C26 UNL     1      -5.677   7.393  14.165  1.00  0.00     0.072 C 
HETATM   17  C27 UNL     1      -4.912   8.477  14.956  1.00  0.00     0.133 C 
HETATM   18  O7  UNL     1      -5.360   9.025  15.962  1.00  0.00    -0.297 OA
HETATM   19  C28 UNL     1      -3.569   8.921  14.387  1.00  0.00     0.091 C 
HETATM   20  C29 UNL     1      -2.668   7.698  14.173  1.00  0.00     0.005 C 
HETATM   21  C30 UNL     1      -2.309   7.091  15.553  1.00  0.00     0.019 C 
ENDROOT
BRANCH   1  22
HETATM   22  C11 UNL     1      -0.256   8.699  14.010  1.00  0.00     0.185 C 
HETATM   23  O4  UNL     1       0.626   9.221  13.312  1.00  0.00    -0.292 OA
BRANCH  22  24
HETATM   24  C10 UNL     1      -0.222   8.763  15.535  1.00  0.00     0.260 C 
BRANCH  24  25
HETATM   25  O3  UNL     1       0.202  10.040  16.015  1.00  0.00    -0.314 OA
BRANCH  25  26
HETATM   26  C9  UNL     1      -0.358  10.413  17.198  1.00  0.00     0.259 C 
HETATM   27  O2  UNL     1      -1.461  10.056  17.591  1.00  0.00    -0.265 OA
BRANCH  26  28
HETATM   28  C8  UNL     1       0.555  11.341  17.942  1.00  0.00     0.120 C 
BRANCH  28  29
HETATM   29  C7  UNL     1       0.462  11.071  19.434  1.00  0.00     0.112 C 
BRANCH  29  30
HETATM   30  C6  UNL     1       1.735  10.449  19.963  1.00  0.00     0.218 C 
HETATM   31  N1  UNL     1       1.898  10.627  21.317  1.00  0.00    -0.346 N 
HETATM   32  H11 UNL     1       1.076  10.861  21.869  1.00  0.00     0.163 HD
HETATM   33  O1  UNL     1       2.547   9.865  19.255  1.00  0.00    -0.274 OA
BRANCH  31  34
HETATM   34  C5  UNL     1       2.980   9.965  22.061  1.00  0.00     0.186 C 
BRANCH  34  35
HETATM   35  C3  UNL     1       3.629  10.927  23.093  1.00  0.00     0.014 C 
HETATM   36  C4  UNL     1       5.158  10.936  22.939  1.00  0.00     0.012 C 
BRANCH  35  37
HETATM   37  C2  UNL     1       3.065  12.364  22.967  1.00  0.00     0.002 C 
HETATM   38  C1  UNL     1       4.128  13.455  22.971  1.00  0.00     0.005 C 
ENDBRANCH  35  37
ENDBRANCH  34  35
BRANCH  34  39
HETATM   39  C31 UNL     1       2.365   8.736  22.759  1.00  0.00     0.163 C 
HETATM   40  O8  UNL     1       1.883   7.750  22.225  1.00  0.00    -0.648 OA
BRANCH  39  41
HETATM   41  O9  UNL     1       2.462   8.781  24.111  1.00  0.00    -0.775 OA
HETATM   42  H43 UNL     1       2.048   7.941  24.401  1.00  0.00     0.167 HD
ENDBRANCH  39  41
ENDBRANCH  34  39
ENDBRANCH  31  34
ENDBRANCH  29  30
ENDBRANCH  28  29
ENDBRANCH  26  28
ENDBRANCH  25  26
ENDBRANCH  24  25
ENDBRANCH  22  24
ENDBRANCH   1  22
BRANCH   1  43
HETATM   43  O5  UNL     1      -1.733   8.722  12.160  1.00  0.00    -0.381 OA
HETATM   44  H18 UNL     1      -1.655   9.658  12.436  1.00  0.00     0.211 HD
ENDBRANCH   1  43
TORSDOF 13
ENDMDL
MODEL 3
REMARK minimizedAffinity -7.62909508
REMARK CNNscore 0.579133451
REMARK CNNaffinity 7.36276007
REMARK  13 active torsions:
REMARK  status: ('A' for Active; 'I' for Inactive)
REMARK    1  A    between atoms: C2_2  and  C3_3 
REMARK    2  A    between atoms: C3_3  and  C5_5 
REMARK    3  A    between atoms: C5_5  and  N1_6 
REMARK    4  A    between atoms: C5_5  and  C31_39 
REMARK       I    between atoms: N1_6  and  C6_7 
REMARK    5  A    between atoms: C6_7  and  C7_9 
REMARK    6  A    between atoms: C7_9  and  C8_10 
REMARK    7  A    between atoms: C8_10  and  C9_11 
REMARK    8  A    between atoms: C9_11  and  O3_13 
REMARK    9  A    between atoms: O3_13  and  C10_14 
REMARK   10  A    between atoms: C10_14  and  C11_15 
REMARK   11  A    between atoms: C11_15  and  C12_17 
REMARK   12  A    between atoms: C12_17  and  O5_18 
REMARK   13  A    between atoms: C31_39  and  O9_41 
ROOT
HETATM    1  C12 UNL     1      -2.928   8.462  15.546  1.00  0.00     0.128 C 
HETATM    2  C13 UNL     1      -4.148   9.387  15.750  1.00  0.00     0.047 C 
HETATM    3  C14 UNL     1      -5.361   8.644  15.155  1.00  0.00     0.009 C 
HETATM    4  C15 UNL     1      -4.827   7.267  14.773  1.00  0.00     0.002 C 
HETATM    5  C16 UNL     1      -5.599   6.445  13.730  1.00  0.00     0.003 C 
HETATM    6  C17 UNL     1      -7.055   6.228  14.165  1.00  0.00     0.010 C 
HETATM    7  C18 UNL     1      -7.813   5.380  13.152  1.00  0.00     0.035 C 
HETATM    8  C19 UNL     1      -7.117   4.068  12.880  1.00  0.00    -0.067 C 
HETATM    9  C20 UNL     1      -7.821   2.924  12.951  1.00  0.00     0.053 C 
HETATM   10  C21 UNL     1      -7.229   1.618  12.581  1.00  0.00     0.149 C 
HETATM   11  O6  UNL     1      -7.894   0.594  12.715  1.00  0.00    -0.293 OA
HETATM   12  C22 UNL     1      -5.852   1.616  11.974  1.00  0.00     0.084 C 
HETATM   13  C23 UNL     1      -4.998   2.708  12.604  1.00  0.00     0.022 C 
HETATM   14  C24 UNL     1      -5.623   4.133  12.511  1.00  0.00    -0.009 C 
HETATM   15  C25 UNL     1      -5.528   4.652  11.058  1.00  0.00     0.021 C 
HETATM   16  C26 UNL     1      -4.888   5.073  13.536  1.00  0.00     0.072 C 
HETATM   17  C27 UNL     1      -3.381   5.293  13.278  1.00  0.00     0.133 C 
HETATM   18  O7  UNL     1      -2.761   4.738  12.373  1.00  0.00    -0.297 OA
HETATM   19  C28 UNL     1      -2.642   6.191  14.263  1.00  0.00     0.091 C 
HETATM   20  C29 UNL     1      -3.357   7.544  14.366  1.00  0.00     0.005 C 
HETATM   21  C30 UNL     1      -3.227   8.286  13.011  1.00  0.00     0.019 C 
ENDROOT
BRANCH   1  22
HETATM   22  C11 UNL     1      -1.557   9.145  15.389  1.00  0.00     0.185 C 
HETATM   23  O4  UNL     1      -1.417  10.012  14.514  1.00  0.00    -0.292 OA
BRANCH  22  24
HETATM   24  C10 UNL     1      -0.399   8.706  16.282  1.00  0.00     0.260 C 
BRANCH  24  25
HETATM   25  O3  UNL     1       0.117   7.426  15.913  1.00  0.00    -0.314 OA
BRANCH  25  26
HETATM   26  C9  UNL     1       1.062   7.459  14.935  1.00  0.00     0.259 C 
HETATM   27  O2  UNL     1       1.807   8.405  14.716  1.00  0.00    -0.265 OA
BRANCH  26  28
HETATM   28  C8  UNL     1       1.049   6.183  14.148  1.00  0.00     0.120 C 
BRANCH  28  29
HETATM   29  C7  UNL     1       0.153   6.335  12.931  1.00  0.00     0.112 C 
BRANCH  29  30
HETATM   30  C6  UNL     1       0.837   5.843  11.676  1.00  0.00     0.218 C 
HETATM   31  N1  UNL     1       1.991   6.533  11.388  1.00  0.00    -0.346 N 
HETATM   32  H11 UNL     1       2.433   7.057  12.140  1.00  0.00     0.163 HD
HETATM   33  O1  UNL     1       0.398   4.938  10.975  1.00  0.00    -0.274 OA
BRANCH  31  34
HETATM   34  C5  UNL     1       2.897   6.112  10.308  1.00  0.00     0.186 C 
BRANCH  34  35
HETATM   35  C3  UNL     1       2.621   6.899   8.998  1.00  0.00     0.014 C 
HETATM   36  C4  UNL     1       3.530   8.134   8.906  1.00  0.00     0.012 C 
BRANCH  35  37
HETATM   37  C2  UNL     1       2.798   6.004   7.746  1.00  0.00     0.002 C 
HETATM   38  C1  UNL     1       2.132   6.548   6.489  1.00  0.00     0.005 C 
ENDBRANCH  35  37
ENDBRANCH  34  35
BRANCH  34  39
HETATM   39  C31 UNL     1       4.337   6.348  10.804  1.00  0.00     0.163 C 
HETATM   40  O8  UNL     1       5.352   6.385  10.126  1.00  0.00    -0.648 OA
BRANCH  39  41
HETATM   41  O9  UNL     1       4.413   6.604  12.133  1.00  0.00    -0.775 OA
HETATM   42  H43 UNL     1       5.371   6.742  12.288  1.00  0.00     0.167 HD
ENDBRANCH  39  41
ENDBRANCH  34  39
ENDBRANCH  31  34
ENDBRANCH  29  30
ENDBRANCH  28  29
ENDBRANCH  26  28
ENDBRANCH  25  26
ENDBRANCH  24  25
ENDBRANCH  22  24
ENDBRANCH   1  22
BRANCH   1  43
HETATM   43  O5  UNL     1      -2.813   7.667  16.745  1.00  0.00    -0.381 OA
HETATM   44  H18 UNL     1      -1.901   7.309  16.756  1.00  0.00     0.211 HD
ENDBRANCH   1  43
TORSDOF 13
ENDMDL
MODEL 4
REMARK minimizedAffinity -9.21533108
REMARK CNNscore 0.356322497
REMARK CNNaffinity 7.15002584
REMARK  13 active torsions:
REMARK  status: ('A' for Active; 'I' for Inactive)
REMARK    1  A    between atoms: C2_2  and  C3_3 
REMARK    2  A    between atoms: C3_3  and  C5_5 
REMARK    3  A    between atoms: C5_5  and  N1_6 
REMARK    4  A    between atoms: C5_5  and  C31_39 
REMARK       I    between atoms: N1_6  and  C6_7 
REMARK    5  A    between atoms: C6_7  and  C7_9 
REMARK    6  A    between atoms: C7_9  and  C8_10 
REMARK    7  A    between atoms: C8_10  and  C9_11 
REMARK    8  A    between atoms: C9_11  and  O3_13 
REMARK    9  A    between atoms: O3_13  and  C10_14 
REMARK   10  A    between atoms: C10_14  and  C11_15 
REMARK   11  A    between atoms: C11_15  and  C12_17 
REMARK   12  A    between atoms: C12_17  and  O5_18 
REMARK   13  A    between atoms: C31_39  and  O9_41 
ROOT
HETATM    1  C12 UNL     1      -1.856   5.989  13.148  1.00  0.00     0.128 C 
HETATM    2  C13 UNL     1      -1.960   4.651  12.383  1.00  0.00     0.047 C 
HETATM    3  C14 UNL     1      -3.457   4.283  12.352  1.00  0.00     0.009 C 
HETATM    4  C15 UNL     1      -4.168   5.488  12.961  1.00  0.00     0.002 C 
HETATM    5  C16 UNL     1      -5.580   5.294  13.534  1.00  0.00     0.003 C 
HETATM    6  C17 UNL     1      -6.535   4.732  12.472  1.00  0.00     0.010 C 
HETATM    7  C18 UNL     1      -7.944   4.575  13.025  1.00  0.00     0.035 C 
HETATM    8  C19 UNL     1      -8.469   5.864  13.611  1.00  0.00    -0.067 C 
HETATM    9  C20 UNL     1      -9.681   6.311  13.237  1.00  0.00     0.053 C 
HETATM   10  C21 UNL     1     -10.302   7.502  13.860  1.00  0.00     0.149 C 
HETATM   11  O6  UNL     1     -11.385   7.905  13.447  1.00  0.00    -0.293 OA
HETATM   12  C22 UNL     1      -9.604   8.123  15.040  1.00  0.00     0.084 C 
HETATM   13  C23 UNL     1      -8.094   8.032  14.867  1.00  0.00     0.022 C 
HETATM   14  C24 UNL     1      -7.570   6.582  14.635  1.00  0.00    -0.009 C 
HETATM   15  C25 UNL     1      -7.642   5.783  15.956  1.00  0.00     0.021 C 
HETATM   16  C26 UNL     1      -6.109   6.662  14.059  1.00  0.00     0.072 C 
HETATM   17  C27 UNL     1      -5.059   7.309  14.989  1.00  0.00     0.133 C 
HETATM   18  O7  UNL     1      -5.331   7.791  16.086  1.00  0.00    -0.297 OA
HETATM   19  C28 UNL     1      -3.636   7.409  14.450  1.00  0.00     0.091 C 
HETATM   20  C29 UNL     1      -3.153   6.024  14.005  1.00  0.00     0.005 C 
HETATM   21  C30 UNL     1      -3.020   5.112  15.251  1.00  0.00     0.019 C 
ENDROOT
BRANCH   1  22
HETATM   22  C11 UNL     1      -0.548   6.248  13.918  1.00  0.00     0.185 C 
HETATM   23  O4  UNL     1       0.456   5.578  13.636  1.00  0.00    -0.292 OA
BRANCH  22  24
HETATM   24  C10 UNL     1      -0.534   7.290  15.034  1.00  0.00     0.260 C 
BRANCH  24  25
HETATM   25  O3  UNL     1       0.428   8.320  14.804  1.00  0.00    -0.314 OA
BRANCH  25  26
HETATM   26  C9  UNL     1       1.681   8.032  15.251  1.00  0.00     0.259 C 
HETATM   27  O2  UNL     1       1.957   7.721  16.402  1.00  0.00    -0.265 OA
BRANCH  26  28
HETATM   28  C8  UNL     1       2.680   8.172  14.142  1.00  0.00     0.120 C 
BRANCH  28  29
HETATM   29  C7  UNL     1       2.166   9.154  13.103  1.00  0.00     0.112 C 
BRANCH  29  30
HETATM   30  C6  UNL     1       1.689   8.442  11.858  1.00  0.00     0.218 C 
HETATM   31  N1  UNL     1       2.664   7.665  11.277  1.00  0.00    -0.346 N 
HETATM   32  H11 UNL     1       3.461   7.395  11.849  1.00  0.00     0.163 HD
HETATM   33  O1  UNL     1       0.558   8.562  11.400  1.00  0.00    -0.274 OA
BRANCH  31  34
HETATM   34  C5  UNL     1       2.369   6.762  10.155  1.00  0.00     0.186 C 
BRANCH  34  35
HETATM   35  C3  UNL     1       2.352   7.526   8.802  1.00  0.00     0.014 C 
HETATM   36  C4  UNL     1       3.546   8.488   8.708  1.00  0.00     0.012 C 
BRANCH  35  37
HETATM   37  C2  UNL     1       2.347   6.552   7.597  1.00  0.00     0.002 C 
HETATM   38  C1  UNL     1       1.739   7.132   6.327  1.00  0.00     0.005 C 
ENDBRANCH  35  37
ENDBRANCH  34  35
BRANCH  34  39
HETATM   39  C31 UNL     1       3.450   5.664  10.157  1.00  0.00     0.163 C 
HETATM   40  O8  UNL     1       4.655   5.817  10.276  1.00  0.00    -0.648 OA
BRANCH  39  41
HETATM   41  O9  UNL     1       2.942   4.409  10.087  1.00  0.00    -0.775 OA
HETATM   42  H43 UNL     1       3.736   3.835  10.112  1.00  0.00     0.167 HD
ENDBRANCH  39  41
ENDBRANCH  34  39
ENDBRANCH  31  34
ENDBRANCH  29  30
ENDBRANCH  28  29
ENDBRANCH  26  28
ENDBRANCH  25  26
ENDBRANCH  24  25
ENDBRANCH  22  24
ENDBRANCH   1  22
BRANCH   1  43
HETATM   43  O5  UNL     1      -1.917   7.034  12.154  1.00  0.00    -0.381 OA
HETATM   44  H18 UNL     1      -1.558   7.841  12.577  1.00  0.00     0.211 HD
ENDBRANCH   1  43
TORSDOF 13
ENDMDL
MODEL 5
REMARK minimizedAffinity -7.6069088
REMARK CNNscore 0.330706388
REMARK CNNaffinity 6.39094543
REMARK  13 active torsions:
REMARK  status: ('A' for Active; 'I' for Inactive)
REMARK    1  A    between atoms: C2_2  and  C3_3 
REMARK    2  A    between atoms: C3_3  and  C5_5 
REMARK    3  A    between atoms: C5_5  and  N1_6 
REMARK    4  A    between atoms: C5_5  and  C31_39 
REMARK       I    between atoms: N1_6  and  C6_7 
REMARK    5  A    between atoms: C6_7  and  C7_9 
REMARK    6  A    between atoms: C7_9  and  C8_10 
REMARK    7  A    between atoms: C8_10  and  C9_11 
REMARK    8  A    between atoms: C9_11  and  O3_13 
REMARK    9  A    between atoms: O3_13  and  C10_14 
REMARK   10  A    between atoms: C10_14  and  C11_15 
REMARK   11  A    between atoms: C11_15  and  C12_17 
REMARK   12  A    between atoms: C12_17  and  O5_18 
REMARK   13  A    between atoms: C31_39  and  O9_41 
ROOT
HETATM    1  C12 UNL     1      -2.491  10.861  18.050  1.00  0.00     0.128 C 
HETATM    2  C13 UNL     1      -3.685  11.759  17.658  1.00  0.00     0.047 C 
HETATM    3  C14 UNL     1      -4.377  11.065  16.467  1.00  0.00     0.009 C 
HETATM    4  C15 UNL     1      -3.654   9.729  16.319  1.00  0.00     0.002 C 
HETATM    5  C16 UNL     1      -3.734   8.999  14.970  1.00  0.00     0.003 C 
HETATM    6  C17 UNL     1      -5.191   8.737  14.568  1.00  0.00     0.010 C 
HETATM    7  C18 UNL     1      -5.273   7.978  13.251  1.00  0.00     0.035 C 
HETATM    8  C19 UNL     1      -4.472   6.698  13.285  1.00  0.00    -0.067 C 
HETATM    9  C20 UNL     1      -5.053   5.549  12.896  1.00  0.00     0.053 C 
HETATM   10  C21 UNL     1      -4.291   4.284  12.794  1.00  0.00     0.149 C 
HETATM   11  O6  UNL     1      -4.877   3.249  12.488  1.00  0.00    -0.293 OA
HETATM   12  C22 UNL     1      -2.801   4.342  12.993  1.00  0.00     0.084 C 
HETATM   13  C23 UNL     1      -2.451   5.378  14.052  1.00  0.00     0.022 C 
HETATM   14  C24 UNL     1      -3.008   6.803  13.752  1.00  0.00    -0.009 C 
HETATM   15  C25 UNL     1      -2.201   7.448  12.603  1.00  0.00     0.021 C 
HETATM   16  C26 UNL     1      -2.957   7.652  15.074  1.00  0.00     0.072 C 
HETATM   17  C27 UNL     1      -1.547   7.902  15.654  1.00  0.00     0.133 C 
HETATM   18  O7  UNL     1      -0.521   7.431  15.166  1.00  0.00    -0.297 OA
HETATM   19  C28 UNL     1      -1.470   8.713  16.942  1.00  0.00     0.091 C 
HETATM   20  C29 UNL     1      -2.201  10.049  16.757  1.00  0.00     0.005 C 
HETATM   21  C30 UNL     1      -1.427  10.907  15.724  1.00  0.00     0.019 C 
ENDROOT
BRANCH   1  22
HETATM   22  C11 UNL     1      -1.273  11.562  18.679  1.00  0.00     0.185 C 
HETATM   23  O4  UNL     1      -1.281  12.797  18.784  1.00  0.00    -0.292 OA
BRANCH  22  24
HETATM   24  C10 UNL     1      -0.073  10.723  19.114  1.00  0.00     0.260 C 
BRANCH  24  25
HETATM   25  O3  UNL     1       0.413  11.098  20.403  1.00  0.00    -0.314 OA
BRANCH  25  26
HETATM   26  C9  UNL     1       1.672  10.662  20.681  1.00  0.00     0.259 C 
HETATM   27  O2  UNL     1       1.943   9.567  21.153  1.00  0.00    -0.265 OA
BRANCH  26  28
HETATM   28  C8  UNL     1       2.680  11.722  20.348  1.00  0.00     0.120 C 
BRANCH  28  29
HETATM   29  C7  UNL     1       2.238  13.056  20.926  1.00  0.00     0.112 C 
BRANCH  29  30
HETATM   30  C6  UNL     1       3.359  13.727  21.686  1.00  0.00     0.218 C 
HETATM   31  N1  UNL     1       4.604  13.269  21.322  1.00  0.00    -0.346 N 
HETATM   32  H11 UNL     1       4.693  12.793  20.427  1.00  0.00     0.163 HD
HETATM   33  O1  UNL     1       3.177  14.575  22.552  1.00  0.00    -0.274 OA
BRANCH  31  34
HETATM   34  C5  UNL     1       5.836  13.900  21.817  1.00  0.00     0.186 C 
BRANCH  34  35
HETATM   35  C3  UNL     1       6.395  13.155  23.060  1.00  0.00     0.014 C 
HETATM   36  C4  UNL     1       5.955  11.683  23.053  1.00  0.00     0.012 C 
BRANCH  35  37
HETATM   37  C2  UNL     1       7.938  13.257  23.141  1.00  0.00     0.002 C 
HETATM   38  C1  UNL     1       8.657  11.915  23.098  1.00  0.00     0.005 C 
ENDBRANCH  35  37
ENDBRANCH  34  35
BRANCH  34  39
HETATM   39  C31 UNL     1       6.853  13.884  20.658  1.00  0.00     0.163 C 
HETATM   40  O8  UNL     1       7.123  12.943  19.929  1.00  0.00    -0.648 OA
BRANCH  39  41
HETATM   41  O9  UNL     1       7.427  15.091  20.430  1.00  0.00    -0.775 OA
HETATM   42  H43 UNL     1       8.025  14.923  19.671  1.00  0.00     0.167 HD
ENDBRANCH  39  41
ENDBRANCH  34  39
ENDBRANCH  31  34
ENDBRANCH  29  30
ENDBRANCH  28  29
ENDBRANCH  26  28
ENDBRANCH  25  26
ENDBRANCH  24  25
ENDBRANCH  22  24
ENDBRANCH   1  22
BRANCH   1  43
HETATM   43  O5  UNL     1      -2.974   9.964  19.074  1.00  0.00    -0.381 OA
HETATM   44  H18 UNL     1      -2.182   9.611  19.531  1.00  0.00     0.211 HD
ENDBRANCH   1  43
TORSDOF 13
ENDMDL
MODEL 6
REMARK minimizedAffinity -9.227108
REMARK CNNscore 0.302473962
REMARK CNNaffinity 7.15042877
REMARK  13 active torsions:
REMARK  status: ('A' for Active; 'I' for Inactive)
REMARK    1  A    between atoms: C2_2  and  C3_3 
REMARK    2  A    between atoms: C3_3  and  C5_5 
REMARK    3  A    between atoms: C5_5  and  N1_6 
REMARK    4  A    between atoms: C5_5  and  C31_39 
REMARK       I    between atoms: N1_6  and  C6_7 
REMARK    5  A    between atoms: C6_7  and  C7_9 
REMARK    6  A    between atoms: C7_9  and  C8_10 
REMARK    7  A    between atoms: C8_10  and  C9_11 
REMARK    8  A    between atoms: C9_11  and  O3_13 
REMARK    9  A    between atoms: O3_13  and  C10_14 
REMARK   10  A    between atoms: C10_14  and  C11_15 
REMARK   11  A    between atoms: C11_15  and  C12_17 
REMARK   12  A    between atoms: C12_17  and  O5_18 
REMARK   13  A    between atoms: C31_39  and  O9_41 
ROOT
HETATM    1  C12 UNL     1      -1.711   6.051  12.869  1.00  0.00     0.128 C 
HETATM    2  C13 UNL     1      -1.927   4.632  12.298  1.00  0.00     0.047 C 
HETATM    3  C14 UNL     1      -3.423   4.310  12.491  1.00  0.00     0.009 C 
HETATM    4  C15 UNL     1      -4.036   5.604  13.021  1.00  0.00     0.002 C 
HETATM    5  C16 UNL     1      -5.371   5.526  13.776  1.00  0.00     0.003 C 
HETATM    6  C17 UNL     1      -6.456   4.866  12.914  1.00  0.00     0.010 C 
HETATM    7  C18 UNL     1      -7.791   4.824  13.645  1.00  0.00     0.035 C 
HETATM    8  C19 UNL     1      -8.221   6.192  14.119  1.00  0.00    -0.067 C 
HETATM    9  C20 UNL     1      -9.462   6.626  13.836  1.00  0.00     0.053 C 
HETATM   10  C21 UNL     1      -9.983   7.904  14.371  1.00  0.00     0.149 C 
HETATM   11  O6  UNL     1     -11.102   8.286  14.040  1.00  0.00    -0.293 OA
HETATM   12  C22 UNL     1      -9.139   8.645  15.372  1.00  0.00     0.084 C 
HETATM   13  C23 UNL     1      -7.662   8.486  15.035  1.00  0.00     0.022 C 
HETATM   14  C24 UNL     1      -7.193   7.004  14.930  1.00  0.00    -0.009 C 
HETATM   15  C25 UNL     1      -7.118   6.378  16.341  1.00  0.00     0.021 C 
HETATM   16  C26 UNL     1      -5.811   6.965  14.181  1.00  0.00     0.072 C 
HETATM   17  C27 UNL     1      -4.646   7.691  14.890  1.00  0.00     0.133 C 
HETATM   18  O7  UNL     1      -4.777   8.314  15.941  1.00  0.00    -0.297 OA
HETATM   19  C28 UNL     1      -3.298   7.678  14.179  1.00  0.00     0.091 C 
HETATM   20  C29 UNL     1      -2.894   6.233  13.860  1.00  0.00     0.005 C 
HETATM   21  C30 UNL     1      -2.626   5.481  15.189  1.00  0.00     0.019 C 
ENDROOT
BRANCH   1  22
HETATM   22  C11 UNL     1      -0.315   6.364  13.439  1.00  0.00     0.185 C 
HETATM   23  O4  UNL     1       0.268   5.496  14.105  1.00  0.00    -0.292 OA
BRANCH  22  24
HETATM   24  C10 UNL     1       0.291   7.747  13.209  1.00  0.00     0.260 C 
BRANCH  24  25
HETATM   25  O3  UNL     1       1.659   7.679  12.804  1.00  0.00    -0.314 OA
BRANCH  25  26
HETATM   26  C9  UNL     1       2.391   8.787  13.102  1.00  0.00     0.259 C 
HETATM   27  O2  UNL     1       2.091   9.614  13.952  1.00  0.00    -0.265 OA
BRANCH  26  28
HETATM   28  C8  UNL     1       3.605   8.866  12.225  1.00  0.00     0.120 C 
BRANCH  28  29
HETATM   29  C7  UNL     1       4.340   7.536  12.238  1.00  0.00     0.112 C 
BRANCH  29  30
HETATM   30  C6  UNL     1       4.211   6.821  10.912  1.00  0.00     0.218 C 
HETATM   31  N1  UNL     1       2.944   6.335  10.685  1.00  0.00    -0.346 N 
HETATM   32  H11 UNL     1       2.178   6.733  11.224  1.00  0.00     0.163 HD
HETATM   33  O1  UNL     1       5.143   6.670  10.131  1.00  0.00    -0.274 OA
BRANCH  31  34
HETATM   34  C5  UNL     1       2.558   5.753   9.391  1.00  0.00     0.186 C 
BRANCH  34  35
HETATM   35  C3  UNL     1       2.811   6.746   8.225  1.00  0.00     0.014 C 
HETATM   36  C4  UNL     1       2.349   6.144   6.889  1.00  0.00     0.012 C 
BRANCH  35  37
HETATM   37  C2  UNL     1       2.113   8.107   8.473  1.00  0.00     0.002 C 
HETATM   38  C1  UNL     1       0.676   7.992   8.967  1.00  0.00     0.005 C 
ENDBRANCH  35  37
ENDBRANCH  34  35
BRANCH  34  39
HETATM   39  C31 UNL     1       3.383   4.463   9.208  1.00  0.00     0.163 C 
HETATM   40  O8  UNL     1       4.274   4.268   8.398  1.00  0.00    -0.648 OA
BRANCH  39  41
HETATM   41  O9  UNL     1       3.087   3.502  10.119  1.00  0.00    -0.775 OA
HETATM   42  H43 UNL     1       3.691   2.767   9.884  1.00  0.00     0.167 HD
ENDBRANCH  39  41
ENDBRANCH  34  39
ENDBRANCH  31  34
ENDBRANCH  29  30
ENDBRANCH  28  29
ENDBRANCH  26  28
ENDBRANCH  25  26
ENDBRANCH  24  25
ENDBRANCH  22  24
ENDBRANCH   1  22
BRANCH   1  43
HETATM   43  O5  UNL     1      -1.874   6.966  11.763  1.00  0.00    -0.381 OA
HETATM   44  H18 UNL     1      -1.454   7.808  12.034  1.00  0.00     0.211 HD
ENDBRANCH   1  43
TORSDOF 13
ENDMDL
MODEL 7
REMARK minimizedAffinity -7.33814573
REMARK CNNscore 0.28793022
REMARK CNNaffinity 6.04638815
REMARK  13 active torsions:
REMARK  status: ('A' for Active; 'I' for Inactive)
REMARK    1  A    between atoms: C2_2  and  C3_3 
REMARK    2  A    between atoms: C3_3  and  C5_5 
REMARK    3  A    between atoms: C5_5  and  N1_6 
REMARK    4  A    between atoms: C5_5  and  C31_39 
REMARK       I    between atoms: N1_6  and  C6_7 
REMARK    5  A    between atoms: C6_7  and  C7_9 
REMARK    6  A    between atoms: C7_9  and  C8_10 
REMARK    7  A    between atoms: C8_10  and  C9_11 
REMARK    8  A    between atoms: C9_11  and  O3_13 
REMARK    9  A    between atoms: O3_13  and  C10_14 
REMARK   10  A    between atoms: C10_14  and  C11_15 
REMARK   11  A    between atoms: C11_15  and  C12_17 
REMARK   12  A    between atoms: C12_17  and  O5_18 
REMARK   13  A    between atoms: C31_39  and  O9_41 
ROOT
HETATM    1  C12 UNL     1      -2.625   9.795  16.761  1.00  0.00     0.128 C 
HETATM    2  C13 UNL     1      -4.141   9.735  16.476  1.00  0.00     0.047 C 
HETATM    3  C14 UNL     1      -4.330   8.706  15.343  1.00  0.00     0.009 C 
HETATM    4  C15 UNL     1      -2.944   8.105  15.126  1.00  0.00     0.002 C 
HETATM    5  C16 UNL     1      -2.644   7.420  13.785  1.00  0.00     0.003 C 
HETATM    6  C17 UNL     1      -3.644   6.290  13.505  1.00  0.00     0.010 C 
HETATM    7  C18 UNL     1      -3.325   5.583  12.195  1.00  0.00     0.035 C 
HETATM    8  C19 UNL     1      -1.901   5.082  12.154  1.00  0.00    -0.067 C 
HETATM    9  C20 UNL     1      -1.663   3.804  11.808  1.00  0.00     0.053 C 
HETATM   10  C21 UNL     1      -0.288   3.285  11.634  1.00  0.00     0.149 C 
HETATM   11  O6  UNL     1      -0.119   2.097  11.373  1.00  0.00    -0.293 OA
HETATM   12  C22 UNL     1       0.850   4.267  11.708  1.00  0.00     0.084 C 
HETATM   13  C23 UNL     1       0.549   5.345  12.740  1.00  0.00     0.022 C 
HETATM   14  C24 UNL     1      -0.794   6.097  12.496  1.00  0.00    -0.009 C 
HETATM   15  C25 UNL     1      -0.648   7.049  11.287  1.00  0.00     0.021 C 
HETATM   16  C26 UNL     1      -1.192   6.856  13.815  1.00  0.00     0.072 C 
HETATM   17  C27 UNL     1      -0.211   7.956  14.275  1.00  0.00     0.133 C 
HETATM   18  O7  UNL     1       0.848   8.203  13.700  1.00  0.00    -0.297 OA
HETATM   19  C28 UNL     1      -0.567   8.699  15.557  1.00  0.00     0.091 C 
HETATM   20  C29 UNL     1      -1.982   9.279  15.442  1.00  0.00     0.005 C 
HETATM   21  C30 UNL     1      -1.987  10.383  14.353  1.00  0.00     0.019 C 
ENDROOT
BRANCH   1  22
HETATM   22  C11 UNL     1      -2.070  11.131  17.289  1.00  0.00     0.185 C 
HETATM   23  O4  UNL     1      -2.497  12.190  16.806  1.00  0.00    -0.292 OA
BRANCH  22  24
HETATM   24  C10 UNL     1      -0.979  11.115  18.357  1.00  0.00     0.260 C 
BRANCH  24  25
HETATM   25  O3  UNL     1       0.333  11.085  17.794  1.00  0.00    -0.314 OA
BRANCH  25  26
HETATM   26  C9  UNL     1       1.299  10.631  18.637  1.00  0.00     0.259 C 
HETATM   27  O2  UNL     1       2.203   9.870  18.319  1.00  0.00    -0.265 OA
BRANCH  26  28
HETATM   28  C8  UNL     1       1.088  11.175  20.019  1.00  0.00     0.120 C 
BRANCH  28  29
HETATM   29  C7  UNL     1       1.767  10.276  21.039  1.00  0.00     0.112 C 
BRANCH  29  30
HETATM   30  C6  UNL     1       3.108  10.831  21.458  1.00  0.00     0.218 C 
HETATM   31  N1  UNL     1       3.519  11.889  20.681  1.00  0.00    -0.346 N 
HETATM   32  H11 UNL     1       2.814  12.383  20.139  1.00  0.00     0.163 HD
HETATM   33  O1  UNL     1       3.773  10.373  22.381  1.00  0.00    -0.274 OA
BRANCH  31  34
HETATM   34  C5  UNL     1       4.712  12.680  21.016  1.00  0.00     0.186 C 
BRANCH  34  35
HETATM   35  C3  UNL     1       4.892  12.811  22.554  1.00  0.00     0.014 C 
HETATM   36  C4  UNL     1       6.379  12.945  22.917  1.00  0.00     0.012 C 
BRANCH  35  37
HETATM   37  C2  UNL     1       4.087  14.006  23.122  1.00  0.00     0.002 C 
HETATM   38  C1  UNL     1       4.918  15.259  23.369  1.00  0.00     0.005 C 
ENDBRANCH  35  37
ENDBRANCH  34  35
BRANCH  34  39
HETATM   39  C31 UNL     1       5.923  11.972  20.375  1.00  0.00     0.163 C 
HETATM   40  O8  UNL     1       7.055  12.411  20.259  1.00  0.00    -0.648 OA
BRANCH  39  41
HETATM   41  O9  UNL     1       5.656  10.703  19.980  1.00  0.00    -0.775 OA
HETATM   42  H43 UNL     1       6.509  10.390  19.614  1.00  0.00     0.167 HD
ENDBRANCH  39  41
ENDBRANCH  34  39
ENDBRANCH  31  34
ENDBRANCH  29  30
ENDBRANCH  28  29
ENDBRANCH  26  28
ENDBRANCH  25  26
ENDBRANCH  24  25
ENDBRANCH  22  24
ENDBRANCH   1  22
BRANCH   1  43
HETATM   43  O5  UNL     1      -2.369   8.843  17.815  1.00  0.00    -0.381 OA
HETATM   44  H18 UNL     1      -1.502   9.082  18.202  1.00  0.00     0.211 HD
ENDBRANCH   1  43
TORSDOF 13
ENDMDL
MODEL 8
REMARK minimizedAffinity -9.04008198
REMARK CNNscore 0.278251082
REMARK CNNaffinity 6.54387236
REMARK  13 active torsions:
REMARK  status: ('A' for Active; 'I' for Inactive)
REMARK    1  A    between atoms: C2_2  and  C3_3 
REMARK    2  A    between atoms: C3_3  and  C5_5 
REMARK    3  A    between atoms: C5_5  and  N1_6 
REMARK    4  A    between atoms: C5_5  and  C31_39 
REMARK       I    between atoms: N1_6  and  C6_7 
REMARK    5  A    between atoms: C6_7  and  C7_9 
REMARK    6  A    between atoms: C7_9  and  C8_10 
REMARK    7  A    between atoms: C8_10  and  C9_11 
REMARK    8  A    between atoms: C9_11  and  O3_13 
REMARK    9  A    between atoms: O3_13  and  C10_14 
REMARK   10  A    between atoms: C10_14  and  C11_15 
REMARK   11  A    between atoms: C11_15  and  C12_17 
REMARK   12  A    between atoms: C12_17  and  O5_18 
REMARK   13  A    between atoms: C31_39  and  O9_41 
ROOT
HETATM    1  C12 UNL     1      -0.686   6.507  12.458  1.00  0.00     0.128 C 
HETATM    2  C13 UNL     1      -0.577   5.054  11.945  1.00  0.00     0.047 C 
HETATM    3  C14 UNL     1      -1.969   4.419  12.139  1.00  0.00     0.009 C 
HETATM    4  C15 UNL     1      -2.859   5.566  12.609  1.00  0.00     0.002 C 
HETATM    5  C16 UNL     1      -4.158   5.226  13.355  1.00  0.00     0.003 C 
HETATM    6  C17 UNL     1      -5.056   4.311  12.512  1.00  0.00     0.010 C 
HETATM    7  C18 UNL     1      -6.362   4.005  13.233  1.00  0.00     0.035 C 
HETATM    8  C19 UNL     1      -7.089   5.262  13.646  1.00  0.00    -0.067 C 
HETATM    9  C20 UNL     1      -8.390   5.402  13.335  1.00  0.00     0.053 C 
HETATM   10  C21 UNL     1      -9.189   6.554  13.812  1.00  0.00     0.149 C 
HETATM   11  O6  UNL     1     -10.358   6.668  13.455  1.00  0.00    -0.293 OA
HETATM   12  C22 UNL     1      -8.544   7.500  14.788  1.00  0.00     0.084 C 
HETATM   13  C23 UNL     1      -7.064   7.657  14.471  1.00  0.00     0.022 C 
HETATM   14  C24 UNL     1      -6.279   6.311  14.431  1.00  0.00    -0.009 C 
HETATM   15  C25 UNL     1      -6.094   5.771  15.868  1.00  0.00     0.021 C 
HETATM   16  C26 UNL     1      -4.909   6.548  13.696  1.00  0.00     0.072 C 
HETATM   17  C27 UNL     1      -3.944   7.538  14.385  1.00  0.00     0.133 C 
HETATM   18  O7  UNL     1      -4.226   8.158  15.408  1.00  0.00    -0.297 OA
HETATM   19  C28 UNL     1      -2.614   7.795  13.687  1.00  0.00     0.091 C 
HETATM   20  C29 UNL     1      -1.898   6.463  13.432  1.00  0.00     0.005 C 
HETATM   21  C30 UNL     1      -1.495   5.840  14.792  1.00  0.00     0.019 C 
ENDROOT
BRANCH   1  22
HETATM   22  C11 UNL     1       0.597   7.141  13.028  1.00  0.00     0.185 C 
HETATM   23  O4  UNL     1       0.496   8.113  13.791  1.00  0.00    -0.292 OA
BRANCH  22  24
HETATM   24  C10 UNL     1       1.954   6.585  12.603  1.00  0.00     0.260 C 
BRANCH  24  25
HETATM   25  O3  UNL     1       2.413   7.152  11.375  1.00  0.00    -0.314 OA
BRANCH  25  26
HETATM   26  C9  UNL     1       2.751   6.239  10.424  1.00  0.00     0.259 C 
HETATM   27  O2  UNL     1       1.953   5.643   9.714  1.00  0.00    -0.265 OA
BRANCH  26  28
HETATM   28  C8  UNL     1       4.238   6.049  10.384  1.00  0.00     0.120 C 
BRANCH  28  29
HETATM   29  C7  UNL     1       4.936   7.383  10.587  1.00  0.00     0.112 C 
BRANCH  29  30
HETATM   30  C6  UNL     1       6.188   7.230  11.420  1.00  0.00     0.218 C 
HETATM   31  N1  UNL     1       6.090   7.834  12.652  1.00  0.00    -0.346 N 
HETATM   32  H11 UNL     1       5.160   8.042  13.008  1.00  0.00     0.163 HD
HETATM   33  O1  UNL     1       7.194   6.647  11.032  1.00  0.00    -0.274 OA
BRANCH  31  34
HETATM   34  C5  UNL     1       7.127   7.668  13.682  1.00  0.00     0.186 C 
BRANCH  34  35
HETATM   35  C3  UNL     1       8.240   8.742  13.543  1.00  0.00     0.014 C 
HETATM   36  C4  UNL     1       7.644  10.155  13.624  1.00  0.00     0.012 C 
BRANCH  35  37
HETATM   37  C2  UNL     1       9.344   8.560  14.614  1.00  0.00     0.002 C 
HETATM   38  C1  UNL     1      10.685   8.096  14.058  1.00  0.00     0.005 C 
ENDBRANCH  35  37
ENDBRANCH  34  35
BRANCH  34  39
HETATM   39  C31 UNL     1       6.428   7.768  15.052  1.00  0.00     0.163 C 
HETATM   40  O8  UNL     1       6.713   8.520  15.970  1.00  0.00    -0.648 OA
BRANCH  39  41
HETATM   41  O9  UNL     1       5.346   6.958  15.164  1.00  0.00    -0.775 OA
HETATM   42  H43 UNL     1       5.011   7.143  16.067  1.00  0.00     0.167 HD
ENDBRANCH  39  41
ENDBRANCH  34  39
ENDBRANCH  31  34
ENDBRANCH  29  30
ENDBRANCH  28  29
ENDBRANCH  26  28
ENDBRANCH  25  26
ENDBRANCH  24  25
ENDBRANCH  22  24
ENDBRANCH   1  22
BRANCH   1  43
HETATM   43  O5  UNL     1      -1.027   7.320  11.315  1.00  0.00    -0.381 OA
HETATM   44  H18 UNL     1      -0.806   8.244  11.554  1.00  0.00     0.211 HD
ENDBRANCH   1  43
TORSDOF 13
ENDMDL
MODEL 9
REMARK minimizedAffinity -7.06120968
REMARK CNNscore 0.222414717
REMARK CNNaffinity 6.24914598
REMARK  13 active torsions:
REMARK  status: ('A' for Active; 'I' for Inactive)
REMARK    1  A    between atoms: C2_2  and  C3_3 
REMARK    2  A    between atoms: C3_3  and  C5_5 
REMARK    3  A    between atoms: C5_5  and  N1_6 
REMARK    4  A    between atoms: C5_5  and  C31_39 
REMARK       I    between atoms: N1_6  and  C6_7 
REMARK    5  A    between atoms: C6_7  and  C7_9 
REMARK    6  A    between atoms: C7_9  and  C8_10 
REMARK    7  A    between atoms: C8_10  and  C9_11 
REMARK    8  A    between atoms: C9_11  and  O3_13 
REMARK    9  A    between atoms: O3_13  and  C10_14 
REMARK   10  A    between atoms: C10_14  and  C11_15 
REMARK   11  A    between atoms: C11_15  and  C12_17 
REMARK   12  A    between atoms: C12_17  and  O5_18 
REMARK   13  A    between atoms: C31_39  and  O9_41 
ROOT
HETATM    1  C12 UNL     1      -2.195  11.068  18.067  1.00  0.00     0.128 C 
HETATM    2  C13 UNL     1      -3.359  12.018  17.706  1.00  0.00     0.047 C 
HETATM    3  C14 UNL     1      -4.141  11.333  16.567  1.00  0.00     0.009 C 
HETATM    4  C15 UNL     1      -3.495   9.958  16.421  1.00  0.00     0.002 C 
HETATM    5  C16 UNL     1      -3.675   9.201  15.097  1.00  0.00     0.003 C 
HETATM    6  C17 UNL     1      -5.161   9.006  14.769  1.00  0.00     0.010 C 
HETATM    7  C18 UNL     1      -5.343   8.221  13.477  1.00  0.00     0.035 C 
HETATM    8  C19 UNL     1      -4.609   6.902  13.508  1.00  0.00    -0.067 C 
HETATM    9  C20 UNL     1      -5.265   5.776  13.177  1.00  0.00     0.053 C 
HETATM   10  C21 UNL     1      -4.574   4.471  13.073  1.00  0.00     0.149 C 
HETATM   11  O6  UNL     1      -5.226   3.461  12.822  1.00  0.00    -0.293 OA
HETATM   12  C22 UNL     1      -3.075   4.455  13.202  1.00  0.00     0.084 C 
HETATM   13  C23 UNL     1      -2.624   5.497  14.217  1.00  0.00     0.022 C 
HETATM   14  C24 UNL     1      -3.121   6.942  13.905  1.00  0.00    -0.009 C 
HETATM   15  C25 UNL     1      -2.337   7.516  12.703  1.00  0.00     0.021 C 
HETATM   16  C26 UNL     1      -2.964   7.818  15.201  1.00  0.00     0.072 C 
HETATM   17  C27 UNL     1      -1.518   8.008  15.708  1.00  0.00     0.133 C 
HETATM   18  O7  UNL     1      -0.542   7.472  15.187  1.00  0.00    -0.297 OA
HETATM   19  C28 UNL     1      -1.339   8.844  16.970  1.00  0.00     0.091 C 
HETATM   20  C29 UNL     1      -2.008  10.211  16.783  1.00  0.00     0.005 C 
HETATM   21  C30 UNL     1      -1.240  11.003  15.694  1.00  0.00     0.019 C 
ENDROOT
BRANCH   1  22
HETATM   22  C11 UNL     1      -0.914  11.719  18.621  1.00  0.00     0.185 C 
HETATM   23  O4  UNL     1      -0.634  12.876  18.276  1.00  0.00    -0.292 OA
BRANCH  22  24
HETATM   24  C10 UNL     1      -0.004  10.909  19.541  1.00  0.00     0.260 C 
BRANCH  24  25
HETATM   25  O3  UNL     1       1.167  10.442  18.871  1.00  0.00    -0.314 OA
BRANCH  25  26
HETATM   26  C9  UNL     1       2.290  10.431  19.640  1.00  0.00     0.259 C 
HETATM   27  O2  UNL     1       2.656   9.488  20.328  1.00  0.00    -0.265 OA
BRANCH  26  28
HETATM   28  C8  UNL     1       3.005  11.746  19.544  1.00  0.00     0.120 C 
BRANCH  28  29
HETATM   29  C7  UNL     1       4.437  11.594  20.026  1.00  0.00     0.112 C 
BRANCH  29  30
HETATM   30  C6  UNL     1       4.594  12.076  21.451  1.00  0.00     0.218 C 
HETATM   31  N1  UNL     1       4.211  13.386  21.620  1.00  0.00    -0.346 N 
HETATM   32  H11 UNL     1       3.604  13.799  20.915  1.00  0.00     0.163 HD
HETATM   33  O1  UNL     1       5.038  11.380  22.356  1.00  0.00    -0.274 OA
BRANCH  31  34
HETATM   34  C5  UNL     1       4.127  14.003  22.952  1.00  0.00     0.186 C 
BRANCH  34  35
HETATM   35  C3  UNL     1       5.024  15.268  23.047  1.00  0.00     0.014 C 
HETATM   36  C4  UNL     1       4.592  16.152  24.227  1.00  0.00     0.012 C 
BRANCH  35  37
HETATM   37  C2  UNL     1       6.523  14.896  23.173  1.00  0.00     0.002 C 
HETATM   38  C1  UNL     1       7.388  15.986  23.793  1.00  0.00     0.005 C 
ENDBRANCH  35  37
ENDBRANCH  34  35
BRANCH  34  39
HETATM   39  C31 UNL     1       2.647  14.354  23.199  1.00  0.00     0.163 C 
HETATM   40  O8  UNL     1       1.888  14.925  22.433  1.00  0.00    -0.648 OA
BRANCH  39  41
HETATM   41  O9  UNL     1       2.176  13.893  24.384  1.00  0.00    -0.775 OA
HETATM   42  H43 UNL     1       1.238  14.178  24.387  1.00  0.00     0.167 HD
ENDBRANCH  39  41
ENDBRANCH  34  39
ENDBRANCH  31  34
ENDBRANCH  29  30
ENDBRANCH  28  29
ENDBRANCH  26  28
ENDBRANCH  25  26
ENDBRANCH  24  25
ENDBRANCH  22  24
ENDBRANCH   1  22
BRANCH   1  43
HETATM   43  O5  UNL     1      -2.675  10.222  19.135  1.00  0.00    -0.381 OA
HETATM   44  H18 UNL     1      -1.881   9.840  19.564  1.00  0.00     0.211 HD
ENDBRANCH   1  43
TORSDOF 13
ENDMDL
