MODEL 1
REMARK minimizedAffinity -8.99385166
REMARK  4 active torsions:
REMARK  status: ('A' for Active; 'I' for Inactive)
REMARK    1  A    between atoms: C4_4  and  C5_5 
REMARK    2  A    between atoms: C5_5  and  C6_6 
REMARK    3  A    between atoms: C6_6  and  C7_7 
REMARK    4  A    between atoms: C7_7  and  C9_9 
ROOT
HETATM    1  C9  UNL     1      -6.348   7.044  14.232  1.00  0.00    -0.002 C 
HETATM    2  C10 UNL     1      -6.285   8.405  14.985  1.00  0.00     0.007 C 
HETATM    3  C11 UNL     1      -4.811   8.853  15.003  1.00  0.00     0.015 C 
HETATM    4  C12 UNL     1      -4.100   7.919  14.003  1.00  0.00    -0.013 C 
HETATM    5  C13 UNL     1      -4.325   8.546  12.592  1.00  0.00     0.021 C 
HETATM    6  C14 UNL     1      -2.598   7.721  14.142  1.00  0.00    -0.070 C 
HETATM    7  C15 UNL     1      -1.785   8.595  14.761  1.00  0.00    -0.022 C 
HETATM    8  C16 UNL     1      -0.299   8.402  14.783  1.00  0.00     0.034 C 
HETATM    9  C17 UNL     1       0.144   7.864  13.414  1.00  0.00     0.013 C 
HETATM   10  C18 UNL     1       1.678   7.941  13.141  1.00  0.00     0.018 C 
HETATM   11  C19 UNL     1       2.067   9.376  12.724  1.00  0.00     0.023 C 
HETATM   12  C20 UNL     1       2.542   7.562  14.359  1.00  0.00     0.023 C 
HETATM   13  C21 UNL     1       2.032   7.036  11.953  1.00  0.00     0.135 C 
HETATM   14  O1  UNL     1       3.179   6.625  11.765  1.00  0.00    -0.297 OA
HETATM   15  C22 UNL     1       0.945   6.745  10.938  1.00  0.00     0.080 C 
HETATM   16  C23 UNL     1      -0.403   6.329  11.539  1.00  0.00     0.017 C 
HETATM   17  C24 UNL     1      -0.519   6.478  13.079  1.00  0.00    -0.031 C 
HETATM   18  C25 UNL     1       0.211   5.273  13.734  1.00  0.00     0.016 C 
HETATM   19  C26 UNL     1      -2.023   6.404  13.613  1.00  0.00     0.024 C 
HETATM   20  C27 UNL     1      -2.998   5.612  12.707  1.00  0.00     0.010 C 
HETATM   21  C28 UNL     1      -4.465   5.533  13.188  1.00  0.00     0.011 C 
HETATM   22  C29 UNL     1      -4.857   6.566  14.265  1.00  0.00    -0.029 C 
HETATM   23  C30 UNL     1      -4.559   5.956  15.672  1.00  0.00     0.016 C 
ENDROOT
BRANCH   1  24
HETATM   24  C7  UNL     1      -7.465   6.114  14.782  1.00  0.00    -0.014 C 
HETATM   25  C8  UNL     1      -7.670   6.255  16.294  1.00  0.00     0.010 C 
BRANCH  24  26
HETATM   26  C6  UNL     1      -7.272   4.624  14.385  1.00  0.00     0.008 C 
BRANCH  26  27
HETATM   27  C5  UNL     1      -7.504   4.221  12.921  1.00  0.00     0.028 C 
BRANCH  27  28
HETATM   28  C4  UNL     1      -7.094   2.819  12.574  1.00  0.00    -0.025 C 
HETATM   29  C2  UNL     1      -6.240   2.434  11.606  1.00  0.00    -0.091 C 
HETATM   30  C1  UNL     1      -5.918   0.977  11.399  1.00  0.00     0.042 C 
HETATM   31  C3  UNL     1      -5.548   3.365  10.651  1.00  0.00     0.042 C 
ENDBRANCH  27  28
ENDBRANCH  26  27
ENDBRANCH  24  26
ENDBRANCH   1  24
TORSDOF 4
ENDMDL
MODEL 2
REMARK minimizedAffinity -8.81540489
REMARK  4 active torsions:
REMARK  status: ('A' for Active; 'I' for Inactive)
REMARK    1  A    between atoms: C4_4  and  C5_5 
REMARK    2  A    between atoms: C5_5  and  C6_6 
REMARK    3  A    between atoms: C6_6  and  C7_7 
REMARK    4  A    between atoms: C7_7  and  C9_9 
ROOT
HETATM    1  C9  UNL     1      -1.500   5.997  11.983  1.00  0.00    -0.002 C 
HETATM    2  C10 UNL     1      -2.096   7.089  12.920  1.00  0.00     0.007 C 
HETATM    3  C11 UNL     1      -0.960   8.074  13.257  1.00  0.00     0.015 C 
HETATM    4  C12 UNL     1       0.176   7.722  12.275  1.00  0.00    -0.013 C 
HETATM    5  C13 UNL     1      -0.151   8.477  10.950  1.00  0.00     0.021 C 
HETATM    6  C14 UNL     1       1.598   8.116  12.645  1.00  0.00    -0.070 C 
HETATM    7  C15 UNL     1       1.898   9.098  13.513  1.00  0.00    -0.022 C 
HETATM    8  C16 UNL     1       3.315   9.513  13.768  1.00  0.00     0.034 C 
HETATM    9  C17 UNL     1       4.079   9.483  12.435  1.00  0.00     0.013 C 
HETATM   10  C18 UNL     1       5.455  10.219  12.448  1.00  0.00     0.018 C 
HETATM   11  C19 UNL     1       5.239  11.741  12.311  1.00  0.00     0.023 C 
HETATM   12  C20 UNL     1       6.271   9.980  13.731  1.00  0.00     0.023 C 
HETATM   13  C21 UNL     1       6.276   9.788  11.224  1.00  0.00     0.135 C 
HETATM   14  O1  UNL     1       7.501   9.916  11.183  1.00  0.00    -0.297 OA
HETATM   15  C22 UNL     1       5.522   9.298  10.004  1.00  0.00     0.080 C 
HETATM   16  C23 UNL     1       4.425   8.268  10.296  1.00  0.00     0.017 C 
HETATM   17  C24 UNL     1       4.103   8.046  11.798  1.00  0.00    -0.031 C 
HETATM   18  C25 UNL     1       5.205   7.127  12.394  1.00  0.00     0.016 C 
HETATM   19  C26 UNL     1       2.727   7.273  12.045  1.00  0.00     0.024 C 
HETATM   20  C27 UNL     1       2.275   6.357  10.880  1.00  0.00     0.010 C 
HETATM   21  C28 UNL     1       0.940   5.605  11.082  1.00  0.00     0.011 C 
HETATM   22  C29 UNL     1       0.041   6.157  12.208  1.00  0.00    -0.029 C 
HETATM   23  C30 UNL     1       0.427   5.447  13.546  1.00  0.00     0.016 C 
ENDROOT
BRANCH   1  24
HETATM   24  C7  UNL     1      -2.167   4.609  12.194  1.00  0.00    -0.014 C 
HETATM   25  C8  UNL     1      -2.514   3.906  10.877  1.00  0.00     0.010 C 
BRANCH  24  26
HETATM   26  C6  UNL     1      -3.400   4.659  13.138  1.00  0.00     0.008 C 
BRANCH  26  27
HETATM   27  C5  UNL     1      -4.608   3.768  12.813  1.00  0.00     0.028 C 
BRANCH  27  28
HETATM   28  C4  UNL     1      -5.932   4.475  12.784  1.00  0.00    -0.025 C 
HETATM   29  C2  UNL     1      -7.156   3.915  12.778  1.00  0.00    -0.091 C 
HETATM   30  C1  UNL     1      -8.395   4.772  12.767  1.00  0.00     0.042 C 
HETATM   31  C3  UNL     1      -7.424   2.436  12.767  1.00  0.00     0.042 C 
ENDBRANCH  27  28
ENDBRANCH  26  27
ENDBRANCH  24  26
ENDBRANCH   1  24
TORSDOF 4
ENDMDL
MODEL 3
REMARK minimizedAffinity -8.71609783
REMARK  4 active torsions:
REMARK  status: ('A' for Active; 'I' for Inactive)
REMARK    1  A    between atoms: C4_4  and  C5_5 
REMARK    2  A    between atoms: C5_5  and  C6_6 
REMARK    3  A    between atoms: C6_6  and  C7_7 
REMARK    4  A    between atoms: C7_7  and  C9_9 
ROOT
HETATM    1  C9  UNL     1       1.414   6.921  13.220  1.00  0.00    -0.002 C 
HETATM    2  C10 UNL     1       0.641   7.883  14.170  1.00  0.00     0.007 C 
HETATM    3  C11 UNL     1      -0.843   7.471  14.131  1.00  0.00     0.015 C 
HETATM    4  C12 UNL     1      -0.857   6.103  13.418  1.00  0.00    -0.013 C 
HETATM    5  C13 UNL     1      -0.541   5.041  14.516  1.00  0.00     0.021 C 
HETATM    6  C14 UNL     1      -2.148   5.649  12.753  1.00  0.00    -0.070 C 
HETATM    7  C15 UNL     1      -3.364   6.113  13.089  1.00  0.00    -0.022 C 
HETATM    8  C16 UNL     1      -4.612   5.560  12.471  1.00  0.00     0.034 C 
HETATM    9  C17 UNL     1      -4.448   4.040  12.315  1.00  0.00     0.013 C 
HETATM   10  C18 UNL     1      -5.768   3.262  12.022  1.00  0.00     0.018 C 
HETATM   11  C19 UNL     1      -6.560   3.060  13.332  1.00  0.00     0.023 C 
HETATM   12  C20 UNL     1      -6.697   3.975  11.023  1.00  0.00     0.023 C 
HETATM   13  C21 UNL     1      -5.428   1.858  11.504  1.00  0.00     0.135 C 
HETATM   14  O1  UNL     1      -6.238   1.187  10.860  1.00  0.00    -0.297 OA
HETATM   15  C22 UNL     1      -4.093   1.260  11.901  1.00  0.00     0.080 C 
HETATM   16  C23 UNL     1      -2.892   2.196  11.726  1.00  0.00     0.017 C 
HETATM   17  C24 UNL     1      -3.239   3.668  11.380  1.00  0.00    -0.031 C 
HETATM   18  C25 UNL     1      -3.587   3.737   9.868  1.00  0.00     0.016 C 
HETATM   19  C26 UNL     1      -2.013   4.674  11.579  1.00  0.00     0.024 C 
HETATM   20  C27 UNL     1      -0.612   4.025  11.459  1.00  0.00     0.010 C 
HETATM   21  C28 UNL     1       0.595   4.969  11.660  1.00  0.00     0.011 C 
HETATM   22  C29 UNL     1       0.269   6.314  12.343  1.00  0.00    -0.029 C 
HETATM   23  C30 UNL     1      -0.118   7.350  11.239  1.00  0.00     0.016 C 
ENDROOT
BRANCH   1  24
HETATM   24  C7  UNL     1       2.623   7.615  12.534  1.00  0.00    -0.014 C 
HETATM   25  C8  UNL     1       2.238   8.908  11.806  1.00  0.00     0.010 C 
BRANCH  24  26
HETATM   26  C6  UNL     1       3.422   6.667  11.595  1.00  0.00     0.008 C 
BRANCH  26  27
HETATM   27  C5  UNL     1       3.870   7.200  10.226  1.00  0.00     0.028 C 
BRANCH  27  28
HETATM   28  C4  UNL     1       3.057   6.720   9.059  1.00  0.00    -0.025 C 
HETATM   29  C2  UNL     1       2.679   7.432   7.980  1.00  0.00    -0.091 C 
HETATM   30  C1  UNL     1       1.876   6.792   6.879  1.00  0.00     0.042 C 
HETATM   31  C3  UNL     1       2.986   8.887   7.761  1.00  0.00     0.042 C 
ENDBRANCH  27  28
ENDBRANCH  26  27
ENDBRANCH  24  26
ENDBRANCH   1  24
TORSDOF 4
ENDMDL
MODEL 4
REMARK minimizedAffinity -8.58009815
REMARK  4 active torsions:
REMARK  status: ('A' for Active; 'I' for Inactive)
REMARK    1  A    between atoms: C4_4  and  C5_5 
REMARK    2  A    between atoms: C5_5  and  C6_6 
REMARK    3  A    between atoms: C6_6  and  C7_7 
REMARK    4  A    between atoms: C7_7  and  C9_9 
ROOT
HETATM    1  C9  UNL     1      -2.443   6.149  13.712  1.00  0.00    -0.002 C 
HETATM    2  C10 UNL     1      -2.479   5.299  12.407  1.00  0.00     0.007 C 
HETATM    3  C11 UNL     1      -1.125   5.490  11.698  1.00  0.00     0.015 C 
HETATM    4  C12 UNL     1      -0.224   6.183  12.741  1.00  0.00    -0.013 C 
HETATM    5  C13 UNL     1       0.352   5.044  13.638  1.00  0.00     0.021 C 
HETATM    6  C14 UNL     1       0.976   6.977  12.245  1.00  0.00    -0.070 C 
HETATM    7  C15 UNL     1       1.560   6.777  11.051  1.00  0.00    -0.022 C 
HETATM    8  C16 UNL     1       2.801   7.518  10.652  1.00  0.00     0.034 C 
HETATM    9  C17 UNL     1       3.715   7.636  11.881  1.00  0.00     0.013 C 
HETATM   10  C18 UNL     1       5.185   8.057  11.571  1.00  0.00     0.018 C 
HETATM   11  C19 UNL     1       5.986   6.837  11.069  1.00  0.00     0.023 C 
HETATM   12  C20 UNL     1       5.299   9.159  10.501  1.00  0.00     0.023 C 
HETATM   13  C21 UNL     1       5.868   8.519  12.865  1.00  0.00     0.135 C 
HETATM   14  O1  UNL     1       6.871   9.236  12.853  1.00  0.00    -0.297 OA
HETATM   15  C22 UNL     1       5.340   7.974  14.177  1.00  0.00     0.080 C 
HETATM   16  C23 UNL     1       3.816   8.032  14.332  1.00  0.00     0.017 C 
HETATM   17  C24 UNL     1       3.032   8.432  13.053  1.00  0.00    -0.031 C 
HETATM   18  C25 UNL     1       3.133   9.973  12.891  1.00  0.00     0.016 C 
HETATM   19  C26 UNL     1       1.468   8.116  13.142  1.00  0.00     0.024 C 
HETATM   20  C27 UNL     1       0.892   8.078  14.579  1.00  0.00     0.010 C 
HETATM   21  C28 UNL     1      -0.616   7.762  14.701  1.00  0.00     0.011 C 
HETATM   22  C29 UNL     1      -1.257   7.136  13.445  1.00  0.00    -0.029 C 
HETATM   23  C30 UNL     1      -1.765   8.287  12.519  1.00  0.00     0.016 C 
ENDROOT
BRANCH   1  24
HETATM   24  C7  UNL     1      -3.841   6.712  14.089  1.00  0.00    -0.014 C 
HETATM   25  C8  UNL     1      -4.273   6.340  15.511  1.00  0.00     0.010 C 
BRANCH  24  26
HETATM   26  C6  UNL     1      -4.947   6.346  13.059  1.00  0.00     0.008 C 
BRANCH  26  27
HETATM   27  C5  UNL     1      -5.852   5.140  13.355  1.00  0.00     0.028 C 
BRANCH  27  28
HETATM   28  C4  UNL     1      -5.592   3.927  12.510  1.00  0.00    -0.025 C 
HETATM   29  C2  UNL     1      -6.426   2.894  12.287  1.00  0.00    -0.091 C 
HETATM   30  C1  UNL     1      -6.018   1.754  11.391  1.00  0.00     0.042 C 
HETATM   31  C3  UNL     1      -7.796   2.751  12.888  1.00  0.00     0.042 C 
ENDBRANCH  27  28
ENDBRANCH  26  27
ENDBRANCH  24  26
ENDBRANCH   1  24
TORSDOF 4
ENDMDL
MODEL 5
REMARK minimizedAffinity -8.40632439
REMARK  4 active torsions:
REMARK  status: ('A' for Active; 'I' for Inactive)
REMARK    1  A    between atoms: C4_4  and  C5_5 
REMARK    2  A    between atoms: C5_5  and  C6_6 
REMARK    3  A    between atoms: C6_6  and  C7_7 
REMARK    4  A    between atoms: C7_7  and  C9_9 
ROOT
HETATM    1  C9  UNL     1       0.423   7.497  13.382  1.00  0.00    -0.002 C 
HETATM    2  C10 UNL     1       0.427   6.712  12.037  1.00  0.00     0.007 C 
HETATM    3  C11 UNL     1      -0.996   6.162  11.822  1.00  0.00     0.015 C 
HETATM    4  C12 UNL     1      -1.865   6.890  12.868  1.00  0.00    -0.013 C 
HETATM    5  C13 UNL     1      -2.247   8.262  12.232  1.00  0.00     0.021 C 
HETATM    6  C14 UNL     1      -3.175   6.243  13.294  1.00  0.00    -0.070 C 
HETATM    7  C15 UNL     1      -3.840   5.343  12.549  1.00  0.00    -0.022 C 
HETATM    8  C16 UNL     1      -5.176   4.811  12.970  1.00  0.00     0.034 C 
HETATM    9  C17 UNL     1      -5.987   5.961  13.587  1.00  0.00     0.013 C 
HETATM   10  C18 UNL     1      -7.512   5.678  13.752  1.00  0.00     0.018 C 
HETATM   11  C19 UNL     1      -8.232   5.871  12.400  1.00  0.00     0.023 C 
HETATM   12  C20 UNL     1      -7.825   4.253  14.244  1.00  0.00     0.023 C 
HETATM   13  C21 UNL     1      -8.121   6.705  14.716  1.00  0.00     0.135 C 
HETATM   14  O1  UNL     1      -9.186   6.498  15.302  1.00  0.00    -0.297 OA
HETATM   15  C22 UNL     1      -7.430   8.047  14.849  1.00  0.00     0.080 C 
HETATM   16  C23 UNL     1      -5.911   7.973  15.042  1.00  0.00     0.017 C 
HETATM   17  C24 UNL     1      -5.284   6.565  14.858  1.00  0.00    -0.031 C 
HETATM   18  C25 UNL     1      -5.549   5.749  16.153  1.00  0.00     0.016 C 
HETATM   19  C26 UNL     1      -3.696   6.594  14.691  1.00  0.00     0.024 C 
HETATM   20  C27 UNL     1      -2.995   7.816  15.334  1.00  0.00     0.010 C 
HETATM   21  C28 UNL     1      -1.458   7.881  15.179  1.00  0.00     0.011 C 
HETATM   22  C29 UNL     1      -0.872   6.966  14.084  1.00  0.00    -0.029 C 
HETATM   23  C30 UNL     1      -0.561   5.570  14.715  1.00  0.00     0.016 C 
ENDROOT
BRANCH   1  24
HETATM   24  C7  UNL     1       1.787   7.411  14.120  1.00  0.00    -0.014 C 
HETATM   25  C8  UNL     1       1.696   7.812  15.596  1.00  0.00     0.010 C 
BRANCH  24  26
HETATM   26  C6  UNL     1       2.923   8.193  13.402  1.00  0.00     0.008 C 
BRANCH  26  27
HETATM   27  C5  UNL     1       3.696   7.491  12.276  1.00  0.00     0.028 C 
BRANCH  27  28
HETATM   28  C4  UNL     1       3.498   8.075  10.907  1.00  0.00    -0.025 C 
HETATM   29  C2  UNL     1       3.319   7.405   9.753  1.00  0.00    -0.091 C 
HETATM   30  C1  UNL     1       3.113   8.146   8.458  1.00  0.00     0.042 C 
HETATM   31  C3  UNL     1       3.317   5.908   9.619  1.00  0.00     0.042 C 
ENDBRANCH  27  28
ENDBRANCH  26  27
ENDBRANCH  24  26
ENDBRANCH   1  24
TORSDOF 4
ENDMDL
MODEL 6
REMARK minimizedAffinity -8.23950005
REMARK  4 active torsions:
REMARK  status: ('A' for Active; 'I' for Inactive)
REMARK    1  A    between atoms: C4_4  and  C5_5 
REMARK    2  A    between atoms: C5_5  and  C6_6 
REMARK    3  A    between atoms: C6_6  and  C7_7 
REMARK    4  A    between atoms: C7_7  and  C9_9 
ROOT
HETATM    1  C9  UNL     1      -2.736   6.148  13.521  1.00  0.00    -0.002 C 
HETATM    2  C10 UNL     1      -2.696   5.183  12.300  1.00  0.00     0.007 C 
HETATM    3  C11 UNL     1      -1.289   5.283  11.681  1.00  0.00     0.015 C 
HETATM    4  C12 UNL     1      -0.451   6.053  12.722  1.00  0.00    -0.013 C 
HETATM    5  C13 UNL     1       0.029   4.990  13.759  1.00  0.00     0.021 C 
HETATM    6  C14 UNL     1       0.802   6.775  12.249  1.00  0.00    -0.070 C 
HETATM    7  C15 UNL     1       1.468   6.456  11.125  1.00  0.00    -0.022 C 
HETATM    8  C16 UNL     1       2.752   7.135  10.756  1.00  0.00     0.034 C 
HETATM    9  C17 UNL     1       3.576   7.349  12.036  1.00  0.00     0.013 C 
HETATM   10  C18 UNL     1       5.074   7.713  11.800  1.00  0.00     0.018 C 
HETATM   11  C19 UNL     1       5.880   6.437  11.473  1.00  0.00     0.023 C 
HETATM   12  C20 UNL     1       5.295   8.709  10.648  1.00  0.00     0.023 C 
HETATM   13  C21 UNL     1       5.672   8.279  13.096  1.00  0.00     0.135 C 
HETATM   14  O1  UNL     1       6.690   8.973  13.095  1.00  0.00    -0.297 OA
HETATM   15  C22 UNL     1       5.035   7.866  14.408  1.00  0.00     0.080 C 
HETATM   16  C23 UNL     1       3.506   7.966  14.441  1.00  0.00     0.017 C 
HETATM   17  C24 UNL     1       2.828   8.261  13.076  1.00  0.00    -0.031 C 
HETATM   18  C25 UNL     1       2.980   9.779  12.783  1.00  0.00     0.016 C 
HETATM   19  C26 UNL     1       1.255   7.983  13.074  1.00  0.00     0.024 C 
HETATM   20  C27 UNL     1       0.574   8.088  14.461  1.00  0.00     0.010 C 
HETATM   21  C28 UNL     1      -0.947   7.812  14.496  1.00  0.00     0.011 C 
HETATM   22  C29 UNL     1      -1.509   7.084  13.257  1.00  0.00    -0.029 C 
HETATM   23  C30 UNL     1      -1.918   8.155  12.195  1.00  0.00     0.016 C 
ENDROOT
BRANCH   1  24
HETATM   24  C7  UNL     1      -4.143   6.769  13.739  1.00  0.00    -0.014 C 
HETATM   25  C8  UNL     1      -4.153   8.294  13.600  1.00  0.00     0.010 C 
BRANCH  24  26
HETATM   26  C6  UNL     1      -4.807   6.329  15.075  1.00  0.00     0.008 C 
BRANCH  26  27
HETATM   27  C5  UNL     1      -6.328   6.481  15.221  1.00  0.00     0.028 C 
BRANCH  27  28
HETATM   28  C4  UNL     1      -7.108   6.341  13.946  1.00  0.00    -0.025 C 
HETATM   29  C2  UNL     1      -7.583   5.204  13.401  1.00  0.00    -0.091 C 
HETATM   30  C1  UNL     1      -8.369   5.237  12.117  1.00  0.00     0.042 C 
HETATM   31  C3  UNL     1      -7.385   3.829  13.974  1.00  0.00     0.042 C 
ENDBRANCH  27  28
ENDBRANCH  26  27
ENDBRANCH  24  26
ENDBRANCH   1  24
TORSDOF 4
ENDMDL
MODEL 7
REMARK minimizedAffinity -8.11284733
REMARK  4 active torsions:
REMARK  status: ('A' for Active; 'I' for Inactive)
REMARK    1  A    between atoms: C4_4  and  C5_5 
REMARK    2  A    between atoms: C5_5  and  C6_6 
REMARK    3  A    between atoms: C6_6  and  C7_7 
REMARK    4  A    between atoms: C7_7  and  C9_9 
ROOT
HETATM    1  C9  UNL     1      -2.617   4.648  13.272  1.00  0.00    -0.002 C 
HETATM    2  C10 UNL     1      -1.685   5.083  12.104  1.00  0.00     0.007 C 
HETATM    3  C11 UNL     1      -1.308   6.558  12.341  1.00  0.00     0.015 C 
HETATM    4  C12 UNL     1      -1.763   6.856  13.785  1.00  0.00    -0.013 C 
HETATM    5  C13 UNL     1      -0.610   6.361  14.711  1.00  0.00     0.021 C 
HETATM    6  C14 UNL     1      -2.025   8.304  14.174  1.00  0.00    -0.070 C 
HETATM    7  C15 UNL     1      -1.495   9.358  13.529  1.00  0.00    -0.022 C 
HETATM    8  C16 UNL     1      -1.706  10.760  14.014  1.00  0.00     0.034 C 
HETATM    9  C17 UNL     1      -1.644  10.759  15.549  1.00  0.00     0.013 C 
HETATM   10  C18 UNL     1      -1.488  12.168  16.202  1.00  0.00     0.018 C 
HETATM   11  C19 UNL     1      -0.015  12.623  16.124  1.00  0.00     0.023 C 
HETATM   12  C20 UNL     1      -2.346  13.257  15.533  1.00  0.00     0.023 C 
HETATM   13  C21 UNL     1      -1.833  12.080  17.695  1.00  0.00     0.135 C 
HETATM   14  O1  UNL     1      -2.150  13.075  18.351  1.00  0.00    -0.297 OA
HETATM   15  C22 UNL     1      -1.665  10.740  18.382  1.00  0.00     0.080 C 
HETATM   16  C23 UNL     1      -2.267   9.549  17.627  1.00  0.00     0.017 C 
HETATM   17  C24 UNL     1      -2.760   9.854  16.187  1.00  0.00    -0.031 C 
HETATM   18  C25 UNL     1      -4.140  10.561  16.292  1.00  0.00     0.016 C 
HETATM   19  C26 UNL     1      -3.020   8.542  15.314  1.00  0.00     0.024 C 
HETATM   20  C27 UNL     1      -3.356   7.271  16.131  1.00  0.00     0.010 C 
HETATM   21  C28 UNL     1      -3.600   5.980  15.316  1.00  0.00     0.011 C 
HETATM   22  C29 UNL     1      -3.091   6.020  13.860  1.00  0.00    -0.029 C 
HETATM   23  C30 UNL     1      -4.229   6.586  12.950  1.00  0.00     0.016 C 
ENDROOT
BRANCH   1  24
HETATM   24  C7  UNL     1      -3.672   3.597  12.827  1.00  0.00    -0.014 C 
HETATM   25  C8  UNL     1      -3.137   2.621  11.774  1.00  0.00     0.010 C 
BRANCH  24  26
HETATM   26  C6  UNL     1      -5.013   4.233  12.365  1.00  0.00     0.008 C 
BRANCH  26  27
HETATM   27  C5  UNL     1      -6.327   3.589  12.831  1.00  0.00     0.028 C 
BRANCH  27  28
HETATM   28  C4  UNL     1      -7.544   4.456  12.695  1.00  0.00    -0.025 C 
HETATM   29  C2  UNL     1      -7.990   5.380  13.569  1.00  0.00    -0.091 C 
HETATM   30  C1  UNL     1      -9.227   6.186  13.272  1.00  0.00     0.042 C 
HETATM   31  C3  UNL     1      -7.347   5.693  14.890  1.00  0.00     0.042 C 
ENDBRANCH  27  28
ENDBRANCH  26  27
ENDBRANCH  24  26
ENDBRANCH   1  24
TORSDOF 4
ENDMDL
MODEL 8
REMARK minimizedAffinity -7.92636108
REMARK  4 active torsions:
REMARK  status: ('A' for Active; 'I' for Inactive)
REMARK    1  A    between atoms: C4_4  and  C5_5 
REMARK    2  A    between atoms: C5_5  and  C6_6 
REMARK    3  A    between atoms: C6_6  and  C7_7 
REMARK    4  A    between atoms: C7_7  and  C9_9 
ROOT
HETATM    1  C9  UNL     1       3.123   7.290  10.790  1.00  0.00    -0.002 C 
HETATM    2  C10 UNL     1       3.111   5.749  10.565  1.00  0.00     0.007 C 
HETATM    3  C11 UNL     1       1.798   5.208  11.161  1.00  0.00     0.015 C 
HETATM    4  C12 UNL     1       0.940   6.460  11.434  1.00  0.00    -0.013 C 
HETATM    5  C13 UNL     1       0.241   6.807  10.084  1.00  0.00     0.021 C 
HETATM    6  C14 UNL     1      -0.170   6.362  12.470  1.00  0.00    -0.070 C 
HETATM    7  C15 UNL     1      -0.742   5.204  12.844  1.00  0.00    -0.022 C 
HETATM    8  C16 UNL     1      -1.899   5.173  13.796  1.00  0.00     0.034 C 
HETATM    9  C17 UNL     1      -2.828   6.354  13.473  1.00  0.00     0.013 C 
HETATM   10  C18 UNL     1      -4.245   6.273  14.121  1.00  0.00     0.018 C 
HETATM   11  C19 UNL     1      -5.143   5.321  13.303  1.00  0.00     0.023 C 
HETATM   12  C20 UNL     1      -4.232   5.765  15.574  1.00  0.00     0.023 C 
HETATM   13  C21 UNL     1      -4.914   7.654  14.060  1.00  0.00     0.135 C 
HETATM   14  O1  UNL     1      -5.846   7.960  14.806  1.00  0.00    -0.297 OA
HETATM   15  C22 UNL     1      -4.469   8.608  12.970  1.00  0.00     0.080 C 
HETATM   16  C23 UNL     1      -2.950   8.746  12.816  1.00  0.00     0.017 C 
HETATM   17  C24 UNL     1      -2.103   7.740  13.639  1.00  0.00    -0.031 C 
HETATM   18  C25 UNL     1      -2.058   8.240  15.109  1.00  0.00     0.016 C 
HETATM   19  C26 UNL     1      -0.577   7.662  13.170  1.00  0.00     0.024 C 
HETATM   20  C27 UNL     1      -0.041   8.941  12.482  1.00  0.00     0.010 C 
HETATM   21  C28 UNL     1       1.429   8.894  12.005  1.00  0.00     0.011 C 
HETATM   22  C29 UNL     1       2.039   7.480  11.904  1.00  0.00    -0.029 C 
HETATM   23  C30 UNL     1       2.672   7.113  13.285  1.00  0.00     0.016 C 
ENDROOT
BRANCH   1  24
HETATM   24  C7  UNL     1       4.558   7.844  11.011  1.00  0.00    -0.014 C 
HETATM   25  C8  UNL     1       4.870   9.062  10.136  1.00  0.00     0.010 C 
BRANCH  24  26
HETATM   26  C6  UNL     1       5.662   6.760  10.868  1.00  0.00     0.008 C 
BRANCH  26  27
HETATM   27  C5  UNL     1       6.486   6.386  12.110  1.00  0.00     0.028 C 
BRANCH  27  28
HETATM   28  C4  UNL     1       6.269   7.266  13.306  1.00  0.00    -0.025 C 
HETATM   29  C2  UNL     1       7.205   7.927  14.014  1.00  0.00    -0.091 C 
HETATM   30  C1  UNL     1       6.817   8.790  15.185  1.00  0.00     0.042 C 
HETATM   31  C3  UNL     1       8.682   7.875  13.742  1.00  0.00     0.042 C 
ENDBRANCH  27  28
ENDBRANCH  26  27
ENDBRANCH  24  26
ENDBRANCH   1  24
TORSDOF 4
ENDMDL
MODEL 9
REMARK minimizedAffinity -7.85355949
REMARK  4 active torsions:
REMARK  status: ('A' for Active; 'I' for Inactive)
REMARK    1  A    between atoms: C4_4  and  C5_5 
REMARK    2  A    between atoms: C5_5  and  C6_6 
REMARK    3  A    between atoms: C6_6  and  C7_7 
REMARK    4  A    between atoms: C7_7  and  C9_9 
ROOT
HETATM    1  C9  UNL     1      -4.723   6.155  13.925  1.00  0.00    -0.002 C 
HETATM    2  C10 UNL     1      -4.166   5.367  12.703  1.00  0.00     0.007 C 
HETATM    3  C11 UNL     1      -2.716   5.837  12.475  1.00  0.00     0.015 C 
HETATM    4  C12 UNL     1      -2.357   6.644  13.740  1.00  0.00    -0.013 C 
HETATM    5  C13 UNL     1      -1.903   5.598  14.804  1.00  0.00     0.021 C 
HETATM    6  C14 UNL     1      -1.235   7.667  13.649  1.00  0.00    -0.070 C 
HETATM    7  C15 UNL     1      -0.264   7.629  12.719  1.00  0.00    -0.022 C 
HETATM    8  C16 UNL     1       0.874   8.604  12.734  1.00  0.00     0.034 C 
HETATM    9  C17 UNL     1       1.293   8.842  14.193  1.00  0.00     0.013 C 
HETATM   10  C18 UNL     1       2.675   9.543  14.375  1.00  0.00     0.018 C 
HETATM   11  C19 UNL     1       3.814   8.516  14.196  1.00  0.00     0.023 C 
HETATM   12  C20 UNL     1       2.923  10.689  13.376  1.00  0.00     0.023 C 
HETATM   13  C21 UNL     1       2.795  10.072  15.811  1.00  0.00     0.135 C 
HETATM   14  O1  UNL     1       3.590  10.964  16.113  1.00  0.00    -0.297 OA
HETATM   15  C22 UNL     1       1.979   9.386  16.888  1.00  0.00     0.080 C 
HETATM   16  C23 UNL     1       0.507   9.151  16.529  1.00  0.00     0.017 C 
HETATM   17  C24 UNL     1       0.125   9.448  15.054  1.00  0.00    -0.031 C 
HETATM   18  C25 UNL     1      -0.020  10.987  14.897  1.00  0.00     0.016 C 
HETATM   19  C26 UNL     1      -1.291   8.842  14.630  1.00  0.00     0.024 C 
HETATM   20  C27 UNL     1      -2.289   8.639  15.796  1.00  0.00     0.010 C 
HETATM   21  C28 UNL     1      -3.664   8.041  15.421  1.00  0.00     0.011 C 
HETATM   22  C29 UNL     1      -3.725   7.357  14.040  1.00  0.00    -0.029 C 
HETATM   23  C30 UNL     1      -4.110   8.429  12.970  1.00  0.00     0.016 C 
ENDROOT
BRANCH   1  24
HETATM   24  C7  UNL     1      -6.247   6.431  13.805  1.00  0.00    -0.014 C 
HETATM   25  C8  UNL     1      -6.906   6.747  15.152  1.00  0.00     0.010 C 
BRANCH  24  26
HETATM   26  C6  UNL     1      -7.017   5.303  13.062  1.00  0.00     0.008 C 
BRANCH  26  27
HETATM   27  C5  UNL     1      -6.875   3.861  13.572  1.00  0.00     0.028 C 
BRANCH  27  28
HETATM   28  C4  UNL     1      -7.013   2.798  12.521  1.00  0.00    -0.025 C 
HETATM   29  C2  UNL     1      -6.022   2.187  11.844  1.00  0.00    -0.091 C 
HETATM   30  C1  UNL     1      -6.330   1.119  10.827  1.00  0.00     0.042 C 
HETATM   31  C3  UNL     1      -4.559   2.492  12.001  1.00  0.00     0.042 C 
ENDBRANCH  27  28
ENDBRANCH  26  27
ENDBRANCH  24  26
ENDBRANCH   1  24
TORSDOF 4
ENDMDL
