MODEL 1
REMARK minimizedAffinity -8.37110806
REMARK  11 active torsions:
REMARK  status: ('A' for Active; 'I' for Inactive)
REMARK    1  A    between atoms: C4_4  and  C5_5 
REMARK    2  A    between atoms: C5_5  and  O2_7 
REMARK    3  A    between atoms: O2_7  and  C6_8 
REMARK    4  A    between atoms: C6_8  and  C7_9 
REMARK    5  A    between atoms: C17_19  and  O3_21 
REMARK    6  A    between atoms: C19_22  and  C20_23 
REMARK    7  A    between atoms: C20_23  and  C21_24 
REMARK    8  A    between atoms: C21_24  and  C22_25 
REMARK    9  A    between atoms: C22_25  and  C24_27 
REMARK   10  A    between atoms: C24_27  and  C25_28 
REMARK   11  A    between atoms: C25_28  and  O4_29 
ROOT
HETATM    1  C7  UNL     1      -0.719   5.909  12.261  1.00  0.00    -0.018 C 
HETATM    2  C8  UNL     1       0.333   5.296  13.214  1.00  0.00     0.018 C 
HETATM    3  C9  UNL     1      -1.177   7.254  12.880  1.00  0.00     0.012 C 
HETATM    4  C10 UNL     1      -2.543   7.669  12.370  1.00  0.00     0.002 C 
HETATM    5  C11 UNL     1      -3.626   6.709  12.852  1.00  0.00     0.010 C 
HETATM    6  C12 UNL     1      -3.256   5.184  12.824  1.00  0.00    -0.033 C 
HETATM    7  C13 UNL     1      -2.983   4.732  14.284  1.00  0.00     0.016 C 
HETATM    8  C14 UNL     1      -1.961   4.969  11.958  1.00  0.00     0.004 C 
HETATM    9  C15 UNL     1      -1.576   3.477  11.861  1.00  0.00     0.009 C 
HETATM   10  C16 UNL     1      -2.762   2.518  11.745  1.00  0.00     0.038 C 
HETATM   11  C17 UNL     1      -4.037   3.184  11.231  1.00  0.00     0.059 C 
HETATM   12  C18 UNL     1      -5.097   2.106  10.956  1.00  0.00     0.046 C 
HETATM   13  C19 UNL     1      -4.499   4.362  12.179  1.00  0.00     0.028 C 
ENDROOT
BRANCH   1  14
HETATM   14  C6  UNL     1       0.002   6.182  10.898  1.00  0.00     0.188 C 
BRANCH  14  15
HETATM   15  O2  UNL     1       1.134   7.049  11.081  1.00  0.00    -0.317 OA
BRANCH  15  16
HETATM   16  C5  UNL     1       2.247   6.658  10.409  1.00  0.00     0.283 C 
HETATM   17  O1  UNL     1       3.339   6.432  10.897  1.00  0.00    -0.260 OA
BRANCH  16  18
HETATM   18  C4  UNL     1       1.873   6.531   8.978  1.00  0.00     0.084 C 
HETATM   19  C2  UNL     1       2.251   7.344   7.973  1.00  0.00    -0.082 C 
HETATM   20  C1  UNL     1       3.085   8.589   8.108  1.00  0.00     0.043 C 
HETATM   21  C3  UNL     1       1.834   7.037   6.558  1.00  0.00     0.043 C 
ENDBRANCH  16  18
ENDBRANCH  15  16
ENDBRANCH  14  15
ENDBRANCH   1  14
BRANCH  13  22
HETATM   22  C20 UNL     1      -5.590   3.907  13.200  1.00  0.00     0.009 C 
BRANCH  22  23
HETATM   23  C21 UNL     1      -7.057   3.936  12.735  1.00  0.00     0.005 C 
BRANCH  23  24
HETATM   24  C22 UNL     1      -7.967   5.035  13.341  1.00  0.00    -0.017 C 
HETATM   25  C23 UNL     1      -8.672   5.853  12.254  1.00  0.00     0.010 C 
BRANCH  24  26
HETATM   26  C24 UNL     1      -7.219   5.932  14.345  1.00  0.00     0.030 C 
BRANCH  26  27
HETATM   27  C25 UNL     1      -7.610   5.720  15.806  1.00  0.00     0.164 C 
BRANCH  27  28
HETATM   28  O4  UNL     1      -7.975   4.371  16.056  1.00  0.00    -0.401 OA
HETATM   29  H44 UNL     1      -7.247   3.805  15.747  1.00  0.00     0.209 HD
ENDBRANCH  27  28
ENDBRANCH  26  27
ENDBRANCH  24  26
ENDBRANCH  23  24
ENDBRANCH  22  23
ENDBRANCH  13  22
BRANCH  11  30
HETATM   30  O3  UNL     1      -3.753   3.764   9.943  1.00  0.00    -0.390 OA
HETATM   31  H30 UNL     1      -3.437   3.057   9.354  1.00  0.00     0.210 HD
ENDBRANCH  11  30
TORSDOF 11
ENDMDL
MODEL 2
REMARK minimizedAffinity -8.31912136
REMARK  11 active torsions:
REMARK  status: ('A' for Active; 'I' for Inactive)
REMARK    1  A    between atoms: C4_4  and  C5_5 
REMARK    2  A    between atoms: C5_5  and  O2_7 
REMARK    3  A    between atoms: O2_7  and  C6_8 
REMARK    4  A    between atoms: C6_8  and  C7_9 
REMARK    5  A    between atoms: C17_19  and  O3_21 
REMARK    6  A    between atoms: C19_22  and  C20_23 
REMARK    7  A    between atoms: C20_23  and  C21_24 
REMARK    8  A    between atoms: C21_24  and  C22_25 
REMARK    9  A    between atoms: C22_25  and  C24_27 
REMARK   10  A    between atoms: C24_27  and  C25_28 
REMARK   11  A    between atoms: C25_28  and  O4_29 
ROOT
HETATM    1  C7  UNL     1      -0.027   6.386  12.222  1.00  0.00    -0.018 C 
HETATM    2  C8  UNL     1       1.048   5.801  13.168  1.00  0.00     0.018 C 
HETATM    3  C9  UNL     1      -0.419   7.780  12.771  1.00  0.00     0.012 C 
HETATM    4  C10 UNL     1      -1.793   8.206  12.292  1.00  0.00     0.002 C 
HETATM    5  C11 UNL     1      -2.881   7.313  12.880  1.00  0.00     0.010 C 
HETATM    6  C12 UNL     1      -2.557   5.779  12.935  1.00  0.00    -0.033 C 
HETATM    7  C13 UNL     1      -2.234   5.412  14.409  1.00  0.00     0.016 C 
HETATM    8  C14 UNL     1      -1.308   5.468  12.032  1.00  0.00     0.004 C 
HETATM    9  C15 UNL     1      -0.970   3.961  12.016  1.00  0.00     0.009 C 
HETATM   10  C16 UNL     1      -2.187   3.035  12.012  1.00  0.00     0.038 C 
HETATM   11  C17 UNL     1      -3.464   3.707  11.509  1.00  0.00     0.059 C 
HETATM   12  C18 UNL     1      -4.566   2.647  11.349  1.00  0.00     0.046 C 
HETATM   13  C19 UNL     1      -3.850   4.956  12.398  1.00  0.00     0.028 C 
ENDROOT
BRANCH   1  14
HETATM   14  C6  UNL     1       0.642   6.549  10.816  1.00  0.00     0.188 C 
BRANCH  14  15
HETATM   15  O2  UNL     1       1.967   7.092  10.937  1.00  0.00    -0.317 OA
BRANCH  15  16
HETATM   16  C5  UNL     1       2.888   6.493  10.139  1.00  0.00     0.283 C 
HETATM   17  O1  UNL     1       3.979   6.078  10.486  1.00  0.00    -0.260 OA
BRANCH  16  18
HETATM   18  C4  UNL     1       2.303   6.415   8.777  1.00  0.00     0.084 C 
HETATM   19  C2  UNL     1       2.396   7.345   7.807  1.00  0.00    -0.082 C 
HETATM   20  C1  UNL     1       3.065   8.687   7.929  1.00  0.00     0.043 C 
HETATM   21  C3  UNL     1       1.796   7.082   6.450  1.00  0.00     0.043 C 
ENDBRANCH  16  18
ENDBRANCH  15  16
ENDBRANCH  14  15
ENDBRANCH   1  14
BRANCH  13  22
HETATM   22  C20 UNL     1      -4.908   4.602  13.490  1.00  0.00     0.009 C 
BRANCH  22  23
HETATM   23  C21 UNL     1      -5.934   5.686  13.867  1.00  0.00     0.005 C 
BRANCH  23  24
HETATM   24  C22 UNL     1      -7.272   5.693  13.086  1.00  0.00    -0.017 C 
HETATM   25  C23 UNL     1      -8.443   6.144  13.965  1.00  0.00     0.010 C 
BRANCH  24  26
HETATM   26  C24 UNL     1      -7.556   4.347  12.393  1.00  0.00     0.030 C 
BRANCH  26  27
HETATM   27  C25 UNL     1      -7.845   3.186  13.343  1.00  0.00     0.164 C 
BRANCH  27  28
HETATM   28  O4  UNL     1      -8.211   2.012  12.633  1.00  0.00    -0.401 OA
HETATM   29  H44 UNL     1      -7.515   1.834  11.977  1.00  0.00     0.209 HD
ENDBRANCH  27  28
ENDBRANCH  26  27
ENDBRANCH  24  26
ENDBRANCH  23  24
ENDBRANCH  22  23
ENDBRANCH  13  22
BRANCH  11  30
HETATM   30  O3  UNL     1      -3.220   4.194  10.176  1.00  0.00    -0.390 OA
HETATM   31  H30 UNL     1      -2.950   3.442   9.621  1.00  0.00     0.210 HD
ENDBRANCH  11  30
TORSDOF 11
ENDMDL
MODEL 3
REMARK minimizedAffinity -8.19632912
REMARK  11 active torsions:
REMARK  status: ('A' for Active; 'I' for Inactive)
REMARK    1  A    between atoms: C4_4  and  C5_5 
REMARK    2  A    between atoms: C5_5  and  O2_7 
REMARK    3  A    between atoms: O2_7  and  C6_8 
REMARK    4  A    between atoms: C6_8  and  C7_9 
REMARK    5  A    between atoms: C17_19  and  O3_21 
REMARK    6  A    between atoms: C19_22  and  C20_23 
REMARK    7  A    between atoms: C20_23  and  C21_24 
REMARK    8  A    between atoms: C21_24  and  C22_25 
REMARK    9  A    between atoms: C22_25  and  C24_27 
REMARK   10  A    between atoms: C24_27  and  C25_28 
REMARK   11  A    between atoms: C25_28  and  O4_29 
ROOT
HETATM    1  C7  UNL     1       0.617   6.910  12.371  1.00  0.00    -0.018 C 
HETATM    2  C8  UNL     1       1.644   6.582  13.480  1.00  0.00     0.018 C 
HETATM    3  C9  UNL     1      -0.061   8.250  12.749  1.00  0.00     0.012 C 
HETATM    4  C10 UNL     1      -1.414   8.401  12.082  1.00  0.00     0.002 C 
HETATM    5  C11 UNL     1      -2.409   7.377  12.617  1.00  0.00     0.010 C 
HETATM    6  C12 UNL     1      -1.851   5.928  12.842  1.00  0.00    -0.033 C 
HETATM    7  C13 UNL     1      -1.662   5.720  14.369  1.00  0.00     0.016 C 
HETATM    8  C14 UNL     1      -0.464   5.776  12.117  1.00  0.00     0.004 C 
HETATM    9  C15 UNL     1       0.112   4.351  12.270  1.00  0.00     0.009 C 
HETATM   10  C16 UNL     1      -0.928   3.232  12.208  1.00  0.00     0.038 C 
HETATM   11  C17 UNL     1      -2.223   3.641  11.507  1.00  0.00     0.059 C 
HETATM   12  C18 UNL     1      -3.110   2.400  11.316  1.00  0.00     0.046 C 
HETATM   13  C19 UNL     1      -2.916   4.862  12.234  1.00  0.00     0.028 C 
ENDROOT
BRANCH   1  14
HETATM   14  C6  UNL     1       1.423   7.091  11.041  1.00  0.00     0.188 C 
BRANCH  14  15
HETATM   15  O2  UNL     1       2.470   6.111  10.938  1.00  0.00    -0.317 OA
BRANCH  15  16
HETATM   16  C5  UNL     1       3.361   6.354   9.942  1.00  0.00     0.283 C 
HETATM   17  O1  UNL     1       4.555   6.546  10.078  1.00  0.00    -0.260 OA
BRANCH  16  18
HETATM   18  C4  UNL     1       2.610   6.312   8.662  1.00  0.00     0.084 C 
HETATM   19  C2  UNL     1       2.491   7.310   7.766  1.00  0.00    -0.082 C 
HETATM   20  C1  UNL     1       3.049   8.700   7.911  1.00  0.00     0.043 C 
HETATM   21  C3  UNL     1       1.743   7.083   6.478  1.00  0.00     0.043 C 
ENDBRANCH  16  18
ENDBRANCH  15  16
ENDBRANCH  14  15
ENDBRANCH   1  14
BRANCH  13  22
HETATM   22  C20 UNL     1      -4.032   4.405  13.226  1.00  0.00     0.009 C 
BRANCH  22  23
HETATM   23  C21 UNL     1      -5.473   4.332  12.692  1.00  0.00     0.005 C 
BRANCH  23  24
HETATM   24  C22 UNL     1      -6.602   4.124  13.733  1.00  0.00    -0.017 C 
HETATM   25  C23 UNL     1      -7.779   3.336  13.148  1.00  0.00     0.010 C 
BRANCH  24  26
HETATM   26  C24 UNL     1      -7.058   5.445  14.380  1.00  0.00     0.030 C 
BRANCH  26  27
HETATM   27  C25 UNL     1      -7.486   5.327  15.842  1.00  0.00     0.164 C 
BRANCH  27  28
HETATM   28  O4  UNL     1      -8.839   5.721  16.020  1.00  0.00    -0.401 OA
HETATM   29  H44 UNL     1      -9.382   5.207  15.397  1.00  0.00     0.209 HD
ENDBRANCH  27  28
ENDBRANCH  26  27
ENDBRANCH  24  26
ENDBRANCH  23  24
ENDBRANCH  22  23
ENDBRANCH  13  22
BRANCH  11  30
HETATM   30  O3  UNL     1      -1.894   4.073  10.173  1.00  0.00    -0.390 OA
HETATM   31  H30 UNL     1      -1.439   3.343   9.720  1.00  0.00     0.210 HD
ENDBRANCH  11  30
TORSDOF 11
ENDMDL
MODEL 4
REMARK minimizedAffinity -8.14924049
REMARK  11 active torsions:
REMARK  status: ('A' for Active; 'I' for Inactive)
REMARK    1  A    between atoms: C4_4  and  C5_5 
REMARK    2  A    between atoms: C5_5  and  O2_7 
REMARK    3  A    between atoms: O2_7  and  C6_8 
REMARK    4  A    between atoms: C6_8  and  C7_9 
REMARK    5  A    between atoms: C17_19  and  O3_21 
REMARK    6  A    between atoms: C19_22  and  C20_23 
REMARK    7  A    between atoms: C20_23  and  C21_24 
REMARK    8  A    between atoms: C21_24  and  C22_25 
REMARK    9  A    between atoms: C22_25  and  C24_27 
REMARK   10  A    between atoms: C24_27  and  C25_28 
REMARK   11  A    between atoms: C25_28  and  O4_29 
ROOT
HETATM    1  C7  UNL     1       0.074   7.628  13.044  1.00  0.00    -0.018 C 
HETATM    2  C8  UNL     1       0.971   7.468  14.294  1.00  0.00     0.018 C 
HETATM    3  C9  UNL     1      -0.935   8.765  13.341  1.00  0.00     0.012 C 
HETATM    4  C10 UNL     1      -2.173   8.657  12.472  1.00  0.00     0.002 C 
HETATM    5  C11 UNL     1      -2.982   7.411  12.819  1.00  0.00     0.010 C 
HETATM    6  C12 UNL     1      -2.154   6.107  13.096  1.00  0.00    -0.033 C 
HETATM    7  C13 UNL     1      -2.153   5.859  14.629  1.00  0.00     0.016 C 
HETATM    8  C14 UNL     1      -0.676   6.302  12.597  1.00  0.00     0.004 C 
HETATM    9  C15 UNL     1       0.175   5.031  12.806  1.00  0.00     0.009 C 
HETATM   10  C16 UNL     1      -0.568   3.718  12.555  1.00  0.00     0.038 C 
HETATM   11  C17 UNL     1      -1.802   3.876  11.667  1.00  0.00     0.059 C 
HETATM   12  C18 UNL     1      -2.350   2.485  11.309  1.00  0.00     0.046 C 
HETATM   13  C19 UNL     1      -2.851   4.873  12.303  1.00  0.00     0.028 C 
ENDROOT
BRANCH   1  14
HETATM   14  C6  UNL     1       1.009   8.056  11.863  1.00  0.00     0.188 C 
BRANCH  14  15
HETATM   15  O2  UNL     1       0.303   8.887  10.927  1.00  0.00    -0.317 OA
BRANCH  15  16
HETATM   16  C5  UNL     1       0.371   8.456   9.641  1.00  0.00     0.283 C 
HETATM   17  O1  UNL     1      -0.228   8.928   8.692  1.00  0.00    -0.260 OA
BRANCH  16  18
HETATM   18  C4  UNL     1       1.331   7.324   9.608  1.00  0.00     0.084 C 
HETATM   19  C2  UNL     1       2.026   6.890   8.539  1.00  0.00    -0.082 C 
HETATM   20  C1  UNL     1       1.924   7.429   7.138  1.00  0.00     0.043 C 
HETATM   21  C3  UNL     1       3.014   5.762   8.690  1.00  0.00     0.043 C 
ENDBRANCH  16  18
ENDBRANCH  15  16
ENDBRANCH  14  15
ENDBRANCH   1  14
BRANCH  13  22
HETATM   22  C20 UNL     1      -3.972   4.128  13.095  1.00  0.00     0.009 C 
BRANCH  22  23
HETATM   23  C21 UNL     1      -5.388   4.128  12.493  1.00  0.00     0.005 C 
BRANCH  23  24
HETATM   24  C22 UNL     1      -6.567   3.859  13.463  1.00  0.00    -0.017 C 
HETATM   25  C23 UNL     1      -7.376   2.625  13.049  1.00  0.00     0.010 C 
BRANCH  24  26
HETATM   26  C24 UNL     1      -7.462   5.097  13.660  1.00  0.00     0.030 C 
BRANCH  26  27
HETATM   27  C25 UNL     1      -7.655   5.521  15.115  1.00  0.00     0.164 C 
BRANCH  27  28
HETATM   28  O4  UNL     1      -7.902   4.403  15.954  1.00  0.00    -0.401 OA
HETATM   29  H44 UNL     1      -7.185   3.761  15.812  1.00  0.00     0.209 HD
ENDBRANCH  27  28
ENDBRANCH  26  27
ENDBRANCH  24  26
ENDBRANCH  23  24
ENDBRANCH  22  23
ENDBRANCH  13  22
BRANCH  11  30
HETATM   30  O3  UNL     1      -1.383   4.444  10.412  1.00  0.00    -0.390 OA
HETATM   31  H30 UNL     1      -0.713   3.858  10.020  1.00  0.00     0.210 HD
ENDBRANCH  11  30
TORSDOF 11
ENDMDL
MODEL 5
REMARK minimizedAffinity -7.54619932
REMARK  11 active torsions:
REMARK  status: ('A' for Active; 'I' for Inactive)
REMARK    1  A    between atoms: C4_4  and  C5_5 
REMARK    2  A    between atoms: C5_5  and  O2_7 
REMARK    3  A    between atoms: O2_7  and  C6_8 
REMARK    4  A    between atoms: C6_8  and  C7_9 
REMARK    5  A    between atoms: C17_19  and  O3_21 
REMARK    6  A    between atoms: C19_22  and  C20_23 
REMARK    7  A    between atoms: C20_23  and  C21_24 
REMARK    8  A    between atoms: C21_24  and  C22_25 
REMARK    9  A    between atoms: C22_25  and  C24_27 
REMARK   10  A    between atoms: C24_27  and  C25_28 
REMARK   11  A    between atoms: C25_28  and  O4_29 
ROOT
HETATM    1  C7  UNL     1       0.157   6.539  11.575  1.00  0.00    -0.018 C 
HETATM    2  C8  UNL     1       0.140   7.691  10.544  1.00  0.00     0.018 C 
HETATM    3  C9  UNL     1      -0.675   5.374  10.982  1.00  0.00     0.012 C 
HETATM    4  C10 UNL     1      -1.189   4.445  12.064  1.00  0.00     0.002 C 
HETATM    5  C11 UNL     1      -2.210   5.147  12.954  1.00  0.00     0.010 C 
HETATM    6  C12 UNL     1      -1.876   6.629  13.347  1.00  0.00    -0.033 C 
HETATM    7  C13 UNL     1      -2.790   7.562  12.508  1.00  0.00     0.016 C 
HETATM    8  C14 UNL     1      -0.370   6.938  13.018  1.00  0.00     0.004 C 
HETATM    9  C15 UNL     1       0.025   8.374  13.426  1.00  0.00     0.009 C 
HETATM   10  C16 UNL     1      -0.607   8.863  14.730  1.00  0.00     0.038 C 
HETATM   11  C17 UNL     1      -1.071   7.731  15.645  1.00  0.00     0.059 C 
HETATM   12  C18 UNL     1      -1.495   8.317  17.002  1.00  0.00     0.046 C 
HETATM   13  C19 UNL     1      -2.149   6.817  14.936  1.00  0.00     0.028 C 
ENDROOT
BRANCH   1  14
HETATM   14  C6  UNL     1       1.648   6.087  11.732  1.00  0.00     0.188 C 
BRANCH  14  15
HETATM   15  O2  UNL     1       2.524   6.936  10.973  1.00  0.00    -0.317 OA
BRANCH  15  16
HETATM   16  C5  UNL     1       3.320   6.271  10.097  1.00  0.00     0.283 C 
HETATM   17  O1  UNL     1       4.410   5.787  10.341  1.00  0.00    -0.260 OA
BRANCH  16  18
HETATM   18  C4  UNL     1       2.601   6.223   8.799  1.00  0.00     0.084 C 
HETATM   19  C2  UNL     1       2.520   7.210   7.886  1.00  0.00    -0.082 C 
HETATM   20  C1  UNL     1       3.097   8.592   8.025  1.00  0.00     0.043 C 
HETATM   21  C3  UNL     1       1.800   6.975   6.583  1.00  0.00     0.043 C 
ENDBRANCH  16  18
ENDBRANCH  15  16
ENDBRANCH  14  15
ENDBRANCH   1  14
BRANCH  13  22
HETATM   22  C20 UNL     1      -3.609   7.223  15.312  1.00  0.00     0.009 C 
BRANCH  22  23
HETATM   23  C21 UNL     1      -4.667   6.106  15.366  1.00  0.00     0.005 C 
BRANCH  23  24
HETATM   24  C22 UNL     1      -5.684   6.042  14.198  1.00  0.00    -0.017 C 
HETATM   25  C23 UNL     1      -6.206   7.431  13.819  1.00  0.00     0.010 C 
BRANCH  24  26
HETATM   26  C24 UNL     1      -6.831   5.049  14.469  1.00  0.00     0.030 C 
BRANCH  26  27
HETATM   27  C25 UNL     1      -7.106   4.065  13.333  1.00  0.00     0.164 C 
BRANCH  27  28
HETATM   28  O4  UNL     1      -8.349   3.401  13.512  1.00  0.00    -0.401 OA
HETATM   29  H44 UNL     1      -9.034   4.081  13.633  1.00  0.00     0.209 HD
ENDBRANCH  27  28
ENDBRANCH  26  27
ENDBRANCH  24  26
ENDBRANCH  23  24
ENDBRANCH  22  23
ENDBRANCH  13  22
BRANCH  11  30
HETATM   30  O3  UNL     1       0.066   6.897  15.940  1.00  0.00    -0.390 OA
HETATM   31  H30 UNL     1       0.752   7.450  16.349  1.00  0.00     0.210 HD
ENDBRANCH  11  30
TORSDOF 11
ENDMDL
MODEL 6
REMARK minimizedAffinity -7.47716141
REMARK  11 active torsions:
REMARK  status: ('A' for Active; 'I' for Inactive)
REMARK    1  A    between atoms: C4_4  and  C5_5 
REMARK    2  A    between atoms: C5_5  and  O2_7 
REMARK    3  A    between atoms: O2_7  and  C6_8 
REMARK    4  A    between atoms: C6_8  and  C7_9 
REMARK    5  A    between atoms: C17_19  and  O3_21 
REMARK    6  A    between atoms: C19_22  and  C20_23 
REMARK    7  A    between atoms: C20_23  and  C21_24 
REMARK    8  A    between atoms: C21_24  and  C22_25 
REMARK    9  A    between atoms: C22_25  and  C24_27 
REMARK   10  A    between atoms: C24_27  and  C25_28 
REMARK   11  A    between atoms: C25_28  and  O4_29 
ROOT
HETATM    1  C7  UNL     1      -0.306   8.152  13.936  1.00  0.00    -0.018 C 
HETATM    2  C8  UNL     1       0.453   7.926  15.264  1.00  0.00     0.018 C 
HETATM    3  C9  UNL     1      -1.492   9.103  14.236  1.00  0.00     0.012 C 
HETATM    4  C10 UNL     1      -2.593   8.970  13.203  1.00  0.00     0.002 C 
HETATM    5  C11 UNL     1      -3.256   7.598  13.278  1.00  0.00     0.010 C 
HETATM    6  C12 UNL     1      -2.292   6.379  13.496  1.00  0.00    -0.033 C 
HETATM    7  C13 UNL     1      -2.434   5.916  14.972  1.00  0.00     0.016 C 
HETATM    8  C14 UNL     1      -0.808   6.823  13.228  1.00  0.00     0.004 C 
HETATM    9  C15 UNL     1       0.182   5.648  13.387  1.00  0.00     0.009 C 
HETATM   10  C16 UNL     1      -0.337   4.303  12.875  1.00  0.00     0.038 C 
HETATM   11  C17 UNL     1      -1.469   4.434  11.857  1.00  0.00     0.059 C 
HETATM   12  C18 UNL     1      -1.773   3.052  11.256  1.00  0.00     0.046 C 
HETATM   13  C19 UNL     1      -2.713   5.195  12.468  1.00  0.00     0.028 C 
ENDROOT
BRANCH   1  14
HETATM   14  C6  UNL     1       0.690   8.855  12.954  1.00  0.00     0.188 C 
BRANCH  14  15
HETATM   15  O2  UNL     1       1.874   8.062  12.769  1.00  0.00    -0.317 OA
BRANCH  15  16
HETATM   16  C5  UNL     1       2.369   8.090  11.505  1.00  0.00     0.283 C 
HETATM   17  O1  UNL     1       3.539   7.973  11.189  1.00  0.00    -0.260 OA
BRANCH  16  18
HETATM   18  C4  UNL     1       1.216   8.261  10.586  1.00  0.00     0.084 C 
HETATM   19  C2  UNL     1       1.237   8.168   9.242  1.00  0.00    -0.082 C 
HETATM   20  C1  UNL     1       2.454   7.929   8.391  1.00  0.00     0.043 C 
HETATM   21  C3  UNL     1      -0.041   8.306   8.457  1.00  0.00     0.043 C 
ENDBRANCH  16  18
ENDBRANCH  15  16
ENDBRANCH  14  15
ENDBRANCH   1  14
BRANCH  13  22
HETATM   22  C20 UNL     1      -3.804   4.213  13.002  1.00  0.00     0.009 C 
BRANCH  22  23
HETATM   23  C21 UNL     1      -5.259   4.714  13.034  1.00  0.00     0.005 C 
BRANCH  23  24
HETATM   24  C22 UNL     1      -6.302   3.901  12.227  1.00  0.00    -0.017 C 
HETATM   25  C23 UNL     1      -7.181   3.038  13.138  1.00  0.00     0.010 C 
BRANCH  24  26
HETATM   26  C24 UNL     1      -5.660   3.077  11.096  1.00  0.00     0.030 C 
BRANCH  26  27
HETATM   27  C25 UNL     1      -5.820   1.564  11.236  1.00  0.00     0.164 C 
BRANCH  27  28
HETATM   28  O4  UNL     1      -4.562   0.917  11.358  1.00  0.00    -0.401 OA
HETATM   29  H44 UNL     1      -4.080   1.342  12.088  1.00  0.00     0.209 HD
ENDBRANCH  27  28
ENDBRANCH  26  27
ENDBRANCH  24  26
ENDBRANCH  23  24
ENDBRANCH  22  23
ENDBRANCH  13  22
BRANCH  11  30
HETATM   30  O3  UNL     1      -0.990   5.224  10.751  1.00  0.00    -0.390 OA
HETATM   31  H30 UNL     1      -0.205   4.786  10.382  1.00  0.00     0.210 HD
ENDBRANCH  11  30
TORSDOF 11
ENDMDL
MODEL 7
REMARK minimizedAffinity -7.46949339
REMARK  11 active torsions:
REMARK  status: ('A' for Active; 'I' for Inactive)
REMARK    1  A    between atoms: C4_4  and  C5_5 
REMARK    2  A    between atoms: C5_5  and  O2_7 
REMARK    3  A    between atoms: O2_7  and  C6_8 
REMARK    4  A    between atoms: C6_8  and  C7_9 
REMARK    5  A    between atoms: C17_19  and  O3_21 
REMARK    6  A    between atoms: C19_22  and  C20_23 
REMARK    7  A    between atoms: C20_23  and  C21_24 
REMARK    8  A    between atoms: C21_24  and  C22_25 
REMARK    9  A    between atoms: C22_25  and  C24_27 
REMARK   10  A    between atoms: C24_27  and  C25_28 
REMARK   11  A    between atoms: C25_28  and  O4_29 
ROOT
HETATM    1  C7  UNL     1      -8.942   7.941  15.326  1.00  0.00    -0.018 C 
HETATM    2  C8  UNL     1      -9.041   7.769  16.859  1.00  0.00     0.018 C 
HETATM    3  C9  UNL     1     -10.065   7.083  14.690  1.00  0.00     0.012 C 
HETATM    4  C10 UNL     1      -9.751   6.728  13.250  1.00  0.00     0.002 C 
HETATM    5  C11 UNL     1      -8.548   5.794  13.163  1.00  0.00     0.010 C 
HETATM    6  C12 UNL     1      -7.351   6.123  14.123  1.00  0.00    -0.033 C 
HETATM    7  C13 UNL     1      -7.370   5.089  15.282  1.00  0.00     0.016 C 
HETATM    8  C14 UNL     1      -7.526   7.571  14.711  1.00  0.00     0.004 C 
HETATM    9  C15 UNL     1      -6.350   7.964  15.632  1.00  0.00     0.009 C 
HETATM   10  C16 UNL     1      -4.980   7.471  15.163  1.00  0.00     0.038 C 
HETATM   11  C17 UNL     1      -4.926   7.151  13.669  1.00  0.00     0.059 C 
HETATM   12  C18 UNL     1      -3.470   6.868  13.265  1.00  0.00     0.046 C 
HETATM   13  C19 UNL     1      -5.968   6.029  13.278  1.00  0.00     0.028 C 
ENDROOT
BRANCH   1  14
HETATM   14  C6  UNL     1      -9.203   9.453  15.017  1.00  0.00     0.188 C 
BRANCH  14  15
HETATM   15  O2  UNL     1     -10.592   9.685  14.729  1.00  0.00    -0.317 OA
BRANCH  15  16
HETATM   16  C5  UNL     1     -11.044  10.904  15.122  1.00  0.00     0.283 C 
HETATM   17  O1  UNL     1     -12.166  11.344  14.950  1.00  0.00    -0.260 OA
BRANCH  16  18
HETATM   18  C4  UNL     1      -9.925  11.582  15.822  1.00  0.00     0.084 C 
HETATM   19  C2  UNL     1      -9.369  12.765  15.495  1.00  0.00    -0.082 C 
HETATM   20  C1  UNL     1      -9.734  13.615  14.308  1.00  0.00     0.043 C 
HETATM   21  C3  UNL     1      -8.277  13.348  16.353  1.00  0.00     0.043 C 
ENDBRANCH  16  18
ENDBRANCH  15  16
ENDBRANCH  14  15
ENDBRANCH   1  14
BRANCH  13  22
HETATM   22  C20 UNL     1      -5.319   4.609  13.228  1.00  0.00     0.009 C 
BRANCH  22  23
HETATM   23  C21 UNL     1      -6.120   3.484  12.550  1.00  0.00     0.005 C 
BRANCH  23  24
HETATM   24  C22 UNL     1      -5.582   2.951  11.198  1.00  0.00    -0.017 C 
HETATM   25  C23 UNL     1      -6.042   1.515  10.927  1.00  0.00     0.010 C 
BRANCH  24  26
HETATM   26  C24 UNL     1      -4.054   3.101  11.072  1.00  0.00     0.030 C 
BRANCH  26  27
HETATM   27  C25 UNL     1      -3.244   2.090  11.883  1.00  0.00     0.164 C 
BRANCH  27  28
HETATM   28  O4  UNL     1      -2.630   1.123  11.044  1.00  0.00    -0.401 OA
HETATM   29  H44 UNL     1      -2.120   1.600  10.366  1.00  0.00     0.209 HD
ENDBRANCH  27  28
ENDBRANCH  26  27
ENDBRANCH  24  26
ENDBRANCH  23  24
ENDBRANCH  22  23
ENDBRANCH  13  22
BRANCH  11  30
HETATM   30  O3  UNL     1      -5.289   8.341  12.942  1.00  0.00    -0.390 OA
HETATM   31  H30 UNL     1      -4.676   9.052  13.195  1.00  0.00     0.210 HD
ENDBRANCH  11  30
TORSDOF 11
ENDMDL
MODEL 8
REMARK minimizedAffinity -7.38179207
REMARK  11 active torsions:
REMARK  status: ('A' for Active; 'I' for Inactive)
REMARK    1  A    between atoms: C4_4  and  C5_5 
REMARK    2  A    between atoms: C5_5  and  O2_7 
REMARK    3  A    between atoms: O2_7  and  C6_8 
REMARK    4  A    between atoms: C6_8  and  C7_9 
REMARK    5  A    between atoms: C17_19  and  O3_21 
REMARK    6  A    between atoms: C19_22  and  C20_23 
REMARK    7  A    between atoms: C20_23  and  C21_24 
REMARK    8  A    between atoms: C21_24  and  C22_25 
REMARK    9  A    between atoms: C22_25  and  C24_27 
REMARK   10  A    between atoms: C24_27  and  C25_28 
REMARK   11  A    between atoms: C25_28  and  O4_29 
ROOT
HETATM    1  C7  UNL     1      -7.066   6.460  14.939  1.00  0.00    -0.018 C 
HETATM    2  C8  UNL     1      -7.051   6.495  16.484  1.00  0.00     0.018 C 
HETATM    3  C9  UNL     1      -7.361   5.001  14.510  1.00  0.00     0.012 C 
HETATM    4  C10 UNL     1      -6.872   4.721  13.103  1.00  0.00     0.002 C 
HETATM    5  C11 UNL     1      -5.350   4.776  13.027  1.00  0.00     0.010 C 
HETATM    6  C12 UNL     1      -4.662   5.933  13.834  1.00  0.00    -0.033 C 
HETATM    7  C13 UNL     1      -4.024   5.313  15.107  1.00  0.00     0.016 C 
HETATM    8  C14 UNL     1      -5.739   6.998  14.254  1.00  0.00     0.004 C 
HETATM    9  C15 UNL     1      -5.108   8.184  15.016  1.00  0.00     0.009 C 
HETATM   10  C16 UNL     1      -3.738   8.621  14.495  1.00  0.00     0.038 C 
HETATM   11  C17 UNL     1      -3.470   8.194  13.052  1.00  0.00     0.059 C 
HETATM   12  C18 UNL     1      -2.171   8.853  12.562  1.00  0.00     0.046 C 
HETATM   13  C19 UNL     1      -3.535   6.623  12.891  1.00  0.00     0.028 C 
ENDROOT
BRANCH   1  14
HETATM   14  C6  UNL     1      -8.239   7.387  14.472  1.00  0.00     0.188 C 
BRANCH  14  15
HETATM   15  O2  UNL     1      -9.472   6.653  14.394  1.00  0.00    -0.317 OA
BRANCH  15  16
HETATM   16  C5  UNL     1     -10.584   7.433  14.394  1.00  0.00     0.283 C 
HETATM   17  O1  UNL     1     -10.608   8.650  14.422  1.00  0.00    -0.260 OA
BRANCH  16  18
HETATM   18  C4  UNL     1     -11.756   6.525  14.327  1.00  0.00     0.084 C 
HETATM   19  C2  UNL     1     -13.042   6.852  14.561  1.00  0.00    -0.082 C 
HETATM   20  C1  UNL     1     -13.546   8.201  14.999  1.00  0.00     0.043 C 
HETATM   21  C3  UNL     1     -14.126   5.821  14.386  1.00  0.00     0.043 C 
ENDBRANCH  16  18
ENDBRANCH  15  16
ENDBRANCH  14  15
ENDBRANCH   1  14
BRANCH  13  22
HETATM   22  C20 UNL     1      -2.121   5.962  12.959  1.00  0.00     0.009 C 
BRANCH  22  23
HETATM   23  C21 UNL     1      -2.037   4.439  12.752  1.00  0.00     0.005 C 
BRANCH  23  24
HETATM   24  C22 UNL     1      -1.641   3.940  11.339  1.00  0.00    -0.017 C 
HETATM   25  C23 UNL     1      -2.869   3.692  10.457  1.00  0.00     0.010 C 
BRANCH  24  26
HETATM   26  C24 UNL     1      -0.709   2.715  11.387  1.00  0.00     0.030 C 
BRANCH  26  27
HETATM   27  C25 UNL     1      -1.342   1.410  10.905  1.00  0.00     0.164 C 
BRANCH  27  28
HETATM   28  O4  UNL     1      -0.897   1.069   9.600  1.00  0.00    -0.401 OA
HETATM   29  H44 UNL     1       0.076   1.067   9.609  1.00  0.00     0.209 HD
ENDBRANCH  27  28
ENDBRANCH  26  27
ENDBRANCH  24  26
ENDBRANCH  23  24
ENDBRANCH  22  23
ENDBRANCH  13  22
BRANCH  11  30
HETATM   30  O3  UNL     1      -4.506   8.749  12.220  1.00  0.00    -0.390 OA
HETATM   31  H30 UNL     1      -4.501   9.715  12.330  1.00  0.00     0.210 HD
ENDBRANCH  11  30
TORSDOF 11
ENDMDL
MODEL 9
REMARK minimizedAffinity -7.3707571
REMARK  11 active torsions:
REMARK  status: ('A' for Active; 'I' for Inactive)
REMARK    1  A    between atoms: C4_4  and  C5_5 
REMARK    2  A    between atoms: C5_5  and  O2_7 
REMARK    3  A    between atoms: O2_7  and  C6_8 
REMARK    4  A    between atoms: C6_8  and  C7_9 
REMARK    5  A    between atoms: C17_19  and  O3_21 
REMARK    6  A    between atoms: C19_22  and  C20_23 
REMARK    7  A    between atoms: C20_23  and  C21_24 
REMARK    8  A    between atoms: C21_24  and  C22_25 
REMARK    9  A    between atoms: C22_25  and  C24_27 
REMARK   10  A    between atoms: C24_27  and  C25_28 
REMARK   11  A    between atoms: C25_28  and  O4_29 
ROOT
HETATM    1  C7  UNL     1      -3.298   5.710  13.628  1.00  0.00    -0.018 C 
HETATM    2  C8  UNL     1      -3.210   5.463  15.151  1.00  0.00     0.018 C 
HETATM    3  C9  UNL     1      -3.523   4.337  12.947  1.00  0.00     0.012 C 
HETATM    4  C10 UNL     1      -3.087   4.353  11.495  1.00  0.00     0.002 C 
HETATM    5  C11 UNL     1      -1.576   4.525  11.376  1.00  0.00     0.010 C 
HETATM    6  C12 UNL     1      -0.922   5.560  12.358  1.00  0.00    -0.033 C 
HETATM    7  C13 UNL     1      -0.186   4.763  13.470  1.00  0.00     0.016 C 
HETATM    8  C14 UNL     1      -2.040   6.454  13.007  1.00  0.00     0.004 C 
HETATM    9  C15 UNL     1      -1.446   7.521  13.953  1.00  0.00     0.009 C 
HETATM   10  C16 UNL     1      -0.132   8.139  13.472  1.00  0.00     0.038 C 
HETATM   11  C17 UNL     1       0.091   8.002  11.967  1.00  0.00     0.059 C 
HETATM   12  C18 UNL     1       1.323   8.827  11.561  1.00  0.00     0.046 C 
HETATM   13  C19 UNL     1       0.115   6.486  11.519  1.00  0.00     0.028 C 
ENDROOT
BRANCH   1  14
HETATM   14  C6  UNL     1      -4.546   6.624  13.384  1.00  0.00     0.188 C 
BRANCH  14  15
HETATM   15  O2  UNL     1      -5.282   6.823  14.602  1.00  0.00    -0.317 OA
BRANCH  15  16
HETATM   16  C5  UNL     1      -6.619   6.619  14.482  1.00  0.00     0.283 C 
HETATM   17  O1  UNL     1      -7.479   7.482  14.466  1.00  0.00    -0.260 OA
BRANCH  16  18
HETATM   18  C4  UNL     1      -6.830   5.156  14.348  1.00  0.00     0.084 C 
HETATM   19  C2  UNL     1      -7.484   4.525  13.353  1.00  0.00    -0.082 C 
HETATM   20  C1  UNL     1      -8.191   5.186  12.201  1.00  0.00     0.043 C 
HETATM   21  C3  UNL     1      -7.553   3.020  13.332  1.00  0.00     0.043 C 
ENDBRANCH  16  18
ENDBRANCH  15  16
ENDBRANCH  14  15
ENDBRANCH   1  14
BRANCH  13  22
HETATM   22  C20 UNL     1       1.567   5.922  11.412  1.00  0.00     0.009 C 
BRANCH  22  23
HETATM   23  C21 UNL     1       2.100   5.589  10.007  1.00  0.00     0.005 C 
BRANCH  23  24
HETATM   24  C22 UNL     1       3.388   6.320   9.550  1.00  0.00    -0.017 C 
HETATM   25  C23 UNL     1       4.272   6.714  10.737  1.00  0.00     0.010 C 
BRANCH  24  26
HETATM   26  C24 UNL     1       3.089   7.520   8.631  1.00  0.00     0.030 C 
BRANCH  26  27
HETATM   27  C25 UNL     1       1.696   7.513   8.002  1.00  0.00     0.164 C 
BRANCH  27  28
HETATM   28  O4  UNL     1       1.758   7.269   6.605  1.00  0.00    -0.401 OA
HETATM   29  H44 UNL     1       2.267   6.451   6.469  1.00  0.00     0.209 HD
ENDBRANCH  27  28
ENDBRANCH  26  27
ENDBRANCH  24  26
ENDBRANCH  23  24
ENDBRANCH  22  23
ENDBRANCH  13  22
BRANCH  11  30
HETATM   30  O3  UNL     1      -1.015   8.628  11.290  1.00  0.00    -0.390 OA
HETATM   31  H30 UNL     1      -1.064   9.555  11.577  1.00  0.00     0.210 HD
ENDBRANCH  11  30
TORSDOF 11
ENDMDL
