MODEL 1
REMARK minimizedAffinity -6.27624273
REMARK CNNscore 0.397353023
REMARK CNNaffinity 6.09184313
REMARK  8 active torsions:
REMARK  status: ('A' for Active; 'I' for Inactive)
REMARK    1  A    between atoms: C12_14  and  C13_15 
REMARK    2  A    between atoms: C13_15  and  C15_17 
REMARK    3  A    between atoms: C15_17  and  C16_18 
REMARK    4  A    between atoms: C16_18  and  C17_19 
REMARK    5  A    between atoms: C26_28  and  C27_29 
REMARK    6  A    between atoms: C27_29  and  C28_30 
REMARK    7  A    between atoms: C28_30  and  C29_31 
REMARK    8  A    between atoms: C29_31  and  O4_33 
ROOT
HETATM    1  C1  UNL     1       5.615  13.674  22.636  1.00  0.00     0.025 C 
HETATM    2  C2  UNL     1       5.184  13.372  21.407  1.00  0.00     0.015 C 
HETATM    3  C3  UNL     1       5.259  14.326  20.278  1.00  0.00     0.289 C 
HETATM    4  O1  UNL     1       5.515  15.513  20.351  1.00  0.00    -0.260 OA
HETATM    5  O2  UNL     1       4.968  13.644  19.139  1.00  0.00    -0.311 OA
HETATM    6  C4  UNL     1       4.926  12.239  19.420  1.00  0.00     0.142 C 
HETATM    7  C5  UNL     1       3.950  11.527  18.493  1.00  0.00     0.039 C 
HETATM    8  C6  UNL     1       2.517  12.046  18.678  1.00  0.00     0.006 C 
HETATM    9  C7  UNL     1       2.044  11.809  20.131  1.00  0.00    -0.027 A 
HETATM   10  C8  UNL     1       0.801  10.934  20.308  1.00  0.00     0.011 C 
HETATM   11  C9  UNL     1      -0.346  11.160  19.304  1.00  0.00     0.011 C 
HETATM   12  C10 UNL     1       0.049  11.923  18.030  1.00  0.00    -0.032 C 
HETATM   13  C11 UNL     1      -0.107  13.448  18.313  1.00  0.00     0.016 C 
HETATM   14  C12 UNL     1      -0.753  11.575  16.731  1.00  0.00    -0.002 C 
HETATM   15  C21 UNL     1       0.237  11.990  15.603  1.00  0.00     0.006 C 
HETATM   16  C22 UNL     1       1.633  12.133  16.233  1.00  0.00     0.011 C 
HETATM   17  C23 UNL     1       1.508  11.495  17.629  1.00  0.00    -0.032 C 
HETATM   18  C24 UNL     1       1.704   9.959  17.422  1.00  0.00     0.016 C 
HETATM   19  C25 UNL     1       2.157  12.986  21.076  1.00  0.00     0.022 A 
HETATM   20  C26 UNL     1       3.129  11.839  21.250  1.00  0.00    -0.021 A 
HETATM   21  C30 UNL     1       4.610  12.090  20.903  1.00  0.00     0.063 C 
ENDROOT
BRANCH  14  22
HETATM   22  C13 UNL     1      -2.184  12.159  16.509  1.00  0.00    -0.014 C 
HETATM   23  C14 UNL     1      -3.277  11.142  16.855  1.00  0.00     0.010 C 
BRANCH  22  24
HETATM   24  C15 UNL     1      -2.344  12.645  15.038  1.00  0.00     0.008 C 
BRANCH  24  25
HETATM   25  C16 UNL     1      -2.974  14.037  14.906  1.00  0.00     0.028 C 
BRANCH  25  26
HETATM   26  C17 UNL     1      -4.476  14.178  14.964  1.00  0.00    -0.025 C 
HETATM   27  C18 UNL     1      -5.308  15.214  14.732  1.00  0.00    -0.091 C 
HETATM   28  C19 UNL     1      -6.794  15.048  14.943  1.00  0.00     0.042 C 
HETATM   29  C20 UNL     1      -4.911  16.579  14.246  1.00  0.00     0.042 C 
ENDBRANCH  25  26
ENDBRANCH  24  25
ENDBRANCH  22  24
ENDBRANCH  14  22
BRANCH  20  30
HETATM   30  C27 UNL     1       2.948  11.009  22.526  1.00  0.00     0.021 C 
BRANCH  30  31
HETATM   31  C28 UNL     1       3.415   9.561  22.377  1.00  0.00     0.111 C 
BRANCH  31  32
HETATM   32  C29 UNL     1       2.485   8.618  23.090  1.00  0.00     0.139 C 
HETATM   33  O3  UNL     1       2.258   8.564  24.286  1.00  0.00    -0.650 OA
BRANCH  32  34
HETATM   34  O4  UNL     1       1.891   7.759  22.239  1.00  0.00    -0.776 OA
HETATM   35  H43 UNL     1       1.328   7.202  22.818  1.00  0.00     0.167 HD
ENDBRANCH  32  34
ENDBRANCH  31  32
ENDBRANCH  30  31
ENDBRANCH  20  30
TORSDOF 8
ENDMDL
MODEL 2
REMARK minimizedAffinity -7.04917765
REMARK CNNscore 0.370908886
REMARK CNNaffinity 6.0411725
REMARK  8 active torsions:
REMARK  status: ('A' for Active; 'I' for Inactive)
REMARK    1  A    between atoms: C12_14  and  C13_15 
REMARK    2  A    between atoms: C13_15  and  C15_17 
REMARK    3  A    between atoms: C15_17  and  C16_18 
REMARK    4  A    between atoms: C16_18  and  C17_19 
REMARK    5  A    between atoms: C26_28  and  C27_29 
REMARK    6  A    between atoms: C27_29  and  C28_30 
REMARK    7  A    between atoms: C28_30  and  C29_31 
REMARK    8  A    between atoms: C29_31  and  O4_33 
ROOT
HETATM    1  C1  UNL     1       6.243  13.347  23.012  1.00  0.00     0.025 C 
HETATM    2  C2  UNL     1       5.760  13.125  21.785  1.00  0.00     0.015 C 
HETATM    3  C3  UNL     1       5.838  14.132  20.703  1.00  0.00     0.289 C 
HETATM    4  O1  UNL     1       6.146  15.303  20.824  1.00  0.00    -0.260 OA
HETATM    5  O2  UNL     1       5.481  13.521  19.542  1.00  0.00    -0.311 OA
HETATM    6  C4  UNL     1       5.390  12.105  19.755  1.00  0.00     0.142 C 
HETATM    7  C5  UNL     1       4.356  11.482  18.828  1.00  0.00     0.039 C 
HETATM    8  C6  UNL     1       2.952  12.048  19.089  1.00  0.00     0.006 C 
HETATM    9  C7  UNL     1       2.518  11.756  20.544  1.00  0.00    -0.027 A 
HETATM   10  C8  UNL     1       1.246  10.925  20.721  1.00  0.00     0.011 C 
HETATM   11  C9  UNL     1       0.076  11.246  19.770  1.00  0.00     0.011 C 
HETATM   12  C10 UNL     1       0.461  12.057  18.522  1.00  0.00    -0.032 C 
HETATM   13  C11 UNL     1       0.379  13.571  18.885  1.00  0.00     0.016 C 
HETATM   14  C12 UNL     1      -0.397  11.807  17.236  1.00  0.00    -0.002 C 
HETATM   15  C21 UNL     1       0.572  12.238  16.096  1.00  0.00     0.006 C 
HETATM   16  C22 UNL     1       1.993  12.294  16.683  1.00  0.00     0.011 C 
HETATM   17  C23 UNL     1       1.886  11.591  18.050  1.00  0.00    -0.032 C 
HETATM   18  C24 UNL     1       2.012  10.061  17.761  1.00  0.00     0.016 C 
HETATM   19  C25 UNL     1       2.710  12.879  21.541  1.00  0.00     0.022 A 
HETATM   20  C26 UNL     1       3.639  11.686  21.624  1.00  0.00    -0.021 A 
HETATM   21  C30 UNL     1       5.117  11.895  21.238  1.00  0.00     0.063 C 
ENDROOT
BRANCH  14  22
HETATM   22  C13 UNL     1      -1.808  12.459  17.093  1.00  0.00    -0.014 C 
HETATM   23  C14 UNL     1      -1.759  13.760  16.285  1.00  0.00     0.010 C 
BRANCH  22  24
HETATM   24  C15 UNL     1      -2.425  12.719  18.500  1.00  0.00     0.008 C 
BRANCH  24  25
HETATM   25  C16 UNL     1      -3.957  12.654  18.532  1.00  0.00     0.028 C 
BRANCH  25  26
HETATM   26  C17 UNL     1      -4.675  12.767  19.854  1.00  0.00    -0.025 C 
HETATM   27  C18 UNL     1      -5.810  13.391  20.229  1.00  0.00    -0.091 C 
HETATM   28  C19 UNL     1      -6.238  13.369  21.678  1.00  0.00     0.042 C 
HETATM   29  C20 UNL     1      -6.757  14.129  19.327  1.00  0.00     0.042 C 
ENDBRANCH  25  26
ENDBRANCH  24  25
ENDBRANCH  22  24
ENDBRANCH  14  22
BRANCH  20  30
HETATM   30  C27 UNL     1       3.465  10.800  22.863  1.00  0.00     0.021 C 
BRANCH  30  31
HETATM   31  C28 UNL     1       3.632   9.310  22.570  1.00  0.00     0.111 C 
BRANCH  31  32
HETATM   32  C29 UNL     1       2.486   8.517  23.135  1.00  0.00     0.139 C 
HETATM   33  O3  UNL     1       2.078   8.520  24.283  1.00  0.00    -0.650 OA
BRANCH  32  34
HETATM   34  O4  UNL     1       1.913   7.727  22.206  1.00  0.00    -0.776 OA
HETATM   35  H43 UNL     1       1.199   7.265  22.694  1.00  0.00     0.167 HD
ENDBRANCH  32  34
ENDBRANCH  31  32
ENDBRANCH  30  31
ENDBRANCH  20  30
TORSDOF 8
ENDMDL
MODEL 3
REMARK minimizedAffinity -8.67538834
REMARK CNNscore 0.355908543
REMARK CNNaffinity 7.09335899
REMARK  8 active torsions:
REMARK  status: ('A' for Active; 'I' for Inactive)
REMARK    1  A    between atoms: C12_14  and  C13_15 
REMARK    2  A    between atoms: C13_15  and  C15_17 
REMARK    3  A    between atoms: C15_17  and  C16_18 
REMARK    4  A    between atoms: C16_18  and  C17_19 
REMARK    5  A    between atoms: C26_28  and  C27_29 
REMARK    6  A    between atoms: C27_29  and  C28_30 
REMARK    7  A    between atoms: C28_30  and  C29_31 
REMARK    8  A    between atoms: C29_31  and  O4_33 
ROOT
HETATM    1  C1  UNL     1     -10.626   6.487  14.152  1.00  0.00     0.025 C 
HETATM    2  C2  UNL     1      -9.476   6.904  14.694  1.00  0.00     0.015 C 
HETATM    3  C3  UNL     1      -9.193   8.332  14.961  1.00  0.00     0.289 C 
HETATM    4  O1  UNL     1      -9.837   9.284  14.562  1.00  0.00    -0.260 OA
HETATM    5  O2  UNL     1      -8.065   8.396  15.717  1.00  0.00    -0.311 OA
HETATM    6  C4  UNL     1      -7.710   7.079  16.160  1.00  0.00     0.142 C 
HETATM    7  C5  UNL     1      -6.203   6.953  16.338  1.00  0.00     0.039 C 
HETATM    8  C6  UNL     1      -5.459   7.178  15.014  1.00  0.00     0.006 C 
HETATM    9  C7  UNL     1      -5.899   6.129  13.966  1.00  0.00    -0.027 A 
HETATM   10  C8  UNL     1      -4.799   5.227  13.403  1.00  0.00     0.011 C 
HETATM   11  C9  UNL     1      -3.450   5.902  13.086  1.00  0.00     0.011 C 
HETATM   12  C10 UNL     1      -3.245   7.277  13.742  1.00  0.00    -0.032 C 
HETATM   13  C11 UNL     1      -3.835   8.360  12.789  1.00  0.00     0.016 C 
HETATM   14  C12 UNL     1      -1.770   7.671  14.089  1.00  0.00    -0.002 C 
HETATM   15  C21 UNL     1      -1.960   8.717  15.227  1.00  0.00     0.006 C 
HETATM   16  C22 UNL     1      -3.395   8.572  15.763  1.00  0.00     0.011 C 
HETATM   17  C23 UNL     1      -3.912   7.250  15.166  1.00  0.00    -0.032 C 
HETATM   18  C24 UNL     1      -3.392   6.118  16.109  1.00  0.00     0.016 C 
HETATM   19  C25 UNL     1      -6.955   6.570  12.975  1.00  0.00     0.022 A 
HETATM   20  C26 UNL     1      -7.360   5.595  14.059  1.00  0.00    -0.021 A 
HETATM   21  C30 UNL     1      -8.312   6.097  15.162  1.00  0.00     0.063 C 
ENDROOT
BRANCH  14  22
HETATM   22  C13 UNL     1      -0.808   8.180  12.970  1.00  0.00    -0.014 C 
HETATM   23  C14 UNL     1      -1.544   9.022  11.922  1.00  0.00     0.010 C 
BRANCH  22  24
HETATM   24  C15 UNL     1      -0.090   6.977  12.289  1.00  0.00     0.008 C 
BRANCH  24  25
HETATM   25  C16 UNL     1       1.273   7.327  11.679  1.00  0.00     0.028 C 
BRANCH  25  26
HETATM   26  C17 UNL     1       1.458   7.242  10.184  1.00  0.00    -0.025 C 
HETATM   27  C18 UNL     1       2.223   6.457   9.399  1.00  0.00    -0.091 C 
HETATM   28  C19 UNL     1       2.232   6.668   7.903  1.00  0.00     0.042 C 
HETATM   29  C20 UNL     1       3.099   5.327   9.859  1.00  0.00     0.042 C 
ENDBRANCH  25  26
ENDBRANCH  24  25
ENDBRANCH  22  24
ENDBRANCH  14  22
BRANCH  20  30
HETATM   30  C27 UNL     1      -7.698   4.178  13.579  1.00  0.00     0.021 C 
BRANCH  30  31
HETATM   31  C28 UNL     1      -7.091   3.840  12.218  1.00  0.00     0.111 C 
BRANCH  31  32
HETATM   32  C29 UNL     1      -6.956   2.352  12.043  1.00  0.00     0.139 C 
HETATM   33  O3  UNL     1      -6.132   1.758  11.370  1.00  0.00    -0.650 OA
BRANCH  32  34
HETATM   34  O4  UNL     1      -7.902   1.677  12.724  1.00  0.00    -0.776 OA
HETATM   35  H43 UNL     1      -7.714   0.736  12.522  1.00  0.00     0.167 HD
ENDBRANCH  32  34
ENDBRANCH  31  32
ENDBRANCH  30  31
ENDBRANCH  20  30
TORSDOF 8
ENDMDL
MODEL 4
REMARK minimizedAffinity -8.74775505
REMARK CNNscore 0.293376654
REMARK CNNaffinity 6.71987677
REMARK  8 active torsions:
REMARK  status: ('A' for Active; 'I' for Inactive)
REMARK    1  A    between atoms: C12_14  and  C13_15 
REMARK    2  A    between atoms: C13_15  and  C15_17 
REMARK    3  A    between atoms: C15_17  and  C16_18 
REMARK    4  A    between atoms: C16_18  and  C17_19 
REMARK    5  A    between atoms: C26_28  and  C27_29 
REMARK    6  A    between atoms: C27_29  and  C28_30 
REMARK    7  A    between atoms: C28_30  and  C29_31 
REMARK    8  A    between atoms: C29_31  and  O4_33 
ROOT
HETATM    1  C1  UNL     1       4.087   7.890   9.643  1.00  0.00     0.025 C 
HETATM    2  C2  UNL     1       3.040   7.216  10.133  1.00  0.00     0.015 C 
HETATM    3  C3  UNL     1       1.992   6.631   9.267  1.00  0.00     0.289 C 
HETATM    4  O1  UNL     1       1.833   6.843   8.080  1.00  0.00    -0.260 OA
HETATM    5  O2  UNL     1       1.218   5.825  10.041  1.00  0.00    -0.311 OA
HETATM    6  C4  UNL     1       1.831   5.664  11.327  1.00  0.00     0.142 C 
HETATM    7  C5  UNL     1       0.780   5.445  12.407  1.00  0.00     0.039 C 
HETATM    8  C6  UNL     1      -0.163   6.651  12.528  1.00  0.00     0.006 C 
HETATM    9  C7  UNL     1       0.637   7.922  12.898  1.00  0.00    -0.027 A 
HETATM   10  C8  UNL     1       0.246   8.614  14.206  1.00  0.00     0.011 C 
HETATM   11  C9  UNL     1      -1.262   8.711  14.509  1.00  0.00     0.011 C 
HETATM   12  C10 UNL     1      -2.149   7.763  13.687  1.00  0.00    -0.032 C 
HETATM   13  C11 UNL     1      -2.528   8.485  12.358  1.00  0.00     0.016 C 
HETATM   14  C12 UNL     1      -3.466   7.268  14.376  1.00  0.00    -0.002 C 
HETATM   15  C21 UNL     1      -3.763   5.940  13.619  1.00  0.00     0.006 C 
HETATM   16  C22 UNL     1      -2.477   5.518  12.888  1.00  0.00     0.011 C 
HETATM   17  C23 UNL     1      -1.371   6.413  13.479  1.00  0.00    -0.032 C 
HETATM   18  C24 UNL     1      -0.910   5.715  14.799  1.00  0.00     0.016 C 
HETATM   19  C25 UNL     1       1.005   8.843  11.755  1.00  0.00     0.022 A 
HETATM   20  C26 UNL     1       2.105   8.017  12.387  1.00  0.00    -0.021 A 
HETATM   21  C30 UNL     1       2.722   6.878  11.551  1.00  0.00     0.063 C 
ENDROOT
BRANCH  14  22
HETATM   22  C13 UNL     1      -4.715   8.202  14.448  1.00  0.00    -0.014 C 
HETATM   23  C14 UNL     1      -4.397   9.528  15.147  1.00  0.00     0.010 C 
BRANCH  22  24
HETATM   24  C15 UNL     1      -5.888   7.477  15.172  1.00  0.00     0.008 C 
BRANCH  24  25
HETATM   25  C16 UNL     1      -7.044   7.081  14.246  1.00  0.00     0.028 C 
BRANCH  25  26
HETATM   26  C17 UNL     1      -7.267   5.623  13.922  1.00  0.00    -0.025 C 
HETATM   27  C18 UNL     1      -7.978   4.997  12.963  1.00  0.00    -0.091 C 
HETATM   28  C19 UNL     1      -8.054   3.489  12.946  1.00  0.00     0.042 C 
HETATM   29  C20 UNL     1      -8.727   5.656  11.841  1.00  0.00     0.042 C 
ENDBRANCH  25  26
ENDBRANCH  24  25
ENDBRANCH  22  24
ENDBRANCH  14  22
BRANCH  20  30
HETATM   30  C27 UNL     1       3.151   8.810  13.179  1.00  0.00     0.021 C 
BRANCH  30  31
HETATM   31  C28 UNL     1       4.323   7.954  13.658  1.00  0.00     0.111 C 
BRANCH  31  32
HETATM   32  C29 UNL     1       4.451   8.003  15.156  1.00  0.00     0.139 C 
HETATM   33  O3  UNL     1       3.975   8.831  15.913  1.00  0.00    -0.650 OA
BRANCH  32  34
HETATM   34  O4  UNL     1       5.209   6.995  15.630  1.00  0.00    -0.776 OA
HETATM   35  H43 UNL     1       5.222   7.143  16.599  1.00  0.00     0.167 HD
ENDBRANCH  32  34
ENDBRANCH  31  32
ENDBRANCH  30  31
ENDBRANCH  20  30
TORSDOF 8
ENDMDL
MODEL 5
REMARK minimizedAffinity -8.03189564
REMARK CNNscore 0.262946814
REMARK CNNaffinity 6.67610121
REMARK  8 active torsions:
REMARK  status: ('A' for Active; 'I' for Inactive)
REMARK    1  A    between atoms: C12_14  and  C13_15 
REMARK    2  A    between atoms: C13_15  and  C15_17 
REMARK    3  A    between atoms: C15_17  and  C16_18 
REMARK    4  A    between atoms: C16_18  and  C17_19 
REMARK    5  A    between atoms: C26_28  and  C27_29 
REMARK    6  A    between atoms: C27_29  and  C28_30 
REMARK    7  A    between atoms: C28_30  and  C29_31 
REMARK    8  A    between atoms: C29_31  and  O4_33 
ROOT
HETATM    1  C1  UNL     1       2.297   8.579  11.746  1.00  0.00     0.025 C 
HETATM    2  C2  UNL     1       1.330   7.704  11.447  1.00  0.00     0.015 C 
HETATM    3  C3  UNL     1       0.459   7.854  10.259  1.00  0.00     0.289 C 
HETATM    4  O1  UNL     1       0.367   8.837   9.548  1.00  0.00    -0.260 OA
HETATM    5  O2  UNL     1      -0.243   6.699  10.113  1.00  0.00    -0.311 OA
HETATM    6  C4  UNL     1       0.279   5.704  11.004  1.00  0.00     0.142 C 
HETATM    7  C5  UNL     1      -0.811   4.732  11.433  1.00  0.00     0.039 C 
HETATM    8  C6  UNL     1      -1.934   5.447  12.197  1.00  0.00     0.006 C 
HETATM    9  C7  UNL     1      -1.373   6.118  13.472  1.00  0.00    -0.027 A 
HETATM   10  C8  UNL     1      -1.972   5.658  14.803  1.00  0.00     0.011 C 
HETATM   11  C9  UNL     1      -3.497   5.435  14.831  1.00  0.00     0.011 C 
HETATM   12  C10 UNL     1      -4.157   5.306  13.449  1.00  0.00    -0.032 C 
HETATM   13  C11 UNL     1      -4.531   6.737  12.956  1.00  0.00     0.016 C 
HETATM   14  C12 UNL     1      -5.434   4.403  13.368  1.00  0.00    -0.002 C 
HETATM   15  C21 UNL     1      -5.460   3.990  11.866  1.00  0.00     0.006 C 
HETATM   16  C22 UNL     1      -4.068   4.277  11.277  1.00  0.00     0.011 C 
HETATM   17  C23 UNL     1      -3.166   4.543  12.497  1.00  0.00    -0.032 C 
HETATM   18  C24 UNL     1      -2.713   3.140  13.013  1.00  0.00     0.016 C 
HETATM   19  C25 UNL     1      -1.058   7.596  13.372  1.00  0.00     0.022 A 
HETATM   20  C26 UNL     1       0.100   6.623  13.425  1.00  0.00    -0.021 A 
HETATM   21  C30 UNL     1       0.952   6.445  12.152  1.00  0.00     0.063 C 
ENDROOT
BRANCH  14  22
HETATM   22  C13 UNL     1      -6.813   4.945  13.858  1.00  0.00    -0.014 C 
HETATM   23  C14 UNL     1      -7.752   5.262  12.688  1.00  0.00     0.010 C 
BRANCH  22  24
HETATM   24  C15 UNL     1      -6.610   6.209  14.745  1.00  0.00     0.008 C 
BRANCH  24  25
HETATM   25  C16 UNL     1      -7.289   6.124  16.118  1.00  0.00     0.028 C 
BRANCH  25  26
HETATM   26  C17 UNL     1      -8.228   7.225  16.548  1.00  0.00    -0.025 C 
HETATM   27  C18 UNL     1      -9.383   7.695  16.036  1.00  0.00    -0.091 C 
HETATM   28  C19 UNL     1     -10.066   8.878  16.679  1.00  0.00     0.042 C 
HETATM   29  C20 UNL     1     -10.118   7.141  14.849  1.00  0.00     0.042 C 
ENDBRANCH  25  26
ENDBRANCH  24  25
ENDBRANCH  22  24
ENDBRANCH  14  22
BRANCH  20  30
HETATM   30  C27 UNL     1       0.943   6.671  14.705  1.00  0.00     0.021 C 
BRANCH  30  31
HETATM   31  C28 UNL     1       1.079   8.077  15.287  1.00  0.00     0.111 C 
BRANCH  31  32
HETATM   32  C29 UNL     1       2.423   8.265  15.937  1.00  0.00     0.139 C 
HETATM   33  O3  UNL     1       3.511   7.942  15.494  1.00  0.00    -0.650 OA
BRANCH  32  34
HETATM   34  O4  UNL     1       2.319   8.844  17.148  1.00  0.00    -0.776 OA
HETATM   35  H43 UNL     1       3.246   8.901  17.465  1.00  0.00     0.167 HD
ENDBRANCH  32  34
ENDBRANCH  31  32
ENDBRANCH  30  31
ENDBRANCH  20  30
TORSDOF 8
ENDMDL
MODEL 6
REMARK minimizedAffinity -7.60445833
REMARK CNNscore 0.224661604
REMARK CNNaffinity 6.26429939
REMARK  8 active torsions:
REMARK  status: ('A' for Active; 'I' for Inactive)
REMARK    1  A    between atoms: C12_14  and  C13_15 
REMARK    2  A    between atoms: C13_15  and  C15_17 
REMARK    3  A    between atoms: C15_17  and  C16_18 
REMARK    4  A    between atoms: C16_18  and  C17_19 
REMARK    5  A    between atoms: C26_28  and  C27_29 
REMARK    6  A    between atoms: C27_29  and  C28_30 
REMARK    7  A    between atoms: C28_30  and  C29_31 
REMARK    8  A    between atoms: C29_31  and  O4_33 
ROOT
HETATM    1  C1  UNL     1       2.031   5.468  10.785  1.00  0.00     0.025 C 
HETATM    2  C2  UNL     1       1.352   6.567  11.129  1.00  0.00     0.015 C 
HETATM    3  C3  UNL     1       1.987   7.900  11.227  1.00  0.00     0.289 C 
HETATM    4  O1  UNL     1       3.181   8.136  11.211  1.00  0.00    -0.260 OA
HETATM    5  O2  UNL     1       0.997   8.822  11.360  1.00  0.00    -0.311 OA
HETATM    6  C4  UNL     1      -0.273   8.198  11.128  1.00  0.00     0.142 C 
HETATM    7  C5  UNL     1      -1.370   8.884  11.931  1.00  0.00     0.039 C 
HETATM    8  C6  UNL     1      -1.110   8.783  13.441  1.00  0.00     0.006 C 
HETATM    9  C7  UNL     1      -1.062   7.301  13.879  1.00  0.00    -0.027 A 
HETATM   10  C8  UNL     1      -2.088   6.868  14.928  1.00  0.00     0.011 C 
HETATM   11  C9  UNL     1      -2.351   7.855  16.082  1.00  0.00     0.011 C 
HETATM   12  C10 UNL     1      -1.870   9.292  15.826  1.00  0.00    -0.032 C 
HETATM   13  C11 UNL     1      -0.383   9.393  16.284  1.00  0.00     0.016 C 
HETATM   14  C12 UNL     1      -2.683  10.434  16.524  1.00  0.00    -0.002 C 
HETATM   15  C21 UNL     1      -2.381  11.664  15.618  1.00  0.00     0.006 C 
HETATM   16  C22 UNL     1      -1.815  11.140  14.288  1.00  0.00     0.011 C 
HETATM   17  C23 UNL     1      -2.093   9.625  14.306  1.00  0.00    -0.032 C 
HETATM   18  C24 UNL     1      -3.563   9.449  13.808  1.00  0.00     0.016 C 
HETATM   19  C25 UNL     1       0.314   6.684  14.016  1.00  0.00     0.022 A 
HETATM   20  C26 UNL     1      -0.541   6.264  12.839  1.00  0.00    -0.021 A 
HETATM   21  C30 UNL     1      -0.102   6.715  11.432  1.00  0.00     0.063 C 
ENDROOT
BRANCH  14  22
HETATM   22  C13 UNL     1      -2.464  10.744  18.038  1.00  0.00    -0.014 C 
HETATM   23  C14 UNL     1      -3.409   9.933  18.931  1.00  0.00     0.010 C 
BRANCH  22  24
HETATM   24  C15 UNL     1      -2.641  12.268  18.307  1.00  0.00     0.008 C 
BRANCH  24  25
HETATM   25  C16 UNL     1      -4.083  12.682  18.627  1.00  0.00     0.028 C 
BRANCH  25  26
HETATM   26  C17 UNL     1      -4.419  13.188  20.009  1.00  0.00    -0.025 C 
HETATM   27  C18 UNL     1      -5.570  13.595  20.580  1.00  0.00    -0.091 C 
HETATM   28  C19 UNL     1      -5.564  14.117  21.997  1.00  0.00     0.042 C 
HETATM   29  C20 UNL     1      -6.931  13.574  19.946  1.00  0.00     0.042 C 
ENDBRANCH  25  26
ENDBRANCH  24  25
ENDBRANCH  22  24
ENDBRANCH  14  22
BRANCH  20  30
HETATM   30  C27 UNL     1      -1.042   4.816  12.872  1.00  0.00     0.021 C 
BRANCH  30  31
HETATM   31  C28 UNL     1      -1.557   4.323  11.520  1.00  0.00     0.111 C 
BRANCH  31  32
HETATM   32  C29 UNL     1      -1.106   2.913  11.253  1.00  0.00     0.139 C 
HETATM   33  O3  UNL     1       0.023   2.466  11.348  1.00  0.00    -0.650 OA
BRANCH  32  34
HETATM   34  O4  UNL     1      -2.124   2.128  10.848  1.00  0.00    -0.776 OA
HETATM   35  H43 UNL     1      -1.705   1.253  10.700  1.00  0.00     0.167 HD
ENDBRANCH  32  34
ENDBRANCH  31  32
ENDBRANCH  30  31
ENDBRANCH  20  30
TORSDOF 8
ENDMDL
MODEL 7
REMARK minimizedAffinity -7.98366356
REMARK CNNscore 0.213135153
REMARK CNNaffinity 6.11154556
REMARK  8 active torsions:
REMARK  status: ('A' for Active; 'I' for Inactive)
REMARK    1  A    between atoms: C12_14  and  C13_15 
REMARK    2  A    between atoms: C13_15  and  C15_17 
REMARK    3  A    between atoms: C15_17  and  C16_18 
REMARK    4  A    between atoms: C16_18  and  C17_19 
REMARK    5  A    between atoms: C26_28  and  C27_29 
REMARK    6  A    between atoms: C27_29  and  C28_30 
REMARK    7  A    between atoms: C28_30  and  C29_31 
REMARK    8  A    between atoms: C29_31  and  O4_33 
ROOT
HETATM    1  C1  UNL     1       4.058   8.071   9.569  1.00  0.00     0.025 C 
HETATM    2  C2  UNL     1       3.035   7.357  10.051  1.00  0.00     0.015 C 
HETATM    3  C3  UNL     1       1.975   6.798   9.182  1.00  0.00     0.289 C 
HETATM    4  O1  UNL     1       1.783   7.064   8.011  1.00  0.00    -0.260 OA
HETATM    5  O2  UNL     1       1.231   5.943   9.934  1.00  0.00    -0.311 OA
HETATM    6  C4  UNL     1       1.878   5.730  11.196  1.00  0.00     0.142 C 
HETATM    7  C5  UNL     1       0.857   5.443  12.289  1.00  0.00     0.039 C 
HETATM    8  C6  UNL     1      -0.100   6.626  12.490  1.00  0.00     0.006 C 
HETATM    9  C7  UNL     1       0.688   7.891  12.903  1.00  0.00    -0.027 A 
HETATM   10  C8  UNL     1       0.319   8.512  14.251  1.00  0.00     0.011 C 
HETATM   11  C9  UNL     1      -1.182   8.570  14.594  1.00  0.00     0.011 C 
HETATM   12  C10 UNL     1      -2.075   7.648  13.749  1.00  0.00    -0.032 C 
HETATM   13  C11 UNL     1      -2.496   8.427  12.466  1.00  0.00     0.016 C 
HETATM   14  C12 UNL     1      -3.367   7.099  14.443  1.00  0.00    -0.002 C 
HETATM   15  C21 UNL     1      -3.662   5.804  13.630  1.00  0.00     0.006 C 
HETATM   16  C22 UNL     1      -2.387   5.439  12.850  1.00  0.00     0.011 C 
HETATM   17  C23 UNL     1      -1.281   6.322  13.458  1.00  0.00    -0.032 C 
HETATM   18  C24 UNL     1      -0.778   5.569  14.730  1.00  0.00     0.016 C 
HETATM   19  C25 UNL     1       1.014   8.871  11.797  1.00  0.00     0.022 A 
HETATM   20  C26 UNL     1       2.143   8.035  12.362  1.00  0.00    -0.021 A 
HETATM   21  C30 UNL     1       2.756   6.947  11.458  1.00  0.00     0.063 C 
ENDROOT
BRANCH  14  22
HETATM   22  C13 UNL     1      -4.628   8.008  14.590  1.00  0.00    -0.014 C 
HETATM   23  C14 UNL     1      -5.618   7.803  13.438  1.00  0.00     0.010 C 
BRANCH  22  24
HETATM   24  C15 UNL     1      -4.204   9.504  14.680  1.00  0.00     0.008 C 
BRANCH  24  25
HETATM   25  C16 UNL     1      -4.323  10.103  16.086  1.00  0.00     0.028 C 
BRANCH  25  26
HETATM   26  C17 UNL     1      -3.089  10.221  16.947  1.00  0.00    -0.025 C 
HETATM   27  C18 UNL     1      -2.871  10.750  18.168  1.00  0.00    -0.091 C 
HETATM   28  C19 UNL     1      -1.474  10.770  18.742  1.00  0.00     0.042 C 
HETATM   29  C20 UNL     1      -3.911  11.337  19.079  1.00  0.00     0.042 C 
ENDBRANCH  25  26
ENDBRANCH  24  25
ENDBRANCH  22  24
ENDBRANCH  14  22
BRANCH  20  30
HETATM   30  C27 UNL     1       3.195   8.805  13.167  1.00  0.00     0.021 C 
BRANCH  30  31
HETATM   31  C28 UNL     1       4.319   7.916  13.700  1.00  0.00     0.111 C 
BRANCH  31  32
HETATM   32  C29 UNL     1       4.259   7.812  15.199  1.00  0.00     0.139 C 
HETATM   33  O3  UNL     1       3.517   8.415  15.955  1.00  0.00    -0.650 OA
BRANCH  32  34
HETATM   34  O4  UNL     1       5.174   6.948  15.681  1.00  0.00    -0.776 OA
HETATM   35  H43 UNL     1       5.041   6.978  16.652  1.00  0.00     0.167 HD
ENDBRANCH  32  34
ENDBRANCH  31  32
ENDBRANCH  30  31
ENDBRANCH  20  30
TORSDOF 8
ENDMDL
MODEL 8
REMARK minimizedAffinity -8.6461792
REMARK CNNscore 0.212153167
REMARK CNNaffinity 6.48492765
REMARK  8 active torsions:
REMARK  status: ('A' for Active; 'I' for Inactive)
REMARK    1  A    between atoms: C12_14  and  C13_15 
REMARK    2  A    between atoms: C13_15  and  C15_17 
REMARK    3  A    between atoms: C15_17  and  C16_18 
REMARK    4  A    between atoms: C16_18  and  C17_19 
REMARK    5  A    between atoms: C26_28  and  C27_29 
REMARK    6  A    between atoms: C27_29  and  C28_30 
REMARK    7  A    between atoms: C28_30  and  C29_31 
REMARK    8  A    between atoms: C29_31  and  O4_33 
ROOT
HETATM    1  C1  UNL     1      -5.904   6.228  15.421  1.00  0.00     0.025 C 
HETATM    2  C2  UNL     1      -4.650   6.678  15.308  1.00  0.00     0.015 C 
HETATM    3  C3  UNL     1      -4.303   8.111  15.440  1.00  0.00     0.289 C 
HETATM    4  O1  UNL     1      -5.081   9.045  15.462  1.00  0.00    -0.260 OA
HETATM    5  O2  UNL     1      -2.948   8.204  15.511  1.00  0.00    -0.311 OA
HETATM    6  C4  UNL     1      -2.386   6.893  15.662  1.00  0.00     0.142 C 
HETATM    7  C5  UNL     1      -1.000   6.820  15.036  1.00  0.00     0.039 C 
HETATM    8  C6  UNL     1      -1.050   7.095  13.526  1.00  0.00     0.006 C 
HETATM    9  C7  UNL     1      -1.942   6.049  12.819  1.00  0.00    -0.027 A 
HETATM   10  C8  UNL     1      -1.269   5.198  11.740  1.00  0.00     0.011 C 
HETATM   11  C9  UNL     1      -0.292   5.928  10.798  1.00  0.00     0.011 C 
HETATM   12  C10 UNL     1       0.190   7.298  11.301  1.00  0.00    -0.032 C 
HETATM   13  C11 UNL     1      -0.832   8.375  10.824  1.00  0.00     0.016 C 
HETATM   14  C12 UNL     1       1.624   7.741  10.853  1.00  0.00    -0.002 C 
HETATM   15  C21 UNL     1       2.023   8.759  11.961  1.00  0.00     0.006 C 
HETATM   16  C22 UNL     1       1.073   8.552  13.153  1.00  0.00     0.011 C 
HETATM   17  C23 UNL     1       0.353   7.222  12.863  1.00  0.00    -0.032 C 
HETATM   18  C24 UNL     1       1.310   6.094  13.366  1.00  0.00     0.016 C 
HETATM   19  C25 UNL     1      -3.368   6.468  12.528  1.00  0.00     0.022 A 
HETATM   20  C26 UNL     1      -3.133   5.459  13.632  1.00  0.00    -0.021 A 
HETATM   21  C30 UNL     1      -3.392   5.907  15.084  1.00  0.00     0.063 C 
ENDROOT
BRANCH  14  22
HETATM   22  C13 UNL     1       1.860   8.304   9.416  1.00  0.00    -0.014 C 
HETATM   23  C14 UNL     1       0.552   8.417   8.624  1.00  0.00     0.010 C 
BRANCH  22  24
HETATM   24  C15 UNL     1       2.881   7.413   8.650  1.00  0.00     0.008 C 
BRANCH  24  25
HETATM   25  C16 UNL     1       2.252   6.543   7.555  1.00  0.00     0.028 C 
BRANCH  25  26
HETATM   26  C17 UNL     1       2.984   5.313   7.074  1.00  0.00    -0.025 C 
HETATM   27  C18 UNL     1       3.619   4.315   7.720  1.00  0.00    -0.091 C 
HETATM   28  C19 UNL     1       4.326   3.238   6.932  1.00  0.00     0.042 C 
HETATM   29  C20 UNL     1       3.697   4.130   9.209  1.00  0.00     0.042 C 
ENDBRANCH  25  26
ENDBRANCH  24  25
ENDBRANCH  22  24
ENDBRANCH  14  22
BRANCH  20  30
HETATM   30  C27 UNL     1      -3.638   4.040  13.347  1.00  0.00     0.021 C 
BRANCH  30  31
HETATM   31  C28 UNL     1      -4.762   3.994  12.312  1.00  0.00     0.111 C 
BRANCH  31  32
HETATM   32  C29 UNL     1      -4.339   3.224  11.091  1.00  0.00     0.139 C 
HETATM   33  O3  UNL     1      -4.527   3.524   9.925  1.00  0.00    -0.650 OA
BRANCH  32  34
HETATM   34  O4  UNL     1      -3.706   2.079  11.411  1.00  0.00    -0.776 OA
HETATM   35  H43 UNL     1      -3.494   1.673  10.544  1.00  0.00     0.167 HD
ENDBRANCH  32  34
ENDBRANCH  31  32
ENDBRANCH  30  31
ENDBRANCH  20  30
TORSDOF 8
ENDMDL
MODEL 9
REMARK minimizedAffinity -7.88612127
REMARK CNNscore 0.191220507
REMARK CNNaffinity 6.35294485
REMARK  8 active torsions:
REMARK  status: ('A' for Active; 'I' for Inactive)
REMARK    1  A    between atoms: C12_14  and  C13_15 
REMARK    2  A    between atoms: C13_15  and  C15_17 
REMARK    3  A    between atoms: C15_17  and  C16_18 
REMARK    4  A    between atoms: C16_18  and  C17_19 
REMARK    5  A    between atoms: C26_28  and  C27_29 
REMARK    6  A    between atoms: C27_29  and  C28_30 
REMARK    7  A    between atoms: C28_30  and  C29_31 
REMARK    8  A    between atoms: C29_31  and  O4_33 
ROOT
HETATM    1  C1  UNL     1       3.265   8.716  11.611  1.00  0.00     0.025 C 
HETATM    2  C2  UNL     1       2.238   7.860  11.651  1.00  0.00     0.015 C 
HETATM    3  C3  UNL     1       1.441   7.513  10.453  1.00  0.00     0.289 C 
HETATM    4  O1  UNL     1       1.473   8.077   9.375  1.00  0.00    -0.260 OA
HETATM    5  O2  UNL     1       0.645   6.459  10.776  1.00  0.00    -0.311 OA
HETATM    6  C4  UNL     1       1.032   5.941  12.055  1.00  0.00     0.142 C 
HETATM    7  C5  UNL     1      -0.160   5.331  12.779  1.00  0.00     0.039 C 
HETATM    8  C6  UNL     1      -1.249   6.378  13.051  1.00  0.00     0.006 C 
HETATM    9  C7  UNL     1      -0.691   7.515  13.938  1.00  0.00    -0.027 A 
HETATM   10  C8  UNL     1      -1.391   7.737  15.280  1.00  0.00     0.011 C 
HETATM   11  C9  UNL     1      -2.930   7.642  15.278  1.00  0.00     0.011 C 
HETATM   12  C10 UNL     1      -3.533   6.947  14.047  1.00  0.00    -0.032 C 
HETATM   13  C11 UNL     1      -3.752   8.025  12.942  1.00  0.00     0.016 C 
HETATM   14  C12 UNL     1      -4.881   6.182  14.268  1.00  0.00    -0.002 C 
HETATM   15  C21 UNL     1      -4.873   5.143  13.109  1.00  0.00     0.006 C 
HETATM   16  C22 UNL     1      -3.434   5.051  12.571  1.00  0.00     0.011 C 
HETATM   17  C23 UNL     1      -2.571   5.780  13.617  1.00  0.00    -0.032 C 
HETATM   18  C24 UNL     1      -2.272   4.733  14.737  1.00  0.00     0.016 C 
HETATM   19  C25 UNL     1      -0.239   8.769  13.220  1.00  0.00     0.022 A 
HETATM   20  C26 UNL     1       0.823   7.856  13.795  1.00  0.00    -0.021 A 
HETATM   21  C30 UNL     1       1.714   7.076  12.808  1.00  0.00     0.063 C 
ENDROOT
BRANCH  14  22
HETATM   22  C13 UNL     1      -6.227   6.968  14.351  1.00  0.00    -0.014 C 
HETATM   23  C14 UNL     1      -6.314   7.822  15.621  1.00  0.00     0.010 C 
BRANCH  22  24
HETATM   24  C15 UNL     1      -7.431   5.983  14.280  1.00  0.00     0.008 C 
BRANCH  24  25
HETATM   25  C16 UNL     1      -8.386   6.248  13.109  1.00  0.00     0.028 C 
BRANCH  25  26
HETATM   26  C17 UNL     1      -9.861   6.416  13.380  1.00  0.00    -0.025 C 
HETATM   27  C18 UNL     1     -10.556   7.256  14.173  1.00  0.00    -0.091 C 
HETATM   28  C19 UNL     1     -12.057   7.126  14.275  1.00  0.00     0.042 C 
HETATM   29  C20 UNL     1      -9.985   8.374  14.998  1.00  0.00     0.042 C 
ENDBRANCH  25  26
ENDBRANCH  24  25
ENDBRANCH  22  24
ENDBRANCH  14  22
BRANCH  20  30
HETATM   30  C27 UNL     1       1.605   8.422  14.986  1.00  0.00     0.021 C 
BRANCH  30  31
HETATM   31  C28 UNL     1       2.637   7.446  15.550  1.00  0.00     0.111 C 
BRANCH  31  32
HETATM   32  C29 UNL     1       4.035   7.968  15.357  1.00  0.00     0.139 C 
HETATM   33  O3  UNL     1       4.367   9.103  15.062  1.00  0.00    -0.650 OA
BRANCH  32  34
HETATM   34  O4  UNL     1       4.960   7.004  15.528  1.00  0.00    -0.776 OA
HETATM   35  H43 UNL     1       5.813   7.462  15.368  1.00  0.00     0.167 HD
ENDBRANCH  32  34
ENDBRANCH  31  32
ENDBRANCH  30  31
ENDBRANCH  20  30
TORSDOF 8
ENDMDL
