MODEL 1
REMARK minimizedAffinity -8.65318775
REMARK CNNscore 0.424475551
REMARK CNNaffinity 6.55848312
REMARK  15 active torsions:
REMARK  status: ('A' for Active; 'I' for Inactive)
REMARK    1  A    between atoms: N1_2  and  C2_3 
REMARK    2  A    between atoms: C2_3  and  C3_4 
REMARK    3  A    between atoms: C3_4  and  C4_5 
REMARK    4  A    between atoms: C4_5  and  C5_6 
REMARK    5  A    between atoms: C4_5  and  C6_9 
REMARK    6  A    between atoms: C5_6  and  O2_8 
REMARK    7  A    between atoms: C6_9  and  C7_11 
REMARK    8  A    between atoms: C7_11  and  O4_12 
REMARK    9  A    between atoms: C7_11  and  C8_13 
REMARK   10  A    between atoms: C8_13  and  C9_14 
REMARK   11  A    between atoms: C9_14  and  C11_16 
REMARK   12  A    between atoms: C13_18  and  O5_19 
REMARK   13  A    between atoms: C16_22  and  O6_23 
REMARK   14  A    between atoms: C34_43  and  C35_44 
REMARK   15  A    between atoms: C36_45  and  C37_46 
ROOT
HETATM    1  C11 UNL     1      -1.438   7.110  13.893  1.00  0.00     0.002 C 
HETATM    2  C12 UNL     1      -2.912   7.572  13.563  1.00  0.00     0.049 C 
HETATM    3  C13 UNL     1      -3.267   8.532  14.711  1.00  0.00     0.088 C 
HETATM    4  C14 UNL     1      -4.363   9.545  14.658  1.00  0.00     0.011 C 
HETATM    5  C15 UNL     1      -4.311  10.563  15.550  1.00  0.00     0.015 C 
HETATM    6  C16 UNL     1      -3.180  10.704  16.594  1.00  0.00     0.108 C 
HETATM    7  C17 UNL     1      -1.830  10.189  16.078  1.00  0.00    -0.018 C 
HETATM    8  C18 UNL     1      -0.615  10.554  16.568  1.00  0.00     0.003 C 
HETATM    9  C19 UNL     1       0.625   9.964  15.883  1.00  0.00     0.157 C 
HETATM   10  O7  UNL     1       1.737  10.463  16.047  1.00  0.00    -0.293 OA
HETATM   11  C20 UNL     1       0.500   8.771  14.895  1.00  0.00     0.094 C 
HETATM   12  C21 UNL     1      -0.884   8.123  14.975  1.00  0.00    -0.019 C 
HETATM   13  C22 UNL     1      -0.846   7.322  16.334  1.00  0.00     0.017 C 
HETATM   14  C23 UNL     1      -1.917   9.278  14.884  1.00  0.00     0.026 C 
HETATM   15  C24 UNL     1      -1.688  10.248  13.654  1.00  0.00     0.025 C 
HETATM   16  C25 UNL     1      -0.547  11.600  17.706  1.00  0.00    -0.007 C 
HETATM   17  C26 UNL     1      -0.848  10.856  19.030  1.00  0.00     0.021 C 
HETATM   18  C27 UNL     1       0.821  12.304  17.958  1.00  0.00     0.022 C 
HETATM   19  C28 UNL     1       1.058  13.494  17.049  1.00  0.00     0.080 C 
HETATM   20  C29 UNL     1       0.071  14.582  17.411  1.00  0.00     0.135 C 
HETATM   21  O8  UNL     1       0.413  15.765  17.357  1.00  0.00    -0.297 OA
HETATM   22  C30 UNL     1      -1.363  14.156  17.819  1.00  0.00     0.018 C 
HETATM   23  C31 UNL     1      -2.316  15.168  17.139  1.00  0.00     0.023 C 
HETATM   24  C32 UNL     1      -1.492  14.329  19.339  1.00  0.00     0.023 C 
HETATM   25  C33 UNL     1      -1.609  12.699  17.270  1.00  0.00     0.025 C 
HETATM   26  C34 UNL     1      -3.092  12.179  17.167  1.00  0.00     0.057 C 
ENDROOT
BRANCH   1  27
HETATM   27  C9  UNL     1      -0.547   6.685  12.694  1.00  0.00    -0.011 C 
HETATM   28  C10 UNL     1       0.819   6.093  13.055  1.00  0.00     0.010 C 
BRANCH  27  29
HETATM   29  C8  UNL     1      -0.333   7.905  11.752  1.00  0.00     0.044 C 
BRANCH  29  30
HETATM   30  C7  UNL     1       1.126   8.113  11.320  1.00  0.00     0.188 C 
BRANCH  30  31
HETATM   31  C6  UNL     1       1.242   7.864   9.804  1.00  0.00     0.169 C 
HETATM   32  O3  UNL     1       0.259   8.017   9.071  1.00  0.00    -0.294 OA
BRANCH  31  33
HETATM   33  C4  UNL     1       2.589   7.410   9.263  1.00  0.00     0.157 C 
BRANCH  33  34
HETATM   34  C3  UNL     1       3.334   6.475  10.233  1.00  0.00     0.053 C 
BRANCH  34  35
HETATM   35  C2  UNL     1       4.709   6.997  10.669  1.00  0.00     0.270 C 
BRANCH  35  36
HETATM   36  N1  UNL     1       5.383   6.168  11.674  1.00  0.00     0.079 N 
HETATM   37  C1  UNL     1       6.259   6.949  12.541  1.00  0.00     0.306 C 
HETATM   38  H4  UNL     1       5.955   5.478  11.181  1.00  0.00     0.315 HD
ENDBRANCH  35  36
ENDBRANCH  34  35
ENDBRANCH  33  34
BRANCH  33  39
HETATM   39  C5  UNL     1       2.433   6.695   7.949  1.00  0.00     0.151 C 
HETATM   40  O1  UNL     1       2.703   5.532   7.704  1.00  0.00    -0.649 OA
BRANCH  39  41
HETATM   41  O2  UNL     1       1.963   7.502   6.975  1.00  0.00    -0.776 OA
HETATM   42  H10 UNL     1       1.898   6.919   6.190  1.00  0.00     0.167 HD
ENDBRANCH  39  41
ENDBRANCH  33  39
ENDBRANCH  31  33
ENDBRANCH  30  31
BRANCH  30  43
HETATM   43  O4  UNL     1       1.587   9.386  11.732  1.00  0.00    -0.388 OA
HETATM   44  H12 UNL     1       2.561   9.351  11.772  1.00  0.00     0.210 HD
ENDBRANCH  30  43
ENDBRANCH  29  30
ENDBRANCH  27  29
ENDBRANCH   1  27
BRANCH   3  45
HETATM   45  O5  UNL     1      -3.603   7.730  15.848  1.00  0.00    -0.385 OA
HETATM   46  H22 UNL     1      -4.510   7.385  15.694  1.00  0.00     0.211 HD
ENDBRANCH   3  45
BRANCH   6  47
HETATM   47  O6  UNL     1      -3.569   9.794  17.633  1.00  0.00    -0.380 OA
HETATM   48  H25 UNL     1      -3.479   8.889  17.266  1.00  0.00     0.211 HD
ENDBRANCH   6  47
BRANCH  26  49
HETATM   49  C35 UNL     1      -3.916  12.334  18.431  1.00  0.00    -0.017 C 
HETATM   50  C36 UNL     1      -4.913  13.222  18.576  1.00  0.00     0.008 C 
BRANCH  50  51
HETATM   51  C37 UNL     1      -5.741  13.318  19.785  1.00  0.00    -0.036 A 
HETATM   52  C38 UNL     1      -5.133  13.191  21.042  1.00  0.00     0.011 A 
HETATM   53  C39 UNL     1      -5.888  13.316  22.212  1.00  0.00     0.001 A 
HETATM   54  C40 UNL     1      -7.256  13.575  22.136  1.00  0.00     0.000 A 
HETATM   55  C41 UNL     1      -7.870  13.717  20.893  1.00  0.00     0.001 A 
HETATM   56  C42 UNL     1      -7.116  13.593  19.722  1.00  0.00     0.011 A 
ENDBRANCH  50  51
ENDBRANCH  26  49
TORSDOF 15
ENDMDL
MODEL 2
REMARK minimizedAffinity -8.13752747
REMARK CNNscore 0.366466463
REMARK CNNaffinity 6.80728769
REMARK  15 active torsions:
REMARK  status: ('A' for Active; 'I' for Inactive)
REMARK    1  A    between atoms: N1_2  and  C2_3 
REMARK    2  A    between atoms: C2_3  and  C3_4 
REMARK    3  A    between atoms: C3_4  and  C4_5 
REMARK    4  A    between atoms: C4_5  and  C5_6 
REMARK    5  A    between atoms: C4_5  and  C6_9 
REMARK    6  A    between atoms: C5_6  and  O2_8 
REMARK    7  A    between atoms: C6_9  and  C7_11 
REMARK    8  A    between atoms: C7_11  and  O4_12 
REMARK    9  A    between atoms: C7_11  and  C8_13 
REMARK   10  A    between atoms: C8_13  and  C9_14 
REMARK   11  A    between atoms: C9_14  and  C11_16 
REMARK   12  A    between atoms: C13_18  and  O5_19 
REMARK   13  A    between atoms: C16_22  and  O6_23 
REMARK   14  A    between atoms: C34_43  and  C35_44 
REMARK   15  A    between atoms: C36_45  and  C37_46 
ROOT
HETATM    1  C11 UNL     1      -1.650   8.059  14.116  1.00  0.00     0.002 C 
HETATM    2  C12 UNL     1      -3.096   8.673  13.951  1.00  0.00     0.049 C 
HETATM    3  C13 UNL     1      -3.268   9.563  15.193  1.00  0.00     0.088 C 
HETATM    4  C14 UNL     1      -4.266  10.667  15.311  1.00  0.00     0.011 C 
HETATM    5  C15 UNL     1      -4.048  11.601  16.268  1.00  0.00     0.015 C 
HETATM    6  C16 UNL     1      -2.829  11.557  17.218  1.00  0.00     0.108 C 
HETATM    7  C17 UNL     1      -1.579  10.972  16.550  1.00  0.00    -0.018 C 
HETATM    8  C18 UNL     1      -0.300  11.189  16.958  1.00  0.00     0.003 C 
HETATM    9  C19 UNL     1       0.822  10.552  16.126  1.00  0.00     0.157 C 
HETATM   10  O7  UNL     1       1.985  10.938  16.230  1.00  0.00    -0.293 OA
HETATM   11  C20 UNL     1       0.507   9.459  15.068  1.00  0.00     0.094 C 
HETATM   12  C21 UNL     1      -0.920   8.929  15.219  1.00  0.00    -0.019 C 
HETATM   13  C22 UNL     1      -0.848   8.019  16.506  1.00  0.00     0.017 C 
HETATM   14  C23 UNL     1      -1.845  10.172  15.304  1.00  0.00     0.026 C 
HETATM   15  C24 UNL     1      -1.626  11.217  14.134  1.00  0.00     0.025 C 
HETATM   16  C25 UNL     1      -0.044  12.129  18.161  1.00  0.00    -0.007 C 
HETATM   17  C26 UNL     1      -0.307  11.308  19.447  1.00  0.00     0.021 C 
HETATM   18  C27 UNL     1       1.399  12.689  18.344  1.00  0.00     0.022 C 
HETATM   19  C28 UNL     1       1.672  13.924  17.510  1.00  0.00     0.080 C 
HETATM   20  C29 UNL     1       0.822  15.061  18.035  1.00  0.00     0.135 C 
HETATM   21  O8  UNL     1       1.268  16.210  18.040  1.00  0.00    -0.297 OA
HETATM   22  C30 UNL     1      -0.608  14.728  18.534  1.00  0.00     0.018 C 
HETATM   23  C31 UNL     1      -1.514  15.871  18.016  1.00  0.00     0.023 C 
HETATM   24  C32 UNL     1      -0.598  14.787  20.067  1.00  0.00     0.023 C 
HETATM   25  C33 UNL     1      -1.031  13.348  17.901  1.00  0.00     0.025 C 
HETATM   26  C34 UNL     1      -2.559  12.968  17.889  1.00  0.00     0.057 C 
ENDROOT
BRANCH   1  27
HETATM   27  C9  UNL     1      -0.901   7.658  12.816  1.00  0.00    -0.011 C 
HETATM   28  C10 UNL     1      -0.541   8.809  11.872  1.00  0.00     0.010 C 
BRANCH  27  29
HETATM   29  C8  UNL     1      -1.750   6.614  12.034  1.00  0.00     0.044 C 
BRANCH  29  30
HETATM   30  C7  UNL     1      -1.184   5.187  12.079  1.00  0.00     0.188 C 
BRANCH  30  31
HETATM   31  C6  UNL     1      -2.277   4.228  12.590  1.00  0.00     0.169 C 
HETATM   32  O3  UNL     1      -2.804   4.417  13.691  1.00  0.00    -0.294 OA
BRANCH  31  33
HETATM   33  C4  UNL     1      -2.654   3.051  11.703  1.00  0.00     0.157 C 
BRANCH  33  34
HETATM   34  C3  UNL     1      -3.556   3.460  10.525  1.00  0.00     0.053 C 
BRANCH  34  35
HETATM   35  C2  UNL     1      -5.057   3.376  10.831  1.00  0.00     0.270 C 
BRANCH  35  36
HETATM   36  N1  UNL     1      -5.721   2.184  10.293  1.00  0.00     0.079 N 
HETATM   37  C1  UNL     1      -5.895   1.143  11.302  1.00  0.00     0.306 C 
HETATM   38  H4  UNL     1      -5.134   1.806   9.545  1.00  0.00     0.315 HD
ENDBRANCH  35  36
ENDBRANCH  34  35
ENDBRANCH  33  34
BRANCH  33  39
HETATM   39  C5  UNL     1      -1.430   2.378  11.147  1.00  0.00     0.151 C 
HETATM   40  O1  UNL     1      -0.386   2.144  11.731  1.00  0.00    -0.649 OA
BRANCH  39  41
HETATM   41  O2  UNL     1      -1.566   2.053   9.845  1.00  0.00    -0.776 OA
HETATM   42  H10 UNL     1      -0.717   1.619   9.615  1.00  0.00     0.167 HD
ENDBRANCH  39  41
ENDBRANCH  33  39
ENDBRANCH  31  33
ENDBRANCH  30  31
BRANCH  30  43
HETATM   43  O4  UNL     1      -0.645   4.829  10.821  1.00  0.00    -0.388 OA
HETATM   44  H12 UNL     1      -0.002   4.111  10.966  1.00  0.00     0.210 HD
ENDBRANCH  30  43
ENDBRANCH  29  30
ENDBRANCH  27  29
ENDBRANCH   1  27
BRANCH   3  45
HETATM   45  O5  UNL     1      -3.585   8.703  16.293  1.00  0.00    -0.385 OA
HETATM   46  H22 UNL     1      -4.530   8.451  16.193  1.00  0.00     0.211 HD
ENDBRANCH   3  45
BRANCH   6  47
HETATM   47  O6  UNL     1      -3.218  10.603  18.217  1.00  0.00    -0.380 OA
HETATM   48  H25 UNL     1      -3.241   9.726  17.776  1.00  0.00     0.211 HD
ENDBRANCH   6  47
BRANCH  26  49
HETATM   49  C35 UNL     1      -3.262  13.089  19.228  1.00  0.00    -0.017 C 
HETATM   50  C36 UNL     1      -4.268  13.944  19.475  1.00  0.00     0.008 C 
BRANCH  50  51
HETATM   51  C37 UNL     1      -4.979  14.007  20.758  1.00  0.00    -0.036 A 
HETATM   52  C38 UNL     1      -4.607  14.980  21.698  1.00  0.00     0.011 A 
HETATM   53  C39 UNL     1      -5.289  15.091  22.914  1.00  0.00     0.001 A 
HETATM   54  C40 UNL     1      -6.353  14.234  23.198  1.00  0.00     0.000 A 
HETATM   55  C41 UNL     1      -6.740  13.273  22.267  1.00  0.00     0.001 A 
HETATM   56  C42 UNL     1      -6.059  13.161  21.051  1.00  0.00     0.011 A 
ENDBRANCH  50  51
ENDBRANCH  26  49
TORSDOF 15
ENDMDL
MODEL 3
REMARK minimizedAffinity -7.74460316
REMARK CNNscore 0.348851681
REMARK CNNaffinity 6.45122957
REMARK  15 active torsions:
REMARK  status: ('A' for Active; 'I' for Inactive)
REMARK    1  A    between atoms: N1_2  and  C2_3 
REMARK    2  A    between atoms: C2_3  and  C3_4 
REMARK    3  A    between atoms: C3_4  and  C4_5 
REMARK    4  A    between atoms: C4_5  and  C5_6 
REMARK    5  A    between atoms: C4_5  and  C6_9 
REMARK    6  A    between atoms: C5_6  and  O2_8 
REMARK    7  A    between atoms: C6_9  and  C7_11 
REMARK    8  A    between atoms: C7_11  and  O4_12 
REMARK    9  A    between atoms: C7_11  and  C8_13 
REMARK   10  A    between atoms: C8_13  and  C9_14 
REMARK   11  A    between atoms: C9_14  and  C11_16 
REMARK   12  A    between atoms: C13_18  and  O5_19 
REMARK   13  A    between atoms: C16_22  and  O6_23 
REMARK   14  A    between atoms: C34_43  and  C35_44 
REMARK   15  A    between atoms: C36_45  and  C37_46 
ROOT
HETATM    1  C11 UNL     1      -0.963   8.296  14.387  1.00  0.00     0.002 C 
HETATM    2  C12 UNL     1      -2.526   8.382  14.175  1.00  0.00     0.049 C 
HETATM    3  C13 UNL     1      -3.010   9.281  15.323  1.00  0.00     0.088 C 
HETATM    4  C14 UNL     1      -4.318  10.002  15.340  1.00  0.00     0.011 C 
HETATM    5  C15 UNL     1      -4.442  11.044  16.198  1.00  0.00     0.015 C 
HETATM    6  C16 UNL     1      -3.299  11.495  17.137  1.00  0.00     0.108 C 
HETATM    7  C17 UNL     1      -1.910  11.291  16.519  1.00  0.00    -0.018 C 
HETATM    8  C18 UNL     1      -0.783  11.955  16.893  1.00  0.00     0.003 C 
HETATM    9  C19 UNL     1       0.505  11.645  16.119  1.00  0.00     0.157 C 
HETATM   10  O7  UNL     1       1.475  12.399  16.174  1.00  0.00    -0.293 OA
HETATM   11  C20 UNL     1       0.592  10.412  15.177  1.00  0.00     0.094 C 
HETATM   12  C21 UNL     1      -0.585   9.460  15.392  1.00  0.00    -0.019 C 
HETATM   13  C22 UNL     1      -0.252   8.753  16.763  1.00  0.00     0.017 C 
HETATM   14  C23 UNL     1      -1.869  10.332  15.361  1.00  0.00     0.026 C 
HETATM   15  C24 UNL     1      -1.975  11.273  14.092  1.00  0.00     0.025 C 
HETATM   16  C25 UNL     1      -0.879  13.037  17.995  1.00  0.00    -0.007 C 
HETATM   17  C26 UNL     1      -0.890  12.304  19.358  1.00  0.00     0.021 C 
HETATM   18  C27 UNL     1       0.295  14.056  18.110  1.00  0.00     0.022 C 
HETATM   19  C28 UNL     1       0.170  15.226  17.154  1.00  0.00     0.080 C 
HETATM   20  C29 UNL     1      -1.019  16.065  17.572  1.00  0.00     0.135 C 
HETATM   21  O8  UNL     1      -0.975  17.292  17.459  1.00  0.00    -0.297 OA
HETATM   22  C30 UNL     1      -2.272  15.331  18.113  1.00  0.00     0.018 C 
HETATM   23  C31 UNL     1      -3.490  16.056  17.492  1.00  0.00     0.023 C 
HETATM   24  C32 UNL     1      -2.320  15.537  19.632  1.00  0.00     0.023 C 
HETATM   25  C33 UNL     1      -2.205  13.834  17.624  1.00  0.00     0.025 C 
HETATM   26  C34 UNL     1      -3.523  12.973  17.662  1.00  0.00     0.057 C 
ENDROOT
BRANCH   1  27
HETATM   27  C9  UNL     1      -0.092   8.040  13.128  1.00  0.00    -0.011 C 
HETATM   28  C10 UNL     1      -0.510   8.797  11.863  1.00  0.00     0.010 C 
BRANCH  27  29
HETATM   29  C8  UNL     1      -0.072   6.515  12.816  1.00  0.00     0.044 C 
BRANCH  29  30
HETATM   30  C7  UNL     1       1.334   5.941  12.590  1.00  0.00     0.188 C 
BRANCH  30  31
HETATM   31  C6  UNL     1       1.580   5.795  11.076  1.00  0.00     0.169 C 
HETATM   32  O3  UNL     1       1.033   4.886  10.442  1.00  0.00    -0.294 OA
BRANCH  31  33
HETATM   33  C4  UNL     1       2.524   6.787  10.414  1.00  0.00     0.157 C 
BRANCH  33  34
HETATM   34  C3  UNL     1       3.888   6.167  10.063  1.00  0.00     0.053 C 
BRANCH  34  35
HETATM   35  C2  UNL     1       4.976   6.418  11.115  1.00  0.00     0.270 C 
BRANCH  35  36
HETATM   36  N1  UNL     1       6.344   6.415  10.586  1.00  0.00     0.079 N 
HETATM   37  C1  UNL     1       7.329   6.799  11.593  1.00  0.00     0.306 C 
HETATM   38  H4  UNL     1       6.388   7.094   9.822  1.00  0.00     0.315 HD
ENDBRANCH  35  36
ENDBRANCH  34  35
ENDBRANCH  33  34
BRANCH  33  39
HETATM   39  C5  UNL     1       1.924   7.347   9.154  1.00  0.00     0.151 C 
HETATM   40  O1  UNL     1       0.749   7.593   8.941  1.00  0.00    -0.649 OA
BRANCH  39  41
HETATM   41  O2  UNL     1       2.844   7.546   8.188  1.00  0.00    -0.776 OA
HETATM   42  H10 UNL     1       2.331   7.918   7.439  1.00  0.00     0.167 HD
ENDBRANCH  39  41
ENDBRANCH  33  39
ENDBRANCH  31  33
ENDBRANCH  30  31
BRANCH  30  43
HETATM   43  O4  UNL     1       2.302   6.727  13.259  1.00  0.00    -0.388 OA
HETATM   44  H12 UNL     1       3.090   6.170  13.401  1.00  0.00     0.210 HD
ENDBRANCH  30  43
ENDBRANCH  29  30
ENDBRANCH  27  29
ENDBRANCH   1  27
BRANCH   3  45
HETATM   45  O5  UNL     1      -3.055   8.475  16.506  1.00  0.00    -0.385 OA
HETATM   46  H22 UNL     1      -3.862   7.918  16.439  1.00  0.00     0.211 HD
ENDBRANCH   3  45
BRANCH   6  47
HETATM   47  O6  UNL     1      -3.378  10.567  18.228  1.00  0.00    -0.380 OA
HETATM   48  H25 UNL     1      -3.102   9.693  17.877  1.00  0.00     0.211 HD
ENDBRANCH   6  47
BRANCH  26  49
HETATM   49  C35 UNL     1      -4.260  12.986  18.988  1.00  0.00    -0.017 C 
HETATM   50  C36 UNL     1      -5.500  13.473  19.156  1.00  0.00     0.008 C 
BRANCH  50  51
HETATM   51  C37 UNL     1      -6.223  13.423  20.433  1.00  0.00    -0.036 A 
HETATM   52  C38 UNL     1      -7.625  13.466  20.426  1.00  0.00     0.011 A 
HETATM   53  C39 UNL     1      -8.344  13.381  21.623  1.00  0.00     0.001 A 
HETATM   54  C40 UNL     1      -7.668  13.247  22.836  1.00  0.00     0.000 A 
HETATM   55  C41 UNL     1      -6.276  13.190  22.854  1.00  0.00     0.001 A 
HETATM   56  C42 UNL     1      -5.556  13.274  21.658  1.00  0.00     0.011 A 
ENDBRANCH  50  51
ENDBRANCH  26  49
TORSDOF 15
ENDMDL
MODEL 4
REMARK minimizedAffinity -8.90119267
REMARK CNNscore 0.309509456
REMARK CNNaffinity 7.02238703
REMARK  15 active torsions:
REMARK  status: ('A' for Active; 'I' for Inactive)
REMARK    1  A    between atoms: N1_2  and  C2_3 
REMARK    2  A    between atoms: C2_3  and  C3_4 
REMARK    3  A    between atoms: C3_4  and  C4_5 
REMARK    4  A    between atoms: C4_5  and  C5_6 
REMARK    5  A    between atoms: C4_5  and  C6_9 
REMARK    6  A    between atoms: C5_6  and  O2_8 
REMARK    7  A    between atoms: C6_9  and  C7_11 
REMARK    8  A    between atoms: C7_11  and  O4_12 
REMARK    9  A    between atoms: C7_11  and  C8_13 
REMARK   10  A    between atoms: C8_13  and  C9_14 
REMARK   11  A    between atoms: C9_14  and  C11_16 
REMARK   12  A    between atoms: C13_18  and  O5_19 
REMARK   13  A    between atoms: C16_22  and  O6_23 
REMARK   14  A    between atoms: C34_43  and  C35_44 
REMARK   15  A    between atoms: C36_45  and  C37_46 
ROOT
HETATM    1  C11 UNL     1      -1.740   6.259  13.550  1.00  0.00     0.002 C 
HETATM    2  C12 UNL     1      -3.267   6.624  13.369  1.00  0.00     0.049 C 
HETATM    3  C13 UNL     1      -3.498   7.764  14.374  1.00  0.00     0.088 C 
HETATM    4  C14 UNL     1      -4.638   8.727  14.313  1.00  0.00     0.011 C 
HETATM    5  C15 UNL     1      -4.507   9.889  14.998  1.00  0.00     0.015 C 
HETATM    6  C16 UNL     1      -3.246  10.237  15.822  1.00  0.00     0.108 C 
HETATM    7  C17 UNL     1      -1.961   9.668  15.206  1.00  0.00    -0.018 C 
HETATM    8  C18 UNL     1      -0.707  10.140  15.439  1.00  0.00     0.003 C 
HETATM    9  C19 UNL     1       0.449   9.465  14.688  1.00  0.00     0.157 C 
HETATM   10  O7  UNL     1       1.548  10.009  14.596  1.00  0.00    -0.293 OA
HETATM   11  C20 UNL     1       0.240   8.113  13.951  1.00  0.00     0.094 C 
HETATM   12  C21 UNL     1      -1.086   7.460  14.347  1.00  0.00    -0.019 C 
HETATM   13  C22 UNL     1      -0.816   6.914  15.802  1.00  0.00     0.017 C 
HETATM   14  C23 UNL     1      -2.175   8.558  14.213  1.00  0.00     0.026 C 
HETATM   15  C24 UNL     1      -2.171   9.300  12.815  1.00  0.00     0.025 C 
HETATM   16  C25 UNL     1      -0.526  11.372  16.357  1.00  0.00    -0.007 C 
HETATM   17  C26 UNL     1      -0.599  10.869  17.819  1.00  0.00     0.021 C 
HETATM   18  C27 UNL     1       0.828  12.139  16.277  1.00  0.00     0.022 C 
HETATM   19  C28 UNL     1       0.876  13.154  15.152  1.00  0.00     0.080 C 
HETATM   20  C29 UNL     1      -0.100  14.268  15.464  1.00  0.00     0.135 C 
HETATM   21  O8  UNL     1       0.175  15.430  15.157  1.00  0.00    -0.297 OA
HETATM   22  C30 UNL     1      -1.439  13.890  16.149  1.00  0.00     0.018 C 
HETATM   23  C31 UNL     1      -2.526  14.744  15.455  1.00  0.00     0.023 C 
HETATM   24  C32 UNL     1      -1.357  14.326  17.618  1.00  0.00     0.023 C 
HETATM   25  C33 UNL     1      -1.692  12.354  15.902  1.00  0.00     0.025 C 
HETATM   26  C34 UNL     1      -3.147  11.791  16.112  1.00  0.00     0.057 C 
ENDROOT
BRANCH   1  27
HETATM   27  C9  UNL     1      -1.011   5.648  12.322  1.00  0.00    -0.011 C 
HETATM   28  C10 UNL     1      -0.267   4.333  12.576  1.00  0.00     0.010 C 
BRANCH  27  29
HETATM   29  C8  UNL     1      -0.008   6.689  11.747  1.00  0.00     0.044 C 
BRANCH  29  30
HETATM   30  C7  UNL     1       0.601   6.290  10.395  1.00  0.00     0.188 C 
BRANCH  30  31
HETATM   31  C6  UNL     1       1.244   7.531   9.746  1.00  0.00     0.169 C 
HETATM   32  O3  UNL     1       0.656   8.618   9.766  1.00  0.00    -0.294 OA
BRANCH  31  33
HETATM   33  C4  UNL     1       2.598   7.357   9.076  1.00  0.00     0.157 C 
BRANCH  33  34
HETATM   34  C3  UNL     1       2.925   5.885   8.769  1.00  0.00     0.053 C 
BRANCH  34  35
HETATM   35  C2  UNL     1       4.146   5.347   9.525  1.00  0.00     0.270 C 
BRANCH  35  36
HETATM   36  N1  UNL     1       4.233   3.884   9.575  1.00  0.00     0.079 N 
HETATM   37  C1  UNL     1       4.677   3.310   8.309  1.00  0.00     0.306 C 
HETATM   38  H4  UNL     1       3.299   3.519   9.780  1.00  0.00     0.315 HD
ENDBRANCH  35  36
ENDBRANCH  34  35
ENDBRANCH  33  34
BRANCH  33  39
HETATM   39  C5  UNL     1       2.669   8.133   7.789  1.00  0.00     0.151 C 
HETATM   40  O1  UNL     1       3.242   9.191   7.595  1.00  0.00    -0.649 OA
BRANCH  39  41
HETATM   41  O2  UNL     1       1.974   7.546   6.794  1.00  0.00    -0.776 OA
HETATM   42  H10 UNL     1       2.111   8.137   6.023  1.00  0.00     0.167 HD
ENDBRANCH  39  41
ENDBRANCH  33  39
ENDBRANCH  31  33
ENDBRANCH  30  31
BRANCH  30  43
HETATM   43  O4  UNL     1       1.488   5.199  10.555  1.00  0.00    -0.388 OA
HETATM   44  H12 UNL     1       1.571   4.754   9.691  1.00  0.00     0.210 HD
ENDBRANCH  30  43
ENDBRANCH  29  30
ENDBRANCH  27  29
ENDBRANCH   1  27
BRANCH   3  45
HETATM   45  O5  UNL     1      -3.630   7.169  15.670  1.00  0.00    -0.385 OA
HETATM   46  H22 UNL     1      -4.532   6.783  15.715  1.00  0.00     0.211 HD
ENDBRANCH   3  45
BRANCH   6  47
HETATM   47  O6  UNL     1      -3.439   9.518  17.048  1.00  0.00    -0.380 OA
HETATM   48  H25 UNL     1      -3.359   8.563  16.833  1.00  0.00     0.211 HD
ENDBRANCH   6  47
BRANCH  26  49
HETATM   49  C35 UNL     1      -3.788  12.150  17.440  1.00  0.00    -0.017 C 
HETATM   50  C36 UNL     1      -4.788  13.036  17.578  1.00  0.00     0.008 C 
BRANCH  50  51
HETATM   51  C37 UNL     1      -5.439  13.327  18.862  1.00  0.00    -0.036 A 
HETATM   52  C38 UNL     1      -6.733  13.869  18.864  1.00  0.00     0.011 A 
HETATM   53  C39 UNL     1      -7.395  14.121  20.069  1.00  0.00     0.001 A 
HETATM   54  C40 UNL     1      -6.772  13.829  21.283  1.00  0.00     0.000 A 
HETATM   55  C41 UNL     1      -5.492  13.279  21.293  1.00  0.00     0.001 A 
HETATM   56  C42 UNL     1      -4.829  13.025  20.088  1.00  0.00     0.011 A 
ENDBRANCH  50  51
ENDBRANCH  26  49
TORSDOF 15
ENDMDL
MODEL 5
REMARK minimizedAffinity -7.98047256
REMARK CNNscore 0.273678869
REMARK CNNaffinity 6.54205847
REMARK  15 active torsions:
REMARK  status: ('A' for Active; 'I' for Inactive)
REMARK    1  A    between atoms: N1_2  and  C2_3 
REMARK    2  A    between atoms: C2_3  and  C3_4 
REMARK    3  A    between atoms: C3_4  and  C4_5 
REMARK    4  A    between atoms: C4_5  and  C5_6 
REMARK    5  A    between atoms: C4_5  and  C6_9 
REMARK    6  A    between atoms: C5_6  and  O2_8 
REMARK    7  A    between atoms: C6_9  and  C7_11 
REMARK    8  A    between atoms: C7_11  and  O4_12 
REMARK    9  A    between atoms: C7_11  and  C8_13 
REMARK   10  A    between atoms: C8_13  and  C9_14 
REMARK   11  A    between atoms: C9_14  and  C11_16 
REMARK   12  A    between atoms: C13_18  and  O5_19 
REMARK   13  A    between atoms: C16_22  and  O6_23 
REMARK   14  A    between atoms: C34_43  and  C35_44 
REMARK   15  A    between atoms: C36_45  and  C37_46 
ROOT
HETATM    1  C11 UNL     1      -2.449   6.403  13.843  1.00  0.00     0.002 C 
HETATM    2  C12 UNL     1      -3.963   6.824  14.008  1.00  0.00     0.049 C 
HETATM    3  C13 UNL     1      -3.921   7.970  15.032  1.00  0.00     0.088 C 
HETATM    4  C14 UNL     1      -5.009   8.975  15.222  1.00  0.00     0.011 C 
HETATM    5  C15 UNL     1      -4.685  10.130  15.852  1.00  0.00     0.015 C 
HETATM    6  C16 UNL     1      -3.259  10.429  16.369  1.00  0.00     0.108 C 
HETATM    7  C17 UNL     1      -2.167   9.814  15.483  1.00  0.00    -0.018 C 
HETATM    8  C18 UNL     1      -0.876  10.239  15.424  1.00  0.00     0.003 C 
HETATM    9  C19 UNL     1       0.055   9.523  14.437  1.00  0.00     0.157 C 
HETATM   10  O7  UNL     1       1.125  10.026  14.097  1.00  0.00    -0.293 OA
HETATM   11  C20 UNL     1      -0.364   8.181  13.775  1.00  0.00     0.094 C 
HETATM   12  C21 UNL     1      -1.589   7.577  14.464  1.00  0.00    -0.019 C 
HETATM   13  C22 UNL     1      -1.018   7.018  15.825  1.00  0.00     0.017 C 
HETATM   14  C23 UNL     1      -2.640   8.714  14.572  1.00  0.00     0.026 C 
HETATM   15  C24 UNL     1      -2.923   9.458  13.203  1.00  0.00     0.025 C 
HETATM   16  C25 UNL     1      -0.449  11.462  16.270  1.00  0.00    -0.007 C 
HETATM   17  C26 UNL     1      -0.209  10.960  17.715  1.00  0.00     0.021 C 
HETATM   18  C27 UNL     1       0.880  12.179  15.882  1.00  0.00     0.022 C 
HETATM   19  C28 UNL     1       0.710  13.193  14.768  1.00  0.00     0.080 C 
HETATM   20  C29 UNL     1      -0.129  14.342  15.285  1.00  0.00     0.135 C 
HETATM   21  O8  UNL     1       0.112  15.493  14.916  1.00  0.00    -0.297 OA
HETATM   22  C30 UNL     1      -1.292  14.013  16.256  1.00  0.00     0.018 C 
HETATM   23  C31 UNL     1      -2.476  14.908  15.819  1.00  0.00     0.023 C 
HETATM   24  C32 UNL     1      -0.865  14.443  17.665  1.00  0.00     0.023 C 
HETATM   25  C33 UNL     1      -1.650  12.487  16.082  1.00  0.00     0.025 C 
HETATM   26  C34 UNL     1      -3.040  11.979  16.619  1.00  0.00     0.057 C 
ENDROOT
BRANCH   1  27
HETATM   27  C9  UNL     1      -2.038   5.766  12.487  1.00  0.00    -0.011 C 
HETATM   28  C10 UNL     1      -2.973   4.678  11.951  1.00  0.00     0.010 C 
BRANCH  27  29
HETATM   29  C8  UNL     1      -0.602   5.179  12.608  1.00  0.00     0.044 C 
BRANCH  29  30
HETATM   30  C7  UNL     1       0.073   4.896  11.258  1.00  0.00     0.188 C 
BRANCH  30  31
HETATM   31  C6  UNL     1       0.959   6.097  10.875  1.00  0.00     0.169 C 
HETATM   32  O3  UNL     1       0.495   7.023  10.202  1.00  0.00    -0.294 OA
BRANCH  31  33
HETATM   33  C4  UNL     1       2.408   6.082  11.339  1.00  0.00     0.157 C 
BRANCH  33  34
HETATM   34  C3  UNL     1       3.407   6.070  10.167  1.00  0.00     0.053 C 
BRANCH  34  35
HETATM   35  C2  UNL     1       4.865   5.865  10.595  1.00  0.00     0.270 C 
BRANCH  35  36
HETATM   36  N1  UNL     1       5.709   7.057  10.466  1.00  0.00     0.079 N 
HETATM   37  C1  UNL     1       6.777   7.092  11.460  1.00  0.00     0.306 C 
HETATM   38  H4  UNL     1       5.116   7.880  10.607  1.00  0.00     0.315 HD
ENDBRANCH  35  36
ENDBRANCH  34  35
ENDBRANCH  33  34
BRANCH  33  39
HETATM   39  C5  UNL     1       2.712   7.276  12.203  1.00  0.00     0.151 C 
HETATM   40  O1  UNL     1       2.924   8.418  11.836  1.00  0.00    -0.649 OA
BRANCH  39  41
HETATM   41  O2  UNL     1       2.768   6.963  13.514  1.00  0.00    -0.776 OA
HETATM   42  H10 UNL     1       2.958   7.817  13.957  1.00  0.00     0.167 HD
ENDBRANCH  39  41
ENDBRANCH  33  39
ENDBRANCH  31  33
ENDBRANCH  30  31
BRANCH  30  43
HETATM   43  O4  UNL     1       0.763   3.661  11.300  1.00  0.00    -0.388 OA
HETATM   44  H12 UNL     1       0.863   3.345  10.382  1.00  0.00     0.210 HD
ENDBRANCH  30  43
ENDBRANCH  29  30
ENDBRANCH  27  29
ENDBRANCH   1  27
BRANCH   3  45
HETATM   45  O5  UNL     1      -3.779   7.379  16.328  1.00  0.00    -0.385 OA
HETATM   46  H22 UNL     1      -4.661   7.026  16.578  1.00  0.00     0.211 HD
ENDBRANCH   3  45
BRANCH   6  47
HETATM   47  O6  UNL     1      -3.197   9.716  17.612  1.00  0.00    -0.380 OA
HETATM   48  H25 UNL     1      -3.202   8.760  17.390  1.00  0.00     0.211 HD
ENDBRANCH   6  47
BRANCH  26  49
HETATM   49  C35 UNL     1      -3.353  12.359  18.054  1.00  0.00    -0.017 C 
HETATM   50  C36 UNL     1      -4.261  13.282  18.408  1.00  0.00     0.008 C 
BRANCH  50  51
HETATM   51  C37 UNL     1      -4.596  13.595  19.803  1.00  0.00    -0.036 A 
HETATM   52  C38 UNL     1      -4.077  14.762  20.384  1.00  0.00     0.011 A 
HETATM   53  C39 UNL     1      -4.408  15.108  21.698  1.00  0.00     0.001 A 
HETATM   54  C40 UNL     1      -5.264  14.294  22.440  1.00  0.00     0.000 A 
HETATM   55  C41 UNL     1      -5.795  13.140  21.870  1.00  0.00     0.001 A 
HETATM   56  C42 UNL     1      -5.466  12.793  20.556  1.00  0.00     0.011 A 
ENDBRANCH  50  51
ENDBRANCH  26  49
TORSDOF 15
ENDMDL
MODEL 6
REMARK minimizedAffinity -7.39944696
REMARK CNNscore 0.272767663
REMARK CNNaffinity 6.36540556
REMARK  15 active torsions:
REMARK  status: ('A' for Active; 'I' for Inactive)
REMARK    1  A    between atoms: N1_2  and  C2_3 
REMARK    2  A    between atoms: C2_3  and  C3_4 
REMARK    3  A    between atoms: C3_4  and  C4_5 
REMARK    4  A    between atoms: C4_5  and  C5_6 
REMARK    5  A    between atoms: C4_5  and  C6_9 
REMARK    6  A    between atoms: C5_6  and  O2_8 
REMARK    7  A    between atoms: C6_9  and  C7_11 
REMARK    8  A    between atoms: C7_11  and  O4_12 
REMARK    9  A    between atoms: C7_11  and  C8_13 
REMARK   10  A    between atoms: C8_13  and  C9_14 
REMARK   11  A    between atoms: C9_14  and  C11_16 
REMARK   12  A    between atoms: C13_18  and  O5_19 
REMARK   13  A    between atoms: C16_22  and  O6_23 
REMARK   14  A    between atoms: C34_43  and  C35_44 
REMARK   15  A    between atoms: C36_45  and  C37_46 
ROOT
HETATM    1  C11 UNL     1       3.760  11.794  19.642  1.00  0.00     0.002 C 
HETATM    2  C12 UNL     1       4.127  11.290  18.190  1.00  0.00     0.049 C 
HETATM    3  C13 UNL     1       2.775  10.876  17.587  1.00  0.00     0.088 C 
HETATM    4  C14 UNL     1       2.512  10.726  16.124  1.00  0.00     0.011 C 
HETATM    5  C15 UNL     1       1.218  10.748  15.721  1.00  0.00     0.015 C 
HETATM    6  C16 UNL     1       0.038  10.918  16.705  1.00  0.00     0.108 C 
HETATM    7  C17 UNL     1       0.387  11.814  17.900  1.00  0.00    -0.018 C 
HETATM    8  C18 UNL     1      -0.516  12.477  18.671  1.00  0.00     0.003 C 
HETATM    9  C19 UNL     1       0.036  13.365  19.794  1.00  0.00     0.157 C 
HETATM   10  O7  UNL     1      -0.667  14.223  20.327  1.00  0.00    -0.293 OA
HETATM   11  C20 UNL     1       1.524  13.265  20.233  1.00  0.00     0.094 C 
HETATM   12  C21 UNL     1       2.193  12.017  19.654  1.00  0.00    -0.019 C 
HETATM   13  C22 UNL     1       1.598  10.837  20.514  1.00  0.00     0.017 C 
HETATM   14  C23 UNL     1       1.861  12.002  18.137  1.00  0.00     0.026 C 
HETATM   15  C24 UNL     1       2.191  13.361  17.394  1.00  0.00     0.025 C 
HETATM   16  C25 UNL     1      -2.020  12.378  18.320  1.00  0.00    -0.007 C 
HETATM   17  C26 UNL     1      -2.535  11.033  18.887  1.00  0.00     0.021 C 
HETATM   18  C27 UNL     1      -2.975  13.448  18.929  1.00  0.00     0.022 C 
HETATM   19  C28 UNL     1      -3.023  14.734  18.127  1.00  0.00     0.080 C 
HETATM   20  C29 UNL     1      -3.679  14.447  16.794  1.00  0.00     0.135 C 
HETATM   21  O8  UNL     1      -4.411  15.292  16.275  1.00  0.00    -0.297 OA
HETATM   22  C30 UNL     1      -3.378  13.086  16.114  1.00  0.00     0.018 C 
HETATM   23  C31 UNL     1      -3.193  13.396  14.609  1.00  0.00     0.023 C 
HETATM   24  C32 UNL     1      -4.620  12.198  16.267  1.00  0.00     0.023 C 
HETATM   25  C33 UNL     1      -2.046  12.519  16.736  1.00  0.00     0.025 C 
HETATM   26  C34 UNL     1      -1.282  11.381  15.960  1.00  0.00     0.057 C 
ENDROOT
BRANCH   1  27
HETATM   27  C9  UNL     1       4.704  12.847  20.282  1.00  0.00    -0.011 C 
HETATM   28  C10 UNL     1       4.263  14.308  20.148  1.00  0.00     0.010 C 
BRANCH  27  29
HETATM   29  C8  UNL     1       6.131  12.696  19.678  1.00  0.00     0.044 C 
BRANCH  29  30
HETATM   30  C7  UNL     1       7.235  12.486  20.725  1.00  0.00     0.188 C 
BRANCH  30  31
HETATM   31  C6  UNL     1       8.608  12.693  20.057  1.00  0.00     0.169 C 
HETATM   32  O3  UNL     1       9.044  13.834  19.873  1.00  0.00    -0.294 OA
BRANCH  31  33
HETATM   33  C4  UNL     1       9.377  11.454  19.625  1.00  0.00     0.157 C 
BRANCH  33  34
HETATM   34  C3  UNL     1       9.468  11.314  18.095  1.00  0.00     0.053 C 
BRANCH  34  35
HETATM   35  C2  UNL     1       8.824  10.034  17.547  1.00  0.00     0.270 C 
BRANCH  35  36
HETATM   36  N1  UNL     1       9.775   9.061  17.002  1.00  0.00     0.079 N 
HETATM   37  C1  UNL     1       9.437   8.656  15.641  1.00  0.00     0.306 C 
HETATM   38  H4  UNL     1       9.751   8.228  17.597  1.00  0.00     0.315 HD
ENDBRANCH  35  36
ENDBRANCH  34  35
ENDBRANCH  33  34
BRANCH  33  39
HETATM   39  C5  UNL     1      10.775  11.464  20.180  1.00  0.00     0.151 C 
HETATM   40  O1  UNL     1      11.697  10.728  19.873  1.00  0.00    -0.649 OA
BRANCH  39  41
HETATM   41  O2  UNL     1      10.943  12.398  21.139  1.00  0.00    -0.776 OA
HETATM   42  H10 UNL     1      11.884  12.307  21.402  1.00  0.00     0.167 HD
ENDBRANCH  39  41
ENDBRANCH  33  39
ENDBRANCH  31  33
ENDBRANCH  30  31
BRANCH  30  43
HETATM   43  O4  UNL     1       7.011  13.312  21.852  1.00  0.00    -0.388 OA
HETATM   44  H12 UNL     1       7.483  12.917  22.608  1.00  0.00     0.210 HD
ENDBRANCH  30  43
ENDBRANCH  29  30
ENDBRANCH  27  29
ENDBRANCH   1  27
BRANCH   3  45
HETATM   45  O5  UNL     1       2.447   9.589  18.122  1.00  0.00    -0.385 OA
HETATM   46  H22 UNL     1       3.000   8.932  17.643  1.00  0.00     0.211 HD
ENDBRANCH   3  45
BRANCH   6  47
HETATM   47  O6  UNL     1      -0.138   9.601  17.247  1.00  0.00    -0.380 OA
HETATM   48  H25 UNL     1       0.648   9.417  17.805  1.00  0.00     0.211 HD
ENDBRANCH   6  47
BRANCH  26  49
HETATM   49  C35 UNL     1      -2.137  10.194  15.556  1.00  0.00    -0.017 C 
HETATM   50  C36 UNL     1      -2.287   9.771  14.291  1.00  0.00     0.008 C 
BRANCH  50  51
HETATM   51  C37 UNL     1      -3.069   8.584  13.922  1.00  0.00    -0.036 A 
HETATM   52  C38 UNL     1      -4.460   8.699  13.783  1.00  0.00     0.011 A 
HETATM   53  C39 UNL     1      -5.228   7.596  13.396  1.00  0.00     0.001 A 
HETATM   54  C40 UNL     1      -4.612   6.371  13.139  1.00  0.00     0.000 A 
HETATM   55  C41 UNL     1      -3.230   6.248  13.262  1.00  0.00     0.001 A 
HETATM   56  C42 UNL     1      -2.461   7.350  13.649  1.00  0.00     0.011 A 
ENDBRANCH  50  51
ENDBRANCH  26  49
TORSDOF 15
ENDMDL
MODEL 7
REMARK minimizedAffinity -9.1934042
REMARK CNNscore 0.26919198
REMARK CNNaffinity 6.7714448
REMARK  15 active torsions:
REMARK  status: ('A' for Active; 'I' for Inactive)
REMARK    1  A    between atoms: N1_2  and  C2_3 
REMARK    2  A    between atoms: C2_3  and  C3_4 
REMARK    3  A    between atoms: C3_4  and  C4_5 
REMARK    4  A    between atoms: C4_5  and  C5_6 
REMARK    5  A    between atoms: C4_5  and  C6_9 
REMARK    6  A    between atoms: C5_6  and  O2_8 
REMARK    7  A    between atoms: C6_9  and  C7_11 
REMARK    8  A    between atoms: C7_11  and  O4_12 
REMARK    9  A    between atoms: C7_11  and  C8_13 
REMARK   10  A    between atoms: C8_13  and  C9_14 
REMARK   11  A    between atoms: C9_14  and  C11_16 
REMARK   12  A    between atoms: C13_18  and  O5_19 
REMARK   13  A    between atoms: C16_22  and  O6_23 
REMARK   14  A    between atoms: C34_43  and  C35_44 
REMARK   15  A    between atoms: C36_45  and  C37_46 
ROOT
HETATM    1  C11 UNL     1       0.454  11.590  17.077  1.00  0.00     0.002 C 
HETATM    2  C12 UNL     1      -0.426  10.665  18.007  1.00  0.00     0.049 C 
HETATM    3  C13 UNL     1      -1.196   9.770  17.023  1.00  0.00     0.088 C 
HETATM    4  C14 UNL     1      -1.836   8.470  17.385  1.00  0.00     0.011 C 
HETATM    5  C15 UNL     1      -2.125   7.618  16.372  1.00  0.00     0.015 C 
HETATM    6  C16 UNL     1      -1.820   7.943  14.892  1.00  0.00     0.108 C 
HETATM    7  C17 UNL     1      -0.552   8.789  14.720  1.00  0.00    -0.018 C 
HETATM    8  C18 UNL     1       0.187   8.869  13.581  1.00  0.00     0.003 C 
HETATM    9  C19 UNL     1       1.453   9.735  13.624  1.00  0.00     0.157 C 
HETATM   10  O7  UNL     1       2.327   9.622  12.766  1.00  0.00    -0.293 OA
HETATM   11  C20 UNL     1       1.706  10.721  14.798  1.00  0.00     0.094 C 
HETATM   12  C21 UNL     1       0.447  10.917  15.644  1.00  0.00    -0.019 C 
HETATM   13  C22 UNL     1      -0.472  11.830  14.744  1.00  0.00     0.017 C 
HETATM   14  C23 UNL     1      -0.094   9.498  15.966  1.00  0.00     0.026 C 
HETATM   15  C24 UNL     1       0.992   8.520  16.575  1.00  0.00     0.025 C 
HETATM   16  C25 UNL     1      -0.229   8.022  12.355  1.00  0.00    -0.007 C 
HETATM   17  C26 UNL     1      -1.384   8.773  11.649  1.00  0.00     0.021 C 
HETATM   18  C27 UNL     1       0.834   7.802  11.236  1.00  0.00     0.022 C 
HETATM   19  C28 UNL     1       1.780   6.653  11.525  1.00  0.00     0.080 C 
HETATM   20  C29 UNL     1       0.997   5.359  11.476  1.00  0.00     0.135 C 
HETATM   21  O8  UNL     1       1.523   4.340  11.024  1.00  0.00    -0.297 OA
HETATM   22  C30 UNL     1      -0.452   5.365  12.027  1.00  0.00     0.018 C 
HETATM   23  C31 UNL     1      -0.612   4.044  12.816  1.00  0.00     0.023 C 
HETATM   24  C32 UNL     1      -1.412   5.323  10.830  1.00  0.00     0.023 C 
HETATM   25  C33 UNL     1      -0.601   6.609  12.984  1.00  0.00     0.025 C 
HETATM   26  C34 UNL     1      -1.806   6.635  13.996  1.00  0.00     0.057 C 
ENDROOT
BRANCH   1  27
HETATM   27  C9  UNL     1       1.777  12.139  17.676  1.00  0.00    -0.011 C 
HETATM   28  C10 UNL     1       3.002  11.229  17.532  1.00  0.00     0.010 C 
BRANCH  27  29
HETATM   29  C8  UNL     1       1.566  12.462  19.183  1.00  0.00     0.044 C 
BRANCH  29  30
HETATM   30  C7  UNL     1       2.698  11.964  20.094  1.00  0.00     0.188 C 
BRANCH  30  31
HETATM   31  C6  UNL     1       2.218  10.713  20.855  1.00  0.00     0.169 C 
HETATM   32  O3  UNL     1       1.077  10.275  20.675  1.00  0.00    -0.294 OA
BRANCH  31  33
HETATM   33  C4  UNL     1       3.187  10.067  21.835  1.00  0.00     0.157 C 
BRANCH  33  34
HETATM   34  C3  UNL     1       3.739  11.063  22.870  1.00  0.00     0.053 C 
BRANCH  34  35
HETATM   35  C2  UNL     1       5.270  11.112  22.932  1.00  0.00     0.270 C 
BRANCH  35  36
HETATM   36  N1  UNL     1       5.829  12.460  23.085  1.00  0.00     0.079 N 
HETATM   37  C1  UNL     1       7.288  12.459  23.085  1.00  0.00     0.306 C 
HETATM   38  H4  UNL     1       5.510  12.833  23.984  1.00  0.00     0.315 HD
ENDBRANCH  35  36
ENDBRANCH  34  35
ENDBRANCH  33  34
BRANCH  33  39
HETATM   39  C5  UNL     1       2.531   8.933  22.576  1.00  0.00     0.151 C 
HETATM   40  O1  UNL     1       1.953   7.974  22.096  1.00  0.00    -0.649 OA
BRANCH  39  41
HETATM   41  O2  UNL     1       2.608   9.079  23.914  1.00  0.00    -0.776 OA
HETATM   42  H10 UNL     1       2.161   8.282  24.270  1.00  0.00     0.167 HD
ENDBRANCH  39  41
ENDBRANCH  33  39
ENDBRANCH  31  33
ENDBRANCH  30  31
BRANCH  30  43
HETATM   43  O4  UNL     1       3.883  11.765  19.347  1.00  0.00    -0.388 OA
HETATM   44  H12 UNL     1       4.635  11.804  19.966  1.00  0.00     0.210 HD
ENDBRANCH  30  43
ENDBRANCH  29  30
ENDBRANCH  27  29
ENDBRANCH   1  27
BRANCH   3  45
HETATM   45  O5  UNL     1      -2.280  10.546  16.501  1.00  0.00    -0.385 OA
HETATM   46  H22 UNL     1      -2.970  10.578  17.200  1.00  0.00     0.211 HD
ENDBRANCH   3  45
BRANCH   6  47
HETATM   47  O6  UNL     1      -2.909   8.793  14.505  1.00  0.00    -0.380 OA
HETATM   48  H25 UNL     1      -2.794   9.639  14.991  1.00  0.00     0.211 HD
ENDBRANCH   6  47
BRANCH  26  49
HETATM   49  C35 UNL     1      -3.168   6.370  13.381  1.00  0.00    -0.017 C 
HETATM   50  C36 UNL     1      -4.041   5.463  13.848  1.00  0.00     0.008 C 
BRANCH  50  51
HETATM   51  C37 UNL     1      -5.379   5.260  13.278  1.00  0.00    -0.036 A 
HETATM   52  C38 UNL     1      -5.664   4.057  12.615  1.00  0.00     0.011 A 
HETATM   53  C39 UNL     1      -6.940   3.818  12.095  1.00  0.00     0.001 A 
HETATM   54  C40 UNL     1      -7.943   4.776  12.238  1.00  0.00     0.000 A 
HETATM   55  C41 UNL     1      -7.676   5.969  12.906  1.00  0.00     0.001 A 
HETATM   56  C42 UNL     1      -6.401   6.209  13.427  1.00  0.00     0.011 A 
ENDBRANCH  50  51
ENDBRANCH  26  49
TORSDOF 15
ENDMDL
MODEL 8
REMARK minimizedAffinity -8.05722427
REMARK CNNscore 0.267358601
REMARK CNNaffinity 6.9497242
REMARK  15 active torsions:
REMARK  status: ('A' for Active; 'I' for Inactive)
REMARK    1  A    between atoms: N1_2  and  C2_3 
REMARK    2  A    between atoms: C2_3  and  C3_4 
REMARK    3  A    between atoms: C3_4  and  C4_5 
REMARK    4  A    between atoms: C4_5  and  C5_6 
REMARK    5  A    between atoms: C4_5  and  C6_9 
REMARK    6  A    between atoms: C5_6  and  O2_8 
REMARK    7  A    between atoms: C6_9  and  C7_11 
REMARK    8  A    between atoms: C7_11  and  O4_12 
REMARK    9  A    between atoms: C7_11  and  C8_13 
REMARK   10  A    between atoms: C8_13  and  C9_14 
REMARK   11  A    between atoms: C9_14  and  C11_16 
REMARK   12  A    between atoms: C13_18  and  O5_19 
REMARK   13  A    between atoms: C16_22  and  O6_23 
REMARK   14  A    between atoms: C34_43  and  C35_44 
REMARK   15  A    between atoms: C36_45  and  C37_46 
ROOT
HETATM    1  C11 UNL     1      -6.472   7.199  15.200  1.00  0.00     0.002 C 
HETATM    2  C12 UNL     1      -6.221   8.758  15.203  1.00  0.00     0.049 C 
HETATM    3  C13 UNL     1      -4.690   8.890  15.195  1.00  0.00     0.088 C 
HETATM    4  C14 UNL     1      -3.948  10.119  14.783  1.00  0.00     0.011 C 
HETATM    5  C15 UNL     1      -2.644   9.975  14.449  1.00  0.00     0.015 C 
HETATM    6  C16 UNL     1      -1.918   8.610  14.481  1.00  0.00     0.108 C 
HETATM    7  C17 UNL     1      -2.841   7.439  14.119  1.00  0.00    -0.018 C 
HETATM    8  C18 UNL     1      -2.425   6.230  13.657  1.00  0.00     0.003 C 
HETATM    9  C19 UNL     1      -3.508   5.202  13.304  1.00  0.00     0.157 C 
HETATM   10  O7  UNL     1      -3.249   4.224  12.605  1.00  0.00    -0.293 OA
HETATM   11  C20 UNL     1      -4.982   5.411  13.750  1.00  0.00     0.094 C 
HETATM   12  C21 UNL     1      -5.098   6.527  14.790  1.00  0.00    -0.019 C 
HETATM   13  C22 UNL     1      -4.528   5.874  16.108  1.00  0.00     0.017 C 
HETATM   14  C23 UNL     1      -4.311   7.740  14.225  1.00  0.00     0.026 C 
HETATM   15  C24 UNL     1      -4.719   8.139  12.748  1.00  0.00     0.025 C 
HETATM   16  C25 UNL     1      -0.913   5.993  13.426  1.00  0.00    -0.007 C 
HETATM   17  C26 UNL     1      -0.283   5.674  14.804  1.00  0.00     0.021 C 
HETATM   18  C27 UNL     1      -0.501   4.791  12.523  1.00  0.00     0.022 C 
HETATM   19  C28 UNL     1      -0.527   5.118  11.043  1.00  0.00     0.080 C 
HETATM   20  C29 UNL     1       0.567   6.123  10.751  1.00  0.00     0.135 C 
HETATM   21  O8  UNL     1       1.188   6.063   9.688  1.00  0.00    -0.297 OA
HETATM   22  C30 UNL     1       0.849   7.218  11.811  1.00  0.00     0.018 C 
HETATM   23  C31 UNL     1       1.077   8.527  11.018  1.00  0.00     0.023 C 
HETATM   24  C32 UNL     1       2.159   6.859  12.523  1.00  0.00     0.023 C 
HETATM   25  C33 UNL     1      -0.424   7.338  12.733  1.00  0.00     0.025 C 
HETATM   26  C34 UNL     1      -0.591   8.632  13.615  1.00  0.00     0.057 C 
ENDROOT
BRANCH   1  27
HETATM   27  C9  UNL     1      -7.803   6.699  14.576  1.00  0.00    -0.011 C 
HETATM   28  C10 UNL     1      -7.700   6.122  13.160  1.00  0.00     0.010 C 
BRANCH  27  29
HETATM   29  C8  UNL     1      -8.838   7.860  14.572  1.00  0.00     0.044 C 
BRANCH  29  30
HETATM   30  C7  UNL     1     -10.101   7.576  15.398  1.00  0.00     0.188 C 
BRANCH  30  31
HETATM   31  C6  UNL     1     -11.046   8.790  15.308  1.00  0.00     0.169 C 
HETATM   32  O3  UNL     1     -11.623   9.051  14.247  1.00  0.00    -0.294 OA
BRANCH  31  33
HETATM   33  C4  UNL     1     -11.217   9.646  16.553  1.00  0.00     0.157 C 
BRANCH  33  34
HETATM   34  C3  UNL     1     -10.298  10.881  16.557  1.00  0.00     0.053 C 
BRANCH  34  35
HETATM   35  C2  UNL     1      -9.745  11.249  15.175  1.00  0.00     0.270 C 
BRANCH  35  36
HETATM   36  N1  UNL     1     -10.659  12.045  14.348  1.00  0.00     0.079 N 
HETATM   37  C1  UNL     1     -10.471  13.480  14.536  1.00  0.00     0.306 C 
HETATM   38  H4  UNL     1     -11.617  11.810  14.622  1.00  0.00     0.315 HD
ENDBRANCH  35  36
ENDBRANCH  34  35
ENDBRANCH  33  34
BRANCH  33  39
HETATM   39  C5  UNL     1     -12.638  10.119  16.694  1.00  0.00     0.151 C 
HETATM   40  O1  UNL     1     -13.642   9.431  16.757  1.00  0.00    -0.649 OA
BRANCH  39  41
HETATM   41  O2  UNL     1     -12.736  11.464  16.715  1.00  0.00    -0.776 OA
HETATM   42  H10 UNL     1     -13.696  11.635  16.821  1.00  0.00     0.167 HD
ENDBRANCH  39  41
ENDBRANCH  33  39
ENDBRANCH  31  33
ENDBRANCH  30  31
BRANCH  30  43
HETATM   43  O4  UNL     1     -10.691   6.355  14.996  1.00  0.00    -0.388 OA
HETATM   44  H12 UNL     1     -11.240   6.032  15.735  1.00  0.00     0.210 HD
ENDBRANCH  30  43
ENDBRANCH  29  30
ENDBRANCH  27  29
ENDBRANCH   1  27
BRANCH   3  45
HETATM   45  O5  UNL     1      -4.235   8.655  16.532  1.00  0.00    -0.385 OA
HETATM   46  H22 UNL     1      -4.424   9.472  17.044  1.00  0.00     0.211 HD
ENDBRANCH   3  45
BRANCH   6  47
HETATM   47  O6  UNL     1      -1.597   8.436  15.869  1.00  0.00    -0.380 OA
HETATM   48  H25 UNL     1      -2.446   8.295  16.340  1.00  0.00     0.211 HD
ENDBRANCH   6  47
BRANCH  26  49
HETATM   49  C35 UNL     1       0.617   8.995  14.458  1.00  0.00    -0.017 C 
HETATM   50  C36 UNL     1       1.255  10.175  14.391  1.00  0.00     0.008 C 
BRANCH  50  51
HETATM   51  C37 UNL     1       2.385  10.534  15.257  1.00  0.00    -0.036 A 
HETATM   52  C38 UNL     1       2.129  11.103  16.513  1.00  0.00     0.011 A 
HETATM   53  C39 UNL     1       3.183  11.421  17.376  1.00  0.00     0.001 A 
HETATM   54  C40 UNL     1       4.500  11.166  16.994  1.00  0.00     0.000 A 
HETATM   55  C41 UNL     1       4.766  10.589  15.754  1.00  0.00     0.001 A 
HETATM   56  C42 UNL     1       3.713  10.270  14.890  1.00  0.00     0.011 A 
ENDBRANCH  50  51
ENDBRANCH  26  49
TORSDOF 15
ENDMDL
MODEL 9
REMARK minimizedAffinity -8.55626774
REMARK CNNscore 0.252126366
REMARK CNNaffinity 6.80137825
REMARK  15 active torsions:
REMARK  status: ('A' for Active; 'I' for Inactive)
REMARK    1  A    between atoms: N1_2  and  C2_3 
REMARK    2  A    between atoms: C2_3  and  C3_4 
REMARK    3  A    between atoms: C3_4  and  C4_5 
REMARK    4  A    between atoms: C4_5  and  C5_6 
REMARK    5  A    between atoms: C4_5  and  C6_9 
REMARK    6  A    between atoms: C5_6  and  O2_8 
REMARK    7  A    between atoms: C6_9  and  C7_11 
REMARK    8  A    between atoms: C7_11  and  O4_12 
REMARK    9  A    between atoms: C7_11  and  C8_13 
REMARK   10  A    between atoms: C8_13  and  C9_14 
REMARK   11  A    between atoms: C9_14  and  C11_16 
REMARK   12  A    between atoms: C13_18  and  O5_19 
REMARK   13  A    between atoms: C16_22  and  O6_23 
REMARK   14  A    between atoms: C34_43  and  C35_44 
REMARK   15  A    between atoms: C36_45  and  C37_46 
ROOT
HETATM    1  C11 UNL     1      -4.800   8.130  15.306  1.00  0.00     0.002 C 
HETATM    2  C12 UNL     1      -4.443   9.657  15.120  1.00  0.00     0.049 C 
HETATM    3  C13 UNL     1      -2.918   9.663  14.927  1.00  0.00     0.088 C 
HETATM    4  C14 UNL     1      -2.147  10.784  14.310  1.00  0.00     0.011 C 
HETATM    5  C15 UNL     1      -0.905  10.503  13.849  1.00  0.00     0.015 C 
HETATM    6  C16 UNL     1      -0.277   9.093  13.940  1.00  0.00     0.108 C 
HETATM    7  C17 UNL     1      -1.316   7.972  13.806  1.00  0.00    -0.018 C 
HETATM    8  C18 UNL     1      -1.044   6.695  13.428  1.00  0.00     0.003 C 
HETATM    9  C19 UNL     1      -2.231   5.730  13.306  1.00  0.00     0.157 C 
HETATM   10  O7  UNL     1      -2.126   4.672  12.686  1.00  0.00    -0.293 OA
HETATM   11  C20 UNL     1      -3.623   6.099  13.889  1.00  0.00     0.094 C 
HETATM   12  C21 UNL     1      -3.536   7.313  14.816  1.00  0.00    -0.019 C 
HETATM   13  C22 UNL     1      -2.859   6.743  16.122  1.00  0.00     0.017 C 
HETATM   14  C23 UNL     1      -2.739   8.400  14.044  1.00  0.00     0.026 C 
HETATM   15  C24 UNL     1      -3.292   8.689  12.589  1.00  0.00     0.025 C 
HETATM   16  C25 UNL     1       0.409   6.315  13.054  1.00  0.00    -0.007 C 
HETATM   17  C26 UNL     1       1.175   6.078  14.378  1.00  0.00     0.021 C 
HETATM   18  C27 UNL     1       0.625   5.004  12.239  1.00  0.00     0.022 C 
HETATM   19  C28 UNL     1       0.446   5.191  10.745  1.00  0.00     0.080 C 
HETATM   20  C29 UNL     1       1.564   6.072  10.231  1.00  0.00     0.135 C 
HETATM   21  O8  UNL     1       2.048   5.862   9.117  1.00  0.00    -0.297 OA
HETATM   22  C30 UNL     1       2.046   7.236  11.134  1.00  0.00     0.018 C 
HETATM   23  C31 UNL     1       2.269   8.441  10.190  1.00  0.00     0.023 C 
HETATM   24  C32 UNL     1       3.404   6.840  11.729  1.00  0.00     0.023 C 
HETATM   25  C33 UNL     1       0.904   7.545  12.176  1.00  0.00     0.025 C 
HETATM   26  C34 UNL     1       0.934   8.925  12.933  1.00  0.00     0.057 C 
ENDROOT
BRANCH   1  27
HETATM   27  C9  UNL     1      -6.228   7.683  14.890  1.00  0.00    -0.011 C 
HETATM   28  C10 UNL     1      -7.341   8.711  15.117  1.00  0.00     0.010 C 
BRANCH  27  29
HETATM   29  C8  UNL     1      -6.596   6.370  15.640  1.00  0.00     0.044 C 
BRANCH  29  30
HETATM   30  C7  UNL     1      -7.915   5.734  15.177  1.00  0.00     0.188 C 
BRANCH  30  31
HETATM   31  C6  UNL     1      -7.613   4.674  14.101  1.00  0.00     0.169 C 
HETATM   32  O3  UNL     1      -7.547   3.478  14.406  1.00  0.00    -0.294 OA
BRANCH  31  33
HETATM   33  C4  UNL     1      -7.383   5.157  12.677  1.00  0.00     0.157 C 
BRANCH  33  34
HETATM   34  C3  UNL     1      -6.921   4.032  11.734  1.00  0.00     0.053 C 
BRANCH  34  35
HETATM   35  C2  UNL     1      -5.490   3.548  11.996  1.00  0.00     0.270 C 
BRANCH  35  36
HETATM   36  N1  UNL     1      -5.129   2.312  11.294  1.00  0.00     0.079 N 
HETATM   37  C1  UNL     1      -3.765   1.884  11.590  1.00  0.00     0.306 C 
HETATM   38  H4  UNL     1      -5.196   2.489  10.288  1.00  0.00     0.315 HD
ENDBRANCH  35  36
ENDBRANCH  34  35
ENDBRANCH  33  34
BRANCH  33  39
HETATM   39  C5  UNL     1      -8.633   5.767  12.104  1.00  0.00     0.151 C 
HETATM   40  O1  UNL     1      -9.564   6.257  12.719  1.00  0.00    -0.649 OA
BRANCH  39  41
HETATM   41  O2  UNL     1      -8.670   5.701  10.757  1.00  0.00    -0.776 OA
HETATM   42  H10 UNL     1      -9.515   6.136  10.517  1.00  0.00     0.167 HD
ENDBRANCH  39  41
ENDBRANCH  33  39
ENDBRANCH  31  33
ENDBRANCH  30  31
BRANCH  30  43
HETATM   43  O4  UNL     1      -8.642   5.239  16.286  1.00  0.00    -0.388 OA
HETATM   44  H12 UNL     1      -9.579   5.180  16.024  1.00  0.00     0.210 HD
ENDBRANCH  30  43
ENDBRANCH  29  30
ENDBRANCH  27  29
ENDBRANCH   1  27
BRANCH   3  45
HETATM   45  O5  UNL     1      -2.325   9.519  16.222  1.00  0.00    -0.385 OA
HETATM   46  H22 UNL     1      -2.394  10.393  16.665  1.00  0.00     0.211 HD
ENDBRANCH   3  45
BRANCH   6  47
HETATM   47  O6  UNL     1       0.194   9.024  15.294  1.00  0.00    -0.380 OA
HETATM   48  H25 UNL     1      -0.600   8.998  15.869  1.00  0.00     0.211 HD
ENDBRANCH   6  47
BRANCH  26  49
HETATM   49  C35 UNL     1       2.257   9.267  13.593  1.00  0.00    -0.017 C 
HETATM   50  C36 UNL     1       3.036  10.298  13.229  1.00  0.00     0.008 C 
BRANCH  50  51
HETATM   51  C37 UNL     1       4.284  10.652  13.918  1.00  0.00    -0.036 A 
HETATM   52  C38 UNL     1       4.272  11.690  14.862  1.00  0.00     0.011 A 
HETATM   53  C39 UNL     1       5.435  12.025  15.563  1.00  0.00     0.001 A 
HETATM   54  C40 UNL     1       6.618  11.322  15.331  1.00  0.00     0.000 A 
HETATM   55  C41 UNL     1       6.638  10.281  14.405  1.00  0.00     0.001 A 
HETATM   56  C42 UNL     1       5.476   9.944  13.704  1.00  0.00     0.011 A 
ENDBRANCH  50  51
ENDBRANCH  26  49
TORSDOF 15
ENDMDL
