MODEL 1
REMARK minimizedAffinity -8.7491827
REMARK CNNscore 0.492923975
REMARK CNNaffinity 6.61702538
REMARK  5 active torsions:
REMARK  status: ('A' for Active; 'I' for Inactive)
REMARK    1  A    between atoms: C3_3  and  C4_4 
REMARK    2  A    between atoms: C4_4  and  O2_6 
REMARK    3  A    between atoms: O2_6  and  C5_7 
REMARK    4  A    between atoms: C5_7  and  C6_8 
REMARK    5  A    between atoms: C12_14  and  C13_15 
ROOT
HETATM    1  C1  UNL     1      -4.864   6.589  15.899  1.00  0.00     0.069 C 
HETATM    2  C2  UNL     1      -3.699   7.485  15.573  1.00  0.00     0.018 C 
HETATM    3  C3  UNL     1      -3.293   7.792  14.321  1.00  0.00     0.052 C 
HETATM    4  C12 UNL     1      -2.119   8.722  14.045  1.00  0.00     0.104 C 
HETATM    5  C22 UNL     1      -1.608   9.380  15.330  1.00  0.00     0.024 C 
HETATM    6  C23 UNL     1      -2.063   9.015  16.547  1.00  0.00     0.020 C 
HETATM    7  C24 UNL     1      -1.603   9.671  17.825  1.00  0.00     0.058 C 
HETATM    8  C25 UNL     1      -1.109  11.091  17.580  1.00  0.00     0.014 C 
HETATM    9  C26 UNL     1      -0.066  11.113  16.472  1.00  0.00     0.084 C 
HETATM   10  C27 UNL     1      -0.597  10.471  15.208  1.00  0.00     0.158 C 
HETATM   11  O5  UNL     1      -0.166  10.802  14.103  1.00  0.00    -0.293 OA
HETATM   12  N1  UNL     1      -3.027   8.030  16.658  1.00  0.00    -0.362 N 
HETATM   13  H22 UNL     1      -3.434   7.873  17.574  1.00  0.00     0.165 HD
ENDROOT
BRANCH   4  14
HETATM   14  C13 UNL     1      -1.014   7.991  13.303  1.00  0.00     0.029 A 
HETATM   15  C14 UNL     1      -0.227   7.025  13.806  1.00  0.00     0.154 A 
HETATM   16  O3  UNL     1       0.783   6.362  13.154  1.00  0.00    -0.321 OA
HETATM   17  C15 UNL     1       1.073   6.753  11.871  1.00  0.00     0.089 A 
HETATM   18  C16 UNL     1       2.142   6.119  11.236  1.00  0.00     0.040 A 
HETATM   19  C20 UNL     1       0.344   7.732  11.197  1.00  0.00     0.050 A 
HETATM   20  C17 UNL     1       2.475   6.466   9.923  1.00  0.00     0.026 A 
HETATM   21  C18 UNL     1       1.734   7.442   9.253  1.00  0.00     0.035 A 
HETATM   22 CL1  UNL     1       2.137   7.854   7.630  1.00  0.00    -0.084 Cl
HETATM   23  C19 UNL     1       0.669   8.083   9.884  1.00  0.00     0.042 A 
HETATM   24  C21 UNL     1      -0.788   8.374  11.887  1.00  0.00     0.194 A 
HETATM   25  O4  UNL     1      -1.516   9.167  11.303  1.00  0.00    -0.287 OA
ENDBRANCH   4  14
BRANCH   3  26
HETATM   26  C4  UNL     1      -4.034   7.287  13.155  1.00  0.00     0.292 C 
HETATM   27  O1  UNL     1      -5.102   7.750  12.776  1.00  0.00    -0.259 OA
BRANCH  26  28
HETATM   28  O2  UNL     1      -3.377   6.211  12.661  1.00  0.00    -0.313 OA
BRANCH  28  29
HETATM   29  C5  UNL     1      -3.405   5.042  13.485  1.00  0.00     0.217 C 
BRANCH  29  30
HETATM   30  C6  UNL     1      -4.254   3.989  12.814  1.00  0.00    -0.034 A 
HETATM   31  C7  UNL     1      -3.645   2.944  12.102  1.00  0.00     0.009 A 
HETATM   32  C8  UNL     1      -4.419   1.989  11.439  1.00  0.00     0.001 A 
HETATM   33  C9  UNL     1      -5.810   2.066  11.480  1.00  0.00     0.000 A 
HETATM   34  C10 UNL     1      -6.430   3.094  12.195  1.00  0.00     0.001 A 
HETATM   35  C11 UNL     1      -5.656   4.050  12.860  1.00  0.00     0.009 A 
ENDBRANCH  29  30
ENDBRANCH  28  29
ENDBRANCH  26  28
ENDBRANCH   3  26
TORSDOF 5
ENDMDL
MODEL 2
REMARK minimizedAffinity -6.95208454
REMARK CNNscore 0.393432587
REMARK CNNaffinity 6.01286364
REMARK  5 active torsions:
REMARK  status: ('A' for Active; 'I' for Inactive)
REMARK    1  A    between atoms: C3_3  and  C4_4 
REMARK    2  A    between atoms: C4_4  and  O2_6 
REMARK    3  A    between atoms: O2_6  and  C5_7 
REMARK    4  A    between atoms: C5_7  and  C6_8 
REMARK    5  A    between atoms: C12_14  and  C13_15 
ROOT
HETATM    1  C1  UNL     1     -14.143  -8.694  25.924  1.00  0.00     0.069 C 
HETATM    2  C2  UNL     1     -13.793  -8.370  27.353  1.00  0.00     0.018 C 
HETATM    3  C3  UNL     1     -13.501  -9.289  28.299  1.00  0.00     0.052 C 
HETATM    4  C12 UNL     1     -13.133  -8.908  29.726  1.00  0.00     0.104 C 
HETATM    5  C22 UNL     1     -12.960  -7.394  29.877  1.00  0.00     0.024 C 
HETATM    6  C23 UNL     1     -13.277  -6.538  28.883  1.00  0.00     0.020 C 
HETATM    7  C24 UNL     1     -13.084  -5.046  28.993  1.00  0.00     0.058 C 
HETATM    8  C25 UNL     1     -11.992  -4.694  29.995  1.00  0.00     0.014 C 
HETATM    9  C26 UNL     1     -12.249  -5.377  31.331  1.00  0.00     0.084 C 
HETATM   10  C27 UNL     1     -12.401  -6.873  31.160  1.00  0.00     0.158 C 
HETATM   11  O5  UNL     1     -12.122  -7.644  32.078  1.00  0.00    -0.293 OA
HETATM   12  N1  UNL     1     -13.760  -7.023  27.681  1.00  0.00    -0.362 N 
HETATM   13  H22 UNL     1     -13.866  -6.362  26.918  1.00  0.00     0.165 HD
ENDROOT
BRANCH   4  14
HETATM   14  C13 UNL     1     -14.142  -9.466  30.714  1.00  0.00     0.029 A 
HETATM   15  C14 UNL     1     -15.388  -9.006  30.916  1.00  0.00     0.154 A 
HETATM   16  O3  UNL     1     -16.311  -9.490  31.811  1.00  0.00    -0.321 OA
HETATM   17  C15 UNL     1     -15.917 -10.516  32.634  1.00  0.00     0.089 A 
HETATM   18  C16 UNL     1     -16.837 -10.961  33.584  1.00  0.00     0.040 A 
HETATM   19  C20 UNL     1     -14.662 -11.115  32.545  1.00  0.00     0.050 A 
HETATM   20  C17 UNL     1     -16.496 -12.012  34.442  1.00  0.00     0.026 A 
HETATM   21  C18 UNL     1     -15.239 -12.612  34.340  1.00  0.00     0.035 A 
HETATM   22 CL1  UNL     1     -14.831 -13.918  35.386  1.00  0.00    -0.084 Cl
HETATM   23  C19 UNL     1     -14.315 -12.168  33.397  1.00  0.00     0.042 A 
HETATM   24  C21 UNL     1     -13.716 -10.634  31.524  1.00  0.00     0.194 A 
HETATM   25  O4  UNL     1     -12.642 -11.194  31.344  1.00  0.00    -0.287 OA
ENDBRANCH   4  14
BRANCH   3  26
HETATM   26  C4  UNL     1     -13.456 -10.719  27.957  1.00  0.00     0.292 C 
HETATM   27  O1  UNL     1     -14.440 -11.448  27.949  1.00  0.00    -0.259 OA
BRANCH  26  28
HETATM   28  O2  UNL     1     -12.165 -11.070  27.745  1.00  0.00    -0.313 OA
BRANCH  28  29
HETATM   29  C5  UNL     1     -11.923 -11.836  26.561  1.00  0.00     0.217 C 
BRANCH  29  30
HETATM   30  C6  UNL     1     -10.867 -12.874  26.856  1.00  0.00    -0.034 A 
HETATM   31  C7  UNL     1     -11.138 -13.918  27.753  1.00  0.00     0.009 A 
HETATM   32  C8  UNL     1     -10.155 -14.858  28.069  1.00  0.00     0.001 A 
HETATM   33  C9  UNL     1      -8.890 -14.768  27.490  1.00  0.00     0.000 A 
HETATM   34  C10 UNL     1      -8.610 -13.741  26.585  1.00  0.00     0.001 A 
HETATM   35  C11 UNL     1      -9.594 -12.800  26.268  1.00  0.00     0.009 A 
ENDBRANCH  29  30
ENDBRANCH  28  29
ENDBRANCH  26  28
ENDBRANCH   3  26
TORSDOF 5
ENDMDL
MODEL 3
REMARK minimizedAffinity -8.3028698
REMARK CNNscore 0.384547144
REMARK CNNaffinity 6.51487303
REMARK  5 active torsions:
REMARK  status: ('A' for Active; 'I' for Inactive)
REMARK    1  A    between atoms: C3_3  and  C4_4 
REMARK    2  A    between atoms: C4_4  and  O2_6 
REMARK    3  A    between atoms: O2_6  and  C5_7 
REMARK    4  A    between atoms: C5_7  and  C6_8 
REMARK    5  A    between atoms: C12_14  and  C13_15 
ROOT
HETATM    1  C1  UNL     1       3.787   7.717  13.989  1.00  0.00     0.069 C 
HETATM    2  C2  UNL     1       2.782   7.868  12.878  1.00  0.00     0.018 C 
HETATM    3  C3  UNL     1       1.537   8.367  13.031  1.00  0.00     0.052 C 
HETATM    4  C12 UNL     1       0.565   8.518  11.869  1.00  0.00     0.104 C 
HETATM    5  C22 UNL     1       1.240   8.216  10.529  1.00  0.00     0.024 C 
HETATM    6  C23 UNL     1       2.491   7.714  10.458  1.00  0.00     0.020 C 
HETATM    7  C24 UNL     1       3.192   7.440   9.151  1.00  0.00     0.058 C 
HETATM    8  C25 UNL     1       2.646   8.313   8.028  1.00  0.00     0.014 C 
HETATM    9  C26 UNL     1       1.132   8.197   7.945  1.00  0.00     0.084 C 
HETATM   10  C27 UNL     1       0.484   8.514   9.276  1.00  0.00     0.158 C 
HETATM   11  O5  UNL     1      -0.662   8.959   9.330  1.00  0.00    -0.293 OA
HETATM   12  N1  UNL     1       3.205   7.472  11.617  1.00  0.00    -0.362 N 
HETATM   13  H22 UNL     1       4.183   7.217  11.521  1.00  0.00     0.165 HD
ENDROOT
BRANCH   4  14
HETATM   14  C13 UNL     1      -0.674   7.668  12.086  1.00  0.00     0.029 A 
HETATM   15  C14 UNL     1      -1.850   8.095  12.576  1.00  0.00     0.154 A 
HETATM   16  O3  UNL     1      -2.978   7.340  12.790  1.00  0.00    -0.321 OA
HETATM   17  C15 UNL     1      -2.895   5.993  12.535  1.00  0.00     0.089 A 
HETATM   18  C16 UNL     1      -4.023   5.221  12.814  1.00  0.00     0.040 A 
HETATM   19  C20 UNL     1      -1.751   5.393  12.012  1.00  0.00     0.050 A 
HETATM   20  C17 UNL     1      -4.003   3.845  12.563  1.00  0.00     0.026 A 
HETATM   21  C18 UNL     1      -2.855   3.253  12.031  1.00  0.00     0.035 A 
HETATM   22 CL1  UNL     1      -2.841   1.562  11.706  1.00  0.00    -0.084 Cl
HETATM   23  C19 UNL     1      -1.724   4.019  11.755  1.00  0.00     0.042 A 
HETATM   24  C21 UNL     1      -0.580   6.235  11.714  1.00  0.00     0.194 A 
HETATM   25  O4  UNL     1       0.410   5.769  11.164  1.00  0.00    -0.287 OA
ENDBRANCH   4  14
BRANCH   3  26
HETATM   26  C4  UNL     1       1.092   8.863  14.343  1.00  0.00     0.292 C 
HETATM   27  O1  UNL     1       1.082   8.181  15.360  1.00  0.00    -0.259 OA
BRANCH  26  28
HETATM   28  O2  UNL     1       0.639  10.131  14.193  1.00  0.00    -0.313 OA
BRANCH  28  29
HETATM   29  C5  UNL     1       0.437  10.859  15.407  1.00  0.00     0.217 C 
BRANCH  29  30
HETATM   30  C6  UNL     1      -1.029  10.817  15.767  1.00  0.00    -0.034 A 
HETATM   31  C7  UNL     1      -1.987  11.314  14.870  1.00  0.00     0.009 A 
HETATM   32  C8  UNL     1      -3.342  11.322  15.208  1.00  0.00     0.001 A 
HETATM   33  C9  UNL     1      -3.755  10.833  16.446  1.00  0.00     0.000 A 
HETATM   34  C10 UNL     1      -2.814  10.324  17.344  1.00  0.00     0.001 A 
HETATM   35  C11 UNL     1      -1.458  10.314  17.005  1.00  0.00     0.009 A 
ENDBRANCH  29  30
ENDBRANCH  28  29
ENDBRANCH  26  28
ENDBRANCH   3  26
TORSDOF 5
ENDMDL
MODEL 4
REMARK minimizedAffinity -8.15185452
REMARK CNNscore 0.293072879
REMARK CNNaffinity 6.35045767
REMARK  5 active torsions:
REMARK  status: ('A' for Active; 'I' for Inactive)
REMARK    1  A    between atoms: C3_3  and  C4_4 
REMARK    2  A    between atoms: C4_4  and  O2_6 
REMARK    3  A    between atoms: O2_6  and  C5_7 
REMARK    4  A    between atoms: C5_7  and  C6_8 
REMARK    5  A    between atoms: C12_14  and  C13_15 
ROOT
HETATM    1  C1  UNL     1       3.854   7.827  14.070  1.00  0.00     0.069 C 
HETATM    2  C2  UNL     1       2.892   7.977  12.922  1.00  0.00     0.018 C 
HETATM    3  C3  UNL     1       1.803   8.777  12.931  1.00  0.00     0.052 C 
HETATM    4  C12 UNL     1       0.872   8.909  11.733  1.00  0.00     0.104 C 
HETATM    5  C22 UNL     1       1.431   8.186  10.505  1.00  0.00     0.024 C 
HETATM    6  C23 UNL     1       2.526   7.401  10.577  1.00  0.00     0.020 C 
HETATM    7  C24 UNL     1       3.117   6.706   9.376  1.00  0.00     0.058 C 
HETATM    8  C25 UNL     1       2.772   7.431   8.082  1.00  0.00     0.014 C 
HETATM    9  C26 UNL     1       1.271   7.660   7.978  1.00  0.00     0.084 C 
HETATM   10  C27 UNL     1       0.743   8.389   9.195  1.00  0.00     0.158 C 
HETATM   11  O5  UNL     1      -0.264   9.092   9.122  1.00  0.00    -0.293 OA
HETATM   12  N1  UNL     1       3.185   7.242  11.782  1.00  0.00    -0.362 N 
HETATM   13  H22 UNL     1       4.073   6.750  11.770  1.00  0.00     0.165 HD
ENDROOT
BRANCH   4  14
HETATM   14  C13 UNL     1      -0.528   8.438  12.082  1.00  0.00     0.029 A 
HETATM   15  C14 UNL     1      -1.571   9.224  12.399  1.00  0.00     0.154 A 
HETATM   16  O3  UNL     1      -2.841   8.816  12.727  1.00  0.00    -0.321 OA
HETATM   17  C15 UNL     1      -3.073   7.465  12.801  1.00  0.00     0.089 A 
HETATM   18  C16 UNL     1      -4.347   7.057  13.198  1.00  0.00     0.040 A 
HETATM   19  C20 UNL     1      -2.102   6.514  12.492  1.00  0.00     0.050 A 
HETATM   20  C17 UNL     1      -4.646   5.693  13.278  1.00  0.00     0.026 A 
HETATM   21  C18 UNL     1      -3.670   4.747  12.959  1.00  0.00     0.035 A 
HETATM   22 CL1  UNL     1      -4.048   3.070  13.042  1.00  0.00    -0.084 Cl
HETATM   23  C19 UNL     1      -2.394   5.149  12.568  1.00  0.00     0.042 A 
HETATM   24  C21 UNL     1      -0.770   6.974  12.063  1.00  0.00     0.194 A 
HETATM   25  O4  UNL     1       0.083   6.178  11.688  1.00  0.00    -0.287 OA
ENDBRANCH   4  14
BRANCH   3  26
HETATM   26  C4  UNL     1       1.513   9.623  14.099  1.00  0.00     0.292 C 
HETATM   27  O1  UNL     1       1.776  10.817  14.156  1.00  0.00    -0.259 OA
BRANCH  26  28
HETATM   28  O2  UNL     1       1.002   8.841  15.080  1.00  0.00    -0.313 OA
BRANCH  28  29
HETATM   29  C5  UNL     1      -0.222   9.302  15.658  1.00  0.00     0.217 C 
BRANCH  29  30
HETATM   30  C6  UNL     1       0.073   9.927  17.000  1.00  0.00    -0.034 A 
HETATM   31  C7  UNL     1      -0.972  10.449  17.778  1.00  0.00     0.009 A 
HETATM   32  C8  UNL     1      -0.707  11.071  19.001  1.00  0.00     0.001 A 
HETATM   33  C9  UNL     1       0.604  11.177  19.460  1.00  0.00     0.000 A 
HETATM   34  C10 UNL     1       1.653  10.650  18.702  1.00  0.00     0.001 A 
HETATM   35  C11 UNL     1       1.389  10.027  17.479  1.00  0.00     0.009 A 
ENDBRANCH  29  30
ENDBRANCH  28  29
ENDBRANCH  26  28
ENDBRANCH   3  26
TORSDOF 5
ENDMDL
MODEL 5
REMARK minimizedAffinity -8.55107689
REMARK CNNscore 0.282739967
REMARK CNNaffinity 6.30018234
REMARK  5 active torsions:
REMARK  status: ('A' for Active; 'I' for Inactive)
REMARK    1  A    between atoms: C3_3  and  C4_4 
REMARK    2  A    between atoms: C4_4  and  O2_6 
REMARK    3  A    between atoms: O2_6  and  C5_7 
REMARK    4  A    between atoms: C5_7  and  C6_8 
REMARK    5  A    between atoms: C12_14  and  C13_15 
ROOT
HETATM    1  C1  UNL     1       4.567   8.058  13.261  1.00  0.00     0.069 C 
HETATM    2  C2  UNL     1       3.399   8.088  12.311  1.00  0.00     0.018 C 
HETATM    3  C3  UNL     1       2.181   8.593  12.606  1.00  0.00     0.052 C 
HETATM    4  C12 UNL     1       1.038   8.619  11.601  1.00  0.00     0.104 C 
HETATM    5  C22 UNL     1       1.505   8.186  10.208  1.00  0.00     0.024 C 
HETATM    6  C23 UNL     1       2.741   7.688   9.994  1.00  0.00     0.020 C 
HETATM    7  C24 UNL     1       3.237   7.287   8.627  1.00  0.00     0.058 C 
HETATM    8  C25 UNL     1       2.506   8.038   7.522  1.00  0.00     0.014 C 
HETATM    9  C26 UNL     1       0.999   7.904   7.688  1.00  0.00     0.084 C 
HETATM   10  C27 UNL     1       0.558   8.351   9.065  1.00  0.00     0.158 C 
HETATM   11  O5  UNL     1      -0.576   8.791   9.253  1.00  0.00    -0.293 OA
HETATM   12  N1  UNL     1       3.631   7.570  11.045  1.00  0.00    -0.362 N 
HETATM   13  H22 UNL     1       4.587   7.312  10.823  1.00  0.00     0.165 HD
ENDROOT
BRANCH   4  14
HETATM   14  C13 UNL     1      -0.133   7.787  12.092  1.00  0.00     0.029 A 
HETATM   15  C14 UNL     1      -0.168   6.447  12.187  1.00  0.00     0.154 A 
HETATM   16  O3  UNL     1      -1.221   5.678  12.617  1.00  0.00    -0.321 OA
HETATM   17  C15 UNL     1      -2.389   6.325  12.934  1.00  0.00     0.089 A 
HETATM   18  C16 UNL     1      -3.475   5.533  13.310  1.00  0.00     0.040 A 
HETATM   19  C20 UNL     1      -2.517   7.713  12.901  1.00  0.00     0.050 A 
HETATM   20  C17 UNL     1      -4.688   6.137  13.657  1.00  0.00     0.026 A 
HETATM   21  C18 UNL     1      -4.805   7.528  13.629  1.00  0.00     0.035 A 
HETATM   22 CL1  UNL     1      -6.295   8.268  14.074  1.00  0.00    -0.084 Cl
HETATM   23  C19 UNL     1      -3.726   8.324  13.249  1.00  0.00     0.042 A 
HETATM   24  C21 UNL     1      -1.351   8.524  12.514  1.00  0.00     0.194 A 
HETATM   25  O4  UNL     1      -1.386   9.747  12.565  1.00  0.00    -0.287 OA
ENDBRANCH   4  14
BRANCH   3  26
HETATM   26  C4  UNL     1       1.934   9.216  13.916  1.00  0.00     0.292 C 
HETATM   27  O1  UNL     1       2.021  10.419  14.124  1.00  0.00    -0.259 OA
BRANCH  26  28
HETATM   28  O2  UNL     1       1.685   8.237  14.818  1.00  0.00    -0.313 OA
BRANCH  28  29
HETATM   29  C5  UNL     1       1.540   8.672  16.173  1.00  0.00     0.217 C 
BRANCH  29  30
HETATM   30  C6  UNL     1       0.074   8.892  16.463  1.00  0.00    -0.034 A 
HETATM   31  C7  UNL     1      -0.862   7.896  16.147  1.00  0.00     0.009 A 
HETATM   32  C8  UNL     1      -2.225   8.105  16.369  1.00  0.00     0.001 A 
HETATM   33  C9  UNL     1      -2.668   9.310  16.911  1.00  0.00     0.000 A 
HETATM   34  C10 UNL     1      -1.745  10.306  17.243  1.00  0.00     0.001 A 
HETATM   35  C11 UNL     1      -0.381  10.097  17.022  1.00  0.00     0.009 A 
ENDBRANCH  29  30
ENDBRANCH  28  29
ENDBRANCH  26  28
ENDBRANCH   3  26
TORSDOF 5
ENDMDL
MODEL 6
REMARK minimizedAffinity -7.04411125
REMARK CNNscore 0.218978673
REMARK CNNaffinity 5.51190805
REMARK  5 active torsions:
REMARK  status: ('A' for Active; 'I' for Inactive)
REMARK    1  A    between atoms: C3_3  and  C4_4 
REMARK    2  A    between atoms: C4_4  and  O2_6 
REMARK    3  A    between atoms: O2_6  and  C5_7 
REMARK    4  A    between atoms: C5_7  and  C6_8 
REMARK    5  A    between atoms: C12_14  and  C13_15 
ROOT
HETATM    1  C1  UNL     1      -2.424   7.904  16.502  1.00  0.00     0.069 C 
HETATM    2  C2  UNL     1      -2.060   9.292  16.956  1.00  0.00     0.018 C 
HETATM    3  C3  UNL     1      -0.969   9.974  16.543  1.00  0.00     0.052 C 
HETATM    4  C12 UNL     1      -0.657  11.386  17.018  1.00  0.00     0.104 C 
HETATM    5  C22 UNL     1      -1.806  11.969  17.844  1.00  0.00     0.024 C 
HETATM    6  C23 UNL     1      -2.864  11.220  18.220  1.00  0.00     0.020 C 
HETATM    7  C24 UNL     1      -4.025  11.778  19.005  1.00  0.00     0.058 C 
HETATM    8  C25 UNL     1      -4.180  13.278  18.788  1.00  0.00     0.014 C 
HETATM    9  C26 UNL     1      -2.865  13.997  19.050  1.00  0.00     0.084 C 
HETATM   10  C27 UNL     1      -1.746  13.415  18.212  1.00  0.00     0.158 C 
HETATM   11  O5  UNL     1      -0.780  14.103  17.885  1.00  0.00    -0.293 OA
HETATM   12  N1  UNL     1      -2.937   9.891  17.848  1.00  0.00    -0.362 N 
HETATM   13  H22 UNL     1      -3.803   9.397  18.041  1.00  0.00     0.165 HD
ENDROOT
BRANCH   4  14
HETATM   14  C13 UNL     1       0.661  11.425  17.771  1.00  0.00     0.029 A 
HETATM   15  C14 UNL     1       1.826  11.906  17.303  1.00  0.00     0.154 A 
HETATM   16  O3  UNL     1       3.029  11.939  17.965  1.00  0.00    -0.321 OA
HETATM   17  C15 UNL     1       3.080  11.373  19.214  1.00  0.00     0.089 A 
HETATM   18  C16 UNL     1       4.320  11.353  19.855  1.00  0.00     0.040 A 
HETATM   19  C20 UNL     1       1.959  10.841  19.849  1.00  0.00     0.050 A 
HETATM   20  C17 UNL     1       4.431  10.801  21.135  1.00  0.00     0.026 A 
HETATM   21  C18 UNL     1       3.301  10.278  21.767  1.00  0.00     0.035 A 
HETATM   22 CL1  UNL     1       3.439   9.616  23.351  1.00  0.00    -0.084 Cl
HETATM   23  C19 UNL     1       2.062  10.290  21.130  1.00  0.00     0.042 A 
HETATM   24  C21 UNL     1       0.661  10.889  19.154  1.00  0.00     0.194 A 
HETATM   25  O4  UNL     1      -0.367  10.523  19.711  1.00  0.00    -0.287 OA
ENDBRANCH   4  14
BRANCH   3  26
HETATM   26  C4  UNL     1      -0.064   9.390  15.540  1.00  0.00     0.292 C 
HETATM   27  O1  UNL     1       0.708   8.470  15.775  1.00  0.00    -0.259 OA
BRANCH  26  28
HETATM   28  O2  UNL     1      -0.189  10.093  14.389  1.00  0.00    -0.313 OA
BRANCH  28  29
HETATM   29  C5  UNL     1      -1.285   9.713  13.552  1.00  0.00     0.217 C 
BRANCH  29  30
HETATM   30  C6  UNL     1      -0.881   8.514  12.728  1.00  0.00    -0.034 A 
HETATM   31  C7  UNL     1       0.081   8.650  11.715  1.00  0.00     0.009 A 
HETATM   32  C8  UNL     1       0.431   7.559  10.915  1.00  0.00     0.001 A 
HETATM   33  C9  UNL     1      -0.175   6.321  11.120  1.00  0.00     0.000 A 
HETATM   34  C10 UNL     1      -1.124   6.168  12.133  1.00  0.00     0.001 A 
HETATM   35  C11 UNL     1      -1.474   7.259  12.935  1.00  0.00     0.009 A 
ENDBRANCH  29  30
ENDBRANCH  28  29
ENDBRANCH  26  28
ENDBRANCH   3  26
TORSDOF 5
ENDMDL
MODEL 7
REMARK minimizedAffinity -7.86326504
REMARK CNNscore 0.197100148
REMARK CNNaffinity 5.8102684
REMARK  5 active torsions:
REMARK  status: ('A' for Active; 'I' for Inactive)
REMARK    1  A    between atoms: C3_3  and  C4_4 
REMARK    2  A    between atoms: C4_4  and  O2_6 
REMARK    3  A    between atoms: O2_6  and  C5_7 
REMARK    4  A    between atoms: C5_7  and  C6_8 
REMARK    5  A    between atoms: C12_14  and  C13_15 
ROOT
HETATM    1  C1  UNL     1       4.958   6.587  11.730  1.00  0.00     0.069 C 
HETATM    2  C2  UNL     1       3.659   6.918  11.043  1.00  0.00     0.018 C 
HETATM    3  C3  UNL     1       2.635   7.585  11.618  1.00  0.00     0.052 C 
HETATM    4  C12 UNL     1       1.349   7.914  10.872  1.00  0.00     0.104 C 
HETATM    5  C22 UNL     1       1.457   7.564   9.385  1.00  0.00     0.024 C 
HETATM    6  C23 UNL     1       2.515   6.892   8.886  1.00  0.00     0.020 C 
HETATM    7  C24 UNL     1       2.663   6.566   7.421  1.00  0.00     0.058 C 
HETATM    8  C25 UNL     1       1.890   7.546   6.547  1.00  0.00     0.014 C 
HETATM    9  C26 UNL     1       0.444   7.651   7.007  1.00  0.00     0.084 C 
HETATM   10  C27 UNL     1       0.360   8.011   8.475  1.00  0.00     0.158 C 
HETATM   11  O5  UNL     1      -0.616   8.613   8.923  1.00  0.00    -0.293 OA
HETATM   12  N1  UNL     1       3.549   6.510   9.722  1.00  0.00    -0.362 N 
HETATM   13  H22 UNL     1       4.381   6.121   9.291  1.00  0.00     0.165 HD
ENDROOT
BRANCH   4  14
HETATM   14  C13 UNL     1       0.156   7.242  11.528  1.00  0.00     0.029 A 
HETATM   15  C14 UNL     1      -0.050   5.918  11.630  1.00  0.00     0.154 A 
HETATM   16  O3  UNL     1      -1.127   5.293  12.209  1.00  0.00    -0.321 OA
HETATM   17  C15 UNL     1      -2.138   6.089  12.690  1.00  0.00     0.089 A 
HETATM   18  C16 UNL     1      -3.258   5.448  13.220  1.00  0.00     0.040 A 
HETATM   19  C20 UNL     1      -2.075   7.482  12.673  1.00  0.00     0.050 A 
HETATM   20  C17 UNL     1      -4.313   6.206  13.737  1.00  0.00     0.026 A 
HETATM   21  C18 UNL     1      -4.238   7.601  13.724  1.00  0.00     0.035 A 
HETATM   22 CL1  UNL     1      -5.532   8.530  14.377  1.00  0.00    -0.084 Cl
HETATM   23  C19 UNL     1      -3.125   8.247  13.190  1.00  0.00     0.042 A 
HETATM   24  C21 UNL     1      -0.875   8.131  12.120  1.00  0.00     0.194 A 
HETATM   25  O4  UNL     1      -0.733   9.347  12.173  1.00  0.00    -0.287 OA
ENDBRANCH   4  14
BRANCH   3  26
HETATM   26  C4  UNL     1       2.758   8.093  12.993  1.00  0.00     0.292 C 
HETATM   27  O1  UNL     1       2.399   7.469  13.983  1.00  0.00    -0.259 OA
BRANCH  26  28
HETATM   28  O2  UNL     1       3.243   9.357  12.943  1.00  0.00    -0.313 OA
BRANCH  28  29
HETATM   29  C5  UNL     1       3.974   9.780  14.097  1.00  0.00     0.217 C 
BRANCH  29  30
HETATM   30  C6  UNL     1       5.404   9.313  13.971  1.00  0.00    -0.034 A 
HETATM   31  C7  UNL     1       6.224   9.826  12.954  1.00  0.00     0.009 A 
HETATM   32  C8  UNL     1       7.535   9.369  12.798  1.00  0.00     0.001 A 
HETATM   33  C9  UNL     1       8.042   8.395  13.657  1.00  0.00     0.000 A 
HETATM   34  C10 UNL     1       7.240   7.885  14.681  1.00  0.00     0.001 A 
HETATM   35  C11 UNL     1       5.929   8.342  14.838  1.00  0.00     0.009 A 
ENDBRANCH  29  30
ENDBRANCH  28  29
ENDBRANCH  26  28
ENDBRANCH   3  26
TORSDOF 5
ENDMDL
MODEL 8
REMARK minimizedAffinity -6.97989845
REMARK CNNscore 0.160574749
REMARK CNNaffinity 5.71002722
REMARK  5 active torsions:
REMARK  status: ('A' for Active; 'I' for Inactive)
REMARK    1  A    between atoms: C3_3  and  C4_4 
REMARK    2  A    between atoms: C4_4  and  O2_6 
REMARK    3  A    between atoms: O2_6  and  C5_7 
REMARK    4  A    between atoms: C5_7  and  C6_8 
REMARK    5  A    between atoms: C12_14  and  C13_15 
ROOT
HETATM    1  C1  UNL     1       0.608   5.593  14.001  1.00  0.00     0.069 C 
HETATM    2  C2  UNL     1       0.103   7.000  14.188  1.00  0.00     0.018 C 
HETATM    3  C3  UNL     1       0.771   8.112  13.812  1.00  0.00     0.052 C 
HETATM    4  C12 UNL     1       0.205   9.513  14.005  1.00  0.00     0.104 C 
HETATM    5  C22 UNL     1      -1.246   9.471  14.489  1.00  0.00     0.024 C 
HETATM    6  C23 UNL     1      -1.845   8.316  14.849  1.00  0.00     0.020 C 
HETATM    7  C24 UNL     1      -3.283   8.243  15.296  1.00  0.00     0.058 C 
HETATM    8  C25 UNL     1      -4.106   9.394  14.730  1.00  0.00     0.014 C 
HETATM    9  C26 UNL     1      -3.440  10.729  15.031  1.00  0.00     0.084 C 
HETATM   10  C27 UNL     1      -2.011  10.753  14.531  1.00  0.00     0.158 C 
HETATM   11  O5  UNL     1      -1.471  11.813  14.217  1.00  0.00    -0.293 OA
HETATM   12  N1  UNL     1      -1.148   7.124  14.775  1.00  0.00    -0.362 N 
HETATM   13  H22 UNL     1      -1.668   6.267  14.932  1.00  0.00     0.165 HD
ENDROOT
BRANCH   4  14
HETATM   14  C13 UNL     1       1.090  10.330  14.929  1.00  0.00     0.029 A 
HETATM   15  C14 UNL     1       1.848  11.381  14.574  1.00  0.00     0.154 A 
HETATM   16  O3  UNL     1       2.661  12.125  15.393  1.00  0.00    -0.321 OA
HETATM   17  C15 UNL     1       2.769  11.733  16.704  1.00  0.00     0.089 A 
HETATM   18  C16 UNL     1       3.646  12.454  17.516  1.00  0.00     0.040 A 
HETATM   19  C20 UNL     1       2.040  10.671  17.237  1.00  0.00     0.050 A 
HETATM   20  C17 UNL     1       3.787  12.109  18.864  1.00  0.00     0.026 A 
HETATM   21  C18 UNL     1       3.047  11.049  19.391  1.00  0.00     0.035 A 
HETATM   22 CL1  UNL     1       3.210  10.639  21.056  1.00  0.00    -0.084 Cl
HETATM   23  C19 UNL     1       2.174  10.322  18.584  1.00  0.00     0.042 A 
HETATM   24  C21 UNL     1       1.112   9.937  16.360  1.00  0.00     0.194 A 
HETATM   25  O4  UNL     1       0.381   9.062  16.806  1.00  0.00    -0.287 OA
ENDBRANCH   4  14
BRANCH   3  26
HETATM   26  C4  UNL     1       2.064   8.003  13.120  1.00  0.00     0.292 C 
HETATM   27  O1  UNL     1       3.146   8.020  13.693  1.00  0.00    -0.259 OA
BRANCH  26  28
HETATM   28  O2  UNL     1       1.836   7.967  11.785  1.00  0.00    -0.313 OA
BRANCH  28  29
HETATM   29  C5  UNL     1       2.223   6.756  11.129  1.00  0.00     0.217 C 
BRANCH  29  30
HETATM   30  C6  UNL     1       2.053   6.930   9.638  1.00  0.00    -0.034 A 
HETATM   31  C7  UNL     1       1.135   7.868   9.141  1.00  0.00     0.009 A 
HETATM   32  C8  UNL     1       0.936   8.007   7.765  1.00  0.00     0.001 A 
HETATM   33  C9  UNL     1       1.651   7.212   6.872  1.00  0.00     0.000 A 
HETATM   34  C10 UNL     1       2.577   6.283   7.353  1.00  0.00     0.001 A 
HETATM   35  C11 UNL     1       2.779   6.144   8.729  1.00  0.00     0.009 A 
ENDBRANCH  29  30
ENDBRANCH  28  29
ENDBRANCH  26  28
ENDBRANCH   3  26
TORSDOF 5
ENDMDL
MODEL 9
REMARK minimizedAffinity -7.30610895
REMARK CNNscore 0.160369903
REMARK CNNaffinity 4.52924538
REMARK  5 active torsions:
REMARK  status: ('A' for Active; 'I' for Inactive)
REMARK    1  A    between atoms: C3_3  and  C4_4 
REMARK    2  A    between atoms: C4_4  and  O2_6 
REMARK    3  A    between atoms: O2_6  and  C5_7 
REMARK    4  A    between atoms: C5_7  and  C6_8 
REMARK    5  A    between atoms: C12_14  and  C13_15 
ROOT
HETATM    1  C1  UNL     1       6.574  17.472  22.782  1.00  0.00     0.069 C 
HETATM    2  C2  UNL     1       6.393  15.977  22.776  1.00  0.00     0.018 C 
HETATM    3  C3  UNL     1       7.367  15.084  23.055  1.00  0.00     0.052 C 
HETATM    4  C12 UNL     1       7.125  13.580  23.056  1.00  0.00     0.104 C 
HETATM    5  C22 UNL     1       5.639  13.249  22.891  1.00  0.00     0.024 C 
HETATM    6  C23 UNL     1       4.725  14.201  22.611  1.00  0.00     0.020 C 
HETATM    7  C24 UNL     1       3.251  13.907  22.478  1.00  0.00     0.058 C 
HETATM    8  C25 UNL     1       2.854  12.663  23.262  1.00  0.00     0.014 C 
HETATM    9  C26 UNL     1       3.746  11.488  22.892  1.00  0.00     0.084 C 
HETATM   10  C27 UNL     1       5.209  11.831  23.076  1.00  0.00     0.158 C 
HETATM   11  O5  UNL     1       6.037  10.955  23.319  1.00  0.00    -0.293 OA
HETATM   12  N1  UNL     1       5.117  15.520  22.476  1.00  0.00    -0.362 N 
HETATM   13  H22 UNL     1       4.388  16.220  22.392  1.00  0.00     0.165 HD
ENDROOT
BRANCH   4  14
HETATM   14  C13 UNL     1       7.980  12.894  22.005  1.00  0.00     0.029 A 
HETATM   15  C14 UNL     1       9.026  12.084  22.242  1.00  0.00     0.154 A 
HETATM   16  O3  UNL     1       9.817  11.464  21.305  1.00  0.00    -0.321 OA
HETATM   17  C15 UNL     1       9.563  11.735  19.984  1.00  0.00     0.089 A 
HETATM   18  C16 UNL     1      10.410  11.152  19.039  1.00  0.00     0.040 A 
HETATM   19  C20 UNL     1       8.508  12.544  19.567  1.00  0.00     0.050 A 
HETATM   20  C17 UNL     1      10.193  11.381  17.677  1.00  0.00     0.026 A 
HETATM   21  C18 UNL     1       9.128  12.187  17.268  1.00  0.00     0.035 A 
HETATM   22 CL1  UNL     1       8.853  12.451  15.589  1.00  0.00    -0.084 Cl
HETATM   23  C19 UNL     1       8.282  12.775  18.207  1.00  0.00     0.042 A 
HETATM   24  C21 UNL     1       7.622  13.134  20.585  1.00  0.00     0.194 A 
HETATM   25  O4  UNL     1       6.626  13.771  20.264  1.00  0.00    -0.287 OA
ENDBRANCH   4  14
BRANCH   3  26
HETATM   26  C4  UNL     1       8.707  15.545  23.449  1.00  0.00     0.292 C 
HETATM   27  O1  UNL     1       9.550  15.943  22.655  1.00  0.00    -0.259 OA
BRANCH  26  28
HETATM   28  O2  UNL     1       8.846  15.371  24.785  1.00  0.00    -0.313 OA
BRANCH  28  29
HETATM   29  C5  UNL     1       9.205  16.543  25.523  1.00  0.00     0.217 C 
BRANCH  29  30
HETATM   30  C6  UNL     1       8.178  16.777  26.605  1.00  0.00    -0.034 A 
HETATM   31  C7  UNL     1       8.416  16.318  27.910  1.00  0.00     0.009 A 
HETATM   32  C8  UNL     1       7.455  16.488  28.909  1.00  0.00     0.001 A 
HETATM   33  C9  UNL     1       6.247  17.118  28.617  1.00  0.00     0.000 A 
HETATM   34  C10 UNL     1       6.003  17.591  27.325  1.00  0.00     0.001 A 
HETATM   35  C11 UNL     1       6.964  17.422  26.324  1.00  0.00     0.009 A 
ENDBRANCH  29  30
ENDBRANCH  28  29
ENDBRANCH  26  28
ENDBRANCH   3  26
TORSDOF 5
ENDMDL
