MODEL 1
REMARK minimizedAffinity -9.59659386
REMARK CNNscore 0.404467523
REMARK CNNaffinity 7.20394659
REMARK  12 active torsions:
REMARK  status: ('A' for Active; 'I' for Inactive)
REMARK    1  A    between atoms: O1_2  and  C2_3 
REMARK    2  A    between atoms: C2_3  and  C5_6 
REMARK    3  A    between atoms: C6_7  and  C7_8 
REMARK    4  A    between atoms: C7_8  and  C8_9 
REMARK    5  A    between atoms: C8_9  and  C10_11 
REMARK    6  A    between atoms: C28_30  and  O3_31 
REMARK    7  A    between atoms: O3_31  and  C29_32 
REMARK    8  A    between atoms: C30_34  and  C31_35 
REMARK    9  A    between atoms: C31_35  and  O5_36 
REMARK   10  A    between atoms: C32_37  and  O6_38 
REMARK   11  A    between atoms: C33_39  and  O7_40 
REMARK   12  A    between atoms: C34_41  and  O8_42 
ROOT
HETATM    1  C10 UNL     1      -5.460   6.389  14.890  1.00  0.00    -0.002 C 
HETATM    2  C11 UNL     1      -5.531   5.105  14.001  1.00  0.00     0.006 C 
HETATM    3  C12 UNL     1      -4.327   5.138  13.038  1.00  0.00     0.011 C 
HETATM    4  C13 UNL     1      -3.403   6.232  13.608  1.00  0.00    -0.029 C 
HETATM    5  C14 UNL     1      -2.613   5.546  14.761  1.00  0.00     0.016 C 
HETATM    6  C15 UNL     1      -2.438   6.884  12.574  1.00  0.00     0.028 C 
HETATM    7  C16 UNL     1      -1.407   5.946  11.985  1.00  0.00    -0.021 C 
HETATM    8  C17 UNL     1      -0.140   6.337  11.774  1.00  0.00     0.008 C 
HETATM    9  C18 UNL     1       0.346   7.732  12.162  1.00  0.00     0.092 C 
HETATM   10  O2  UNL     1      -0.248   8.619  11.193  1.00  0.00    -0.374 OA
HETATM   11  C19 UNL     1      -1.496   9.092  11.753  1.00  0.00     0.179 C 
HETATM   12  C20 UNL     1      -1.798   8.253  13.046  1.00  0.00    -0.004 C 
HETATM   13  C21 UNL     1      -2.673   9.102  14.006  1.00  0.00     0.014 C 
HETATM   14  C22 UNL     1      -3.709   8.372  14.876  1.00  0.00     0.011 C 
HETATM   15  C23 UNL     1      -4.468   7.293  14.090  1.00  0.00    -0.032 C 
HETATM   16  C24 UNL     1      -5.249   7.984  12.926  1.00  0.00     0.016 C 
HETATM   17  C25 UNL     1      -0.317   8.157  13.485  1.00  0.00     0.036 C 
HETATM   18  C26 UNL     1       0.165   7.319  14.659  1.00  0.00     0.011 C 
HETATM   19  C27 UNL     1       1.693   7.399  14.774  1.00  0.00     0.033 C 
HETATM   20  C28 UNL     1       2.409   7.038  13.454  1.00  0.00     0.136 C 
HETATM   21  C35 UNL     1       1.903   7.884  12.241  1.00  0.00     0.014 C 
HETATM   22  C36 UNL     1       2.316   9.374  12.386  1.00  0.00     0.021 C 
HETATM   23  C37 UNL     1       2.601   7.403  10.943  1.00  0.00     0.021 C 
ENDROOT
BRANCH  20  24
HETATM   24  O3  UNL     1       3.825   7.219  13.587  1.00  0.00    -0.352 OA
BRANCH  24  25
HETATM   25  C29 UNL     1       4.209   8.542  13.963  1.00  0.00     0.292 C 
HETATM   26  O4  UNL     1       5.116   9.074  12.994  1.00  0.00    -0.348 OA
HETATM   27  C30 UNL     1       6.354   8.349  12.852  1.00  0.00     0.179 C 
HETATM   28  C32 UNL     1       6.835   7.665  14.145  1.00  0.00     0.180 C 
HETATM   29  C33 UNL     1       6.345   8.474  15.344  1.00  0.00     0.183 C 
HETATM   30  C34 UNL     1       4.817   8.499  15.386  1.00  0.00     0.204 C 
BRANCH  27  31
HETATM   31  C31 UNL     1       6.261   7.361  11.682  1.00  0.00     0.198 C 
BRANCH  31  32
HETATM   32  O5  UNL     1       6.099   6.033  12.185  1.00  0.00    -0.398 OA
HETATM   33  H48 UNL     1       6.749   5.951  12.913  1.00  0.00     0.209 HD
ENDBRANCH  31  32
ENDBRANCH  27  31
BRANCH  28  34
HETATM   34  O6  UNL     1       8.268   7.568  14.197  1.00  0.00    -0.390 OA
HETATM   35  H50 UNL     1       8.644   8.442  13.988  1.00  0.00     0.210 HD
ENDBRANCH  28  34
BRANCH  29  36
HETATM   36  O7  UNL     1       6.841   7.915  16.572  1.00  0.00    -0.390 OA
HETATM   37  H52 UNL     1       7.764   7.646  16.387  1.00  0.00     0.210 HD
ENDBRANCH  29  36
BRANCH  30  38
HETATM   38  O8  UNL     1       4.415   9.647  16.160  1.00  0.00    -0.388 OA
HETATM   39  H54 UNL     1       4.850   9.538  17.028  1.00  0.00     0.210 HD
ENDBRANCH  30  38
ENDBRANCH  24  25
ENDBRANCH  20  24
BRANCH   1  40
HETATM   40  C8  UNL     1      -6.889   6.910  15.249  1.00  0.00    -0.010 C 
HETATM   41  C9  UNL     1      -7.143   6.924  16.763  1.00  0.00     0.010 C 
BRANCH  40  42
HETATM   42  C7  UNL     1      -7.973   6.028  14.561  1.00  0.00     0.031 C 
BRANCH  42  43
HETATM   43  C6  UNL     1      -9.226   6.698  14.050  1.00  0.00    -0.027 C 
HETATM   44  C5  UNL     1     -10.351   6.942  14.744  1.00  0.00     0.006 C 
BRANCH  44  45
HETATM   45  C2  UNL     1     -11.615   7.628  14.254  1.00  0.00     0.070 C 
HETATM   46  C3  UNL     1     -12.928   6.871  14.522  1.00  0.00     0.050 C 
HETATM   47  C4  UNL     1     -11.476   7.828  12.737  1.00  0.00     0.050 C 
BRANCH  45  48
HETATM   48  O1  UNL     1     -11.650   8.957  14.804  1.00  0.00    -0.382 OA
HETATM   49  C1  UNL     1     -11.240  10.003  13.929  1.00  0.00     0.202 C 
ENDBRANCH  45  48
ENDBRANCH  44  45
ENDBRANCH  42  43
ENDBRANCH  40  42
ENDBRANCH   1  40
TORSDOF 12
ENDMDL
MODEL 2
REMARK minimizedAffinity -7.30935431
REMARK CNNscore 0.32491225
REMARK CNNaffinity 6.92634535
REMARK  12 active torsions:
REMARK  status: ('A' for Active; 'I' for Inactive)
REMARK    1  A    between atoms: O1_2  and  C2_3 
REMARK    2  A    between atoms: C2_3  and  C5_6 
REMARK    3  A    between atoms: C6_7  and  C7_8 
REMARK    4  A    between atoms: C7_8  and  C8_9 
REMARK    5  A    between atoms: C8_9  and  C10_11 
REMARK    6  A    between atoms: C28_30  and  O3_31 
REMARK    7  A    between atoms: O3_31  and  C29_32 
REMARK    8  A    between atoms: C30_34  and  C31_35 
REMARK    9  A    between atoms: C31_35  and  O5_36 
REMARK   10  A    between atoms: C32_37  and  O6_38 
REMARK   11  A    between atoms: C33_39  and  O7_40 
REMARK   12  A    between atoms: C34_41  and  O8_42 
ROOT
HETATM    1  C10 UNL     1     -10.336  -7.517  -3.090  1.00  0.00    -0.002 C 
HETATM    2  C11 UNL     1     -11.613  -8.343  -2.726  1.00  0.00     0.006 C 
HETATM    3  C12 UNL     1     -11.148  -9.641  -2.037  1.00  0.00     0.011 C 
HETATM    4  C13 UNL     1      -9.664  -9.393  -1.702  1.00  0.00    -0.029 C 
HETATM    5  C14 UNL     1      -9.672  -8.558  -0.386  1.00  0.00     0.016 C 
HETATM    6  C15 UNL     1      -8.799 -10.680  -1.547  1.00  0.00     0.028 C 
HETATM    7  C16 UNL     1      -9.188 -11.573  -0.389  1.00  0.00    -0.021 C 
HETATM    8  C17 UNL     1      -8.262 -12.178   0.373  1.00  0.00     0.008 C 
HETATM    9  C18 UNL     1      -6.767 -11.960   0.148  1.00  0.00     0.092 C 
HETATM   10  O2  UNL     1      -6.461 -12.682  -1.062  1.00  0.00    -0.374 OA
HETATM   11  C19 UNL     1      -6.582 -11.749  -2.161  1.00  0.00     0.179 C 
HETATM   12  C20 UNL     1      -7.237 -10.431  -1.610  1.00  0.00    -0.004 C 
HETATM   13  C21 UNL     1      -6.786  -9.237  -2.494  1.00  0.00     0.014 C 
HETATM   14  C22 UNL     1      -7.780  -8.084  -2.710  1.00  0.00     0.011 C 
HETATM   15  C23 UNL     1      -9.205  -8.590  -2.980  1.00  0.00    -0.032 C 
HETATM   16  C24 UNL     1      -9.190  -9.437  -4.293  1.00  0.00     0.016 C 
HETATM   17  C25 UNL     1      -6.516 -10.492  -0.243  1.00  0.00     0.036 C 
HETATM   18  C26 UNL     1      -6.802  -9.539   0.908  1.00  0.00     0.011 C 
HETATM   19  C27 UNL     1      -5.961  -9.921   2.132  1.00  0.00     0.033 C 
HETATM   20  C28 UNL     1      -6.131 -11.402   2.534  1.00  0.00     0.136 C 
HETATM   21  C35 UNL     1      -5.856 -12.385   1.348  1.00  0.00     0.014 C 
HETATM   22  C36 UNL     1      -4.356 -12.373   0.948  1.00  0.00     0.021 C 
HETATM   23  C37 UNL     1      -6.134 -13.840   1.803  1.00  0.00     0.021 C 
ENDROOT
BRANCH  20  24
HETATM   24  O3  UNL     1      -5.256 -11.731   3.620  1.00  0.00    -0.352 OA
BRANCH  24  25
HETATM   25  C29 UNL     1      -3.981 -11.090   3.553  1.00  0.00     0.292 C 
HETATM   26  O4  UNL     1      -2.972 -11.974   4.052  1.00  0.00    -0.348 OA
HETATM   27  C30 UNL     1      -3.126 -12.362   5.432  1.00  0.00     0.179 C 
HETATM   28  C32 UNL     1      -3.798 -11.295   6.315  1.00  0.00     0.180 C 
HETATM   29  C33 UNL     1      -3.477  -9.912   5.752  1.00  0.00     0.183 C 
HETATM   30  C34 UNL     1      -4.048  -9.760   4.342  1.00  0.00     0.204 C 
BRANCH  27  31
HETATM   31  C31 UNL     1      -3.839 -13.717   5.526  1.00  0.00     0.198 C 
BRANCH  31  32
HETATM   32  O5  UNL     1      -5.160 -13.530   6.038  1.00  0.00    -0.398 OA
HETATM   33  H48 UNL     1      -5.061 -12.916   6.794  1.00  0.00     0.209 HD
ENDBRANCH  31  32
ENDBRANCH  27  31
BRANCH  28  34
HETATM   34  O6  UNL     1      -3.345 -11.365   7.677  1.00  0.00    -0.390 OA
HETATM   35  H50 UNL     1      -2.372 -11.396   7.677  1.00  0.00     0.210 HD
ENDBRANCH  28  34
BRANCH  29  36
HETATM   36  O7  UNL     1      -4.019  -8.881   6.594  1.00  0.00    -0.390 OA
HETATM   37  H52 UNL     1      -3.873  -9.185   7.513  1.00  0.00     0.210 HD
ENDBRANCH  29  36
BRANCH  30  38
HETATM   38  O8  UNL     1      -3.308  -8.720   3.674  1.00  0.00    -0.388 OA
HETATM   39  H54 UNL     1      -3.399  -7.932   4.243  1.00  0.00     0.210 HD
ENDBRANCH  30  38
ENDBRANCH  24  25
ENDBRANCH  20  24
BRANCH   1  40
HETATM   40  C8  UNL     1     -10.537  -6.716  -4.416  1.00  0.00    -0.010 C 
HETATM   41  C9  UNL     1     -10.407  -7.604  -5.662  1.00  0.00     0.010 C 
BRANCH  40  42
HETATM   42  C7  UNL     1      -9.499  -5.559  -4.510  1.00  0.00     0.031 C 
BRANCH  42  43
HETATM   43  C6  UNL     1     -10.004  -4.160  -4.769  1.00  0.00    -0.027 C 
HETATM   44  C5  UNL     1      -9.283  -3.107  -5.195  1.00  0.00     0.006 C 
BRANCH  44  45
HETATM   45  C2  UNL     1      -9.772  -1.698  -5.477  1.00  0.00     0.070 C 
HETATM   46  C3  UNL     1     -10.829  -1.153  -4.501  1.00  0.00     0.050 C 
HETATM   47  C4  UNL     1     -10.374  -1.690  -6.890  1.00  0.00     0.050 C 
BRANCH  45  48
HETATM   48  O1  UNL     1      -8.627  -0.829  -5.556  1.00  0.00    -0.382 OA
HETATM   49  C1  UNL     1      -8.692   0.199  -6.537  1.00  0.00     0.202 C 
ENDBRANCH  45  48
ENDBRANCH  44  45
ENDBRANCH  42  43
ENDBRANCH  40  42
ENDBRANCH   1  40
TORSDOF 12
ENDMDL
MODEL 3
REMARK minimizedAffinity -7.42726374
REMARK CNNscore 0.324004352
REMARK CNNaffinity 6.89364672
REMARK  12 active torsions:
REMARK  status: ('A' for Active; 'I' for Inactive)
REMARK    1  A    between atoms: O1_2  and  C2_3 
REMARK    2  A    between atoms: C2_3  and  C5_6 
REMARK    3  A    between atoms: C6_7  and  C7_8 
REMARK    4  A    between atoms: C7_8  and  C8_9 
REMARK    5  A    between atoms: C8_9  and  C10_11 
REMARK    6  A    between atoms: C28_30  and  O3_31 
REMARK    7  A    between atoms: O3_31  and  C29_32 
REMARK    8  A    between atoms: C30_34  and  C31_35 
REMARK    9  A    between atoms: C31_35  and  O5_36 
REMARK   10  A    between atoms: C32_37  and  O6_38 
REMARK   11  A    between atoms: C33_39  and  O7_40 
REMARK   12  A    between atoms: C34_41  and  O8_42 
ROOT
HETATM    1  C10 UNL     1      -6.662 -12.488  -0.045  1.00  0.00    -0.002 C 
HETATM    2  C11 UNL     1      -6.375 -13.976   0.338  1.00  0.00     0.006 C 
HETATM    3  C12 UNL     1      -5.700 -13.979   1.724  1.00  0.00     0.011 C 
HETATM    4  C13 UNL     1      -5.922 -12.553   2.268  1.00  0.00    -0.029 C 
HETATM    5  C14 UNL     1      -7.371 -12.551   2.841  1.00  0.00     0.016 C 
HETATM    6  C15 UNL     1      -4.892 -12.088   3.339  1.00  0.00     0.028 C 
HETATM    7  C16 UNL     1      -4.919 -12.873   4.632  1.00  0.00    -0.021 C 
HETATM    8  C17 UNL     1      -4.784 -12.268   5.824  1.00  0.00     0.008 C 
HETATM    9  C18 UNL     1      -4.647 -10.753   5.946  1.00  0.00     0.092 C 
HETATM   10  O2  UNL     1      -3.316 -10.457   5.476  1.00  0.00    -0.374 OA
HETATM   11  C19 UNL     1      -3.415 -10.157   4.064  1.00  0.00     0.179 C 
HETATM   12  C20 UNL     1      -4.867 -10.525   3.590  1.00  0.00    -0.004 C 
HETATM   13  C21 UNL     1      -5.235  -9.647   2.364  1.00  0.00     0.014 C 
HETATM   14  C22 UNL     1      -6.138 -10.260   1.281  1.00  0.00     0.011 C 
HETATM   15  C23 UNL     1      -5.743 -11.706   0.948  1.00  0.00    -0.032 C 
HETATM   16  C24 UNL     1      -4.286 -11.705   0.385  1.00  0.00     0.016 C 
HETATM   17  C25 UNL     1      -5.549 -10.070   4.901  1.00  0.00     0.036 C 
HETATM   18  C26 UNL     1      -7.026 -10.276   5.203  1.00  0.00     0.011 C 
HETATM   19  C27 UNL     1      -7.354  -9.767   6.612  1.00  0.00     0.033 C 
HETATM   20  C28 UNL     1      -6.438 -10.377   7.695  1.00  0.00     0.136 C 
HETATM   21  C35 UNL     1      -4.918 -10.184   7.379  1.00  0.00     0.014 C 
HETATM   22  C36 UNL     1      -4.512  -8.688   7.477  1.00  0.00     0.021 C 
HETATM   23  C37 UNL     1      -4.067 -10.898   8.459  1.00  0.00     0.021 C 
ENDROOT
BRANCH  20  24
HETATM   24  O3  UNL     1      -6.722  -9.800   8.975  1.00  0.00    -0.352 OA
BRANCH  24  25
HETATM   25  C29 UNL     1      -6.875 -10.758  10.023  1.00  0.00     0.292 C 
HETATM   26  O4  UNL     1      -8.266 -10.982  10.271  1.00  0.00    -0.348 OA
HETATM   27  C30 UNL     1      -9.004  -9.824  10.709  1.00  0.00     0.179 C 
HETATM   28  C32 UNL     1      -8.172  -8.819  11.527  1.00  0.00     0.180 C 
HETATM   29  C33 UNL     1      -7.072  -9.575  12.268  1.00  0.00     0.183 C 
HETATM   30  C34 UNL     1      -6.123 -10.250  11.277  1.00  0.00     0.204 C 
BRANCH  27  31
HETATM   31  C31 UNL     1      -9.702  -9.157   9.517  1.00  0.00     0.198 C 
BRANCH  31  32
HETATM   32  O5  UNL     1      -9.150  -7.854   9.306  1.00  0.00    -0.398 OA
HETATM   33  H48 UNL     1      -9.092  -7.450  10.195  1.00  0.00     0.209 HD
ENDBRANCH  31  32
ENDBRANCH  27  31
BRANCH  28  34
HETATM   34  O6  UNL     1      -8.979  -8.108  12.480  1.00  0.00    -0.390 OA
HETATM   35  H50 UNL     1      -9.511  -8.755  12.977  1.00  0.00     0.210 HD
ENDBRANCH  28  34
BRANCH  29  36
HETATM   36  O7  UNL     1      -6.320  -8.684  13.109  1.00  0.00    -0.390 OA
HETATM   37  H52 UNL     1      -6.976  -8.074  13.502  1.00  0.00     0.210 HD
ENDBRANCH  29  36
BRANCH  30  38
HETATM   38  O8  UNL     1      -5.463 -11.332  11.963  1.00  0.00    -0.388 OA
HETATM   39  H54 UNL     1      -5.029 -10.921  12.736  1.00  0.00     0.210 HD
ENDBRANCH  30  38
ENDBRANCH  24  25
ENDBRANCH  20  24
BRANCH   1  40
HETATM   40  C8  UNL     1      -6.531 -12.262  -1.586  1.00  0.00    -0.010 C 
HETATM   41  C9  UNL     1      -5.441 -13.142  -2.214  1.00  0.00     0.010 C 
BRANCH  40  42
HETATM   42  C7  UNL     1      -6.211 -10.768  -1.886  1.00  0.00     0.031 C 
BRANCH  42  43
HETATM   43  C6  UNL     1      -7.338  -9.867  -2.329  1.00  0.00    -0.027 C 
HETATM   44  C5  UNL     1      -7.680  -8.680  -1.796  1.00  0.00     0.006 C 
BRANCH  44  45
HETATM   45  C2  UNL     1      -8.798  -7.751  -2.236  1.00  0.00     0.070 C 
HETATM   46  C3  UNL     1      -9.466  -6.938  -1.113  1.00  0.00     0.050 C 
HETATM   47  C4  UNL     1      -9.876  -8.611  -2.913  1.00  0.00     0.050 C 
BRANCH  45  48
HETATM   48  O1  UNL     1      -8.293  -6.898  -3.279  1.00  0.00    -0.382 OA
HETATM   49  C1  UNL     1      -8.077  -7.519  -4.541  1.00  0.00     0.202 C 
ENDBRANCH  45  48
ENDBRANCH  44  45
ENDBRANCH  42  43
ENDBRANCH  40  42
ENDBRANCH   1  40
TORSDOF 12
ENDMDL
MODEL 4
REMARK minimizedAffinity -7.13245249
REMARK CNNscore 0.303519309
REMARK CNNaffinity 6.88069963
REMARK  12 active torsions:
REMARK  status: ('A' for Active; 'I' for Inactive)
REMARK    1  A    between atoms: O1_2  and  C2_3 
REMARK    2  A    between atoms: C2_3  and  C5_6 
REMARK    3  A    between atoms: C6_7  and  C7_8 
REMARK    4  A    between atoms: C7_8  and  C8_9 
REMARK    5  A    between atoms: C8_9  and  C10_11 
REMARK    6  A    between atoms: C28_30  and  O3_31 
REMARK    7  A    between atoms: O3_31  and  C29_32 
REMARK    8  A    between atoms: C30_34  and  C31_35 
REMARK    9  A    between atoms: C31_35  and  O5_36 
REMARK   10  A    between atoms: C32_37  and  O6_38 
REMARK   11  A    between atoms: C33_39  and  O7_40 
REMARK   12  A    between atoms: C34_41  and  O8_42 
ROOT
HETATM    1  C10 UNL     1      -9.770  -8.036  -3.544  1.00  0.00    -0.002 C 
HETATM    2  C11 UNL     1     -11.053  -8.775  -3.042  1.00  0.00     0.006 C 
HETATM    3  C12 UNL     1     -10.595 -10.008  -2.237  1.00  0.00     0.011 C 
HETATM    4  C13 UNL     1      -9.092  -9.775  -1.989  1.00  0.00    -0.029 C 
HETATM    5  C14 UNL     1      -9.019  -8.805  -0.772  1.00  0.00     0.016 C 
HETATM    6  C15 UNL     1      -8.258 -11.065  -1.732  1.00  0.00     0.028 C 
HETATM    7  C16 UNL     1      -8.621 -11.817  -0.470  1.00  0.00    -0.021 C 
HETATM    8  C17 UNL     1      -7.680 -12.368   0.315  1.00  0.00     0.008 C 
HETATM    9  C18 UNL     1      -6.192 -12.224   0.008  1.00  0.00     0.092 C 
HETATM   10  O2  UNL     1      -5.958 -13.080  -1.129  1.00  0.00    -0.374 OA
HETATM   11  C19 UNL     1      -6.101 -12.265  -2.316  1.00  0.00     0.179 C 
HETATM   12  C20 UNL     1      -6.693 -10.876  -1.884  1.00  0.00    -0.004 C 
HETATM   13  C21 UNL     1      -6.248  -9.798  -2.908  1.00  0.00     0.014 C 
HETATM   14  C22 UNL     1      -7.217  -8.642  -3.208  1.00  0.00     0.011 C 
HETATM   15  C23 UNL     1      -8.666  -9.127  -3.364  1.00  0.00    -0.032 C 
HETATM   16  C24 UNL     1      -8.732 -10.109  -4.577  1.00  0.00     0.016 C 
HETATM   17  C25 UNL     1      -5.916 -10.815  -0.549  1.00  0.00     0.036 C 
HETATM   18  C26 UNL     1      -6.124  -9.736   0.504  1.00  0.00     0.011 C 
HETATM   19  C27 UNL     1      -5.243 -10.013   1.728  1.00  0.00     0.033 C 
HETATM   20  C28 UNL     1      -5.437 -11.437   2.293  1.00  0.00     0.136 C 
HETATM   21  C35 UNL     1      -5.242 -12.548   1.209  1.00  0.00     0.014 C 
HETATM   22  C36 UNL     1      -3.760 -12.628   0.750  1.00  0.00     0.021 C 
HETATM   23  C37 UNL     1      -5.540 -13.937   1.829  1.00  0.00     0.021 C 
ENDROOT
BRANCH  20  24
HETATM   24  O3  UNL     1      -4.525 -11.677   3.372  1.00  0.00    -0.352 OA
BRANCH  24  25
HETATM   25  C29 UNL     1      -5.162 -11.907   4.630  1.00  0.00     0.292 C 
HETATM   26  O4  UNL     1      -4.922 -10.797   5.501  1.00  0.00    -0.348 OA
HETATM   27  C30 UNL     1      -3.537 -10.556   5.818  1.00  0.00     0.179 C 
HETATM   28  C32 UNL     1      -2.666 -11.826   5.841  1.00  0.00     0.180 C 
HETATM   29  C33 UNL     1      -3.535 -13.015   6.243  1.00  0.00     0.183 C 
HETATM   30  C34 UNL     1      -4.642 -13.243   5.214  1.00  0.00     0.204 C 
BRANCH  27  31
HETATM   31  C31 UNL     1      -2.959  -9.480   4.891  1.00  0.00     0.198 C 
BRANCH  31  32
HETATM   32  O5  UNL     1      -2.615  -8.322   5.655  1.00  0.00    -0.398 OA
HETATM   33  H48 UNL     1      -3.375  -8.171   6.253  1.00  0.00     0.209 HD
ENDBRANCH  31  32
ENDBRANCH  27  31
BRANCH  28  34
HETATM   34  O6  UNL     1      -1.573 -11.708   6.766  1.00  0.00    -0.390 OA
HETATM   35  H50 UNL     1      -1.923 -11.392   7.619  1.00  0.00     0.210 HD
ENDBRANCH  28  34
BRANCH  29  36
HETATM   36  O7  UNL     1      -2.743 -14.210   6.356  1.00  0.00    -0.390 OA
HETATM   37  H52 UNL     1      -1.903 -13.932   6.775  1.00  0.00     0.210 HD
ENDBRANCH  29  36
BRANCH  30  38
HETATM   38  O8  UNL     1      -5.702 -13.976   5.860  1.00  0.00    -0.388 OA
HETATM   39  H54 UNL     1      -5.283 -14.790   6.201  1.00  0.00     0.210 HD
ENDBRANCH  30  38
ENDBRANCH  24  25
ENDBRANCH  20  24
BRANCH   1  40
HETATM   40  C8  UNL     1     -10.006  -7.374  -4.939  1.00  0.00    -0.010 C 
HETATM   41  C9  UNL     1      -8.694  -7.111  -5.691  1.00  0.00     0.010 C 
BRANCH  40  42
HETATM   42  C7  UNL     1     -10.772  -6.028  -4.774  1.00  0.00     0.031 C 
BRANCH  42  43
HETATM   43  C6  UNL     1     -10.012  -4.739  -4.976  1.00  0.00    -0.027 C 
HETATM   44  C5  UNL     1     -10.532  -3.532  -5.261  1.00  0.00     0.006 C 
BRANCH  44  45
HETATM   45  C2  UNL     1      -9.789  -2.221  -5.452  1.00  0.00     0.070 C 
HETATM   46  C3  UNL     1     -10.289  -1.043  -4.599  1.00  0.00     0.050 C 
HETATM   47  C4  UNL     1      -9.914  -1.829  -6.933  1.00  0.00     0.050 C 
BRANCH  45  48
HETATM   48  O1  UNL     1      -8.385  -2.464  -5.249  1.00  0.00    -0.382 OA
HETATM   49  C1  UNL     1      -7.536  -1.325  -5.344  1.00  0.00     0.202 C 
ENDBRANCH  45  48
ENDBRANCH  44  45
ENDBRANCH  42  43
ENDBRANCH  40  42
ENDBRANCH   1  40
TORSDOF 12
ENDMDL
MODEL 5
REMARK minimizedAffinity -8.92843628
REMARK CNNscore 0.289917707
REMARK CNNaffinity 7.16299438
REMARK  12 active torsions:
REMARK  status: ('A' for Active; 'I' for Inactive)
REMARK    1  A    between atoms: O1_2  and  C2_3 
REMARK    2  A    between atoms: C2_3  and  C5_6 
REMARK    3  A    between atoms: C6_7  and  C7_8 
REMARK    4  A    between atoms: C7_8  and  C8_9 
REMARK    5  A    between atoms: C8_9  and  C10_11 
REMARK    6  A    between atoms: C28_30  and  O3_31 
REMARK    7  A    between atoms: O3_31  and  C29_32 
REMARK    8  A    between atoms: C30_34  and  C31_35 
REMARK    9  A    between atoms: C31_35  and  O5_36 
REMARK   10  A    between atoms: C32_37  and  O6_38 
REMARK   11  A    between atoms: C33_39  and  O7_40 
REMARK   12  A    between atoms: C34_41  and  O8_42 
ROOT
HETATM    1  C10 UNL     1      -7.363   7.120  14.046  1.00  0.00    -0.002 C 
HETATM    2  C11 UNL     1      -7.373   8.383  14.967  1.00  0.00     0.006 C 
HETATM    3  C12 UNL     1      -5.921   8.642  15.417  1.00  0.00     0.011 C 
HETATM    4  C13 UNL     1      -5.062   7.760  14.489  1.00  0.00    -0.029 C 
HETATM    5  C14 UNL     1      -4.921   8.569  13.165  1.00  0.00     0.016 C 
HETATM    6  C15 UNL     1      -3.667   7.366  15.059  1.00  0.00     0.028 C 
HETATM    7  C16 UNL     1      -2.718   8.524  15.278  1.00  0.00    -0.021 C 
HETATM    8  C17 UNL     1      -1.411   8.425  14.987  1.00  0.00     0.008 C 
HETATM    9  C18 UNL     1      -0.817   7.160  14.372  1.00  0.00     0.092 C 
HETATM   10  O2  UNL     1      -0.806   6.193  15.441  1.00  0.00    -0.374 OA
HETATM   11  C19 UNL     1      -2.040   5.442  15.355  1.00  0.00     0.179 C 
HETATM   12  C20 UNL     1      -2.971   6.157  14.310  1.00  0.00    -0.004 C 
HETATM   13  C21 UNL     1      -3.936   5.109  13.694  1.00  0.00     0.014 C 
HETATM   14  C22 UNL     1      -5.351   5.569  13.307  1.00  0.00     0.011 C 
HETATM   15  C23 UNL     1      -5.977   6.478  14.375  1.00  0.00    -0.032 C 
HETATM   16  C24 UNL     1      -6.104   5.668  15.704  1.00  0.00     0.016 C 
HETATM   17  C25 UNL     1      -1.816   6.561  13.365  1.00  0.00     0.036 C 
HETATM   18  C26 UNL     1      -1.993   7.449  12.143  1.00  0.00     0.011 C 
HETATM   19  C27 UNL     1      -0.638   7.703  11.471  1.00  0.00     0.033 C 
HETATM   20  C28 UNL     1       0.421   8.250  12.452  1.00  0.00     0.136 C 
HETATM   21  C35 UNL     1       0.593   7.349  13.719  1.00  0.00     0.014 C 
HETATM   22  C36 UNL     1       1.232   5.982  13.351  1.00  0.00     0.021 C 
HETATM   23  C37 UNL     1       1.602   8.009  14.694  1.00  0.00     0.021 C 
ENDROOT
BRANCH  20  24
HETATM   24  O3  UNL     1       1.690   8.379  11.799  1.00  0.00    -0.352 OA
BRANCH  24  25
HETATM   25  C29 UNL     1       1.986   7.318  10.890  1.00  0.00     0.292 C 
HETATM   26  O4  UNL     1       3.194   6.664  11.290  1.00  0.00    -0.348 OA
HETATM   27  C30 UNL     1       4.370   7.498  11.292  1.00  0.00     0.179 C 
HETATM   28  C32 UNL     1       4.350   8.618  10.235  1.00  0.00     0.180 C 
HETATM   29  C33 UNL     1       3.520   8.155   9.039  1.00  0.00     0.183 C 
HETATM   30  C34 UNL     1       2.072   7.899   9.457  1.00  0.00     0.204 C 
BRANCH  27  31
HETATM   31  C31 UNL     1       4.633   8.044  12.701  1.00  0.00     0.198 C 
BRANCH  31  32
HETATM   32  O5  UNL     1       5.371   7.081  13.459  1.00  0.00    -0.398 OA
HETATM   33  H48 UNL     1       4.934   6.223  13.282  1.00  0.00     0.209 HD
ENDBRANCH  31  32
ENDBRANCH  27  31
BRANCH  28  34
HETATM   34  O6  UNL     1       5.673   8.955   9.788  1.00  0.00    -0.390 OA
HETATM   35  H50 UNL     1       6.139   8.132   9.557  1.00  0.00     0.210 HD
ENDBRANCH  28  34
BRANCH  29  36
HETATM   36  O7  UNL     1       3.542   9.140   7.993  1.00  0.00    -0.390 OA
HETATM   37  H52 UNL     1       4.458   9.483   7.970  1.00  0.00     0.210 HD
ENDBRANCH  29  36
BRANCH  30  38
HETATM   38  O8  UNL     1       1.486   7.000   8.495  1.00  0.00    -0.388 OA
HETATM   39  H54 UNL     1       1.594   7.441   7.630  1.00  0.00     0.210 HD
ENDBRANCH  30  38
ENDBRANCH  24  25
ENDBRANCH  20  24
BRANCH   1  40
HETATM   40  C8  UNL     1      -8.676   6.288  14.209  1.00  0.00    -0.010 C 
HETATM   41  C9  UNL     1      -9.417   6.099  12.878  1.00  0.00     0.010 C 
BRANCH  40  42
HETATM   42  C7  UNL     1      -9.630   6.982  15.226  1.00  0.00     0.031 C 
BRANCH  42  43
HETATM   43  C6  UNL     1     -10.738   7.856  14.690  1.00  0.00    -0.027 C 
HETATM   44  C5  UNL     1     -11.567   7.574  13.669  1.00  0.00     0.006 C 
BRANCH  44  45
HETATM   45  C2  UNL     1     -12.697   8.430  13.125  1.00  0.00     0.070 C 
HETATM   46  C3  UNL     1     -12.274   9.562  12.172  1.00  0.00     0.050 C 
HETATM   47  C4  UNL     1     -13.422   9.058  14.325  1.00  0.00     0.050 C 
BRANCH  45  48
HETATM   48  O1  UNL     1     -13.669   7.561  12.516  1.00  0.00    -0.382 OA
HETATM   49  C1  UNL     1     -14.337   6.663  13.394  1.00  0.00     0.202 C 
ENDBRANCH  45  48
ENDBRANCH  44  45
ENDBRANCH  42  43
ENDBRANCH  40  42
ENDBRANCH   1  40
TORSDOF 12
ENDMDL
MODEL 6
REMARK minimizedAffinity -7.64644241
REMARK CNNscore 0.237235427
REMARK CNNaffinity 6.298944
REMARK  12 active torsions:
REMARK  status: ('A' for Active; 'I' for Inactive)
REMARK    1  A    between atoms: O1_2  and  C2_3 
REMARK    2  A    between atoms: C2_3  and  C5_6 
REMARK    3  A    between atoms: C6_7  and  C7_8 
REMARK    4  A    between atoms: C7_8  and  C8_9 
REMARK    5  A    between atoms: C8_9  and  C10_11 
REMARK    6  A    between atoms: C28_30  and  O3_31 
REMARK    7  A    between atoms: O3_31  and  C29_32 
REMARK    8  A    between atoms: C30_34  and  C31_35 
REMARK    9  A    between atoms: C31_35  and  O5_36 
REMARK   10  A    between atoms: C32_37  and  O6_38 
REMARK   11  A    between atoms: C33_39  and  O7_40 
REMARK   12  A    between atoms: C34_41  and  O8_42 
ROOT
HETATM    1  C10 UNL     1      -3.918 -10.694   4.747  1.00  0.00    -0.002 C 
HETATM    2  C11 UNL     1      -2.724  -9.951   4.062  1.00  0.00     0.006 C 
HETATM    3  C12 UNL     1      -2.936 -10.036   2.537  1.00  0.00     0.011 C 
HETATM    4  C13 UNL     1      -4.395 -10.505   2.372  1.00  0.00    -0.029 C 
HETATM    5  C14 UNL     1      -5.263  -9.223   2.541  1.00  0.00     0.016 C 
HETATM    6  C15 UNL     1      -4.708 -11.223   1.026  1.00  0.00     0.028 C 
HETATM    7  C16 UNL     1      -4.566 -10.357  -0.206  1.00  0.00    -0.021 C 
HETATM    8  C17 UNL     1      -5.441 -10.433  -1.223  1.00  0.00     0.008 C 
HETATM    9  C18 UNL     1      -6.654 -11.359  -1.172  1.00  0.00     0.092 C 
HETATM   10  O2  UNL     1      -6.119 -12.688  -1.335  1.00  0.00    -0.374 OA
HETATM   11  C19 UNL     1      -5.880 -13.220  -0.010  1.00  0.00     0.179 C 
HETATM   12  C20 UNL     1      -6.058 -12.050   1.023  1.00  0.00    -0.004 C 
HETATM   13  C21 UNL     1      -6.479 -12.647   2.392  1.00  0.00     0.014 C 
HETATM   14  C22 UNL     1      -5.984 -11.946   3.668  1.00  0.00     0.011 C 
HETATM   15  C23 UNL     1      -4.509 -11.531   3.567  1.00  0.00    -0.032 C 
HETATM   16  C24 UNL     1      -3.643 -12.818   3.384  1.00  0.00     0.016 C 
HETATM   17  C25 UNL     1      -7.224 -11.381   0.258  1.00  0.00     0.036 C 
HETATM   18  C26 UNL     1      -7.835 -10.043   0.648  1.00  0.00     0.011 C 
HETATM   19  C27 UNL     1      -8.921  -9.644  -0.358  1.00  0.00     0.033 C 
HETATM   20  C28 UNL     1      -8.418  -9.662  -1.818  1.00  0.00     0.136 C 
HETATM   21  C35 UNL     1      -7.772 -11.030  -2.217  1.00  0.00     0.014 C 
HETATM   22  C36 UNL     1      -8.839 -12.157  -2.274  1.00  0.00     0.021 C 
HETATM   23  C37 UNL     1      -7.213 -10.940  -3.660  1.00  0.00     0.021 C 
ENDROOT
BRANCH  20  24
HETATM   24  O3  UNL     1      -9.492  -9.375  -2.722  1.00  0.00    -0.352 OA
BRANCH  24  25
HETATM   25  C29 UNL     1     -10.238  -8.204  -2.385  1.00  0.00     0.292 C 
HETATM   26  O4  UNL     1     -11.354  -8.073  -3.271  1.00  0.00    -0.348 OA
HETATM   27  C30 UNL     1     -11.015  -7.916  -4.663  1.00  0.00     0.179 C 
HETATM   28  C32 UNL     1      -9.678  -7.194  -4.909  1.00  0.00     0.180 C 
HETATM   29  C33 UNL     1      -9.421  -6.223  -3.758  1.00  0.00     0.183 C 
HETATM   30  C34 UNL     1      -9.292  -6.980  -2.436  1.00  0.00     0.204 C 
BRANCH  27  31
HETATM   31  C31 UNL     1     -11.076  -9.271  -5.380  1.00  0.00     0.198 C 
BRANCH  31  32
HETATM   32  O5  UNL     1     -10.886  -9.080  -6.785  1.00  0.00    -0.398 OA
HETATM   33  H48 UNL     1     -11.451  -8.316  -7.020  1.00  0.00     0.209 HD
ENDBRANCH  31  32
ENDBRANCH  27  31
BRANCH  28  34
HETATM   34  O6  UNL     1      -9.684  -6.465  -6.147  1.00  0.00    -0.390 OA
HETATM   35  H50 UNL     1     -10.495  -5.927  -6.185  1.00  0.00     0.210 HD
ENDBRANCH  28  34
BRANCH  29  36
HETATM   36  O7  UNL     1      -8.220  -5.467  -3.988  1.00  0.00    -0.390 OA
HETATM   37  H52 UNL     1      -8.220  -5.254  -4.943  1.00  0.00     0.210 HD
ENDBRANCH  29  36
BRANCH  30  38
HETATM   38  O8  UNL     1      -9.578  -6.055  -1.368  1.00  0.00    -0.388 OA
HETATM   39  H54 UNL     1      -8.946  -5.320  -1.486  1.00  0.00     0.210 HD
ENDBRANCH  30  38
ENDBRANCH  24  25
ENDBRANCH  20  24
BRANCH   1  40
HETATM   40  C8  UNL     1      -3.467 -11.400   6.066  1.00  0.00    -0.010 C 
HETATM   41  C9  UNL     1      -2.995 -12.841   5.826  1.00  0.00     0.010 C 
BRANCH  40  42
HETATM   42  C7  UNL     1      -4.635 -11.414   7.096  1.00  0.00     0.031 C 
BRANCH  42  43
HETATM   43  C6  UNL     1      -4.420 -10.752   8.436  1.00  0.00    -0.027 C 
HETATM   44  C5  UNL     1      -5.369 -10.320   9.284  1.00  0.00     0.006 C 
BRANCH  44  45
HETATM   45  C2  UNL     1      -5.177  -9.667  10.641  1.00  0.00     0.070 C 
HETATM   46  C3  UNL     1      -3.717  -9.413  11.055  1.00  0.00     0.050 C 
HETATM   47  C4  UNL     1      -5.821 -10.583  11.692  1.00  0.00     0.050 C 
BRANCH  45  48
HETATM   48  O1  UNL     1      -5.955  -8.457  10.675  1.00  0.00    -0.382 OA
HETATM   49  C1  UNL     1      -7.047  -8.394   9.765  1.00  0.00     0.202 C 
ENDBRANCH  45  48
ENDBRANCH  44  45
ENDBRANCH  42  43
ENDBRANCH  40  42
ENDBRANCH   1  40
TORSDOF 12
ENDMDL
MODEL 7
REMARK minimizedAffinity -8.73920918
REMARK CNNscore 0.208239421
REMARK CNNaffinity 6.85135698
REMARK  12 active torsions:
REMARK  status: ('A' for Active; 'I' for Inactive)
REMARK    1  A    between atoms: O1_2  and  C2_3 
REMARK    2  A    between atoms: C2_3  and  C5_6 
REMARK    3  A    between atoms: C6_7  and  C7_8 
REMARK    4  A    between atoms: C7_8  and  C8_9 
REMARK    5  A    between atoms: C8_9  and  C10_11 
REMARK    6  A    between atoms: C28_30  and  O3_31 
REMARK    7  A    between atoms: O3_31  and  C29_32 
REMARK    8  A    between atoms: C30_34  and  C31_35 
REMARK    9  A    between atoms: C31_35  and  O5_36 
REMARK   10  A    between atoms: C32_37  and  O6_38 
REMARK   11  A    between atoms: C33_39  and  O7_40 
REMARK   12  A    between atoms: C34_41  and  O8_42 
ROOT
HETATM    1  C10 UNL     1      -3.229  12.313  17.435  1.00  0.00    -0.002 C 
HETATM    2  C11 UNL     1      -2.104  12.091  18.497  1.00  0.00     0.006 C 
HETATM    3  C12 UNL     1      -1.373  10.782  18.136  1.00  0.00     0.011 C 
HETATM    4  C13 UNL     1      -1.842  10.458  16.703  1.00  0.00    -0.029 C 
HETATM    5  C14 UNL     1      -0.964  11.345  15.771  1.00  0.00     0.016 C 
HETATM    6  C15 UNL     1      -1.749   8.956  16.303  1.00  0.00     0.028 C 
HETATM    7  C16 UNL     1      -0.344   8.395  16.257  1.00  0.00    -0.021 C 
HETATM    8  C17 UNL     1       0.042   7.547  15.289  1.00  0.00     0.008 C 
HETATM    9  C18 UNL     1      -0.896   7.141  14.154  1.00  0.00     0.092 C 
HETATM   10  O2  UNL     1      -1.854   6.250  14.760  1.00  0.00    -0.374 OA
HETATM   11  C19 UNL     1      -2.987   7.053  15.171  1.00  0.00     0.179 C 
HETATM   12  C20 UNL     1      -2.590   8.565  15.020  1.00  0.00    -0.004 C 
HETATM   13  C21 UNL     1      -3.876   9.402  14.785  1.00  0.00     0.014 C 
HETATM   14  C22 UNL     1      -3.925  10.828  15.359  1.00  0.00     0.011 C 
HETATM   15  C23 UNL     1      -3.356  10.898  16.784  1.00  0.00    -0.032 C 
HETATM   16  C24 UNL     1      -4.231   9.998  17.713  1.00  0.00     0.016 C 
HETATM   17  C25 UNL     1      -1.753   8.351  13.738  1.00  0.00     0.036 C 
HETATM   18  C26 UNL     1      -0.918   9.439  13.080  1.00  0.00     0.011 C 
HETATM   19  C27 UNL     1      -0.165   8.871  11.870  1.00  0.00     0.033 C 
HETATM   20  C28 UNL     1       0.666   7.618  12.220  1.00  0.00     0.136 C 
HETATM   21  C35 UNL     1      -0.184   6.504  12.914  1.00  0.00     0.014 C 
HETATM   22  C36 UNL     1      -1.215   5.890  11.927  1.00  0.00     0.021 C 
HETATM   23  C37 UNL     1       0.734   5.321  13.314  1.00  0.00     0.021 C 
ENDROOT
BRANCH  20  24
HETATM   24  O3  UNL     1       1.271   7.073  11.041  1.00  0.00    -0.352 OA
BRANCH  24  25
HETATM   25  C29 UNL     1       2.656   7.392  10.898  1.00  0.00     0.292 C 
HETATM   26  O4  UNL     1       2.866   8.083   9.663  1.00  0.00    -0.348 OA
HETATM   27  C30 UNL     1       2.529   7.334   8.478  1.00  0.00     0.179 C 
HETATM   28  C32 UNL     1       2.724   5.813   8.617  1.00  0.00     0.180 C 
HETATM   29  C33 UNL     1       3.851   5.548   9.614  1.00  0.00     0.183 C 
HETATM   30  C34 UNL     1       3.481   6.086  10.997  1.00  0.00     0.204 C 
BRANCH  27  31
HETATM   31  C31 UNL     1       1.112   7.690   8.011  1.00  0.00     0.198 C 
BRANCH  31  32
HETATM   32  O5  UNL     1       0.760   8.991   8.490  1.00  0.00    -0.398 OA
HETATM   33  H48 UNL     1       1.042   9.006   9.427  1.00  0.00     0.209 HD
ENDBRANCH  31  32
ENDBRANCH  27  31
BRANCH  28  34
HETATM   34  O6  UNL     1       3.055   5.200   7.360  1.00  0.00    -0.390 OA
HETATM   35  H50 UNL     1       3.778   5.708   6.950  1.00  0.00     0.210 HD
ENDBRANCH  28  34
BRANCH  29  36
HETATM   36  O7  UNL     1       4.122   4.140   9.713  1.00  0.00    -0.390 OA
HETATM   37  H52 UNL     1       4.056   3.793   8.800  1.00  0.00     0.210 HD
ENDBRANCH  29  36
BRANCH  30  38
HETATM   38  O8  UNL     1       4.704   6.296  11.731  1.00  0.00    -0.388 OA
HETATM   39  H54 UNL     1       5.156   5.430  11.732  1.00  0.00     0.210 HD
ENDBRANCH  30  38
ENDBRANCH  24  25
ENDBRANCH  20  24
BRANCH   1  40
HETATM   40  C8  UNL     1      -4.478  13.006  18.068  1.00  0.00    -0.010 C 
HETATM   41  C9  UNL     1      -4.652  14.453  17.585  1.00  0.00     0.010 C 
BRANCH  40  42
HETATM   42  C7  UNL     1      -4.368  13.001  19.621  1.00  0.00     0.031 C 
BRANCH  42  43
HETATM   43  C6  UNL     1      -5.433  13.714  20.420  1.00  0.00    -0.027 C 
HETATM   44  C5  UNL     1      -6.117  13.225  21.469  1.00  0.00     0.006 C 
BRANCH  44  45
HETATM   45  C2  UNL     1      -7.180  13.929  22.296  1.00  0.00     0.070 C 
HETATM   46  C3  UNL     1      -6.738  15.241  22.968  1.00  0.00     0.050 C 
HETATM   47  C4  UNL     1      -7.633  12.955  23.394  1.00  0.00     0.050 C 
BRANCH  45  48
HETATM   48  O1  UNL     1      -8.341  14.123  21.468  1.00  0.00    -0.382 OA
HETATM   49  C1  UNL     1      -9.139  12.968  21.234  1.00  0.00     0.202 C 
ENDBRANCH  45  48
ENDBRANCH  44  45
ENDBRANCH  42  43
ENDBRANCH  40  42
ENDBRANCH   1  40
TORSDOF 12
ENDMDL
MODEL 8
REMARK minimizedAffinity -7.03628206
REMARK CNNscore 0.195576906
REMARK CNNaffinity 6.20118189
REMARK  12 active torsions:
REMARK  status: ('A' for Active; 'I' for Inactive)
REMARK    1  A    between atoms: O1_2  and  C2_3 
REMARK    2  A    between atoms: C2_3  and  C5_6 
REMARK    3  A    between atoms: C6_7  and  C7_8 
REMARK    4  A    between atoms: C7_8  and  C8_9 
REMARK    5  A    between atoms: C8_9  and  C10_11 
REMARK    6  A    between atoms: C28_30  and  O3_31 
REMARK    7  A    between atoms: O3_31  and  C29_32 
REMARK    8  A    between atoms: C30_34  and  C31_35 
REMARK    9  A    between atoms: C31_35  and  O5_36 
REMARK   10  A    between atoms: C32_37  and  O6_38 
REMARK   11  A    between atoms: C33_39  and  O7_40 
REMARK   12  A    between atoms: C34_41  and  O8_42 
ROOT
HETATM    1  C10 UNL     1      -4.098 -10.145   5.425  1.00  0.00    -0.002 C 
HETATM    2  C11 UNL     1      -2.659  -9.989   4.835  1.00  0.00     0.006 C 
HETATM    3  C12 UNL     1      -2.715 -10.413   3.353  1.00  0.00     0.011 C 
HETATM    4  C13 UNL     1      -4.219 -10.469   3.021  1.00  0.00    -0.029 C 
HETATM    5  C14 UNL     1      -4.634  -8.994   2.737  1.00  0.00     0.016 C 
HETATM    6  C15 UNL     1      -4.596 -11.398   1.830  1.00  0.00     0.028 C 
HETATM    7  C16 UNL     1      -4.043 -10.972   0.488  1.00  0.00    -0.021 C 
HETATM    8  C17 UNL     1      -4.775 -11.062  -0.635  1.00  0.00     0.008 C 
HETATM    9  C18 UNL     1      -6.222 -11.551  -0.615  1.00  0.00     0.092 C 
HETATM   10  O2  UNL     1      -6.135 -12.970  -0.378  1.00  0.00    -0.374 OA
HETATM   11  C19 UNL     1      -6.232 -13.174   1.051  1.00  0.00     0.179 C 
HETATM   12  C20 UNL     1      -6.134 -11.771   1.750  1.00  0.00    -0.004 C 
HETATM   13  C21 UNL     1      -6.876 -11.833   3.112  1.00  0.00     0.014 C 
HETATM   14  C22 UNL     1      -6.326 -10.989   4.274  1.00  0.00     0.011 C 
HETATM   15  C23 UNL     1      -4.794 -11.060   4.366  1.00  0.00    -0.032 C 
HETATM   16  C24 UNL     1      -4.382 -12.542   4.638  1.00  0.00     0.016 C 
HETATM   17  C25 UNL     1      -6.924 -11.024   0.651  1.00  0.00     0.036 C 
HETATM   18  C26 UNL     1      -7.104  -9.514   0.615  1.00  0.00     0.011 C 
HETATM   19  C27 UNL     1      -7.881  -9.103  -0.641  1.00  0.00     0.033 C 
HETATM   20  C28 UNL     1      -7.251  -9.655  -1.939  1.00  0.00     0.136 C 
HETATM   21  C35 UNL     1      -7.047 -11.205  -1.899  1.00  0.00     0.014 C 
HETATM   22  C36 UNL     1      -8.410 -11.949  -1.910  1.00  0.00     0.021 C 
HETATM   23  C37 UNL     1      -6.332 -11.669  -3.193  1.00  0.00     0.021 C 
ENDROOT
BRANCH  20  24
HETATM   24  O3  UNL     1      -8.065  -9.323  -3.071  1.00  0.00    -0.352 OA
BRANCH  24  25
HETATM   25  C29 UNL     1      -7.444  -8.421  -3.989  1.00  0.00     0.292 C 
HETATM   26  O4  UNL     1      -7.949  -7.099  -3.781  1.00  0.00    -0.348 OA
HETATM   27  C30 UNL     1      -9.365  -6.944  -4.002  1.00  0.00     0.179 C 
HETATM   28  C32 UNL     1      -9.944  -7.891  -5.069  1.00  0.00     0.180 C 
HETATM   29  C33 UNL     1      -8.857  -8.205  -6.094  1.00  0.00     0.183 C 
HETATM   30  C34 UNL     1      -7.687  -8.931  -5.430  1.00  0.00     0.204 C 
BRANCH  27  31
HETATM   31  C31 UNL     1     -10.124  -7.045  -2.672  1.00  0.00     0.198 C 
BRANCH  31  32
HETATM   32  O5  UNL     1      -9.529  -6.170  -1.711  1.00  0.00    -0.398 OA
HETATM   33  H48 UNL     1      -8.564  -6.310  -1.797  1.00  0.00     0.209 HD
ENDBRANCH  31  32
ENDBRANCH  27  31
BRANCH  28  34
HETATM   34  O6  UNL     1     -11.073  -7.310  -5.743  1.00  0.00    -0.390 OA
HETATM   35  H50 UNL     1     -10.832  -6.410  -6.028  1.00  0.00     0.210 HD
ENDBRANCH  28  34
BRANCH  29  36
HETATM   36  O7  UNL     1      -9.378  -9.022  -7.155  1.00  0.00    -0.390 OA
HETATM   37  H52 UNL     1     -10.274  -8.675  -7.342  1.00  0.00     0.210 HD
ENDBRANCH  29  36
BRANCH  30  38
HETATM   38  O8  UNL     1      -6.520  -8.737  -6.255  1.00  0.00    -0.388 OA
HETATM   39  H54 UNL     1      -6.769  -9.076  -7.137  1.00  0.00     0.210 HD
ENDBRANCH  30  38
ENDBRANCH  24  25
ENDBRANCH  20  24
BRANCH   1  40
HETATM   40  C8  UNL     1      -4.053 -10.571   6.928  1.00  0.00    -0.010 C 
HETATM   41  C9  UNL     1      -3.246 -11.859   7.146  1.00  0.00     0.010 C 
BRANCH  40  42
HETATM   42  C7  UNL     1      -5.497 -10.780   7.473  1.00  0.00     0.031 C 
BRANCH  42  43
HETATM   43  C6  UNL     1      -6.031  -9.797   8.486  1.00  0.00    -0.027 C 
HETATM   44  C5  UNL     1      -6.940 -10.042   9.447  1.00  0.00     0.006 C 
BRANCH  44  45
HETATM   45  C2  UNL     1      -7.480  -9.074  10.485  1.00  0.00     0.070 C 
HETATM   46  C3  UNL     1      -8.943  -9.297  10.905  1.00  0.00     0.050 C 
HETATM   47  C4  UNL     1      -7.356  -7.657   9.906  1.00  0.00     0.050 C 
BRANCH  45  48
HETATM   48  O1  UNL     1      -6.595  -9.091  11.620  1.00  0.00    -0.382 OA
HETATM   49  C1  UNL     1      -7.143  -9.605  12.829  1.00  0.00     0.202 C 
ENDBRANCH  45  48
ENDBRANCH  44  45
ENDBRANCH  42  43
ENDBRANCH  40  42
ENDBRANCH   1  40
TORSDOF 12
ENDMDL
MODEL 9
REMARK minimizedAffinity -7.60865021
REMARK CNNscore 0.185883477
REMARK CNNaffinity 6.5248065
REMARK  12 active torsions:
REMARK  status: ('A' for Active; 'I' for Inactive)
REMARK    1  A    between atoms: O1_2  and  C2_3 
REMARK    2  A    between atoms: C2_3  and  C5_6 
REMARK    3  A    between atoms: C6_7  and  C7_8 
REMARK    4  A    between atoms: C7_8  and  C8_9 
REMARK    5  A    between atoms: C8_9  and  C10_11 
REMARK    6  A    between atoms: C28_30  and  O3_31 
REMARK    7  A    between atoms: O3_31  and  C29_32 
REMARK    8  A    between atoms: C30_34  and  C31_35 
REMARK    9  A    between atoms: C31_35  and  O5_36 
REMARK   10  A    between atoms: C32_37  and  O6_38 
REMARK   11  A    between atoms: C33_39  and  O7_40 
REMARK   12  A    between atoms: C34_41  and  O8_42 
ROOT
HETATM    1  C10 UNL     1      -4.757  13.759  18.080  1.00  0.00    -0.002 C 
HETATM    2  C11 UNL     1      -4.272  14.934  17.170  1.00  0.00     0.006 C 
HETATM    3  C12 UNL     1      -2.951  14.495  16.507  1.00  0.00     0.011 C 
HETATM    4  C13 UNL     1      -2.876  12.976  16.757  1.00  0.00    -0.029 C 
HETATM    5  C14 UNL     1      -3.778  12.332  15.662  1.00  0.00     0.016 C 
HETATM    6  C15 UNL     1      -1.440  12.373  16.730  1.00  0.00     0.028 C 
HETATM    7  C16 UNL     1      -0.739  12.457  15.391  1.00  0.00    -0.021 C 
HETATM    8  C17 UNL     1       0.008  11.443  14.925  1.00  0.00     0.008 C 
HETATM    9  C18 UNL     1       0.153  10.131  15.692  1.00  0.00     0.092 C 
HETATM   10  O2  UNL     1       1.005  10.443  16.812  1.00  0.00    -0.374 OA
HETATM   11  C19 UNL     1       0.146  10.793  17.923  1.00  0.00     0.179 C 
HETATM   12  C20 UNL     1      -1.320  10.933  17.377  1.00  0.00    -0.004 C 
HETATM   13  C21 UNL     1      -2.318  10.634  18.528  1.00  0.00     0.014 C 
HETATM   14  C22 UNL     1      -3.650  11.402  18.547  1.00  0.00     0.011 C 
HETATM   15  C23 UNL     1      -3.465  12.891  18.219  1.00  0.00    -0.032 C 
HETATM   16  C24 UNL     1      -2.549  13.530  19.312  1.00  0.00     0.016 C 
HETATM   17  C25 UNL     1      -1.190   9.776  16.359  1.00  0.00     0.036 C 
HETATM   18  C26 UNL     1      -2.258   9.424  15.335  1.00  0.00     0.011 C 
HETATM   19  C27 UNL     1      -1.779   8.271  14.444  1.00  0.00     0.033 C 
HETATM   20  C28 UNL     1      -0.406   8.551  13.795  1.00  0.00     0.136 C 
HETATM   21  C35 UNL     1       0.691   8.932  14.842  1.00  0.00     0.014 C 
HETATM   22  C36 UNL     1       1.049   7.719  15.744  1.00  0.00     0.021 C 
HETATM   23  C37 UNL     1       2.011   9.284  14.110  1.00  0.00     0.021 C 
ENDROOT
BRANCH  20  24
HETATM   24  O3  UNL     1       0.039   7.409  13.052  1.00  0.00    -0.352 OA
BRANCH  24  25
HETATM   25  C29 UNL     1      -0.296   7.453  11.664  1.00  0.00     0.292 C 
HETATM   26  O4  UNL     1      -0.891   6.213  11.273  1.00  0.00    -0.348 OA
HETATM   27  C30 UNL     1      -0.045   5.054  11.419  1.00  0.00     0.179 C 
HETATM   28  C32 UNL     1       1.455   5.343  11.235  1.00  0.00     0.180 C 
HETATM   29  C33 UNL     1       1.619   6.518  10.272  1.00  0.00     0.183 C 
HETATM   30  C34 UNL     1       0.982   7.780  10.853  1.00  0.00     0.204 C 
BRANCH  27  31
HETATM   31  C31 UNL     1      -0.335   4.350  12.751  1.00  0.00     0.198 C 
BRANCH  31  32
HETATM   32  O5  UNL     1       0.561   4.834  13.755  1.00  0.00    -0.398 OA
HETATM   33  H48 UNL     1       1.442   4.849  13.330  1.00  0.00     0.209 HD
ENDBRANCH  31  32
ENDBRANCH  27  31
BRANCH  28  34
HETATM   34  O6  UNL     1       2.159   4.205  10.712  1.00  0.00    -0.390 OA
HETATM   35  H50 UNL     1       1.671   3.870   9.938  1.00  0.00     0.210 HD
ENDBRANCH  28  34
BRANCH  29  36
HETATM   36  O7  UNL     1       3.009   6.770  10.008  1.00  0.00    -0.390 OA
HETATM   37  H52 UNL     1       3.428   5.889   9.931  1.00  0.00     0.210 HD
ENDBRANCH  29  36
BRANCH  30  38
HETATM   38  O8  UNL     1       0.690   8.672   9.759  1.00  0.00    -0.388 OA
HETATM   39  H54 UNL     1       1.544   8.812   9.306  1.00  0.00     0.210 HD
ENDBRANCH  30  38
ENDBRANCH  24  25
ENDBRANCH  20  24
BRANCH   1  40
HETATM   40  C8  UNL     1      -5.491  14.291  19.352  1.00  0.00    -0.010 C 
HETATM   41  C9  UNL     1      -4.987  15.675  19.782  1.00  0.00     0.010 C 
BRANCH  40  42
HETATM   42  C7  UNL     1      -5.308  13.295  20.536  1.00  0.00     0.031 C 
BRANCH  42  43
HETATM   43  C6  UNL     1      -6.363  13.261  21.616  1.00  0.00    -0.027 C 
HETATM   44  C5  UNL     1      -7.014  14.314  22.142  1.00  0.00     0.006 C 
BRANCH  44  45
HETATM   45  C2  UNL     1      -8.088  14.301  23.215  1.00  0.00     0.070 C 
HETATM   46  C3  UNL     1      -7.743  15.059  24.509  1.00  0.00     0.050 C 
HETATM   47  C4  UNL     1      -8.364  12.834  23.578  1.00  0.00     0.050 C 
BRANCH  45  48
HETATM   48  O1  UNL     1      -9.314  14.778  22.633  1.00  0.00    -0.382 OA
HETATM   49  C1  UNL     1     -10.083  13.813  21.923  1.00  0.00     0.202 C 
ENDBRANCH  45  48
ENDBRANCH  44  45
ENDBRANCH  42  43
ENDBRANCH  40  42
ENDBRANCH   1  40
TORSDOF 12
ENDMDL
