MODEL 1
REMARK minimizedAffinity -7.12422562
REMARK CNNscore 0.830474019
REMARK CNNaffinity 7.17801857
REMARK  6 active torsions:
REMARK  status: ('A' for Active; 'I' for Inactive)
REMARK    1  A    between atoms: C4_4  and  C5_5 
REMARK    2  A    between atoms: C5_5  and  C6_6 
REMARK    3  A    between atoms: C6_6  and  C7_7 
REMARK    4  A    between atoms: C7_7  and  C9_9 
REMARK    5  A    between atoms: C17_17  and  O1_18 
REMARK    6  A    between atoms: C21_22  and  O2_23 
ROOT
HETATM    1  C9  UNL     1       4.181  54.531  -8.326  1.00  0.00    -0.002 C 
HETATM    2  C10 UNL     1       3.891  54.205  -6.836  1.00  0.00     0.006 C 
HETATM    3  C11 UNL     1       2.370  53.933  -6.727  1.00  0.00     0.011 C 
HETATM    4  C12 UNL     1       1.886  53.781  -8.185  1.00  0.00    -0.032 C 
HETATM    5  C13 UNL     1       2.239  52.308  -8.596  1.00  0.00     0.016 C 
HETATM    6  C14 UNL     1       0.370  54.092  -8.433  1.00  0.00     0.003 C 
HETATM    7  C15 UNL     1      -0.546  53.195  -7.574  1.00  0.00     0.009 C 
HETATM    8  C16 UNL     1      -1.801  52.689  -8.263  1.00  0.00     0.039 C 
HETATM    9  C17 UNL     1      -1.528  52.007  -9.623  1.00  0.00     0.071 C 
HETATM   10  C18 UNL     1      -0.500  52.800 -10.530  1.00  0.00     0.029 C 
HETATM   11  C19 UNL     1      -0.895  52.797 -12.024  1.00  0.00     0.011 C 
HETATM   12  C20 UNL     1      -1.387  51.442 -12.509  1.00  0.00     0.033 C 
HETATM   13  C21 UNL     1      -2.496  50.816 -11.664  1.00  0.00     0.129 C 
HETATM   14  C22 UNL     1      -2.862  51.577 -10.357  1.00  0.00     0.010 C 
HETATM   15  C23 UNL     1      -3.818  52.766 -10.635  1.00  0.00     0.020 C 
HETATM   16  C24 UNL     1      -3.704  50.590  -9.493  1.00  0.00     0.020 C 
HETATM   17  C25 UNL     1      -0.026  54.207  -9.970  1.00  0.00    -0.033 C 
HETATM   18  C26 UNL     1      -1.191  55.237 -10.116  1.00  0.00     0.016 C 
HETATM   19  C27 UNL     1       1.139  54.846 -10.844  1.00  0.00     0.011 C 
HETATM   20  C28 UNL     1       2.605  54.675 -10.410  1.00  0.00     0.011 C 
HETATM   21  C29 UNL     1       2.770  54.863  -8.899  1.00  0.00    -0.032 C 
HETATM   22  C30 UNL     1       2.393  56.334  -8.551  1.00  0.00     0.016 C 
ENDROOT
BRANCH   1  23
HETATM   23  C7  UNL     1       5.368  55.503  -8.606  1.00  0.00    -0.014 C 
HETATM   24  C8  UNL     1       6.422  54.741  -9.435  1.00  0.00     0.010 C 
BRANCH  23  25
HETATM   25  C6  UNL     1       6.046  56.117  -7.355  1.00  0.00     0.008 C 
BRANCH  25  26
HETATM   26  C5  UNL     1       7.467  55.596  -7.076  1.00  0.00     0.028 C 
BRANCH  26  27
HETATM   27  C4  UNL     1       7.735  55.223  -5.647  1.00  0.00    -0.025 C 
HETATM   28  C2  UNL     1       8.785  55.593  -4.889  1.00  0.00    -0.091 C 
HETATM   29  C1  UNL     1       8.914  55.112  -3.467  1.00  0.00     0.042 C 
HETATM   30  C3  UNL     1       9.894  56.504  -5.338  1.00  0.00     0.042 C 
ENDBRANCH  26  27
ENDBRANCH  25  26
ENDBRANCH  23  25
ENDBRANCH   1  23
BRANCH   9  31
HETATM   31  O1  UNL     1      -0.820  50.775  -9.314  1.00  0.00    -0.389 OA
HETATM   32  H29 UNL     1      -1.234  50.362  -8.537  1.00  0.00     0.210 HD
ENDBRANCH   9  31
BRANCH  13  33
HETATM   33  O2  UNL     1      -3.657  50.635 -12.480  1.00  0.00    -0.395 OA
HETATM   34  H36 UNL     1      -3.407  50.041 -13.210  1.00  0.00     0.210 HD
ENDBRANCH  13  33
TORSDOF 6
ENDMDL
MODEL 2
REMARK minimizedAffinity -6.84427023
REMARK CNNscore 0.806895137
REMARK CNNaffinity 7.03412294
REMARK  6 active torsions:
REMARK  status: ('A' for Active; 'I' for Inactive)
REMARK    1  A    between atoms: C4_4  and  C5_5 
REMARK    2  A    between atoms: C5_5  and  C6_6 
REMARK    3  A    between atoms: C6_6  and  C7_7 
REMARK    4  A    between atoms: C7_7  and  C9_9 
REMARK    5  A    between atoms: C17_17  and  O1_18 
REMARK    6  A    between atoms: C21_22  and  O2_23 
ROOT
HETATM    1  C9  UNL     1       2.193  54.823  -8.896  1.00  0.00    -0.002 C 
HETATM    2  C10 UNL     1       2.310  54.203  -7.478  1.00  0.00     0.006 C 
HETATM    3  C11 UNL     1       1.045  53.335  -7.265  1.00  0.00     0.011 C 
HETATM    4  C12 UNL     1       0.407  53.208  -8.666  1.00  0.00    -0.032 C 
HETATM    5  C13 UNL     1       1.208  52.072  -9.393  1.00  0.00     0.016 C 
HETATM    6  C14 UNL     1      -1.134  52.921  -8.687  1.00  0.00     0.003 C 
HETATM    7  C15 UNL     1      -1.483  51.622  -7.930  1.00  0.00     0.009 C 
HETATM    8  C16 UNL     1      -2.556  50.760  -8.570  1.00  0.00     0.039 C 
HETATM    9  C17 UNL     1      -2.290  50.442 -10.058  1.00  0.00     0.071 C 
HETATM   10  C18 UNL     1      -1.807  51.697 -10.894  1.00  0.00     0.029 C 
HETATM   11  C19 UNL     1      -2.425  51.746 -12.310  1.00  0.00     0.011 C 
HETATM   12  C20 UNL     1      -2.451  50.390 -12.998  1.00  0.00     0.033 C 
HETATM   13  C21 UNL     1      -3.080  49.262 -12.180  1.00  0.00     0.129 C 
HETATM   14  C22 UNL     1      -3.472  49.623 -10.718  1.00  0.00     0.010 C 
HETATM   15  C23 UNL     1      -4.835  50.358 -10.655  1.00  0.00     0.020 C 
HETATM   16  C24 UNL     1      -3.719  48.272  -9.982  1.00  0.00     0.020 C 
HETATM   17  C25 UNL     1      -1.804  53.082 -10.121  1.00  0.00    -0.033 C 
HETATM   18  C26 UNL     1      -3.275  53.572  -9.938  1.00  0.00     0.016 C 
HETATM   19  C27 UNL     1      -1.133  54.249 -10.970  1.00  0.00     0.011 C 
HETATM   20  C28 UNL     1       0.341  54.618 -10.734  1.00  0.00     0.011 C 
HETATM   21  C29 UNL     1       0.684  54.642  -9.242  1.00  0.00    -0.032 C 
HETATM   22  C30 UNL     1      -0.149  55.776  -8.573  1.00  0.00     0.016 C 
ENDROOT
BRANCH   1  23
HETATM   23  C7  UNL     1       2.862  56.216  -9.103  1.00  0.00    -0.014 C 
HETATM   24  C8  UNL     1       3.448  56.257 -10.528  1.00  0.00     0.010 C 
BRANCH  23  25
HETATM   25  C6  UNL     1       3.969  56.590  -8.084  1.00  0.00     0.008 C 
BRANCH  25  26
HETATM   26  C5  UNL     1       5.349  55.979  -8.384  1.00  0.00     0.028 C 
BRANCH  26  27
HETATM   27  C4  UNL     1       6.070  55.428  -7.188  1.00  0.00    -0.025 C 
HETATM   28  C2  UNL     1       6.567  56.118  -6.143  1.00  0.00    -0.091 C 
HETATM   29  C1  UNL     1       7.285  55.408  -5.025  1.00  0.00     0.042 C 
HETATM   30  C3  UNL     1       6.453  57.606  -5.961  1.00  0.00     0.042 C 
ENDBRANCH  26  27
ENDBRANCH  25  26
ENDBRANCH  23  25
ENDBRANCH   1  23
BRANCH   9  31
HETATM   31  O1  UNL     1      -1.130  49.563 -10.074  1.00  0.00    -0.389 OA
HETATM   32  H29 UNL     1      -1.218  48.916  -9.354  1.00  0.00     0.210 HD
ENDBRANCH   9  31
BRANCH  13  33
HETATM   33  O2  UNL     1      -4.212  48.750 -12.890  1.00  0.00    -0.395 OA
HETATM   34  H36 UNL     1      -3.889  48.413 -13.744  1.00  0.00     0.210 HD
ENDBRANCH  13  33
TORSDOF 6
ENDMDL
MODEL 3
REMARK minimizedAffinity -7.28699493
REMARK CNNscore 0.708595395
REMARK CNNaffinity 6.93848753
REMARK  6 active torsions:
REMARK  status: ('A' for Active; 'I' for Inactive)
REMARK    1  A    between atoms: C4_4  and  C5_5 
REMARK    2  A    between atoms: C5_5  and  C6_6 
REMARK    3  A    between atoms: C6_6  and  C7_7 
REMARK    4  A    between atoms: C7_7  and  C9_9 
REMARK    5  A    between atoms: C17_17  and  O1_18 
REMARK    6  A    between atoms: C21_22  and  O2_23 
ROOT
HETATM    1  C9  UNL     1      -1.542  52.819  -9.999  1.00  0.00    -0.002 C 
HETATM    2  C10 UNL     1      -1.249  51.397  -9.452  1.00  0.00     0.006 C 
HETATM    3  C11 UNL     1       0.268  51.343  -9.142  1.00  0.00     0.011 C 
HETATM    4  C12 UNL     1       0.740  52.812  -9.198  1.00  0.00    -0.032 C 
HETATM    5  C13 UNL     1       0.358  53.432  -7.808  1.00  0.00     0.016 C 
HETATM    6  C14 UNL     1       2.260  53.025  -9.518  1.00  0.00     0.003 C 
HETATM    7  C15 UNL     1       3.165  52.316  -8.489  1.00  0.00     0.009 C 
HETATM    8  C16 UNL     1       4.406  53.084  -8.069  1.00  0.00     0.039 C 
HETATM    9  C17 UNL     1       4.112  54.526  -7.600  1.00  0.00     0.071 C 
HETATM   10  C18 UNL     1       3.092  55.298  -8.535  1.00  0.00     0.029 C 
HETATM   11  C19 UNL     1       3.478  56.779  -8.746  1.00  0.00     0.011 C 
HETATM   12  C20 UNL     1       3.942  57.463  -7.469  1.00  0.00     0.033 C 
HETATM   13  C21 UNL     1       5.045  56.729  -6.707  1.00  0.00     0.129 C 
HETATM   14  C22 UNL     1       5.434  55.328  -7.261  1.00  0.00     0.010 C 
HETATM   15  C23 UNL     1       6.409  55.436  -8.462  1.00  0.00     0.020 C 
HETATM   16  C24 UNL     1       6.263  54.627  -6.144  1.00  0.00     0.020 C 
HETATM   17  C25 UNL     1       2.647  54.532  -9.851  1.00  0.00    -0.033 C 
HETATM   18  C26 UNL     1       3.829  54.535 -10.873  1.00  0.00     0.016 C 
HETATM   19  C27 UNL     1       1.488  55.292 -10.632  1.00  0.00     0.011 C 
HETATM   20  C28 UNL     1       0.023  54.874 -10.423  1.00  0.00     0.011 C 
HETATM   21  C29 UNL     1      -0.129  53.351 -10.389  1.00  0.00    -0.032 C 
HETATM   22  C30 UNL     1       0.276  52.793 -11.786  1.00  0.00     0.016 C 
ENDROOT
BRANCH   1  23
HETATM   23  C7  UNL     1      -2.714  52.943 -11.021  1.00  0.00    -0.014 C 
HETATM   24  C8  UNL     1      -3.808  53.825 -10.388  1.00  0.00     0.010 C 
BRANCH  23  25
HETATM   25  C6  UNL     1      -3.343  51.606 -11.490  1.00  0.00     0.008 C 
BRANCH  25  26
HETATM   26  C5  UNL     1      -4.576  51.161 -10.685  1.00  0.00     0.028 C 
BRANCH  26  27
HETATM   27  C4  UNL     1      -5.036  49.758 -10.957  1.00  0.00    -0.025 C 
HETATM   28  C2  UNL     1      -6.174  49.174 -10.534  1.00  0.00    -0.091 C 
HETATM   29  C1  UNL     1      -6.477  47.740 -10.882  1.00  0.00     0.042 C 
HETATM   30  C3  UNL     1      -7.239  49.853  -9.718  1.00  0.00     0.042 C 
ENDBRANCH  26  27
ENDBRANCH  25  26
ENDBRANCH  23  25
ENDBRANCH   1  23
BRANCH   9  31
HETATM   31  O1  UNL     1       3.385  54.396  -6.348  1.00  0.00    -0.389 OA
HETATM   32  H29 UNL     1       3.796  53.692  -5.818  1.00  0.00     0.210 HD
ENDBRANCH   9  31
BRANCH  13  33
HETATM   33  O2  UNL     1       6.198  57.574  -6.630  1.00  0.00    -0.395 OA
HETATM   34  H36 UNL     1       5.932  58.381  -6.154  1.00  0.00     0.210 HD
ENDBRANCH  13  33
TORSDOF 6
ENDMDL
MODEL 4
REMARK minimizedAffinity -6.84463835
REMARK CNNscore 0.614298046
REMARK CNNaffinity 6.77482653
REMARK  6 active torsions:
REMARK  status: ('A' for Active; 'I' for Inactive)
REMARK    1  A    between atoms: C4_4  and  C5_5 
REMARK    2  A    between atoms: C5_5  and  C6_6 
REMARK    3  A    between atoms: C6_6  and  C7_7 
REMARK    4  A    between atoms: C7_7  and  C9_9 
REMARK    5  A    between atoms: C17_17  and  O1_18 
REMARK    6  A    between atoms: C21_22  and  O2_23 
ROOT
HETATM    1  C9  UNL     1       1.264  52.915 -10.338  1.00  0.00    -0.002 C 
HETATM    2  C10 UNL     1       2.379  52.482 -11.327  1.00  0.00     0.006 C 
HETATM    3  C11 UNL     1       3.646  53.290 -10.952  1.00  0.00     0.011 C 
HETATM    4  C12 UNL     1       3.332  53.908  -9.571  1.00  0.00    -0.032 C 
HETATM    5  C13 UNL     1       3.607  52.769  -8.528  1.00  0.00     0.016 C 
HETATM    6  C14 UNL     1       4.127  55.211  -9.214  1.00  0.00     0.003 C 
HETATM    7  C15 UNL     1       5.652  54.977  -9.251  1.00  0.00     0.009 C 
HETATM    8  C16 UNL     1       6.446  55.662  -8.153  1.00  0.00     0.039 C 
HETATM    9  C17 UNL     1       5.908  55.379  -6.732  1.00  0.00     0.071 C 
HETATM   10  C18 UNL     1       4.331  55.477  -6.624  1.00  0.00     0.029 C 
HETATM   11  C19 UNL     1       3.862  56.147  -5.312  1.00  0.00     0.011 C 
HETATM   12  C20 UNL     1       4.640  55.679  -4.092  1.00  0.00     0.033 C 
HETATM   13  C21 UNL     1       6.160  55.766  -4.221  1.00  0.00     0.129 C 
HETATM   14  C22 UNL     1       6.698  56.182  -5.620  1.00  0.00     0.010 C 
HETATM   15  C23 UNL     1       6.646  57.719  -5.822  1.00  0.00     0.020 C 
HETATM   16  C24 UNL     1       8.217  55.836  -5.629  1.00  0.00     0.020 C 
HETATM   17  C25 UNL     1       3.579  55.973  -7.930  1.00  0.00    -0.033 C 
HETATM   18  C26 UNL     1       3.819  57.506  -8.111  1.00  0.00     0.016 C 
HETATM   19  C27 UNL     1       1.997  55.865  -7.797  1.00  0.00     0.011 C 
HETATM   20  C28 UNL     1       1.262  54.642  -8.371  1.00  0.00     0.011 C 
HETATM   21  C29 UNL     1       1.810  54.250  -9.746  1.00  0.00    -0.032 C 
HETATM   22  C30 UNL     1       1.522  55.420 -10.732  1.00  0.00     0.016 C 
ENDROOT
BRANCH   1  23
HETATM   23  C7  UNL     1      -0.200  52.859 -10.873  1.00  0.00    -0.014 C 
HETATM   24  C8  UNL     1      -0.142  52.674 -12.402  1.00  0.00     0.010 C 
BRANCH  23  25
HETATM   25  C6  UNL     1      -1.087  54.086 -10.540  1.00  0.00     0.008 C 
BRANCH  25  26
HETATM   26  C5  UNL     1      -2.259  53.791  -9.588  1.00  0.00     0.028 C 
BRANCH  26  27
HETATM   27  C4  UNL     1      -3.347  52.938 -10.171  1.00  0.00    -0.025 C 
HETATM   28  C2  UNL     1      -3.559  51.624  -9.959  1.00  0.00    -0.091 C 
HETATM   29  C1  UNL     1      -4.695  50.909 -10.642  1.00  0.00     0.042 C 
HETATM   30  C3  UNL     1      -2.740  50.756  -9.044  1.00  0.00     0.042 C 
ENDBRANCH  26  27
ENDBRANCH  25  26
ENDBRANCH  23  25
ENDBRANCH   1  23
BRANCH   9  31
HETATM   31  O1  UNL     1       6.173  53.972  -6.481  1.00  0.00    -0.389 OA
HETATM   32  H29 UNL     1       7.061  53.755  -6.813  1.00  0.00     0.210 HD
ENDBRANCH   9  31
BRANCH  13  33
HETATM   33  O2  UNL     1       6.662  56.646  -3.210  1.00  0.00    -0.395 OA
HETATM   34  H36 UNL     1       6.414  56.267  -2.348  1.00  0.00     0.210 HD
ENDBRANCH  13  33
TORSDOF 6
ENDMDL
MODEL 5
REMARK minimizedAffinity -6.89170837
REMARK CNNscore 0.602268457
REMARK CNNaffinity 6.35866022
REMARK  6 active torsions:
REMARK  status: ('A' for Active; 'I' for Inactive)
REMARK    1  A    between atoms: C4_4  and  C5_5 
REMARK    2  A    between atoms: C5_5  and  C6_6 
REMARK    3  A    between atoms: C6_6  and  C7_7 
REMARK    4  A    between atoms: C7_7  and  C9_9 
REMARK    5  A    between atoms: C17_17  and  O1_18 
REMARK    6  A    between atoms: C21_22  and  O2_23 
ROOT
HETATM    1  C9  UNL     1     -12.990  44.908 -28.288  1.00  0.00    -0.002 C 
HETATM    2  C10 UNL     1     -13.686  46.144 -28.919  1.00  0.00     0.006 C 
HETATM    3  C11 UNL     1     -12.563  47.037 -29.502  1.00  0.00     0.011 C 
HETATM    4  C12 UNL     1     -11.299  46.149 -29.493  1.00  0.00    -0.032 C 
HETATM    5  C13 UNL     1     -11.408  45.247 -30.772  1.00  0.00     0.016 C 
HETATM    6  C14 UNL     1      -9.932  46.915 -29.451  1.00  0.00     0.003 C 
HETATM    7  C15 UNL     1      -9.779  47.877 -30.647  1.00  0.00     0.009 C 
HETATM    8  C16 UNL     1      -8.394  47.939 -31.265  1.00  0.00     0.039 C 
HETATM    9  C17 UNL     1      -7.818  46.553 -31.633  1.00  0.00     0.071 C 
HETATM   10  C18 UNL     1      -8.036  45.461 -30.507  1.00  0.00     0.029 C 
HETATM   11  C19 UNL     1      -6.814  44.532 -30.329  1.00  0.00     0.011 C 
HETATM   12  C20 UNL     1      -6.202  44.091 -31.650  1.00  0.00     0.033 C 
HETATM   13  C21 UNL     1      -5.873  45.225 -32.621  1.00  0.00     0.129 C 
HETATM   14  C22 UNL     1      -6.338  46.645 -32.186  1.00  0.00     0.010 C 
HETATM   15  C23 UNL     1      -5.349  47.289 -31.180  1.00  0.00     0.020 C 
HETATM   16  C24 UNL     1      -6.251  47.545 -33.454  1.00  0.00     0.020 C 
HETATM   17  C25 UNL     1      -8.677  45.983 -29.153  1.00  0.00    -0.033 C 
HETATM   18  C26 UNL     1      -7.611  46.809 -28.365  1.00  0.00     0.016 C 
HETATM   19  C27 UNL     1      -9.032  44.798 -28.152  1.00  0.00     0.011 C 
HETATM   20  C28 UNL     1     -10.465  44.243 -28.101  1.00  0.00     0.011 C 
HETATM   21  C29 UNL     1     -11.506  45.365 -28.149  1.00  0.00    -0.032 C 
HETATM   22  C30 UNL     1     -11.341  46.232 -26.866  1.00  0.00     0.016 C 
ENDROOT
BRANCH   1  23
HETATM   23  C7  UNL     1     -13.706  44.255 -27.067  1.00  0.00    -0.014 C 
HETATM   24  C8  UNL     1     -12.663  43.430 -26.287  1.00  0.00     0.010 C 
BRANCH  23  25
HETATM   25  C6  UNL     1     -14.924  43.356 -27.400  1.00  0.00     0.008 C 
BRANCH  25  26
HETATM   26  C5  UNL     1     -16.223  44.122 -27.702  1.00  0.00     0.028 C 
BRANCH  26  27
HETATM   27  C4  UNL     1     -16.899  43.741 -28.986  1.00  0.00    -0.025 C 
HETATM   28  C2  UNL     1     -18.208  43.485 -29.177  1.00  0.00    -0.091 C 
HETATM   29  C1  UNL     1     -18.724  43.094 -30.537  1.00  0.00     0.042 C 
HETATM   30  C3  UNL     1     -19.267  43.575 -28.113  1.00  0.00     0.042 C 
ENDBRANCH  26  27
ENDBRANCH  25  26
ENDBRANCH  23  25
ENDBRANCH   1  23
BRANCH   9  31
HETATM   31  O1  UNL     1      -8.632  46.064 -32.734  1.00  0.00    -0.389 OA
HETATM   32  H29 UNL     1      -8.801  46.798 -33.349  1.00  0.00     0.210 HD
ENDBRANCH   9  31
BRANCH  13  33
HETATM   33  O2  UNL     1      -4.467  45.218 -32.885  1.00  0.00    -0.395 OA
HETATM   34  H36 UNL     1      -4.252  44.355 -33.281  1.00  0.00     0.210 HD
ENDBRANCH  13  33
TORSDOF 6
ENDMDL
MODEL 6
REMARK minimizedAffinity -6.95162535
REMARK CNNscore 0.591203272
REMARK CNNaffinity 6.09962463
REMARK  6 active torsions:
REMARK  status: ('A' for Active; 'I' for Inactive)
REMARK    1  A    between atoms: C4_4  and  C5_5 
REMARK    2  A    between atoms: C5_5  and  C6_6 
REMARK    3  A    between atoms: C6_6  and  C7_7 
REMARK    4  A    between atoms: C7_7  and  C9_9 
REMARK    5  A    between atoms: C17_17  and  O1_18 
REMARK    6  A    between atoms: C21_22  and  O2_23 
ROOT
HETATM    1  C9  UNL     1     -13.547  46.494 -28.150  1.00  0.00    -0.002 C 
HETATM    2  C10 UNL     1     -13.192  47.616 -27.138  1.00  0.00     0.006 C 
HETATM    3  C11 UNL     1     -11.656  47.809 -27.208  1.00  0.00     0.011 C 
HETATM    4  C12 UNL     1     -11.215  47.045 -28.476  1.00  0.00    -0.032 C 
HETATM    5  C13 UNL     1     -11.510  48.013 -29.675  1.00  0.00     0.016 C 
HETATM    6  C14 UNL     1      -9.725  46.558 -28.491  1.00  0.00     0.003 C 
HETATM    7  C15 UNL     1      -8.739  47.733 -28.325  1.00  0.00     0.009 C 
HETATM    8  C16 UNL     1      -7.485  47.662 -29.178  1.00  0.00     0.039 C 
HETATM    9  C17 UNL     1      -7.770  47.428 -30.679  1.00  0.00     0.071 C 
HETATM   10  C18 UNL     1      -8.866  46.316 -30.946  1.00  0.00     0.029 C 
HETATM   11  C19 UNL     1      -8.523  45.416 -32.155  1.00  0.00     0.011 C 
HETATM   12  C20 UNL     1      -7.983  46.196 -33.345  1.00  0.00     0.033 C 
HETATM   13  C21 UNL     1      -6.816  47.132 -33.029  1.00  0.00     0.129 C 
HETATM   14  C22 UNL     1      -6.443  47.264 -31.525  1.00  0.00     0.010 C 
HETATM   15  C23 UNL     1      -5.556  46.085 -31.048  1.00  0.00     0.020 C 
HETATM   16  C24 UNL     1      -5.525  48.518 -31.406  1.00  0.00     0.020 C 
HETATM   17  C25 UNL     1      -9.389  45.539 -29.666  1.00  0.00    -0.033 C 
HETATM   18  C26 UNL     1      -8.281  44.552 -29.176  1.00  0.00     0.016 C 
HETATM   19  C27 UNL     1     -10.613  44.578 -29.997  1.00  0.00     0.011 C 
HETATM   20  C28 UNL     1     -12.052  45.058 -29.748  1.00  0.00     0.011 C 
HETATM   21  C29 UNL     1     -12.174  45.805 -28.417  1.00  0.00    -0.032 C 
HETATM   22  C30 UNL     1     -11.858  44.801 -27.269  1.00  0.00     0.016 C 
ENDROOT
BRANCH   1  23
HETATM   23  C7  UNL     1     -14.789  45.616 -27.805  1.00  0.00    -0.014 C 
HETATM   24  C8  UNL     1     -15.234  45.961 -26.370  1.00  0.00     0.010 C 
BRANCH  23  25
HETATM   25  C6  UNL     1     -14.585  44.084 -27.923  1.00  0.00     0.008 C 
BRANCH  25  26
HETATM   26  C5  UNL     1     -15.707  43.343 -28.671  1.00  0.00     0.028 C 
BRANCH  26  27
HETATM   27  C4  UNL     1     -17.065  43.453 -28.043  1.00  0.00    -0.025 C 
HETATM   28  C2  UNL     1     -18.258  43.463 -28.670  1.00  0.00    -0.091 C 
HETATM   29  C1  UNL     1     -19.537  43.600 -27.887  1.00  0.00     0.042 C 
HETATM   30  C3  UNL     1     -18.451  43.325 -30.155  1.00  0.00     0.042 C 
ENDBRANCH  26  27
ENDBRANCH  25  26
ENDBRANCH  23  25
ENDBRANCH   1  23
BRANCH   9  31
HETATM   31  O1  UNL     1      -8.406  48.646 -31.156  1.00  0.00    -0.389 OA
HETATM   32  H29 UNL     1      -7.947  49.411 -30.770  1.00  0.00     0.210 HD
ENDBRANCH   9  31
BRANCH  13  33
HETATM   33  O2  UNL     1      -5.676  46.729 -33.794  1.00  0.00    -0.395 OA
HETATM   34  H36 UNL     1      -5.922  46.794 -34.734  1.00  0.00     0.210 HD
ENDBRANCH  13  33
TORSDOF 6
ENDMDL
MODEL 7
REMARK minimizedAffinity -6.8720212
REMARK CNNscore 0.582256794
REMARK CNNaffinity 6.00926256
REMARK  6 active torsions:
REMARK  status: ('A' for Active; 'I' for Inactive)
REMARK    1  A    between atoms: C4_4  and  C5_5 
REMARK    2  A    between atoms: C5_5  and  C6_6 
REMARK    3  A    between atoms: C6_6  and  C7_7 
REMARK    4  A    between atoms: C7_7  and  C9_9 
REMARK    5  A    between atoms: C17_17  and  O1_18 
REMARK    6  A    between atoms: C21_22  and  O2_23 
ROOT
HETATM    1  C9  UNL     1      -8.693  46.886 -30.596  1.00  0.00    -0.002 C 
HETATM    2  C10 UNL     1      -7.667  45.981 -29.863  1.00  0.00     0.006 C 
HETATM    3  C11 UNL     1      -8.383  45.420 -28.610  1.00  0.00     0.011 C 
HETATM    4  C12 UNL     1      -9.879  45.739 -28.827  1.00  0.00    -0.032 C 
HETATM    5  C13 UNL     1     -10.415  44.615 -29.781  1.00  0.00     0.016 C 
HETATM    6  C14 UNL     1     -10.747  45.843 -27.526  1.00  0.00     0.003 C 
HETATM    7  C15 UNL     1     -10.695  44.542 -26.699  1.00  0.00     0.009 C 
HETATM    8  C16 UNL     1     -12.008  44.114 -26.069  1.00  0.00     0.039 C 
HETATM    9  C17 UNL     1     -13.183  44.049 -27.070  1.00  0.00     0.071 C 
HETATM   10  C18 UNL     1     -13.247  45.294 -28.048  1.00  0.00     0.029 C 
HETATM   11  C19 UNL     1     -14.692  45.778 -28.306  1.00  0.00     0.011 C 
HETATM   12  C20 UNL     1     -15.672  44.637 -28.529  1.00  0.00     0.033 C 
HETATM   13  C21 UNL     1     -15.659  43.553 -27.451  1.00  0.00     0.129 C 
HETATM   14  C22 UNL     1     -14.554  43.693 -26.364  1.00  0.00     0.010 C 
HETATM   15  C23 UNL     1     -14.958  44.708 -25.264  1.00  0.00     0.020 C 
HETATM   16  C24 UNL     1     -14.484  42.321 -25.628  1.00  0.00     0.020 C 
HETATM   17  C25 UNL     1     -12.198  46.450 -27.763  1.00  0.00    -0.033 C 
HETATM   18  C26 UNL     1     -12.633  47.234 -26.484  1.00  0.00     0.016 C 
HETATM   19  C27 UNL     1     -12.205  47.568 -28.896  1.00  0.00     0.011 C 
HETATM   20  C28 UNL     1     -11.171  47.513 -30.032  1.00  0.00     0.011 C 
HETATM   21  C29 UNL     1      -9.778  47.150 -29.508  1.00  0.00    -0.032 C 
HETATM   22  C30 UNL     1      -9.306  48.291 -28.560  1.00  0.00     0.016 C 
ENDROOT
BRANCH   1  23
HETATM   23  C7  UNL     1      -8.110  48.088 -31.401  1.00  0.00    -0.014 C 
HETATM   24  C8  UNL     1      -8.717  49.384 -30.828  1.00  0.00     0.010 C 
BRANCH  23  25
HETATM   25  C6  UNL     1      -8.340  48.049 -32.933  1.00  0.00     0.008 C 
BRANCH  25  26
HETATM   26  C5  UNL     1      -7.138  47.544 -33.749  1.00  0.00     0.028 C 
BRANCH  26  27
HETATM   27  C4  UNL     1      -6.162  46.700 -32.983  1.00  0.00    -0.025 C 
HETATM   28  C2  UNL     1      -4.821  46.826 -32.949  1.00  0.00    -0.091 C 
HETATM   29  C1  UNL     1      -3.980  45.876 -32.137  1.00  0.00     0.042 C 
HETATM   30  C3  UNL     1      -4.038  47.892 -33.665  1.00  0.00     0.042 C 
ENDBRANCH  26  27
ENDBRANCH  25  26
ENDBRANCH  23  25
ENDBRANCH   1  23
BRANCH   9  31
HETATM   31  O1  UNL     1     -12.885  42.939 -27.961  1.00  0.00    -0.389 OA
HETATM   32  H29 UNL     1     -12.537  42.200 -27.434  1.00  0.00     0.210 HD
ENDBRANCH   9  31
BRANCH  13  33
HETATM   33  O2  UNL     1     -16.953  43.485 -26.844  1.00  0.00    -0.395 OA
HETATM   34  H36 UNL     1     -17.589  43.262 -27.546  1.00  0.00     0.210 HD
ENDBRANCH  13  33
TORSDOF 6
ENDMDL
MODEL 8
REMARK minimizedAffinity -7.48802996
REMARK CNNscore 0.543299258
REMARK CNNaffinity 6.8134594
REMARK  6 active torsions:
REMARK  status: ('A' for Active; 'I' for Inactive)
REMARK    1  A    between atoms: C4_4  and  C5_5 
REMARK    2  A    between atoms: C5_5  and  C6_6 
REMARK    3  A    between atoms: C6_6  and  C7_7 
REMARK    4  A    between atoms: C7_7  and  C9_9 
REMARK    5  A    between atoms: C17_17  and  O1_18 
REMARK    6  A    between atoms: C21_22  and  O2_23 
ROOT
HETATM    1  C9  UNL     1       3.378  56.566  -8.881  1.00  0.00    -0.002 C 
HETATM    2  C10 UNL     1       4.408  55.713  -9.669  1.00  0.00     0.006 C 
HETATM    3  C11 UNL     1       3.735  54.346  -9.946  1.00  0.00     0.011 C 
HETATM    4  C12 UNL     1       2.242  54.559  -9.612  1.00  0.00    -0.032 C 
HETATM    5  C13 UNL     1       1.622  55.252 -10.876  1.00  0.00     0.016 C 
HETATM    6  C14 UNL     1       1.442  53.269  -9.221  1.00  0.00     0.003 C 
HETATM    7  C15 UNL     1       1.491  52.207 -10.339  1.00  0.00     0.009 C 
HETATM    8  C16 UNL     1       0.197  51.451 -10.581  1.00  0.00     0.039 C 
HETATM    9  C17 UNL     1      -1.028  52.371 -10.788  1.00  0.00     0.071 C 
HETATM   10  C18 UNL     1      -1.097  53.569  -9.755  1.00  0.00     0.029 C 
HETATM   11  C19 UNL     1      -2.536  53.858  -9.269  1.00  0.00     0.011 C 
HETATM   12  C20 UNL     1      -3.564  53.812 -10.389  1.00  0.00     0.033 C 
HETATM   13  C21 UNL     1      -3.534  52.545 -11.243  1.00  0.00     0.129 C 
HETATM   14  C22 UNL     1      -2.374  51.553 -10.942  1.00  0.00     0.010 C 
HETATM   15  C23 UNL     1      -2.689  50.656  -9.718  1.00  0.00     0.020 C 
HETATM   16  C24 UNL     1      -2.314  50.567 -12.147  1.00  0.00     0.020 C 
HETATM   17  C25 UNL     1       0.002  53.560  -8.611  1.00  0.00    -0.033 C 
HETATM   18  C26 UNL     1      -0.343  52.441  -7.576  1.00  0.00     0.016 C 
HETATM   19  C27 UNL     1      -0.023  54.887  -7.734  1.00  0.00     0.011 C 
HETATM   20  C28 UNL     1       0.953  56.033  -8.052  1.00  0.00     0.011 C 
HETATM   21  C29 UNL     1       2.356  55.507  -8.366  1.00  0.00    -0.032 C 
HETATM   22  C30 UNL     1       2.912  54.820  -7.084  1.00  0.00     0.016 C 
ENDROOT
BRANCH   1  23
HETATM   23  C7  UNL     1       3.961  57.613  -7.883  1.00  0.00    -0.014 C 
HETATM   24  C8  UNL     1       5.162  56.968  -7.163  1.00  0.00     0.010 C 
BRANCH  23  25
HETATM   25  C6  UNL     1       2.968  58.165  -6.829  1.00  0.00     0.008 C 
BRANCH  25  26
HETATM   26  C5  UNL     1       3.371  57.898  -5.368  1.00  0.00     0.028 C 
BRANCH  26  27
HETATM   27  C4  UNL     1       3.484  59.124  -4.509  1.00  0.00    -0.025 C 
HETATM   28  C2  UNL     1       4.606  59.651  -3.981  1.00  0.00    -0.091 C 
HETATM   29  C1  UNL     1       4.543  60.885  -3.119  1.00  0.00     0.042 C 
HETATM   30  C3  UNL     1       5.994  59.113  -4.194  1.00  0.00     0.042 C 
ENDBRANCH  26  27
ENDBRANCH  25  26
ENDBRANCH  23  25
ENDBRANCH   1  23
BRANCH   9  31
HETATM   31  O1  UNL     1      -0.811  53.039 -12.061  1.00  0.00    -0.389 OA
HETATM   32  H29 UNL     1      -0.463  52.393 -12.699  1.00  0.00     0.210 HD
ENDBRANCH   9  31
BRANCH  13  33
HETATM   33  O2  UNL     1      -4.799  51.883 -11.137  1.00  0.00    -0.395 OA
HETATM   34  H36 UNL     1      -5.476  52.501 -11.465  1.00  0.00     0.210 HD
ENDBRANCH  13  33
TORSDOF 6
ENDMDL
MODEL 9
REMARK minimizedAffinity -9.31280518
REMARK CNNscore 0.464316934
REMARK CNNaffinity 7.0643177
REMARK  6 active torsions:
REMARK  status: ('A' for Active; 'I' for Inactive)
REMARK    1  A    between atoms: C4_4  and  C5_5 
REMARK    2  A    between atoms: C5_5  and  C6_6 
REMARK    3  A    between atoms: C6_6  and  C7_7 
REMARK    4  A    between atoms: C7_7  and  C9_9 
REMARK    5  A    between atoms: C17_17  and  O1_18 
REMARK    6  A    between atoms: C21_22  and  O2_23 
ROOT
HETATM    1  C9  UNL     1      -3.988  51.034 -24.097  1.00  0.00    -0.002 C 
HETATM    2  C10 UNL     1      -5.441  50.672 -23.683  1.00  0.00     0.006 C 
HETATM    3  C11 UNL     1      -5.353  49.999 -22.291  1.00  0.00     0.011 C 
HETATM    4  C12 UNL     1      -3.918  50.288 -21.797  1.00  0.00    -0.032 C 
HETATM    5  C13 UNL     1      -3.956  51.746 -21.219  1.00  0.00     0.016 C 
HETATM    6  C14 UNL     1      -3.345  49.275 -20.747  1.00  0.00     0.003 C 
HETATM    7  C15 UNL     1      -4.232  49.196 -19.487  1.00  0.00     0.009 C 
HETATM    8  C16 UNL     1      -3.488  49.094 -18.167  1.00  0.00     0.039 C 
HETATM    9  C17 UNL     1      -2.410  50.184 -17.979  1.00  0.00     0.071 C 
HETATM   10  C18 UNL     1      -1.522  50.422 -19.269  1.00  0.00     0.029 C 
HETATM   11  C19 UNL     1      -0.031  50.656 -18.934  1.00  0.00     0.011 C 
HETATM   12  C20 UNL     1       0.175  51.574 -17.739  1.00  0.00     0.033 C 
HETATM   13  C21 UNL     1      -0.598  51.181 -16.481  1.00  0.00     0.129 C 
HETATM   14  C22 UNL     1      -1.590  49.993 -16.639  1.00  0.00     0.010 C 
HETATM   15  C23 UNL     1      -0.864  48.625 -16.556  1.00  0.00     0.020 C 
HETATM   16  C24 UNL     1      -2.517  50.022 -15.387  1.00  0.00     0.020 C 
HETATM   17  C25 UNL     1      -1.785  49.431 -20.480  1.00  0.00    -0.033 C 
HETATM   18  C26 UNL     1      -1.188  48.029 -20.136  1.00  0.00     0.016 C 
HETATM   19  C27 UNL     1      -0.990  49.854 -21.792  1.00  0.00     0.011 C 
HETATM   20  C28 UNL     1      -1.697  50.673 -22.885  1.00  0.00     0.011 C 
HETATM   21  C29 UNL     1      -3.117  50.163 -23.141  1.00  0.00    -0.032 C 
HETATM   22  C30 UNL     1      -3.016  48.712 -23.698  1.00  0.00     0.016 C 
ENDROOT
BRANCH   1  23
HETATM   23  C7  UNL     1      -3.680  51.032 -25.625  1.00  0.00    -0.014 C 
HETATM   24  C8  UNL     1      -3.835  49.588 -26.142  1.00  0.00     0.010 C 
BRANCH  23  25
HETATM   25  C6  UNL     1      -2.287  51.575 -26.033  1.00  0.00     0.008 C 
BRANCH  25  26
HETATM   26  C5  UNL     1      -1.335  50.519 -26.621  1.00  0.00     0.028 C 
BRANCH  26  27
HETATM   27  C4  UNL     1       0.110  50.696 -26.256  1.00  0.00    -0.025 C 
HETATM   28  C2  UNL     1       1.058  51.345 -26.960  1.00  0.00    -0.091 C 
HETATM   29  C1  UNL     1       2.476  51.414 -26.457  1.00  0.00     0.042 C 
HETATM   30  C3  UNL     1       0.825  52.061 -28.261  1.00  0.00     0.042 C 
ENDBRANCH  26  27
ENDBRANCH  25  26
ENDBRANCH  23  25
ENDBRANCH   1  23
BRANCH   9  31
HETATM   31  O1  UNL     1      -3.133  51.437 -17.835  1.00  0.00    -0.389 OA
HETATM   32  H29 UNL     1      -3.907  51.289 -17.265  1.00  0.00     0.210 HD
ENDBRANCH   9  31
BRANCH  13  33
HETATM   33  O2  UNL     1       0.333  50.919 -15.426  1.00  0.00    -0.395 OA
HETATM   34  H36 UNL     1       0.837  51.738 -15.276  1.00  0.00     0.210 HD
ENDBRANCH  13  33
TORSDOF 6
ENDMDL
