MODEL 1
REMARK minimizedAffinity -8.80097103
REMARK CNNscore 0.617344081
REMARK CNNaffinity 6.7366004
REMARK  12 active torsions:
REMARK  status: ('A' for Active; 'I' for Inactive)
REMARK    1  A    between atoms: C19_21  and  O3_22 
REMARK    2  A    between atoms: C19_21  and  C20_23 
REMARK    3  A    between atoms: C20_23  and  C21_25 
REMARK    4  A    between atoms: C21_25  and  O5_26 
REMARK    5  A    between atoms: O5_26  and  C22_27 
REMARK    6  A    between atoms: C22_27  and  C23_29 
REMARK    7  A    between atoms: C23_29  and  C24_30 
REMARK    8  A    between atoms: C24_30  and  C25_31 
REMARK       I    between atoms: C25_31  and  N1_33 
REMARK    9  A    between atoms: N1_33  and  C26_34 
REMARK   10  A    between atoms: C26_34  and  C27_35 
REMARK   11  A    between atoms: C30_38  and  C31_39 
REMARK   12  A    between atoms: C31_39  and  O9_41 
ROOT
HETATM    1  C1  UNL     1      -0.678   7.292  11.730  1.00  0.00     0.021 C 
HETATM    2  C2  UNL     1      -1.155   6.430  12.924  1.00  0.00    -0.009 C 
HETATM    3  C3  UNL     1      -0.104   5.328  13.228  1.00  0.00     0.022 C 
HETATM    4  C4  UNL     1       0.071   4.331  12.084  1.00  0.00     0.084 C 
HETATM    5  C5  UNL     1      -1.249   3.793  11.587  1.00  0.00     0.149 C 
HETATM    6  O1  UNL     1      -1.322   2.772  10.905  1.00  0.00    -0.293 OA
HETATM    7  C6  UNL     1      -2.492   4.526  11.924  1.00  0.00     0.053 C 
HETATM    8  C7  UNL     1      -2.466   5.719  12.546  1.00  0.00    -0.067 C 
HETATM    9  C8  UNL     1      -3.771   6.340  13.000  1.00  0.00     0.035 C 
HETATM   10  C9  UNL     1      -3.724   7.859  13.118  1.00  0.00     0.010 C 
HETATM   11  C10 UNL     1      -2.524   8.389  13.924  1.00  0.00     0.003 C 
HETATM   12  C11 UNL     1      -1.446   7.293  14.186  1.00  0.00     0.072 C 
HETATM   13  C12 UNL     1      -0.254   7.967  14.876  1.00  0.00     0.133 C 
HETATM   14  O2  UNL     1       0.892   7.954  14.434  1.00  0.00    -0.297 OA
HETATM   15  C13 UNL     1      -0.574   8.660  16.199  1.00  0.00     0.091 C 
HETATM   16  C14 UNL     1      -1.678   9.706  15.973  1.00  0.00     0.005 C 
HETATM   17  C15 UNL     1      -1.082  10.868  15.129  1.00  0.00     0.019 C 
HETATM   18  C16 UNL     1      -2.891   9.002  15.287  1.00  0.00     0.002 C 
HETATM   19  C17 UNL     1      -3.991  10.052  15.367  1.00  0.00     0.009 C 
HETATM   20  C18 UNL     1      -3.752  10.755  16.719  1.00  0.00     0.047 C 
HETATM   21  C19 UNL     1      -2.381  10.251  17.255  1.00  0.00     0.128 C 
ENDROOT
BRANCH  21  22
HETATM   22  O3  UNL     1      -2.649   9.148  18.125  1.00  0.00    -0.381 OA
HETATM   23  H25 UNL     1      -3.126   9.484  18.906  1.00  0.00     0.211 HD
ENDBRANCH  21  22
BRANCH  21  24
HETATM   24  C20 UNL     1      -1.596  11.375  17.981  1.00  0.00     0.185 C 
HETATM   25  O4  UNL     1      -1.804  12.567  17.746  1.00  0.00    -0.292 OA
BRANCH  24  26
HETATM   26  C21 UNL     1      -0.516  10.953  18.970  1.00  0.00     0.260 C 
BRANCH  26  27
HETATM   27  O5  UNL     1       0.776  11.428  18.588  1.00  0.00    -0.314 OA
BRANCH  27  28
HETATM   28  C22 UNL     1       1.834  10.802  19.176  1.00  0.00     0.259 C 
HETATM   29  O6  UNL     1       2.887  10.528  18.621  1.00  0.00    -0.265 OA
BRANCH  28  30
HETATM   30  C23 UNL     1       1.506  10.511  20.616  1.00  0.00     0.120 C 
BRANCH  30  31
HETATM   31  C24 UNL     1       2.720   9.967  21.359  1.00  0.00     0.112 C 
BRANCH  31  32
HETATM   32  C25 UNL     1       3.205  10.941  22.409  1.00  0.00     0.218 C 
HETATM   33  O7  UNL     1       2.998  10.799  23.608  1.00  0.00    -0.274 OA
HETATM   34  N1  UNL     1       3.891  12.010  21.873  1.00  0.00    -0.361 N 
HETATM   35  H32 UNL     1       4.244  11.920  20.928  1.00  0.00     0.162 HD
BRANCH  34  36
HETATM   36  C26 UNL     1       4.521  12.988  22.739  1.00  0.00     0.127 C 
BRANCH  36  37
HETATM   37  C27 UNL     1       6.039  13.063  22.522  1.00  0.00     0.003 C 
HETATM   38  C28 UNL     1       6.608  14.427  22.961  1.00  0.00     0.007 C 
HETATM   39  C29 UNL     1       8.040  14.363  23.505  1.00  0.00     0.015 C 
HETATM   40  C30 UNL     1       8.894  13.281  22.846  1.00  0.00     0.084 C 
HETATM   41  C32 UNL     1       8.247  11.888  22.946  1.00  0.00     0.015 C 
HETATM   42  C33 UNL     1       6.746  11.915  23.247  1.00  0.00     0.007 C 
BRANCH  40  43
HETATM   43  C31 UNL     1       9.201  13.665  21.413  1.00  0.00     0.143 C 
HETATM   44  O8  UNL     1      10.215  14.194  20.990  1.00  0.00    -0.650 OA
BRANCH  43  45
HETATM   45  O9  UNL     1       8.205  13.330  20.569  1.00  0.00    -0.776 OA
HETATM   46  H41 UNL     1       8.529  13.614  19.689  1.00  0.00     0.167 HD
ENDBRANCH  43  45
ENDBRANCH  40  43
ENDBRANCH  36  37
ENDBRANCH  34  36
ENDBRANCH  31  32
ENDBRANCH  30  31
ENDBRANCH  28  30
ENDBRANCH  27  28
ENDBRANCH  26  27
ENDBRANCH  24  26
ENDBRANCH  21  24
TORSDOF 12
ENDMDL
MODEL 2
REMARK minimizedAffinity -8.31770802
REMARK CNNscore 0.433426946
REMARK CNNaffinity 6.68824434
REMARK  12 active torsions:
REMARK  status: ('A' for Active; 'I' for Inactive)
REMARK    1  A    between atoms: C19_21  and  O3_22 
REMARK    2  A    between atoms: C19_21  and  C20_23 
REMARK    3  A    between atoms: C20_23  and  C21_25 
REMARK    4  A    between atoms: C21_25  and  O5_26 
REMARK    5  A    between atoms: O5_26  and  C22_27 
REMARK    6  A    between atoms: C22_27  and  C23_29 
REMARK    7  A    between atoms: C23_29  and  C24_30 
REMARK    8  A    between atoms: C24_30  and  C25_31 
REMARK       I    between atoms: C25_31  and  N1_33 
REMARK    9  A    between atoms: N1_33  and  C26_34 
REMARK   10  A    between atoms: C26_34  and  C27_35 
REMARK   11  A    between atoms: C30_38  and  C31_39 
REMARK   12  A    between atoms: C31_39  and  O9_41 
ROOT
HETATM    1  C1  UNL     1      -0.680   7.012  11.774  1.00  0.00     0.021 C 
HETATM    2  C2  UNL     1      -1.297   6.188  12.929  1.00  0.00    -0.009 C 
HETATM    3  C3  UNL     1      -0.413   4.944  13.217  1.00  0.00     0.022 C 
HETATM    4  C4  UNL     1      -0.348   3.968  12.044  1.00  0.00     0.084 C 
HETATM    5  C5  UNL     1      -1.717   3.630  11.505  1.00  0.00     0.149 C 
HETATM    6  O1  UNL     1      -1.912   2.649  10.788  1.00  0.00    -0.293 OA
HETATM    7  C6  UNL     1      -2.856   4.515  11.842  1.00  0.00     0.053 C 
HETATM    8  C7  UNL     1      -2.684   5.674  12.503  1.00  0.00    -0.067 C 
HETATM    9  C8  UNL     1      -3.902   6.453  12.953  1.00  0.00     0.035 C 
HETATM   10  C9  UNL     1      -3.652   7.947  13.122  1.00  0.00     0.010 C 
HETATM   11  C10 UNL     1      -2.411   8.284  13.968  1.00  0.00     0.003 C 
HETATM   12  C11 UNL     1      -1.498   7.044  14.213  1.00  0.00     0.072 C 
HETATM   13  C12 UNL     1      -0.241   7.529  14.948  1.00  0.00     0.133 C 
HETATM   14  O2  UNL     1       0.902   7.373  14.527  1.00  0.00    -0.297 OA
HETATM   15  C13 UNL     1      -0.495   8.219  16.286  1.00  0.00     0.091 C 
HETATM   16  C14 UNL     1      -1.441   9.412  16.074  1.00  0.00     0.005 C 
HETATM   17  C15 UNL     1      -0.674  10.507  15.280  1.00  0.00     0.019 C 
HETATM   18  C16 UNL     1      -2.722   8.901  15.343  1.00  0.00     0.002 C 
HETATM   19  C17 UNL     1      -3.672  10.088  15.436  1.00  0.00     0.009 C 
HETATM   20  C18 UNL     1      -3.370  10.712  16.814  1.00  0.00     0.047 C 
HETATM   21  C19 UNL     1      -2.094  10.010  17.359  1.00  0.00     0.128 C 
ENDROOT
BRANCH  21  22
HETATM   22  O3  UNL     1      -2.529   8.928  18.187  1.00  0.00    -0.381 OA
HETATM   23  H25 UNL     1      -2.974   9.302  18.970  1.00  0.00     0.211 HD
ENDBRANCH  21  22
BRANCH  21  24
HETATM   24  C20 UNL     1      -1.181  10.993  18.136  1.00  0.00     0.185 C 
HETATM   25  O4  UNL     1      -0.185  10.606  18.751  1.00  0.00    -0.292 OA
BRANCH  24  26
HETATM   26  C21 UNL     1      -1.584  12.463  18.155  1.00  0.00     0.260 C 
BRANCH  26  27
HETATM   27  O5  UNL     1      -0.827  13.215  19.105  1.00  0.00    -0.314 OA
BRANCH  27  28
HETATM   28  C22 UNL     1      -1.206  14.513  19.269  1.00  0.00     0.259 C 
HETATM   29  O6  UNL     1      -2.187  15.031  18.758  1.00  0.00    -0.265 OA
BRANCH  28  30
HETATM   30  C23 UNL     1      -0.232  15.208  20.183  1.00  0.00     0.120 C 
BRANCH  30  31
HETATM   31  C24 UNL     1       1.161  15.264  19.566  1.00  0.00     0.112 C 
BRANCH  31  32
HETATM   32  C25 UNL     1       2.226  14.896  20.575  1.00  0.00     0.218 C 
HETATM   33  O7  UNL     1       3.365  15.347  20.548  1.00  0.00    -0.274 OA
HETATM   34  N1  UNL     1       1.783  13.992  21.516  1.00  0.00    -0.361 N 
HETATM   35  H32 UNL     1       0.783  13.877  21.629  1.00  0.00     0.162 HD
BRANCH  34  36
HETATM   36  C26 UNL     1       2.636  13.608  22.624  1.00  0.00     0.127 C 
BRANCH  36  37
HETATM   37  C27 UNL     1       2.863  12.090  22.683  1.00  0.00     0.003 C 
HETATM   38  C28 UNL     1       2.272  11.380  21.450  1.00  0.00     0.007 C 
HETATM   39  C29 UNL     1       3.042  10.127  21.018  1.00  0.00     0.015 C 
HETATM   40  C30 UNL     1       3.680   9.373  22.184  1.00  0.00     0.084 C 
HETATM   41  C32 UNL     1       4.600  10.273  23.027  1.00  0.00     0.015 C 
HETATM   42  C33 UNL     1       4.353  11.773  22.838  1.00  0.00     0.007 C 
BRANCH  40  43
HETATM   43  C31 UNL     1       2.604   8.713  23.022  1.00  0.00     0.143 C 
HETATM   44  O8  UNL     1       2.321   8.950  24.184  1.00  0.00    -0.650 OA
BRANCH  43  45
HETATM   45  O9  UNL     1       1.911   7.788  22.328  1.00  0.00    -0.776 OA
HETATM   46  H41 UNL     1       1.249   7.453  22.968  1.00  0.00     0.167 HD
ENDBRANCH  43  45
ENDBRANCH  40  43
ENDBRANCH  36  37
ENDBRANCH  34  36
ENDBRANCH  31  32
ENDBRANCH  30  31
ENDBRANCH  28  30
ENDBRANCH  27  28
ENDBRANCH  26  27
ENDBRANCH  24  26
ENDBRANCH  21  24
TORSDOF 12
ENDMDL
MODEL 3
REMARK minimizedAffinity -8.33810997
REMARK CNNscore 0.414942503
REMARK CNNaffinity 6.7227788
REMARK  12 active torsions:
REMARK  status: ('A' for Active; 'I' for Inactive)
REMARK    1  A    between atoms: C19_21  and  O3_22 
REMARK    2  A    between atoms: C19_21  and  C20_23 
REMARK    3  A    between atoms: C20_23  and  C21_25 
REMARK    4  A    between atoms: C21_25  and  O5_26 
REMARK    5  A    between atoms: O5_26  and  C22_27 
REMARK    6  A    between atoms: C22_27  and  C23_29 
REMARK    7  A    between atoms: C23_29  and  C24_30 
REMARK    8  A    between atoms: C24_30  and  C25_31 
REMARK       I    between atoms: C25_31  and  N1_33 
REMARK    9  A    between atoms: N1_33  and  C26_34 
REMARK   10  A    between atoms: C26_34  and  C27_35 
REMARK   11  A    between atoms: C30_38  and  C31_39 
REMARK   12  A    between atoms: C31_39  and  O9_41 
ROOT
HETATM    1  C1  UNL     1      -4.779   4.066  10.304  1.00  0.00     0.021 C 
HETATM    2  C2  UNL     1      -4.342   3.546  11.694  1.00  0.00    -0.009 C 
HETATM    3  C3  UNL     1      -4.334   1.992  11.694  1.00  0.00     0.022 C 
HETATM    4  C4  UNL     1      -5.718   1.384  11.477  1.00  0.00     0.084 C 
HETATM    5  C5  UNL     1      -6.758   1.988  12.389  1.00  0.00     0.149 C 
HETATM    6  O1  UNL     1      -7.841   1.441  12.596  1.00  0.00    -0.293 OA
HETATM    7  C6  UNL     1      -6.468   3.284  13.044  1.00  0.00     0.053 C 
HETATM    8  C7  UNL     1      -5.366   3.997  12.751  1.00  0.00    -0.067 C 
HETATM    9  C8  UNL     1      -5.049   5.233  13.567  1.00  0.00     0.035 C 
HETATM   10  C9  UNL     1      -4.200   6.260  12.828  1.00  0.00     0.010 C 
HETATM   11  C10 UNL     1      -2.941   5.673  12.165  1.00  0.00     0.003 C 
HETATM   12  C11 UNL     1      -2.958   4.114  12.121  1.00  0.00     0.072 C 
HETATM   13  C12 UNL     1      -1.727   3.657  11.329  1.00  0.00     0.133 C 
HETATM   14  O2  UNL     1      -1.781   2.958  10.319  1.00  0.00    -0.297 OA
HETATM   15  C13 UNL     1      -0.383   4.112  11.893  1.00  0.00     0.091 C 
HETATM   16  C14 UNL     1      -0.367   5.646  11.999  1.00  0.00     0.005 C 
HETATM   17  C15 UNL     1      -0.335   6.233  10.559  1.00  0.00     0.019 C 
HETATM   18  C16 UNL     1      -1.615   6.096  12.823  1.00  0.00     0.002 C 
HETATM   19  C17 UNL     1      -1.344   7.571  13.085  1.00  0.00     0.009 C 
HETATM   20  C18 UNL     1       0.184   7.651  13.277  1.00  0.00     0.047 C 
HETATM   21  C19 UNL     1       0.764   6.264  12.878  1.00  0.00     0.128 C 
ENDROOT
BRANCH  21  22
HETATM   22  O3  UNL     1       0.873   5.493  14.078  1.00  0.00    -0.381 OA
HETATM   23  H25 UNL     1       1.551   5.904  14.645  1.00  0.00     0.211 HD
ENDBRANCH  21  22
BRANCH  21  24
HETATM   24  C20 UNL     1       2.130   6.395  12.156  1.00  0.00     0.185 C 
HETATM   25  O4  UNL     1       2.523   5.546  11.354  1.00  0.00    -0.292 OA
BRANCH  24  26
HETATM   26  C21 UNL     1       3.001   7.595  12.508  1.00  0.00     0.260 C 
BRANCH  26  27
HETATM   27  O5  UNL     1       4.393   7.280  12.457  1.00  0.00    -0.314 OA
BRANCH  27  28
HETATM   28  C22 UNL     1       5.207   8.076  13.206  1.00  0.00     0.259 C 
HETATM   29  O6  UNL     1       4.829   8.882  14.043  1.00  0.00    -0.265 OA
BRANCH  28  30
HETATM   30  C23 UNL     1       6.644   7.800  12.850  1.00  0.00     0.120 C 
BRANCH  30  31
HETATM   31  C24 UNL     1       7.506   9.045  13.030  1.00  0.00     0.112 C 
BRANCH  31  32
HETATM   32  C25 UNL     1       8.666   8.781  13.964  1.00  0.00     0.218 C 
HETATM   33  O7  UNL     1       9.828   8.690  13.586  1.00  0.00    -0.274 OA
HETATM   34  N1  UNL     1       8.275   8.640  15.278  1.00  0.00    -0.361 N 
HETATM   35  H32 UNL     1       7.359   8.986  15.539  1.00  0.00     0.162 HD
BRANCH  34  36
HETATM   36  C26 UNL     1       9.264   8.490  16.327  1.00  0.00     0.127 C 
BRANCH  36  37
HETATM   37  C27 UNL     1       9.316   9.711  17.256  1.00  0.00     0.003 C 
HETATM   38  C28 UNL     1      10.246  10.807  16.701  1.00  0.00     0.007 C 
HETATM   39  C29 UNL     1       9.816  12.234  17.056  1.00  0.00     0.015 C 
HETATM   40  C30 UNL     1       9.126  12.341  18.415  1.00  0.00     0.084 C 
HETATM   41  C32 UNL     1       7.915  11.399  18.530  1.00  0.00     0.015 C 
HETATM   42  C33 UNL     1       7.909  10.259  17.507  1.00  0.00     0.007 C 
BRANCH  40  43
HETATM   43  C31 UNL     1      10.132  12.115  19.525  1.00  0.00     0.143 C 
HETATM   44  O8  UNL     1      10.219  11.146  20.260  1.00  0.00    -0.650 OA
BRANCH  43  45
HETATM   45  O9  UNL     1      11.011  13.131  19.633  1.00  0.00    -0.776 OA
HETATM   46  H41 UNL     1      11.604  12.860  20.363  1.00  0.00     0.167 HD
ENDBRANCH  43  45
ENDBRANCH  40  43
ENDBRANCH  36  37
ENDBRANCH  34  36
ENDBRANCH  31  32
ENDBRANCH  30  31
ENDBRANCH  28  30
ENDBRANCH  27  28
ENDBRANCH  26  27
ENDBRANCH  24  26
ENDBRANCH  21  24
TORSDOF 12
ENDMDL
MODEL 4
REMARK minimizedAffinity -8.40121937
REMARK CNNscore 0.401776582
REMARK CNNaffinity 7.44596243
REMARK  12 active torsions:
REMARK  status: ('A' for Active; 'I' for Inactive)
REMARK    1  A    between atoms: C19_21  and  O3_22 
REMARK    2  A    between atoms: C19_21  and  C20_23 
REMARK    3  A    between atoms: C20_23  and  C21_25 
REMARK    4  A    between atoms: C21_25  and  O5_26 
REMARK    5  A    between atoms: O5_26  and  C22_27 
REMARK    6  A    between atoms: C22_27  and  C23_29 
REMARK    7  A    between atoms: C23_29  and  C24_30 
REMARK    8  A    between atoms: C24_30  and  C25_31 
REMARK       I    between atoms: C25_31  and  N1_33 
REMARK    9  A    between atoms: N1_33  and  C26_34 
REMARK   10  A    between atoms: C26_34  and  C27_35 
REMARK   11  A    between atoms: C30_38  and  C31_39 
REMARK   12  A    between atoms: C31_39  and  O9_41 
ROOT
HETATM    1  C1  UNL     1      -7.383   4.506  15.059  1.00  0.00     0.021 C 
HETATM    2  C2  UNL     1      -7.019   5.807  14.305  1.00  0.00    -0.009 C 
HETATM    3  C3  UNL     1      -6.228   5.462  13.014  1.00  0.00     0.022 C 
HETATM    4  C4  UNL     1      -4.884   4.794  13.292  1.00  0.00     0.084 C 
HETATM    5  C5  UNL     1      -4.073   5.546  14.320  1.00  0.00     0.149 C 
HETATM    6  O1  UNL     1      -2.864   5.364  14.458  1.00  0.00    -0.293 OA
HETATM    7  C6  UNL     1      -4.759   6.524  15.196  1.00  0.00     0.053 C 
HETATM    8  C7  UNL     1      -6.098   6.666  15.189  1.00  0.00    -0.067 C 
HETATM    9  C8  UNL     1      -6.722   7.789  15.991  1.00  0.00     0.035 C 
HETATM   10  C9  UNL     1      -8.163   7.520  16.411  1.00  0.00     0.010 C 
HETATM   11  C10 UNL     1      -9.076   7.059  15.261  1.00  0.00     0.003 C 
HETATM   12  C11 UNL     1      -8.277   6.665  13.982  1.00  0.00     0.072 C 
HETATM   13  C12 UNL     1      -9.276   6.104  12.962  1.00  0.00     0.133 C 
HETATM   14  O2  UNL     1      -9.197   4.981  12.471  1.00  0.00    -0.297 OA
HETATM   15  C13 UNL     1     -10.399   7.057  12.559  1.00  0.00     0.091 C 
HETATM   16  C14 UNL     1     -11.165   7.503  13.816  1.00  0.00     0.005 C 
HETATM   17  C15 UNL     1     -11.952   6.280  14.366  1.00  0.00     0.019 C 
HETATM   18  C16 UNL     1     -10.138   8.088  14.836  1.00  0.00     0.002 C 
HETATM   19  C17 UNL     1     -11.028   8.730  15.893  1.00  0.00     0.009 C 
HETATM   20  C18 UNL     1     -12.224   9.290  15.098  1.00  0.00     0.047 C 
HETATM   21  C19 UNL     1     -12.102   8.740  13.648  1.00  0.00     0.128 C 
ENDROOT
BRANCH  21  22
HETATM   22  O3  UNL     1     -11.409   9.728  12.880  1.00  0.00    -0.381 OA
HETATM   23  H25 UNL     1     -11.978  10.516  12.811  1.00  0.00     0.211 HD
ENDBRANCH  21  22
BRANCH  21  24
HETATM   24  C20 UNL     1     -13.488   8.408  13.037  1.00  0.00     0.185 C 
HETATM   25  O4  UNL     1     -13.926   9.014  12.057  1.00  0.00    -0.292 OA
BRANCH  24  26
HETATM   26  C21 UNL     1     -14.319   7.330  13.721  1.00  0.00     0.260 C 
BRANCH  26  27
HETATM   27  O5  UNL     1     -15.698   7.403  13.355  1.00  0.00    -0.314 OA
BRANCH  27  28
HETATM   28  C22 UNL     1     -16.325   6.207  13.169  1.00  0.00     0.259 C 
HETATM   29  O6  UNL     1     -17.056   5.934  12.229  1.00  0.00    -0.265 OA
BRANCH  28  30
HETATM   30  C23 UNL     1     -15.970   5.275  14.296  1.00  0.00     0.120 C 
BRANCH  30  31
HETATM   31  C24 UNL     1     -16.704   3.945  14.164  1.00  0.00     0.112 C 
BRANCH  31  32
HETATM   32  C25 UNL     1     -15.834   2.790  14.607  1.00  0.00     0.218 C 
HETATM   33  O7  UNL     1     -14.619   2.873  14.738  1.00  0.00    -0.274 OA
HETATM   34  N1  UNL     1     -16.550   1.634  14.831  1.00  0.00    -0.361 N 
HETATM   35  H32 UNL     1     -17.552   1.715  14.957  1.00  0.00     0.162 HD
BRANCH  34  36
HETATM   36  C26 UNL     1     -15.896   0.455  15.364  1.00  0.00     0.127 C 
BRANCH  36  37
HETATM   37  C27 UNL     1     -15.630  -0.601  14.282  1.00  0.00     0.003 C 
HETATM   38  C28 UNL     1     -15.137  -1.927  14.893  1.00  0.00     0.007 C 
HETATM   39  C29 UNL     1     -15.563  -3.175  14.110  1.00  0.00     0.015 C 
HETATM   40  C30 UNL     1     -15.667  -2.942  12.604  1.00  0.00     0.084 C 
HETATM   41  C32 UNL     1     -16.609  -1.776  12.257  1.00  0.00     0.015 C 
HETATM   42  C33 UNL     1     -16.879  -0.822  13.425  1.00  0.00     0.007 C 
BRANCH  40  43
HETATM   43  C31 UNL     1     -14.285  -2.754  12.013  1.00  0.00     0.143 C 
HETATM   44  O8  UNL     1     -13.903  -1.845  11.295  1.00  0.00    -0.650 OA
BRANCH  43  45
HETATM   45  O9  UNL     1     -13.431  -3.727  12.390  1.00  0.00    -0.776 OA
HETATM   46  H41 UNL     1     -12.585  -3.485  11.960  1.00  0.00     0.167 HD
ENDBRANCH  43  45
ENDBRANCH  40  43
ENDBRANCH  36  37
ENDBRANCH  34  36
ENDBRANCH  31  32
ENDBRANCH  30  31
ENDBRANCH  28  30
ENDBRANCH  27  28
ENDBRANCH  26  27
ENDBRANCH  24  26
ENDBRANCH  21  24
TORSDOF 12
ENDMDL
MODEL 5
REMARK minimizedAffinity -8.28001976
REMARK CNNscore 0.379147708
REMARK CNNaffinity 6.82865
REMARK  12 active torsions:
REMARK  status: ('A' for Active; 'I' for Inactive)
REMARK    1  A    between atoms: C19_21  and  O3_22 
REMARK    2  A    between atoms: C19_21  and  C20_23 
REMARK    3  A    between atoms: C20_23  and  C21_25 
REMARK    4  A    between atoms: C21_25  and  O5_26 
REMARK    5  A    between atoms: O5_26  and  C22_27 
REMARK    6  A    between atoms: C22_27  and  C23_29 
REMARK    7  A    between atoms: C23_29  and  C24_30 
REMARK    8  A    between atoms: C24_30  and  C25_31 
REMARK       I    between atoms: C25_31  and  N1_33 
REMARK    9  A    between atoms: N1_33  and  C26_34 
REMARK   10  A    between atoms: C26_34  and  C27_35 
REMARK   11  A    between atoms: C30_38  and  C31_39 
REMARK   12  A    between atoms: C31_39  and  O9_41 
ROOT
HETATM    1  C1  UNL     1     -11.156   8.331  12.751  1.00  0.00     0.021 C 
HETATM    2  C2  UNL     1     -11.117   7.616  14.122  1.00  0.00    -0.009 C 
HETATM    3  C3  UNL     1     -12.049   6.375  14.093  1.00  0.00     0.022 C 
HETATM    4  C4  UNL     1     -13.520   6.732  13.893  1.00  0.00     0.084 C 
HETATM    5  C5  UNL     1     -13.980   7.817  14.837  1.00  0.00     0.149 C 
HETATM    6  O1  UNL     1     -15.171   8.030  15.055  1.00  0.00    -0.293 OA
HETATM    7  C6  UNL     1     -12.962   8.657  15.510  1.00  0.00     0.053 C 
HETATM    8  C7  UNL     1     -11.653   8.566  15.207  1.00  0.00    -0.067 C 
HETATM    9  C8  UNL     1     -10.650   9.337  16.039  1.00  0.00     0.035 C 
HETATM   10  C9  UNL     1      -9.356   9.662  15.303  1.00  0.00     0.010 C 
HETATM   11  C10 UNL     1      -8.712   8.451  14.604  1.00  0.00     0.003 C 
HETATM   12  C11 UNL     1      -9.668   7.221  14.531  1.00  0.00     0.072 C 
HETATM   13  C12 UNL     1      -8.967   6.134  13.706  1.00  0.00     0.133 C 
HETATM   14  O2  UNL     1      -9.438   5.638  12.686  1.00  0.00    -0.297 OA
HETATM   15  C13 UNL     1      -7.619   5.670  14.252  1.00  0.00     0.091 C 
HETATM   16  C14 UNL     1      -6.679   6.879  14.386  1.00  0.00     0.005 C 
HETATM   17  C15 UNL     1      -6.306   7.366  12.957  1.00  0.00     0.019 C 
HETATM   18  C16 UNL     1      -7.397   7.969  15.242  1.00  0.00     0.002 C 
HETATM   19  C17 UNL     1      -6.288   8.973  15.526  1.00  0.00     0.009 C 
HETATM   20  C18 UNL     1      -5.021   8.109  15.689  1.00  0.00     0.047 C 
HETATM   21  C19 UNL     1      -5.400   6.664  15.253  1.00  0.00     0.128 C 
ENDROOT
BRANCH  21  22
HETATM   22  O3  UNL     1      -5.773   5.952  16.436  1.00  0.00    -0.381 OA
HETATM   23  H25 UNL     1      -4.982   5.855  16.997  1.00  0.00     0.211 HD
ENDBRANCH  21  22
BRANCH  21  24
HETATM   24  C20 UNL     1      -4.236   5.962  14.506  1.00  0.00     0.185 C 
HETATM   25  O4  UNL     1      -4.428   4.986  13.779  1.00  0.00    -0.292 OA
BRANCH  24  26
HETATM   26  C21 UNL     1      -2.827   6.495  14.739  1.00  0.00     0.260 C 
BRANCH  26  27
HETATM   27  O5  UNL     1      -1.828   5.527  14.412  1.00  0.00    -0.314 OA
BRANCH  27  28
HETATM   28  C22 UNL     1      -0.698   6.019  13.829  1.00  0.00     0.259 C 
HETATM   29  O6  UNL     1       0.103   6.767  14.367  1.00  0.00    -0.265 OA
BRANCH  28  30
HETATM   30  C23 UNL     1      -0.588   5.488  12.425  1.00  0.00     0.120 C 
BRANCH  30  31
HETATM   31  C24 UNL     1       0.809   4.942  12.149  1.00  0.00     0.112 C 
BRANCH  31  32
HETATM   32  C25 UNL     1       1.406   5.561  10.904  1.00  0.00     0.218 C 
HETATM   33  O7  UNL     1       0.732   6.015   9.988  1.00  0.00    -0.274 OA
HETATM   34  N1  UNL     1       2.784   5.545  10.906  1.00  0.00    -0.361 N 
HETATM   35  H32 UNL     1       3.255   5.402  11.791  1.00  0.00     0.162 HD
BRANCH  34  36
HETATM   36  C26 UNL     1       3.527   6.193   9.842  1.00  0.00     0.127 C 
BRANCH  36  37
HETATM   37  C27 UNL     1       4.568   7.184  10.381  1.00  0.00     0.003 C 
HETATM   38  C28 UNL     1       3.917   8.264  11.267  1.00  0.00     0.007 C 
HETATM   39  C29 UNL     1       4.817   8.772  12.399  1.00  0.00     0.015 C 
HETATM   40  C30 UNL     1       6.302   8.777  12.040  1.00  0.00     0.084 C 
HETATM   41  C32 UNL     1       6.795   7.395  11.578  1.00  0.00     0.015 C 
HETATM   42  C33 UNL     1       5.675   6.446  11.138  1.00  0.00     0.007 C 
BRANCH  40  43
HETATM   43  C31 UNL     1       6.582   9.855  11.013  1.00  0.00     0.143 C 
HETATM   44  O8  UNL     1       7.449   9.854  10.156  1.00  0.00    -0.650 OA
BRANCH  43  45
HETATM   45  O9  UNL     1       5.719  10.886  11.107  1.00  0.00    -0.776 OA
HETATM   46  H41 UNL     1       5.995  11.496  10.392  1.00  0.00     0.167 HD
ENDBRANCH  43  45
ENDBRANCH  40  43
ENDBRANCH  36  37
ENDBRANCH  34  36
ENDBRANCH  31  32
ENDBRANCH  30  31
ENDBRANCH  28  30
ENDBRANCH  27  28
ENDBRANCH  26  27
ENDBRANCH  24  26
ENDBRANCH  21  24
TORSDOF 12
ENDMDL
MODEL 6
REMARK minimizedAffinity -8.52961636
REMARK CNNscore 0.37329638
REMARK CNNaffinity 6.49601889
REMARK  12 active torsions:
REMARK  status: ('A' for Active; 'I' for Inactive)
REMARK    1  A    between atoms: C19_21  and  O3_22 
REMARK    2  A    between atoms: C19_21  and  C20_23 
REMARK    3  A    between atoms: C20_23  and  C21_25 
REMARK    4  A    between atoms: C21_25  and  O5_26 
REMARK    5  A    between atoms: O5_26  and  C22_27 
REMARK    6  A    between atoms: C22_27  and  C23_29 
REMARK    7  A    between atoms: C23_29  and  C24_30 
REMARK    8  A    between atoms: C24_30  and  C25_31 
REMARK       I    between atoms: C25_31  and  N1_33 
REMARK    9  A    between atoms: N1_33  and  C26_34 
REMARK   10  A    between atoms: C26_34  and  C27_35 
REMARK   11  A    between atoms: C30_38  and  C31_39 
REMARK   12  A    between atoms: C31_39  and  O9_41 
ROOT
HETATM    1  C1  UNL     1       0.555   7.920  10.161  1.00  0.00     0.021 C 
HETATM    2  C2  UNL     1       1.006   7.249  11.480  1.00  0.00    -0.009 C 
HETATM    3  C3  UNL     1       2.226   8.013  12.066  1.00  0.00     0.022 C 
HETATM    4  C4  UNL     1       3.459   7.955  11.168  1.00  0.00     0.084 C 
HETATM    5  C5  UNL     1       3.779   6.549  10.723  1.00  0.00     0.149 C 
HETATM    6  O1  UNL     1       4.879   6.243  10.267  1.00  0.00    -0.293 OA
HETATM    7  C6  UNL     1       2.728   5.510  10.829  1.00  0.00     0.053 C 
HETATM    8  C7  UNL     1       1.466   5.810  11.188  1.00  0.00    -0.067 C 
HETATM    9  C8  UNL     1       0.482   4.685  11.429  1.00  0.00     0.035 C 
HETATM   10  C9  UNL     1      -0.975   5.084  11.228  1.00  0.00     0.010 C 
HETATM   11  C10 UNL     1      -1.381   6.370  11.971  1.00  0.00     0.003 C 
HETATM   12  C11 UNL     1      -0.152   7.162  12.515  1.00  0.00     0.072 C 
HETATM   13  C12 UNL     1      -0.672   8.475  13.114  1.00  0.00     0.133 C 
HETATM   14  O2  UNL     1      -0.303   9.588  12.748  1.00  0.00    -0.297 OA
HETATM   15  C13 UNL     1      -1.689   8.319  14.242  1.00  0.00     0.091 C 
HETATM   16  C14 UNL     1      -2.884   7.491  13.742  1.00  0.00     0.005 C 
HETATM   17  C15 UNL     1      -3.669   8.346  12.707  1.00  0.00     0.019 C 
HETATM   18  C16 UNL     1      -2.342   6.151  13.152  1.00  0.00     0.002 C 
HETATM   19  C17 UNL     1      -3.606   5.325  12.949  1.00  0.00     0.009 C 
HETATM   20  C18 UNL     1      -4.512   5.716  14.134  1.00  0.00     0.047 C 
HETATM   21  C19 UNL     1      -3.839   6.928  14.839  1.00  0.00     0.128 C 
ENDROOT
BRANCH  21  22
HETATM   22  O3  UNL     1      -3.041   6.405  15.905  1.00  0.00    -0.381 OA
HETATM   23  H25 UNL     1      -3.637   6.016  16.570  1.00  0.00     0.211 HD
ENDBRANCH  21  22
BRANCH  21  24
HETATM   24  C20 UNL     1      -4.885   7.950  15.356  1.00  0.00     0.185 C 
HETATM   25  O4  UNL     1      -4.630   8.729  16.276  1.00  0.00    -0.292 OA
BRANCH  24  26
HETATM   26  C21 UNL     1      -6.268   7.928  14.714  1.00  0.00     0.260 C 
BRANCH  26  27
HETATM   27  O5  UNL     1      -7.303   8.182  15.665  1.00  0.00    -0.314 OA
BRANCH  27  28
HETATM   28  C22 UNL     1      -8.140   7.137  15.922  1.00  0.00     0.259 C 
HETATM   29  O6  UNL     1      -7.804   6.072  16.417  1.00  0.00    -0.265 OA
BRANCH  28  30
HETATM   30  C23 UNL     1      -9.540   7.503  15.508  1.00  0.00     0.120 C 
BRANCH  30  31
HETATM   31  C24 UNL     1      -9.643   8.983  15.157  1.00  0.00     0.112 C 
BRANCH  31  32
HETATM   32  C25 UNL     1     -11.028   9.521  15.439  1.00  0.00     0.218 C 
HETATM   33  O7  UNL     1     -11.347  10.690  15.257  1.00  0.00    -0.274 OA
HETATM   34  N1  UNL     1     -11.885   8.562  15.934  1.00  0.00    -0.361 N 
HETATM   35  H32 UNL     1     -11.633   7.590  15.805  1.00  0.00     0.162 HD
BRANCH  34  36
HETATM   36  C26 UNL     1     -13.284   8.873  16.160  1.00  0.00     0.127 C 
BRANCH  36  37
HETATM   37  C27 UNL     1     -14.188   8.323  15.048  1.00  0.00     0.003 C 
HETATM   38  C28 UNL     1     -13.420   8.157  13.722  1.00  0.00     0.007 C 
HETATM   39  C29 UNL     1     -13.912   6.995  12.854  1.00  0.00     0.015 C 
HETATM   40  C30 UNL     1     -15.412   6.731  12.983  1.00  0.00     0.084 C 
HETATM   41  C32 UNL     1     -15.838   6.494  14.442  1.00  0.00     0.015 C 
HETATM   42  C33 UNL     1     -14.832   7.003  15.478  1.00  0.00     0.007 C 
BRANCH  40  43
HETATM   43  C31 UNL     1     -16.192   7.857  12.336  1.00  0.00     0.143 C 
HETATM   44  O8  UNL     1     -16.996   8.603  12.869  1.00  0.00    -0.650 OA
BRANCH  43  45
HETATM   45  O9  UNL     1     -15.892   8.002  11.029  1.00  0.00    -0.776 OA
HETATM   46  H41 UNL     1     -16.443   8.757  10.738  1.00  0.00     0.167 HD
ENDBRANCH  43  45
ENDBRANCH  40  43
ENDBRANCH  36  37
ENDBRANCH  34  36
ENDBRANCH  31  32
ENDBRANCH  30  31
ENDBRANCH  28  30
ENDBRANCH  27  28
ENDBRANCH  26  27
ENDBRANCH  24  26
ENDBRANCH  21  24
TORSDOF 12
ENDMDL
MODEL 7
REMARK minimizedAffinity -8.79871559
REMARK CNNscore 0.332205445
REMARK CNNaffinity 6.41882563
REMARK  12 active torsions:
REMARK  status: ('A' for Active; 'I' for Inactive)
REMARK    1  A    between atoms: C19_21  and  O3_22 
REMARK    2  A    between atoms: C19_21  and  C20_23 
REMARK    3  A    between atoms: C20_23  and  C21_25 
REMARK    4  A    between atoms: C21_25  and  O5_26 
REMARK    5  A    between atoms: O5_26  and  C22_27 
REMARK    6  A    between atoms: C22_27  and  C23_29 
REMARK    7  A    between atoms: C23_29  and  C24_30 
REMARK    8  A    between atoms: C24_30  and  C25_31 
REMARK       I    between atoms: C25_31  and  N1_33 
REMARK    9  A    between atoms: N1_33  and  C26_34 
REMARK   10  A    between atoms: C26_34  and  C27_35 
REMARK   11  A    between atoms: C30_38  and  C31_39 
REMARK   12  A    between atoms: C31_39  and  O9_41 
ROOT
HETATM    1  C1  UNL     1       2.160   8.561  10.858  1.00  0.00     0.021 C 
HETATM    2  C2  UNL     1       2.462   7.432  11.872  1.00  0.00    -0.009 C 
HETATM    3  C3  UNL     1       3.646   7.851  12.786  1.00  0.00     0.022 C 
HETATM    4  C4  UNL     1       4.956   8.039  12.024  1.00  0.00     0.084 C 
HETATM    5  C5  UNL     1       5.267   6.869  11.122  1.00  0.00     0.149 C 
HETATM    6  O1  UNL     1       6.394   6.676  10.670  1.00  0.00    -0.293 OA
HETATM    7  C6  UNL     1       4.176   5.934  10.763  1.00  0.00     0.053 C 
HETATM    8  C7  UNL     1       2.897   6.168  11.111  1.00  0.00    -0.067 C 
HETATM    9  C8  UNL     1       1.856   5.098  10.852  1.00  0.00     0.035 C 
HETATM   10  C9  UNL     1       0.439   5.639  10.701  1.00  0.00     0.010 C 
HETATM   11  C10 UNL     1       0.010   6.596  11.829  1.00  0.00     0.003 C 
HETATM   12  C11 UNL     1       1.208   7.055  12.715  1.00  0.00     0.072 C 
HETATM   13  C12 UNL     1       0.681   8.096  13.709  1.00  0.00     0.133 C 
HETATM   14  O2  UNL     1       1.120   9.239  13.803  1.00  0.00    -0.297 OA
HETATM   15  C13 UNL     1      -0.442   7.612  14.624  1.00  0.00     0.091 C 
HETATM   16  C14 UNL     1      -1.613   7.101  13.768  1.00  0.00     0.005 C 
HETATM   17  C15 UNL     1      -2.267   8.321  13.060  1.00  0.00     0.019 C 
HETATM   18  C16 UNL     1      -1.065   6.030  12.774  1.00  0.00     0.002 C 
HETATM   19  C17 UNL     1      -2.332   5.418  12.189  1.00  0.00     0.009 C 
HETATM   20  C18 UNL     1      -3.331   5.415  13.364  1.00  0.00     0.047 C 
HETATM   21  C19 UNL     1      -2.686   6.245  14.510  1.00  0.00     0.128 C 
ENDROOT
BRANCH  21  22
HETATM   22  O3  UNL     1      -2.010   5.322  15.369  1.00  0.00    -0.381 OA
HETATM   23  H25 UNL     1      -2.679   4.760  15.800  1.00  0.00     0.211 HD
ENDBRANCH  21  22
BRANCH  21  24
HETATM   24  C20 UNL     1      -3.740   7.079  15.284  1.00  0.00     0.185 C 
HETATM   25  O4  UNL     1      -3.416   7.869  16.172  1.00  0.00    -0.292 OA
BRANCH  24  26
HETATM   26  C21 UNL     1      -5.207   6.854  14.938  1.00  0.00     0.260 C 
BRANCH  26  27
HETATM   27  O5  UNL     1      -5.906   6.177  15.984  1.00  0.00    -0.314 OA
BRANCH  27  28
HETATM   28  C22 UNL     1      -7.178   5.787  15.689  1.00  0.00     0.259 C 
HETATM   29  O6  UNL     1      -7.482   4.756  15.110  1.00  0.00    -0.265 OA
BRANCH  28  30
HETATM   30  C23 UNL     1      -8.149   6.821  16.195  1.00  0.00     0.120 C 
BRANCH  30  31
HETATM   31  C24 UNL     1      -8.685   7.679  15.055  1.00  0.00     0.112 C 
BRANCH  31  32
HETATM   32  C25 UNL     1      -9.770   6.958  14.286  1.00  0.00     0.218 C 
HETATM   33  O7  UNL     1      -9.591   6.451  13.185  1.00  0.00    -0.274 OA
HETATM   34  N1  UNL     1     -10.978   6.946  14.947  1.00  0.00    -0.361 N 
HETATM   35  H32 UNL     1     -10.977   7.145  15.940  1.00  0.00     0.162 HD
BRANCH  34  36
HETATM   36  C26 UNL     1     -12.104   6.207  14.408  1.00  0.00     0.127 C 
BRANCH  36  37
HETATM   37  C27 UNL     1     -13.206   7.134  13.876  1.00  0.00     0.003 C 
HETATM   38  C28 UNL     1     -14.484   6.350  13.521  1.00  0.00     0.007 C 
HETATM   39  C29 UNL     1     -15.782   7.138  13.729  1.00  0.00     0.015 C 
HETATM   40  C30 UNL     1     -15.631   8.637  13.476  1.00  0.00     0.084 C 
HETATM   41  C32 UNL     1     -14.512   9.262  14.328  1.00  0.00     0.015 C 
HETATM   42  C33 UNL     1     -13.508   8.248  14.883  1.00  0.00     0.007 C 
BRANCH  40  43
HETATM   43  C31 UNL     1     -15.433   8.894  11.996  1.00  0.00     0.143 C 
HETATM   44  O8  UNL     1     -16.130   8.501  11.076  1.00  0.00    -0.650 OA
BRANCH  43  45
HETATM   45  O9  UNL     1     -14.360   9.674  11.752  1.00  0.00    -0.776 OA
HETATM   46  H41 UNL     1     -14.352   9.774  10.778  1.00  0.00     0.167 HD
ENDBRANCH  43  45
ENDBRANCH  40  43
ENDBRANCH  36  37
ENDBRANCH  34  36
ENDBRANCH  31  32
ENDBRANCH  30  31
ENDBRANCH  28  30
ENDBRANCH  27  28
ENDBRANCH  26  27
ENDBRANCH  24  26
ENDBRANCH  21  24
TORSDOF 12
ENDMDL
MODEL 8
REMARK minimizedAffinity -9.44038963
REMARK CNNscore 0.330226511
REMARK CNNaffinity 6.40269661
REMARK  12 active torsions:
REMARK  status: ('A' for Active; 'I' for Inactive)
REMARK    1  A    between atoms: C19_21  and  O3_22 
REMARK    2  A    between atoms: C19_21  and  C20_23 
REMARK    3  A    between atoms: C20_23  and  C21_25 
REMARK    4  A    between atoms: C21_25  and  O5_26 
REMARK    5  A    between atoms: O5_26  and  C22_27 
REMARK    6  A    between atoms: C22_27  and  C23_29 
REMARK    7  A    between atoms: C23_29  and  C24_30 
REMARK    8  A    between atoms: C24_30  and  C25_31 
REMARK       I    between atoms: C25_31  and  N1_33 
REMARK    9  A    between atoms: N1_33  and  C26_34 
REMARK   10  A    between atoms: C26_34  and  C27_35 
REMARK   11  A    between atoms: C30_38  and  C31_39 
REMARK   12  A    between atoms: C31_39  and  O9_41 
ROOT
HETATM    1  C1  UNL     1      -5.851   5.788  15.740  1.00  0.00     0.021 C 
HETATM    2  C2  UNL     1      -5.654   6.236  14.273  1.00  0.00    -0.009 C 
HETATM    3  C3  UNL     1      -6.974   6.849  13.730  1.00  0.00     0.022 C 
HETATM    4  C4  UNL     1      -8.124   5.846  13.672  1.00  0.00     0.084 C 
HETATM    5  C5  UNL     1      -7.726   4.558  12.992  1.00  0.00     0.149 C 
HETATM    6  O1  UNL     1      -8.560   3.759  12.569  1.00  0.00    -0.293 OA
HETATM    7  C6  UNL     1      -6.286   4.245  12.842  1.00  0.00     0.053 C 
HETATM    8  C7  UNL     1      -5.331   5.007  13.405  1.00  0.00    -0.067 C 
HETATM    9  C8  UNL     1      -3.878   4.724  13.084  1.00  0.00     0.035 C 
HETATM   10  C9  UNL     1      -2.906   5.181  14.165  1.00  0.00     0.010 C 
HETATM   11  C10 UNL     1      -3.119   6.635  14.625  1.00  0.00     0.003 C 
HETATM   12  C11 UNL     1      -4.468   7.232  14.121  1.00  0.00     0.072 C 
HETATM   13  C12 UNL     1      -4.624   8.624  14.747  1.00  0.00     0.133 C 
HETATM   14  O2  UNL     1      -5.578   8.959  15.445  1.00  0.00    -0.297 OA
HETATM   15  C13 UNL     1      -3.505   9.612  14.425  1.00  0.00     0.091 C 
HETATM   16  C14 UNL     1      -2.157   9.016  14.862  1.00  0.00     0.005 C 
HETATM   17  C15 UNL     1      -2.124   8.976  16.416  1.00  0.00     0.019 C 
HETATM   18  C16 UNL     1      -2.004   7.609  14.204  1.00  0.00     0.002 C 
HETATM   19  C17 UNL     1      -0.550   7.252  14.484  1.00  0.00     0.009 C 
HETATM   20  C18 UNL     1       0.200   8.596  14.386  1.00  0.00     0.047 C 
HETATM   21  C19 UNL     1      -0.881   9.711  14.295  1.00  0.00     0.128 C 
ENDROOT
BRANCH  21  22
HETATM   22  O3  UNL     1      -1.094   9.979  12.906  1.00  0.00    -0.381 OA
HETATM   23  H25 UNL     1      -0.281  10.375  12.543  1.00  0.00     0.211 HD
ENDBRANCH  21  22
BRANCH  21  24
HETATM   24  C20 UNL     1      -0.458  10.989  15.065  1.00  0.00     0.185 C 
HETATM   25  O4  UNL     1      -1.139  12.016  15.040  1.00  0.00    -0.292 OA
BRANCH  24  26
HETATM   26  C21 UNL     1       0.863  10.949  15.825  1.00  0.00     0.260 C 
BRANCH  26  27
HETATM   27  O5  UNL     1       0.675  11.078  17.235  1.00  0.00    -0.314 OA
BRANCH  27  28
HETATM   28  C22 UNL     1       1.648  10.528  18.014  1.00  0.00     0.259 C 
HETATM   29  O6  UNL     1       2.213   9.468  17.792  1.00  0.00    -0.265 OA
BRANCH  28  30
HETATM   30  C23 UNL     1       1.925  11.434  19.184  1.00  0.00     0.120 C 
BRANCH  30  31
HETATM   31  C24 UNL     1       1.246  10.925  20.450  1.00  0.00     0.112 C 
BRANCH  31  32
HETATM   32  C25 UNL     1       2.235  10.247  21.371  1.00  0.00     0.218 C 
HETATM   33  O7  UNL     1       2.274   9.034  21.543  1.00  0.00    -0.274 OA
HETATM   34  N1  UNL     1       3.076  11.137  22.003  1.00  0.00    -0.361 N 
HETATM   35  H32 UNL     1       3.157  12.069  21.616  1.00  0.00     0.162 HD
BRANCH  34  36
HETATM   36  C26 UNL     1       4.158  10.657  22.841  1.00  0.00     0.127 C 
BRANCH  36  37
HETATM   37  C27 UNL     1       5.441  11.481  22.661  1.00  0.00     0.003 C 
HETATM   38  C28 UNL     1       5.991  11.368  21.226  1.00  0.00     0.007 C 
HETATM   39  C29 UNL     1       6.711  12.626  20.730  1.00  0.00     0.015 C 
HETATM   40  C30 UNL     1       7.434  13.391  21.838  1.00  0.00     0.084 C 
HETATM   41  C32 UNL     1       6.494  13.765  22.997  1.00  0.00     0.015 C 
HETATM   42  C33 UNL     1       5.201  12.943  23.044  1.00  0.00     0.007 C 
BRANCH  40  43
HETATM   43  C31 UNL     1       8.637  12.601  22.311  1.00  0.00     0.143 C 
HETATM   44  O8  UNL     1       9.257  11.754  21.692  1.00  0.00    -0.650 OA
BRANCH  43  45
HETATM   45  O9  UNL     1       9.018  12.948  23.557  1.00  0.00    -0.776 OA
HETATM   46  H41 UNL     1       9.799  12.385  23.735  1.00  0.00     0.167 HD
ENDBRANCH  43  45
ENDBRANCH  40  43
ENDBRANCH  36  37
ENDBRANCH  34  36
ENDBRANCH  31  32
ENDBRANCH  30  31
ENDBRANCH  28  30
ENDBRANCH  27  28
ENDBRANCH  26  27
ENDBRANCH  24  26
ENDBRANCH  21  24
TORSDOF 12
ENDMDL
MODEL 9
REMARK minimizedAffinity -8.39126682
REMARK CNNscore 0.298756391
REMARK CNNaffinity 7.23014402
REMARK  12 active torsions:
REMARK  status: ('A' for Active; 'I' for Inactive)
REMARK    1  A    between atoms: C19_21  and  O3_22 
REMARK    2  A    between atoms: C19_21  and  C20_23 
REMARK    3  A    between atoms: C20_23  and  C21_25 
REMARK    4  A    between atoms: C21_25  and  O5_26 
REMARK    5  A    between atoms: O5_26  and  C22_27 
REMARK    6  A    between atoms: C22_27  and  C23_29 
REMARK    7  A    between atoms: C23_29  and  C24_30 
REMARK    8  A    between atoms: C24_30  and  C25_31 
REMARK       I    between atoms: C25_31  and  N1_33 
REMARK    9  A    between atoms: N1_33  and  C26_34 
REMARK   10  A    between atoms: C26_34  and  C27_35 
REMARK   11  A    between atoms: C30_38  and  C31_39 
REMARK   12  A    between atoms: C31_39  and  O9_41 
ROOT
HETATM    1  C1  UNL     1     -11.994  10.068  13.507  1.00  0.00     0.021 C 
HETATM    2  C2  UNL     1     -12.045   9.317  14.859  1.00  0.00    -0.009 C 
HETATM    3  C3  UNL     1     -13.462   8.718  15.073  1.00  0.00     0.022 C 
HETATM    4  C4  UNL     1     -14.553   9.781  15.185  1.00  0.00     0.084 C 
HETATM    5  C5  UNL     1     -14.196  10.866  16.172  1.00  0.00     0.149 C 
HETATM    6  O1  UNL     1     -15.042  11.629  16.637  1.00  0.00    -0.293 OA
HETATM    7  C6  UNL     1     -12.781  11.022  16.580  1.00  0.00     0.053 C 
HETATM    8  C7  UNL     1     -11.793  10.314  16.004  1.00  0.00    -0.067 C 
HETATM    9  C8  UNL     1     -10.393  10.405  16.573  1.00  0.00     0.035 C 
HETATM   10  C9  UNL     1      -9.293  10.097  15.563  1.00  0.00     0.010 C 
HETATM   11  C10 UNL     1      -9.510   8.790  14.780  1.00  0.00     0.003 C 
HETATM   12  C11 UNL     1     -10.950   8.216  14.956  1.00  0.00     0.072 C 
HETATM   13  C12 UNL     1     -11.082   6.998  14.033  1.00  0.00     0.133 C 
HETATM   14  O2  UNL     1     -11.935   6.892  13.156  1.00  0.00    -0.297 OA
HETATM   15  C13 UNL     1     -10.078   5.876  14.288  1.00  0.00     0.091 C 
HETATM   16  C14 UNL     1      -8.649   6.435  14.175  1.00  0.00     0.005 C 
HETATM   17  C15 UNL     1      -8.380   6.786  12.685  1.00  0.00     0.019 C 
HETATM   18  C16 UNL     1      -8.524   7.662  15.132  1.00  0.00     0.002 C 
HETATM   19  C17 UNL     1      -7.028   7.947  15.136  1.00  0.00     0.009 C 
HETATM   20  C18 UNL     1      -6.373   6.553  15.048  1.00  0.00     0.047 C 
HETATM   21  C19 UNL     1      -7.512   5.536  14.751  1.00  0.00     0.128 C 
ENDROOT
BRANCH  21  22
HETATM   22  O3  UNL     1      -7.946   5.011  16.008  1.00  0.00    -0.381 OA
HETATM   23  H25 UNL     1      -7.219   4.484  16.387  1.00  0.00     0.211 HD
ENDBRANCH  21  22
BRANCH  21  24
HETATM   24  C20 UNL     1      -7.045   4.410  13.791  1.00  0.00     0.185 C 
HETATM   25  O4  UNL     1      -7.658   3.346  13.694  1.00  0.00    -0.292 OA
BRANCH  24  26
HETATM   26  C21 UNL     1      -5.765   4.646  12.999  1.00  0.00     0.260 C 
BRANCH  26  27
HETATM   27  O5  UNL     1      -4.970   3.463  12.899  1.00  0.00    -0.314 OA
BRANCH  27  28
HETATM   28  C22 UNL     1      -4.849   2.936  11.649  1.00  0.00     0.259 C 
HETATM   29  O6  UNL     1      -5.566   2.066  11.179  1.00  0.00    -0.265 OA
BRANCH  28  30
HETATM   30  C23 UNL     1      -3.701   3.598  10.935  1.00  0.00     0.120 C 
BRANCH  30  31
HETATM   31  C24 UNL     1      -2.362   3.054  11.420  1.00  0.00     0.112 C 
BRANCH  31  32
HETATM   32  C25 UNL     1      -1.324   4.150  11.517  1.00  0.00     0.218 C 
HETATM   33  O7  UNL     1      -0.179   4.033  11.097  1.00  0.00    -0.274 OA
HETATM   34  N1  UNL     1      -1.799   5.284  12.138  1.00  0.00    -0.361 N 
HETATM   35  H32 UNL     1      -2.803   5.399  12.212  1.00  0.00     0.162 HD
BRANCH  34  36
HETATM   36  C26 UNL     1      -0.976   6.476  12.222  1.00  0.00     0.127 C 
BRANCH  36  37
HETATM   37  C27 UNL     1       0.332   6.335  11.430  1.00  0.00     0.003 C 
HETATM   38  C28 UNL     1       0.278   7.118  10.104  1.00  0.00     0.007 C 
HETATM   39  C29 UNL     1       1.631   7.676   9.650  1.00  0.00     0.015 C 
HETATM   40  C30 UNL     1       2.816   6.799  10.048  1.00  0.00     0.084 C 
HETATM   41  C32 UNL     1       2.858   6.528  11.562  1.00  0.00     0.015 C 
HETATM   42  C33 UNL     1       1.527   6.775  12.279  1.00  0.00     0.007 C 
BRANCH  40  43
HETATM   43  C31 UNL     1       2.806   5.518   9.240  1.00  0.00     0.143 C 
HETATM   44  O8  UNL     1       2.808   4.374   9.663  1.00  0.00    -0.650 OA
BRANCH  43  45
HETATM   45  O9  UNL     1       2.765   5.752   7.912  1.00  0.00    -0.776 OA
HETATM   46  H41 UNL     1       2.749   4.858   7.511  1.00  0.00     0.167 HD
ENDBRANCH  43  45
ENDBRANCH  40  43
ENDBRANCH  36  37
ENDBRANCH  34  36
ENDBRANCH  31  32
ENDBRANCH  30  31
ENDBRANCH  28  30
ENDBRANCH  27  28
ENDBRANCH  26  27
ENDBRANCH  24  26
ENDBRANCH  21  24
TORSDOF 12
ENDMDL
