MODEL 1
REMARK minimizedAffinity -9.46496201
REMARK  4 active torsions:
REMARK  status: ('A' for Active; 'I' for Inactive)
REMARK    1  A    between atoms: C4_4  and  C5_5 
REMARK    2  A    between atoms: C5_5  and  C6_6 
REMARK    3  A    between atoms: C6_6  and  C7_7 
REMARK    4  A    between atoms: C7_7  and  C9_9 
ROOT
HETATM    1  C9  UNL     1      -3.820  50.580 -24.460  1.00  0.00    -0.002 C 
HETATM    2  C10 UNL     1      -5.154  50.097 -23.809  1.00  0.00     0.006 C 
HETATM    3  C11 UNL     1      -4.983  50.179 -22.279  1.00  0.00     0.011 C 
HETATM    4  C12 UNL     1      -3.707  51.013 -22.073  1.00  0.00    -0.032 C 
HETATM    5  C13 UNL     1      -4.162  52.509 -22.229  1.00  0.00     0.016 C 
HETATM    6  C14 UNL     1      -2.976  50.920 -20.692  1.00  0.00     0.004 C 
HETATM    7  C15 UNL     1      -3.385  49.757 -19.789  1.00  0.00     0.007 C 
HETATM    8  C16 UNL     1      -2.684  49.769 -18.421  1.00  0.00     0.007 C 
HETATM    9  C17 UNL     1      -1.616  50.875 -18.210  1.00  0.00     0.010 C 
HETATM   10  C18 UNL     1      -0.758  50.650 -16.920  1.00  0.00     0.018 C 
HETATM   11  C19 UNL     1      -1.652  50.718 -15.665  1.00  0.00     0.023 C 
HETATM   12  C20 UNL     1      -0.006  49.308 -16.899  1.00  0.00     0.023 C 
HETATM   13  C21 UNL     1       0.288  51.772 -16.842  1.00  0.00     0.135 C 
HETATM   14  O1  UNL     1       0.456  52.461 -15.835  1.00  0.00    -0.297 OA
HETATM   15  C22 UNL     1       1.164  51.970 -18.055  1.00  0.00     0.080 C 
HETATM   16  C23 UNL     1       0.290  52.218 -19.267  1.00  0.00     0.018 C 
HETATM   17  C24 UNL     1      -0.739  51.120 -19.458  1.00  0.00    -0.026 A 
HETATM   18  C25 UNL     1      -0.446  49.965 -20.374  1.00  0.00     0.021 A 
HETATM   19  C26 UNL     1      -1.441  51.033 -20.826  1.00  0.00    -0.027 A 
HETATM   20  C27 UNL     1      -0.990  51.871 -22.014  1.00  0.00     0.011 C 
HETATM   21  C28 UNL     1      -1.558  51.393 -23.368  1.00  0.00     0.011 C 
HETATM   22  C29 UNL     1      -2.813  50.500 -23.263  1.00  0.00    -0.032 C 
HETATM   23  C30 UNL     1      -2.359  49.018 -23.113  1.00  0.00     0.016 C 
ENDROOT
BRANCH   1  24
HETATM   24  C7  UNL     1      -3.516  49.845 -25.802  1.00  0.00    -0.014 C 
HETATM   25  C8  UNL     1      -4.188  48.469 -25.865  1.00  0.00     0.010 C 
BRANCH  24  26
HETATM   26  C6  UNL     1      -1.979  49.702 -25.992  1.00  0.00     0.008 C 
BRANCH  26  27
HETATM   27  C5  UNL     1      -1.321  50.873 -26.735  1.00  0.00     0.028 C 
BRANCH  27  28
HETATM   28  C4  UNL     1       0.147  50.953 -26.409  1.00  0.00    -0.025 C 
HETATM   29  C2  UNL     1       1.143  51.468 -27.157  1.00  0.00    -0.091 C 
HETATM   30  C1  UNL     1       2.561  51.468 -26.646  1.00  0.00     0.042 C 
HETATM   31  C3  UNL     1       0.985  52.081 -28.521  1.00  0.00     0.042 C 
ENDBRANCH  27  28
ENDBRANCH  26  27
ENDBRANCH  24  26
ENDBRANCH   1  24
TORSDOF 4
ENDMDL
MODEL 2
REMARK minimizedAffinity -9.27289772
REMARK  4 active torsions:
REMARK  status: ('A' for Active; 'I' for Inactive)
REMARK    1  A    between atoms: C4_4  and  C5_5 
REMARK    2  A    between atoms: C5_5  and  C6_6 
REMARK    3  A    between atoms: C6_6  and  C7_7 
REMARK    4  A    between atoms: C7_7  and  C9_9 
ROOT
HETATM    1  C9  UNL     1      -2.926  50.335 -21.485  1.00  0.00    -0.002 C 
HETATM    2  C10 UNL     1      -2.116  51.510 -22.116  1.00  0.00     0.006 C 
HETATM    3  C11 UNL     1      -0.935  51.821 -21.175  1.00  0.00     0.011 C 
HETATM    4  C12 UNL     1      -0.881  50.626 -20.208  1.00  0.00    -0.032 C 
HETATM    5  C13 UNL     1      -0.121  49.495 -20.992  1.00  0.00     0.016 C 
HETATM    6  C14 UNL     1      -0.121  50.803 -18.851  1.00  0.00     0.004 C 
HETATM    7  C15 UNL     1       0.206  52.240 -18.444  1.00  0.00     0.007 C 
HETATM    8  C16 UNL     1       1.017  52.336 -17.141  1.00  0.00     0.007 C 
HETATM    9  C17 UNL     1       1.284  50.998 -16.402  1.00  0.00     0.010 C 
HETATM   10  C18 UNL     1       1.861  51.207 -14.962  1.00  0.00     0.018 C 
HETATM   11  C19 UNL     1       3.236  51.902 -15.031  1.00  0.00     0.023 C 
HETATM   12  C20 UNL     1       0.950  52.040 -14.042  1.00  0.00     0.023 C 
HETATM   13  C21 UNL     1       2.039  49.825 -14.314  1.00  0.00     0.135 C 
HETATM   14  O1  UNL     1       3.093  49.464 -13.789  1.00  0.00    -0.297 OA
HETATM   15  C22 UNL     1       0.830  48.923 -14.295  1.00  0.00     0.080 C 
HETATM   16  C23 UNL     1       0.332  48.723 -15.712  1.00  0.00     0.018 C 
HETATM   17  C24 UNL     1       0.069  50.044 -16.411  1.00  0.00    -0.026 A 
HETATM   18  C25 UNL     1      -1.314  50.634 -16.409  1.00  0.00     0.021 A 
HETATM   19  C26 UNL     1      -0.777  50.012 -17.698  1.00  0.00    -0.027 A 
HETATM   20  C27 UNL     1      -1.499  48.751 -18.152  1.00  0.00     0.011 C 
HETATM   21  C28 UNL     1      -2.570  49.000 -19.235  1.00  0.00     0.011 C 
HETATM   22  C29 UNL     1      -2.414  50.329 -20.005  1.00  0.00    -0.032 C 
HETATM   23  C30 UNL     1      -3.171  51.447 -19.228  1.00  0.00     0.016 C 
ENDROOT
BRANCH   1  24
HETATM   24  C7  UNL     1      -4.452  50.436 -21.795  1.00  0.00    -0.014 C 
HETATM   25  C8  UNL     1      -5.305  50.255 -20.535  1.00  0.00     0.010 C 
BRANCH  24  26
HETATM   26  C6  UNL     1      -4.845  49.380 -22.868  1.00  0.00     0.008 C 
BRANCH  26  27
HETATM   27  C5  UNL     1      -3.655  48.744 -23.598  1.00  0.00     0.028 C 
BRANCH  27  28
HETATM   28  C4  UNL     1      -4.011  48.433 -25.027  1.00  0.00    -0.025 C 
HETATM   29  C2  UNL     1      -3.360  48.797 -26.150  1.00  0.00    -0.091 C 
HETATM   30  C1  UNL     1      -3.872  48.371 -27.502  1.00  0.00     0.042 C 
HETATM   31  C3  UNL     1      -2.106  49.625 -26.204  1.00  0.00     0.042 C 
ENDBRANCH  27  28
ENDBRANCH  26  27
ENDBRANCH  24  26
ENDBRANCH   1  24
TORSDOF 4
ENDMDL
MODEL 3
REMARK minimizedAffinity -9.19416714
REMARK  4 active torsions:
REMARK  status: ('A' for Active; 'I' for Inactive)
REMARK    1  A    between atoms: C4_4  and  C5_5 
REMARK    2  A    between atoms: C5_5  and  C6_6 
REMARK    3  A    between atoms: C6_6  and  C7_7 
REMARK    4  A    between atoms: C7_7  and  C9_9 
ROOT
HETATM    1  C9  UNL     1      -5.765  49.014 -22.293  1.00  0.00    -0.002 C 
HETATM    2  C10 UNL     1      -6.109  48.094 -23.504  1.00  0.00     0.006 C 
HETATM    3  C11 UNL     1      -5.009  48.289 -24.566  1.00  0.00     0.011 C 
HETATM    4  C12 UNL     1      -3.887  49.043 -23.832  1.00  0.00    -0.032 C 
HETATM    5  C13 UNL     1      -3.099  47.939 -23.038  1.00  0.00     0.016 C 
HETATM    6  C14 UNL     1      -2.823  49.808 -24.689  1.00  0.00     0.004 C 
HETATM    7  C15 UNL     1      -3.177  50.033 -26.159  1.00  0.00     0.007 C 
HETATM    8  C16 UNL     1      -2.058  50.722 -26.957  1.00  0.00     0.007 C 
HETATM    9  C17 UNL     1      -0.812  51.166 -26.146  1.00  0.00     0.010 C 
HETATM   10  C18 UNL     1       0.142  52.098 -26.964  1.00  0.00     0.018 C 
HETATM   11  C19 UNL     1       0.712  51.344 -28.183  1.00  0.00     0.023 C 
HETATM   12  C20 UNL     1      -0.530  53.387 -27.471  1.00  0.00     0.023 C 
HETATM   13  C21 UNL     1       1.307  52.509 -26.050  1.00  0.00     0.135 C 
HETATM   14  O1  UNL     1       2.487  52.393 -26.378  1.00  0.00    -0.297 OA
HETATM   15  C22 UNL     1       0.942  53.126 -24.722  1.00  0.00     0.080 C 
HETATM   16  C23 UNL     1       0.049  52.173 -23.955  1.00  0.00     0.018 C 
HETATM   17  C24 UNL     1      -1.166  51.761 -24.765  1.00  0.00    -0.026 A 
HETATM   18  C25 UNL     1      -2.463  52.505 -24.608  1.00  0.00     0.021 A 
HETATM   19  C26 UNL     1      -2.337  51.106 -24.007  1.00  0.00    -0.027 A 
HETATM   20  C27 UNL     1      -2.379  51.053 -22.487  1.00  0.00     0.011 C 
HETATM   21  C28 UNL     1      -3.767  50.699 -21.912  1.00  0.00     0.011 C 
HETATM   22  C29 UNL     1      -4.722  50.007 -22.909  1.00  0.00    -0.032 C 
HETATM   23  C30 UNL     1      -5.504  51.103 -23.692  1.00  0.00     0.016 C 
ENDROOT
BRANCH   1  24
HETATM   24  C7  UNL     1      -7.043  49.551 -21.576  1.00  0.00    -0.014 C 
HETATM   25  C8  UNL     1      -6.710  50.212 -20.233  1.00  0.00     0.010 C 
BRANCH  24  26
HETATM   26  C6  UNL     1      -8.060  48.393 -21.368  1.00  0.00     0.008 C 
BRANCH  26  27
HETATM   27  C5  UNL     1      -8.576  48.253 -19.929  1.00  0.00     0.028 C 
BRANCH  27  28
HETATM   28  C4  UNL     1     -10.065  48.032 -19.917  1.00  0.00    -0.025 C 
HETATM   29  C2  UNL     1     -10.869  47.808 -18.858  1.00  0.00    -0.091 C 
HETATM   30  C1  UNL     1     -12.352  47.623 -19.050  1.00  0.00     0.042 C 
HETATM   31  C3  UNL     1     -10.423  47.722 -17.424  1.00  0.00     0.042 C 
ENDBRANCH  27  28
ENDBRANCH  26  27
ENDBRANCH  24  26
ENDBRANCH   1  24
TORSDOF 4
ENDMDL
MODEL 4
REMARK minimizedAffinity -9.10924816
REMARK  4 active torsions:
REMARK  status: ('A' for Active; 'I' for Inactive)
REMARK    1  A    between atoms: C4_4  and  C5_5 
REMARK    2  A    between atoms: C5_5  and  C6_6 
REMARK    3  A    between atoms: C6_6  and  C7_7 
REMARK    4  A    between atoms: C7_7  and  C9_9 
ROOT
HETATM    1  C9  UNL     1      -0.896  51.740 -22.650  1.00  0.00    -0.002 C 
HETATM    2  C10 UNL     1      -0.318  51.475 -24.075  1.00  0.00     0.006 C 
HETATM    3  C11 UNL     1      -1.438  50.841 -24.922  1.00  0.00     0.011 C 
HETATM    4  C12 UNL     1      -2.720  51.057 -24.100  1.00  0.00    -0.032 C 
HETATM    5  C13 UNL     1      -3.159  52.536 -24.399  1.00  0.00     0.016 C 
HETATM    6  C14 UNL     1      -3.964  50.160 -24.415  1.00  0.00     0.004 C 
HETATM    7  C15 UNL     1      -3.701  48.919 -25.268  1.00  0.00     0.007 C 
HETATM    8  C16 UNL     1      -4.975  48.127 -25.602  1.00  0.00     0.007 C 
HETATM    9  C17 UNL     1      -6.288  48.636 -24.951  1.00  0.00     0.010 C 
HETATM   10  C18 UNL     1      -7.474  47.627 -25.107  1.00  0.00     0.018 C 
HETATM   11  C19 UNL     1      -7.820  47.433 -26.598  1.00  0.00     0.023 C 
HETATM   12  C20 UNL     1      -7.195  46.241 -24.498  1.00  0.00     0.023 C 
HETATM   13  C21 UNL     1      -8.698  48.214 -24.388  1.00  0.00     0.135 C 
HETATM   14  O1  UNL     1      -9.802  48.317 -24.924  1.00  0.00    -0.297 OA
HETATM   15  C22 UNL     1      -8.510  48.620 -22.947  1.00  0.00     0.080 C 
HETATM   16  C23 UNL     1      -7.377  49.622 -22.853  1.00  0.00     0.018 C 
HETATM   17  C24 UNL     1      -6.103  49.097 -23.488  1.00  0.00    -0.026 A 
HETATM   18  C25 UNL     1      -5.066  48.415 -22.640  1.00  0.00     0.021 A 
HETATM   19  C26 UNL     1      -4.788  49.827 -23.152  1.00  0.00    -0.027 A 
HETATM   20  C27 UNL     1      -4.719  50.900 -22.075  1.00  0.00     0.011 C 
HETATM   21  C28 UNL     1      -3.282  51.249 -21.632  1.00  0.00     0.011 C 
HETATM   22  C29 UNL     1      -2.181  50.845 -22.636  1.00  0.00    -0.032 C 
HETATM   23  C30 UNL     1      -1.745  49.381 -22.334  1.00  0.00     0.016 C 
ENDROOT
BRANCH   1  24
HETATM   24  C7  UNL     1       0.186  51.590 -21.536  1.00  0.00    -0.014 C 
HETATM   25  C8  UNL     1      -0.089  50.385 -20.630  1.00  0.00     0.010 C 
BRANCH  24  26
HETATM   26  C6  UNL     1       0.260  52.894 -20.690  1.00  0.00     0.008 C 
BRANCH  26  27
HETATM   27  C5  UNL     1      -0.090  52.708 -19.207  1.00  0.00     0.028 C 
BRANCH  27  28
HETATM   28  C4  UNL     1       1.128  52.904 -18.344  1.00  0.00    -0.025 C 
HETATM   29  C2  UNL     1       1.471  52.243 -17.220  1.00  0.00    -0.091 C 
HETATM   30  C1  UNL     1       2.751  52.578 -16.498  1.00  0.00     0.042 C 
HETATM   31  C3  UNL     1       0.674  51.144 -16.574  1.00  0.00     0.042 C 
ENDBRANCH  27  28
ENDBRANCH  26  27
ENDBRANCH  24  26
ENDBRANCH   1  24
TORSDOF 4
ENDMDL
MODEL 5
REMARK minimizedAffinity -9.10358334
REMARK  4 active torsions:
REMARK  status: ('A' for Active; 'I' for Inactive)
REMARK    1  A    between atoms: C4_4  and  C5_5 
REMARK    2  A    between atoms: C5_5  and  C6_6 
REMARK    3  A    between atoms: C6_6  and  C7_7 
REMARK    4  A    between atoms: C7_7  and  C9_9 
ROOT
HETATM    1  C9  UNL     1      -0.728  50.082 -20.880  1.00  0.00    -0.002 C 
HETATM    2  C10 UNL     1      -1.306  49.487 -19.559  1.00  0.00     0.006 C 
HETATM    3  C11 UNL     1      -2.593  48.718 -19.917  1.00  0.00     0.011 C 
HETATM    4  C12 UNL     1      -2.559  48.592 -21.450  1.00  0.00    -0.032 C 
HETATM    5  C13 UNL     1      -1.603  47.379 -21.743  1.00  0.00     0.016 C 
HETATM    6  C14 UNL     1      -3.898  48.283 -22.199  1.00  0.00     0.004 C 
HETATM    7  C15 UNL     1      -5.182  48.474 -21.391  1.00  0.00     0.007 C 
HETATM    8  C16 UNL     1      -6.453  48.082 -22.163  1.00  0.00     0.007 C 
HETATM    9  C17 UNL     1      -6.252  47.661 -23.643  1.00  0.00     0.010 C 
HETATM   10  C18 UNL     1      -7.601  47.553 -24.430  1.00  0.00     0.018 C 
HETATM   11  C19 UNL     1      -8.488  46.448 -23.821  1.00  0.00     0.023 C 
HETATM   12  C20 UNL     1      -8.413  48.859 -24.454  1.00  0.00     0.023 C 
HETATM   13  C21 UNL     1      -7.275  47.179 -25.884  1.00  0.00     0.135 C 
HETATM   14  O1  UNL     1      -7.814  46.238 -26.468  1.00  0.00    -0.297 OA
HETATM   15  C22 UNL     1      -6.287  48.061 -26.607  1.00  0.00     0.080 C 
HETATM   16  C23 UNL     1      -4.990  48.105 -25.826  1.00  0.00     0.018 C 
HETATM   17  C24 UNL     1      -5.211  48.528 -24.386  1.00  0.00    -0.026 A 
HETATM   18  C25 UNL     1      -5.058  49.971 -23.993  1.00  0.00     0.021 A 
HETATM   19  C26 UNL     1      -3.977  48.974 -23.578  1.00  0.00    -0.027 A 
HETATM   20  C27 UNL     1      -2.621  49.184 -24.237  1.00  0.00     0.011 C 
HETATM   21  C28 UNL     1      -1.617  49.968 -23.364  1.00  0.00     0.011 C 
HETATM   22  C29 UNL     1      -1.950  49.985 -21.856  1.00  0.00    -0.032 C 
HETATM   23  C30 UNL     1      -2.893  51.190 -21.568  1.00  0.00     0.016 C 
ENDROOT
BRANCH   1  24
HETATM   24  C7  UNL     1      -0.005  51.445 -20.648  1.00  0.00    -0.014 C 
HETATM   25  C8  UNL     1      -0.391  52.076 -19.306  1.00  0.00     0.010 C 
BRANCH  24  26
HETATM   26  C6  UNL     1      -0.328  52.422 -21.815  1.00  0.00     0.008 C 
BRANCH  26  27
HETATM   27  C5  UNL     1       0.731  52.455 -22.925  1.00  0.00     0.028 C 
BRANCH  27  28
HETATM   28  C4  UNL     1       0.138  52.967 -24.211  1.00  0.00    -0.025 C 
HETATM   29  C2  UNL     1       0.504  52.675 -25.476  1.00  0.00    -0.091 C 
HETATM   30  C1  UNL     1      -0.229  53.284 -26.643  1.00  0.00     0.042 C 
HETATM   31  C3  UNL     1       1.624  51.752 -25.871  1.00  0.00     0.042 C 
ENDBRANCH  27  28
ENDBRANCH  26  27
ENDBRANCH  24  26
ENDBRANCH   1  24
TORSDOF 4
ENDMDL
MODEL 6
REMARK minimizedAffinity -8.8972168
REMARK  4 active torsions:
REMARK  status: ('A' for Active; 'I' for Inactive)
REMARK    1  A    between atoms: C4_4  and  C5_5 
REMARK    2  A    between atoms: C5_5  and  C6_6 
REMARK    3  A    between atoms: C6_6  and  C7_7 
REMARK    4  A    between atoms: C7_7  and  C9_9 
ROOT
HETATM    1  C9  UNL     1       0.260  51.570 -20.589  1.00  0.00    -0.002 C 
HETATM    2  C10 UNL     1      -0.477  52.591 -19.667  1.00  0.00     0.006 C 
HETATM    3  C11 UNL     1      -1.774  51.921 -19.173  1.00  0.00     0.011 C 
HETATM    4  C12 UNL     1      -1.607  50.434 -19.529  1.00  0.00    -0.032 C 
HETATM    5  C13 UNL     1      -0.712  49.834 -18.384  1.00  0.00     0.016 C 
HETATM    6  C14 UNL     1      -2.889  49.538 -19.596  1.00  0.00     0.004 C 
HETATM    7  C15 UNL     1      -4.226  50.278 -19.644  1.00  0.00     0.007 C 
HETATM    8  C16 UNL     1      -5.444  49.339 -19.632  1.00  0.00     0.007 C 
HETATM    9  C17 UNL     1      -5.136  47.819 -19.678  1.00  0.00     0.010 C 
HETATM   10  C18 UNL     1      -6.410  46.951 -19.947  1.00  0.00     0.018 C 
HETATM   11  C19 UNL     1      -7.422  47.115 -18.796  1.00  0.00     0.023 C 
HETATM   12  C20 UNL     1      -7.127  47.291 -21.266  1.00  0.00     0.023 C 
HETATM   13  C21 UNL     1      -5.978  45.478 -20.018  1.00  0.00     0.135 C 
HETATM   14  O1  UNL     1      -6.522  44.590 -19.361  1.00  0.00    -0.297 OA
HETATM   15  C22 UNL     1      -4.870  45.141 -20.985  1.00  0.00     0.080 C 
HETATM   16  C23 UNL     1      -3.650  45.980 -20.663  1.00  0.00     0.018 C 
HETATM   17  C24 UNL     1      -3.974  47.462 -20.632  1.00  0.00    -0.026 A 
HETATM   18  C25 UNL     1      -3.761  48.303 -21.860  1.00  0.00     0.021 A 
HETATM   19  C26 UNL     1      -2.793  48.450 -20.687  1.00  0.00    -0.027 A 
HETATM   20  C27 UNL     1      -1.371  47.984 -20.965  1.00  0.00     0.011 C 
HETATM   21  C28 UNL     1      -0.402  49.126 -21.339  1.00  0.00     0.011 C 
HETATM   22  C29 UNL     1      -0.870  50.535 -20.916  1.00  0.00    -0.032 C 
HETATM   23  C30 UNL     1      -1.753  51.129 -22.053  1.00  0.00     0.016 C 
ENDROOT
BRANCH   1  24
HETATM   24  C7  UNL     1       1.049  52.272 -21.738  1.00  0.00    -0.014 C 
HETATM   25  C8  UNL     1       1.340  53.742 -21.416  1.00  0.00     0.010 C 
BRANCH  24  26
HETATM   26  C6  UNL     1       0.255  52.159 -23.071  1.00  0.00     0.008 C 
BRANCH  26  27
HETATM   27  C5  UNL     1       0.688  53.159 -24.152  1.00  0.00     0.028 C 
BRANCH  27  28
HETATM   28  C4  UNL     1       0.240  52.698 -25.514  1.00  0.00    -0.025 C 
HETATM   29  C2  UNL     1       0.910  51.936 -26.401  1.00  0.00    -0.091 C 
HETATM   30  C1  UNL     1       0.281  51.566 -27.720  1.00  0.00     0.042 C 
HETATM   31  C3  UNL     1       2.295  51.382 -26.208  1.00  0.00     0.042 C 
ENDBRANCH  27  28
ENDBRANCH  26  27
ENDBRANCH  24  26
ENDBRANCH   1  24
TORSDOF 4
ENDMDL
MODEL 7
REMARK minimizedAffinity -8.73381424
REMARK  4 active torsions:
REMARK  status: ('A' for Active; 'I' for Inactive)
REMARK    1  A    between atoms: C4_4  and  C5_5 
REMARK    2  A    between atoms: C5_5  and  C6_6 
REMARK    3  A    between atoms: C6_6  and  C7_7 
REMARK    4  A    between atoms: C7_7  and  C9_9 
ROOT
HETATM    1  C9  UNL     1      -3.116  48.274 -19.172  1.00  0.00    -0.002 C 
HETATM    2  C10 UNL     1      -3.659  47.120 -20.071  1.00  0.00     0.006 C 
HETATM    3  C11 UNL     1      -3.206  47.402 -21.517  1.00  0.00     0.011 C 
HETATM    4  C12 UNL     1      -2.143  48.506 -21.385  1.00  0.00    -0.032 C 
HETATM    5  C13 UNL     1      -0.820  47.760 -20.983  1.00  0.00     0.016 C 
HETATM    6  C14 UNL     1      -1.797  49.358 -22.652  1.00  0.00     0.004 C 
HETATM    7  C15 UNL     1      -2.779  49.259 -23.819  1.00  0.00     0.007 C 
HETATM    8  C16 UNL     1      -2.339  50.060 -25.056  1.00  0.00     0.007 C 
HETATM    9  C17 UNL     1      -1.050  50.909 -24.899  1.00  0.00     0.010 C 
HETATM   10  C18 UNL     1      -0.829  51.901 -26.089  1.00  0.00     0.018 C 
HETATM   11  C19 UNL     1      -0.632  51.123 -27.405  1.00  0.00     0.023 C 
HETATM   12  C20 UNL     1      -1.984  52.897 -26.291  1.00  0.00     0.023 C 
HETATM   13  C21 UNL     1       0.443  52.715 -25.802  1.00  0.00     0.135 C 
HETATM   14  O1  UNL     1       1.359  52.832 -26.616  1.00  0.00    -0.297 OA
HETATM   15  C22 UNL     1       0.508  53.428 -24.473  1.00  0.00     0.080 C 
HETATM   16  C23 UNL     1       0.324  52.422 -23.356  1.00  0.00     0.018 C 
HETATM   17  C24 UNL     1      -0.947  51.612 -23.527  1.00  0.00    -0.026 A 
HETATM   18  C25 UNL     1      -2.212  52.042 -22.838  1.00  0.00     0.021 A 
HETATM   19  C26 UNL     1      -1.459  50.824 -22.305  1.00  0.00    -0.027 A 
HETATM   20  C27 UNL     1      -0.846  51.002 -20.923  1.00  0.00     0.011 C 
HETATM   21  C28 UNL     1      -1.706  50.423 -19.779  1.00  0.00     0.011 C 
HETATM   22  C29 UNL     1      -2.752  49.377 -20.223  1.00  0.00    -0.032 C 
HETATM   23  C30 UNL     1      -4.063  50.119 -20.617  1.00  0.00     0.016 C 
ENDROOT
BRANCH   1  24
HETATM   24  C7  UNL     1      -4.073  48.598 -17.983  1.00  0.00    -0.014 C 
HETATM   25  C8  UNL     1      -5.541  48.630 -18.423  1.00  0.00     0.010 C 
BRANCH  24  26
HETATM   26  C6  UNL     1      -3.675  49.956 -17.337  1.00  0.00     0.008 C 
BRANCH  26  27
HETATM   27  C5  UNL     1      -2.727  49.832 -16.136  1.00  0.00     0.028 C 
BRANCH  27  28
HETATM   28  C4  UNL     1      -1.504  50.688 -16.332  1.00  0.00    -0.025 C 
HETATM   29  C2  UNL     1      -0.212  50.305 -16.374  1.00  0.00    -0.091 C 
HETATM   30  C1  UNL     1       0.879  51.319 -16.597  1.00  0.00     0.042 C 
HETATM   31  C3  UNL     1       0.286  48.894 -16.218  1.00  0.00     0.042 C 
ENDBRANCH  27  28
ENDBRANCH  26  27
ENDBRANCH  24  26
ENDBRANCH   1  24
TORSDOF 4
ENDMDL
MODEL 8
REMARK minimizedAffinity -8.65991497
REMARK  4 active torsions:
REMARK  status: ('A' for Active; 'I' for Inactive)
REMARK    1  A    between atoms: C4_4  and  C5_5 
REMARK    2  A    between atoms: C5_5  and  C6_6 
REMARK    3  A    between atoms: C6_6  and  C7_7 
REMARK    4  A    between atoms: C7_7  and  C9_9 
ROOT
HETATM    1  C9  UNL     1      -0.794  50.323 -22.038  1.00  0.00    -0.002 C 
HETATM    2  C10 UNL     1      -0.461  50.133 -20.525  1.00  0.00     0.006 C 
HETATM    3  C11 UNL     1      -1.597  49.301 -19.898  1.00  0.00     0.011 C 
HETATM    4  C12 UNL     1      -2.381  48.743 -21.098  1.00  0.00    -0.032 C 
HETATM    5  C13 UNL     1      -1.561  47.491 -21.580  1.00  0.00     0.016 C 
HETATM    6  C14 UNL     1      -3.844  48.241 -20.860  1.00  0.00     0.004 C 
HETATM    7  C15 UNL     1      -4.494  48.662 -19.542  1.00  0.00     0.007 C 
HETATM    8  C16 UNL     1      -5.900  48.073 -19.339  1.00  0.00     0.007 C 
HETATM    9  C17 UNL     1      -6.472  47.247 -20.521  1.00  0.00     0.010 C 
HETATM   10  C18 UNL     1      -7.995  46.926 -20.355  1.00  0.00     0.018 C 
HETATM   11  C19 UNL     1      -8.224  46.046 -19.109  1.00  0.00     0.023 C 
HETATM   12  C20 UNL     1      -8.884  48.176 -20.227  1.00  0.00     0.023 C 
HETATM   13  C21 UNL     1      -8.458  46.151 -21.598  1.00  0.00     0.135 C 
HETATM   14  O1  UNL     1      -9.072  45.086 -21.531  1.00  0.00    -0.297 OA
HETATM   15  C22 UNL     1      -8.174  46.784 -22.938  1.00  0.00     0.080 C 
HETATM   16  C23 UNL     1      -6.686  47.042 -23.065  1.00  0.00     0.018 C 
HETATM   17  C24 UNL     1      -6.153  47.859 -21.903  1.00  0.00    -0.026 A 
HETATM   18  C25 UNL     1      -6.039  49.353 -22.024  1.00  0.00     0.021 A 
HETATM   19  C26 UNL     1      -4.766  48.510 -22.069  1.00  0.00    -0.027 A 
HETATM   20  C27 UNL     1      -4.038  48.516 -23.406  1.00  0.00     0.011 C 
HETATM   21  C28 UNL     1      -2.858  49.510 -23.470  1.00  0.00     0.011 C 
HETATM   22  C29 UNL     1      -2.317  49.959 -22.095  1.00  0.00    -0.032 C 
HETATM   23  C30 UNL     1      -3.128  51.201 -21.622  1.00  0.00     0.016 C 
ENDROOT
BRANCH   1  24
HETATM   24  C7  UNL     1      -0.285  51.691 -22.588  1.00  0.00    -0.014 C 
HETATM   25  C8  UNL     1       0.040  52.676 -21.460  1.00  0.00     0.010 C 
BRANCH  24  26
HETATM   26  C6  UNL     1      -1.345  52.304 -23.548  1.00  0.00     0.008 C 
BRANCH  26  27
HETATM   27  C5  UNL     1      -0.766  52.882 -24.846  1.00  0.00     0.028 C 
BRANCH  27  28
HETATM   28  C4  UNL     1       0.596  52.303 -25.125  1.00  0.00    -0.025 C 
HETATM   29  C2  UNL     1       1.045  51.729 -26.259  1.00  0.00    -0.091 C 
HETATM   30  C1  UNL     1       2.460  51.218 -26.349  1.00  0.00     0.042 C 
HETATM   31  C3  UNL     1       0.244  51.535 -27.517  1.00  0.00     0.042 C 
ENDBRANCH  27  28
ENDBRANCH  26  27
ENDBRANCH  24  26
ENDBRANCH   1  24
TORSDOF 4
ENDMDL
MODEL 9
REMARK minimizedAffinity -8.52711201
REMARK  4 active torsions:
REMARK  status: ('A' for Active; 'I' for Inactive)
REMARK    1  A    between atoms: C4_4  and  C5_5 
REMARK    2  A    between atoms: C5_5  and  C6_6 
REMARK    3  A    between atoms: C6_6  and  C7_7 
REMARK    4  A    between atoms: C7_7  and  C9_9 
ROOT
HETATM    1  C9  UNL     1      -4.204  48.405 -20.024  1.00  0.00    -0.002 C 
HETATM    2  C10 UNL     1      -4.683  47.326 -21.045  1.00  0.00     0.006 C 
HETATM    3  C11 UNL     1      -3.950  47.586 -22.376  1.00  0.00     0.011 C 
HETATM    4  C12 UNL     1      -2.828  48.575 -22.017  1.00  0.00    -0.032 C 
HETATM    5  C13 UNL     1      -1.677  47.692 -21.411  1.00  0.00     0.016 C 
HETATM    6  C14 UNL     1      -2.177  49.409 -23.171  1.00  0.00     0.004 C 
HETATM    7  C15 UNL     1      -2.935  49.429 -24.498  1.00  0.00     0.007 C 
HETATM    8  C16 UNL     1      -2.203  50.202 -25.608  1.00  0.00     0.007 C 
HETATM    9  C17 UNL     1      -0.889  50.914 -25.193  1.00  0.00     0.010 C 
HETATM   10  C18 UNL     1      -0.361  51.899 -26.289  1.00  0.00     0.018 C 
HETATM   11  C19 UNL     1      -0.004  51.127 -27.575  1.00  0.00     0.023 C 
HETATM   12  C20 UNL     1      -1.360  53.009 -26.660  1.00  0.00     0.023 C 
HETATM   13  C21 UNL     1       0.909  52.575 -25.751  1.00  0.00     0.135 C 
HETATM   14  O1  UNL     1       1.965  52.614 -26.383  1.00  0.00    -0.297 OA
HETATM   15  C22 UNL     1       0.799  53.256 -24.408  1.00  0.00     0.080 C 
HETATM   16  C23 UNL     1       0.320  52.256 -23.377  1.00  0.00     0.018 C 
HETATM   17  C24 UNL     1      -0.971  51.580 -23.801  1.00  0.00    -0.026 A 
HETATM   18  C25 UNL     1      -2.293  52.124 -23.336  1.00  0.00     0.021 A 
HETATM   19  C26 UNL     1      -1.769  50.828 -22.719  1.00  0.00    -0.027 A 
HETATM   20  C27 UNL     1      -1.403  50.919 -21.244  1.00  0.00     0.011 C 
HETATM   21  C28 UNL     1      -2.508  50.411 -20.294  1.00  0.00     0.011 C 
HETATM   22  C29 UNL     1      -3.551  49.483 -20.954  1.00  0.00    -0.032 C 
HETATM   23  C30 UNL     1      -4.692  50.360 -21.550  1.00  0.00     0.016 C 
ENDROOT
BRANCH   1  24
HETATM   24  C7  UNL     1      -5.326  48.803 -19.015  1.00  0.00    -0.014 C 
HETATM   25  C8  UNL     1      -4.896  48.572 -17.562  1.00  0.00     0.010 C 
BRANCH  24  26
HETATM   26  C6  UNL     1      -6.625  48.006 -19.325  1.00  0.00     0.008 C 
BRANCH  26  27
HETATM   27  C5  UNL     1      -7.687  48.800 -20.097  1.00  0.00     0.028 C 
BRANCH  27  28
HETATM   28  C4  UNL     1      -8.231  47.989 -21.243  1.00  0.00    -0.025 C 
HETATM   29  C2  UNL     1      -8.207  48.279 -22.559  1.00  0.00    -0.091 C 
HETATM   30  C1  UNL     1      -8.797  47.322 -23.563  1.00  0.00     0.042 C 
HETATM   31  C3  UNL     1      -7.621  49.522 -23.170  1.00  0.00     0.042 C 
ENDBRANCH  27  28
ENDBRANCH  26  27
ENDBRANCH  24  26
ENDBRANCH   1  24
TORSDOF 4
ENDMDL
