MODEL 1
REMARK minimizedAffinity -6.38421774
REMARK CNNscore 0.652472973
REMARK CNNaffinity 6.20420647
REMARK  12 active torsions:
REMARK  status: ('A' for Active; 'I' for Inactive)
REMARK    1  A    between atoms: O1_2  and  P1_3 
REMARK    2  A    between atoms: P1_3  and  O3_5 
REMARK    3  A    between atoms: P1_3  and  O4_6 
REMARK    4  A    between atoms: O4_6  and  C2_7 
REMARK    5  A    between atoms: C4_10  and  C5_11 
REMARK    6  A    between atoms: C5_11  and  C7_13 
REMARK    7  A    between atoms: C20_26  and  O6_27 
REMARK    8  A    between atoms: C21_28  and  O7_29 
REMARK    9  A    between atoms: C23_31  and  O8_32 
REMARK   10  A    between atoms: C24_33  and  O9_34 
REMARK   11  A    between atoms: O9_34  and  S1_35 
REMARK   12  A    between atoms: S1_35  and  O12_38 
ROOT
HETATM    1  C2  UNL     1       0.866  53.735  -6.363  1.00  0.00     0.168 C 
HETATM    2  C3  UNL     1       1.836  54.906  -6.097  1.00  0.00     0.157 C 
HETATM    3  O5  UNL     1       2.972  54.534  -5.332  1.00  0.00    -0.377 OA
HETATM    4  C4  UNL     1       4.067  55.464  -5.364  1.00  0.00     0.126 C 
HETATM    5  C10 UNL     1       3.670  56.842  -5.955  1.00  0.00     0.037 C 
HETATM    6  C11 UNL     1       2.936  56.775  -7.316  1.00  0.00    -0.009 C 
HETATM    7  C12 UNL     1       3.864  57.141  -8.475  1.00  0.00     0.010 C 
HETATM    8  C13 UNL     1       2.288  55.395  -7.480  1.00  0.00     0.030 C 
HETATM    9  C14 UNL     1       1.033  55.187  -8.357  1.00  0.00    -0.031 C 
HETATM   10  C15 UNL     1      -0.056  56.248  -8.083  1.00  0.00     0.016 C 
HETATM   11  C16 UNL     1       1.309  55.087  -9.862  1.00  0.00     0.010 C 
HETATM   12  C17 UNL     1       0.074  54.603 -10.644  1.00  0.00     0.007 C 
HETATM   13  C18 UNL     1      -0.597  53.326 -10.065  1.00  0.00     0.001 C 
HETATM   14  C19 UNL     1      -0.660  53.258  -8.508  1.00  0.00     0.029 C 
HETATM   15  C20 UNL     1      -0.974  51.805  -8.067  1.00  0.00     0.152 C 
HETATM   16  C21 UNL     1      -1.847  51.044  -9.089  1.00  0.00     0.154 C 
HETATM   17  C22 UNL     1      -2.835  52.014  -9.759  1.00  0.00     0.057 C 
HETATM   18  C23 UNL     1      -4.039  51.311 -10.426  1.00  0.00     0.156 C 
HETATM   19  C24 UNL     1      -3.682  50.639 -11.754  1.00  0.00     0.173 C 
HETATM   20  C25 UNL     1      -3.014  51.644 -12.699  1.00  0.00     0.037 C 
HETATM   21  C26 UNL     1      -1.777  52.294 -12.080  1.00  0.00     0.012 C 
HETATM   22  C27 UNL     1      -2.022  52.981 -10.703  1.00  0.00    -0.031 C 
HETATM   23  C28 UNL     1      -2.843  54.277 -10.923  1.00  0.00     0.016 C 
HETATM   24  C29 UNL     1       0.659  53.752  -7.894  1.00  0.00     0.033 C 
ENDROOT
BRANCH   1  25
HETATM   25  O4  UNL     1      -0.376  53.931  -5.703  1.00  0.00    -0.288 OA
BRANCH  25  26
HETATM   26  P1  UNL     1      -0.490  53.603  -4.132  1.00  0.00     0.393 P 
HETATM   27  O2  UNL     1      -1.555  52.605  -3.808  1.00  0.00    -0.631 OA
BRANCH  26  28
HETATM   28  O1  UNL     1      -0.621  55.007  -3.380  1.00  0.00    -0.302 OA
HETATM   29  C1  UNL     1      -1.926  55.384  -2.987  1.00  0.00     0.214 C 
ENDBRANCH  26  28
BRANCH  26  30
HETATM   30  O3  UNL     1       0.957  53.069  -3.701  1.00  0.00    -0.307 OA
HETATM   31  H4  UNL     1       0.861  52.352  -3.047  1.00  0.00     0.222 HD
ENDBRANCH  26  30
ENDBRANCH  25  26
ENDBRANCH   1  25
BRANCH   4  32
HETATM   32  C5  UNL     1       5.309  54.802  -6.037  1.00  0.00     0.014 C 
HETATM   33  C6  UNL     1       4.932  54.172  -7.389  1.00  0.00     0.013 C 
BRANCH  32  34
HETATM   34  C7  UNL     1       6.547  55.735  -6.232  1.00  0.00    -0.017 C 
HETATM   35  C8  UNL     1       6.366  57.106  -5.570  1.00  0.00     0.010 C 
HETATM   36  C9  UNL     1       6.971  55.902  -7.693  1.00  0.00     0.010 C 
ENDBRANCH  32  34
ENDBRANCH   4  32
BRANCH  15  37
HETATM   37  O6  UNL     1      -1.686  51.774  -6.822  1.00  0.00    -0.393 OA
HETATM   38  H36 UNL     1      -2.058  52.660  -6.643  1.00  0.00     0.210 HD
ENDBRANCH  15  37
BRANCH  16  39
HETATM   39  O7  UNL     1      -2.516  49.956  -8.426  1.00  0.00    -0.392 OA
HETATM   40  H38 UNL     1      -2.587  50.269  -7.494  1.00  0.00     0.210 HD
ENDBRANCH  16  39
BRANCH  18  41
HETATM   41  O8  UNL     1      -5.101  52.239 -10.659  1.00  0.00    -0.392 OA
HETATM   42  H41 UNL     1      -5.544  52.404  -9.809  1.00  0.00     0.210 HD
ENDBRANCH  18  41
BRANCH  19  43
HETATM   43  O9  UNL     1      -2.796  49.548 -11.530  1.00  0.00    -0.256 OA
BRANCH  43  44
HETATM   44  S1  UNL     1      -3.399  48.043 -11.431  1.00  0.00     0.240 S 
HETATM   45  O10 UNL     1      -2.476  47.115 -12.046  1.00  0.00    -0.579 OA
HETATM   46  O11 UNL     1      -3.881  47.842 -10.089  1.00  0.00    -0.579 OA
BRANCH  44  47
HETATM   47  O12 UNL     1      -4.672  48.130 -12.410  1.00  0.00    -0.274 OA
HETATM   48  H43 UNL     1      -4.365  48.472 -13.288  1.00  0.00     0.234 HD
ENDBRANCH  44  47
ENDBRANCH  43  44
ENDBRANCH  19  43
TORSDOF 12
ENDMDL
MODEL 2
REMARK minimizedAffinity -7.3508563
REMARK CNNscore 0.58077091
REMARK CNNaffinity 6.54388189
REMARK  12 active torsions:
REMARK  status: ('A' for Active; 'I' for Inactive)
REMARK    1  A    between atoms: O1_2  and  P1_3 
REMARK    2  A    between atoms: P1_3  and  O3_5 
REMARK    3  A    between atoms: P1_3  and  O4_6 
REMARK    4  A    between atoms: O4_6  and  C2_7 
REMARK    5  A    between atoms: C4_10  and  C5_11 
REMARK    6  A    between atoms: C5_11  and  C7_13 
REMARK    7  A    between atoms: C20_26  and  O6_27 
REMARK    8  A    between atoms: C21_28  and  O7_29 
REMARK    9  A    between atoms: C23_31  and  O8_32 
REMARK   10  A    between atoms: C24_33  and  O9_34 
REMARK   11  A    between atoms: O9_34  and  S1_35 
REMARK   12  A    between atoms: S1_35  and  O12_38 
ROOT
HETATM    1  C2  UNL     1       0.514  53.783  -7.340  1.00  0.00     0.168 C 
HETATM    2  C3  UNL     1       1.513  54.935  -7.581  1.00  0.00     0.157 C 
HETATM    3  O5  UNL     1       2.669  54.857  -6.761  1.00  0.00    -0.377 OA
HETATM    4  C4  UNL     1       3.779  55.667  -7.186  1.00  0.00     0.126 C 
HETATM    5  C10 UNL     1       3.385  56.714  -8.259  1.00  0.00     0.037 C 
HETATM    6  C11 UNL     1       2.602  56.142  -9.465  1.00  0.00    -0.009 C 
HETATM    7  C12 UNL     1       3.493  55.996 -10.699  1.00  0.00     0.010 C 
HETATM    8  C13 UNL     1       1.923  54.828  -9.057  1.00  0.00     0.030 C 
HETATM    9  C14 UNL     1       0.634  54.332  -9.748  1.00  0.00    -0.031 C 
HETATM   10  C15 UNL     1      -0.425  55.447  -9.885  1.00  0.00     0.016 C 
HETATM   11  C16 UNL     1       0.854  53.641 -11.101  1.00  0.00     0.010 C 
HETATM   12  C17 UNL     1      -0.416  52.927 -11.596  1.00  0.00     0.007 C 
HETATM   13  C18 UNL     1      -1.089  52.000 -10.545  1.00  0.00     0.001 C 
HETATM   14  C19 UNL     1      -1.096  52.550  -9.085  1.00  0.00     0.029 C 
HETATM   15  C20 UNL     1      -1.420  51.396  -8.101  1.00  0.00     0.152 C 
HETATM   16  C21 UNL     1      -2.342  50.323  -8.719  1.00  0.00     0.154 C 
HETATM   17  C22 UNL     1      -3.337  50.982  -9.690  1.00  0.00     0.057 C 
HETATM   18  C23 UNL     1      -4.577  50.111  -9.995  1.00  0.00     0.156 C 
HETATM   19  C24 UNL     1      -4.280  48.962 -10.961  1.00  0.00     0.173 C 
HETATM   20  C25 UNL     1      -3.629  49.495 -12.243  1.00  0.00     0.037 C 
HETATM   21  C26 UNL     1      -2.358  50.298 -11.962  1.00  0.00     0.012 C 
HETATM   22  C27 UNL     1      -2.542  51.476 -10.959  1.00  0.00    -0.031 C 
HETATM   23  C28 UNL     1      -3.347  52.606 -11.648  1.00  0.00     0.016 C 
HETATM   24  C29 UNL     1       0.252  53.205  -8.750  1.00  0.00     0.033 C 
ENDROOT
BRANCH   1  25
HETATM   25  O4  UNL     1      -0.700  54.260  -6.779  1.00  0.00    -0.288 OA
BRANCH  25  26
HETATM   26  P1  UNL     1      -0.786  54.506  -5.191  1.00  0.00     0.393 P 
HETATM   27  O2  UNL     1       0.306  53.833  -4.423  1.00  0.00    -0.631 OA
BRANCH  26  28
HETATM   28  O1  UNL     1      -2.271  54.115  -4.748  1.00  0.00    -0.302 OA
HETATM   29  C1  UNL     1      -2.689  54.590  -3.484  1.00  0.00     0.214 C 
ENDBRANCH  26  28
BRANCH  26  30
HETATM   30  O3  UNL     1      -0.735  56.096  -5.002  1.00  0.00    -0.307 OA
HETATM   31  H4  UNL     1      -0.216  56.315  -4.206  1.00  0.00     0.222 HD
ENDBRANCH  26  30
ENDBRANCH  25  26
ENDBRANCH   1  25
BRANCH   4  32
HETATM   32  C5  UNL     1       4.984  54.756  -7.577  1.00  0.00     0.014 C 
HETATM   33  C6  UNL     1       4.518  53.566  -8.433  1.00  0.00     0.013 C 
BRANCH  32  34
HETATM   34  C7  UNL     1       6.167  55.478  -8.299  1.00  0.00    -0.017 C 
HETATM   35  C8  UNL     1       6.536  54.823  -9.634  1.00  0.00     0.010 C 
HETATM   36  C9  UNL     1       7.413  55.646  -7.426  1.00  0.00     0.010 C 
ENDBRANCH  32  34
ENDBRANCH   4  32
BRANCH  15  37
HETATM   37  O6  UNL     1      -2.087  51.877  -6.926  1.00  0.00    -0.393 OA
HETATM   38  H36 UNL     1      -2.437  52.773  -7.100  1.00  0.00     0.210 HD
ENDBRANCH  15  37
BRANCH  16  39
HETATM   39  O7  UNL     1      -3.007  49.602  -7.665  1.00  0.00    -0.392 OA
HETATM   40  H38 UNL     1      -3.038  50.258  -6.929  1.00  0.00     0.210 HD
ENDBRANCH  16  39
BRANCH  18  41
HETATM   41  O8  UNL     1      -5.630  50.905 -10.546  1.00  0.00    -0.392 OA
HETATM   42  H41 UNL     1      -6.039  51.403  -9.818  1.00  0.00     0.210 HD
ENDBRANCH  18  41
BRANCH  19  43
HETATM   43  O9  UNL     1      -3.405  48.020 -10.351  1.00  0.00    -0.256 OA
BRANCH  43  44
HETATM   44  S1  UNL     1      -4.022  46.653  -9.726  1.00  0.00     0.240 S 
HETATM   45  O10 UNL     1      -5.423  46.556 -10.073  1.00  0.00    -0.579 OA
HETATM   46  O11 UNL     1      -3.105  45.579 -10.006  1.00  0.00    -0.579 OA
BRANCH  44  47
HETATM   47  O12 UNL     1      -3.968  46.955  -8.147  1.00  0.00    -0.274 OA
HETATM   48  H43 UNL     1      -4.429  47.816  -7.980  1.00  0.00     0.234 HD
ENDBRANCH  44  47
ENDBRANCH  43  44
ENDBRANCH  19  43
TORSDOF 12
ENDMDL
MODEL 3
REMARK minimizedAffinity -6.75972652
REMARK CNNscore 0.503962159
REMARK CNNaffinity 6.16233826
REMARK  12 active torsions:
REMARK  status: ('A' for Active; 'I' for Inactive)
REMARK    1  A    between atoms: O1_2  and  P1_3 
REMARK    2  A    between atoms: P1_3  and  O3_5 
REMARK    3  A    between atoms: P1_3  and  O4_6 
REMARK    4  A    between atoms: O4_6  and  C2_7 
REMARK    5  A    between atoms: C4_10  and  C5_11 
REMARK    6  A    between atoms: C5_11  and  C7_13 
REMARK    7  A    between atoms: C20_26  and  O6_27 
REMARK    8  A    between atoms: C21_28  and  O7_29 
REMARK    9  A    between atoms: C23_31  and  O8_32 
REMARK   10  A    between atoms: C24_33  and  O9_34 
REMARK   11  A    between atoms: O9_34  and  S1_35 
REMARK   12  A    between atoms: S1_35  and  O12_38 
ROOT
HETATM    1  C2  UNL     1      -7.303  48.203 -22.335  1.00  0.00     0.168 C 
HETATM    2  C3  UNL     1      -5.821  48.335 -22.746  1.00  0.00     0.157 C 
HETATM    3  O5  UNL     1      -5.460  49.652 -23.134  1.00  0.00    -0.377 OA
HETATM    4  C4  UNL     1      -4.048  49.917 -23.170  1.00  0.00     0.126 C 
HETATM    5  C10 UNL     1      -3.191  48.626 -23.102  1.00  0.00     0.037 C 
HETATM    6  C11 UNL     1      -3.562  47.663 -21.949  1.00  0.00    -0.009 C 
HETATM    7  C12 UNL     1      -2.563  47.751 -20.795  1.00  0.00     0.010 C 
HETATM    8  C13 UNL     1      -5.008  47.924 -21.510  1.00  0.00     0.030 C 
HETATM    9  C14 UNL     1      -5.874  46.817 -20.869  1.00  0.00    -0.031 C 
HETATM   10  C15 UNL     1      -5.797  45.486 -21.648  1.00  0.00     0.016 C 
HETATM   11  C16 UNL     1      -5.608  46.575 -19.377  1.00  0.00     0.010 C 
HETATM   12  C17 UNL     1      -6.682  45.675 -18.739  1.00  0.00     0.007 C 
HETATM   13  C18 UNL     1      -8.146  46.109 -19.030  1.00  0.00     0.001 C 
HETATM   14  C19 UNL     1      -8.408  46.625 -20.479  1.00  0.00     0.029 C 
HETATM   15  C20 UNL     1      -9.762  47.380 -20.520  1.00  0.00     0.152 C 
HETATM   16  C21 UNL     1     -10.787  46.829 -19.506  1.00  0.00     0.154 C 
HETATM   17  C22 UNL     1     -10.610  45.307 -19.355  1.00  0.00     0.057 C 
HETATM   18  C23 UNL     1     -11.843  44.595 -18.754  1.00  0.00     0.156 C 
HETATM   19  C24 UNL     1     -11.979  44.804 -17.244  1.00  0.00     0.173 C 
HETATM   20  C25 UNL     1     -10.683  44.402 -16.529  1.00  0.00     0.037 C 
HETATM   21  C26 UNL     1      -9.464  45.153 -17.065  1.00  0.00     0.012 C 
HETATM   22  C27 UNL     1      -9.251  45.036 -18.603  1.00  0.00    -0.031 C 
HETATM   23  C28 UNL     1      -8.769  43.602 -18.939  1.00  0.00     0.016 C 
HETATM   24  C29 UNL     1      -7.255  47.525 -20.947  1.00  0.00     0.033 C 
ENDROOT
BRANCH   1  25
HETATM   25  O4  UNL     1      -8.022  47.388 -23.248  1.00  0.00    -0.288 OA
BRANCH  25  26
HETATM   26  P1  UNL     1      -8.568  48.035 -24.617  1.00  0.00     0.393 P 
HETATM   27  O2  UNL     1     -10.038  47.850 -24.819  1.00  0.00    -0.631 OA
BRANCH  26  28
HETATM   28  O1  UNL     1      -7.643  47.469 -25.791  1.00  0.00    -0.302 OA
HETATM   29  C1  UNL     1      -7.993  46.199 -26.303  1.00  0.00     0.214 C 
ENDBRANCH  26  28
BRANCH  26  30
HETATM   30  O3  UNL     1      -8.183  49.588 -24.538  1.00  0.00    -0.307 OA
HETATM   31  H4  UNL     1      -8.897  50.124 -24.930  1.00  0.00     0.222 HD
ENDBRANCH  26  30
ENDBRANCH  25  26
ENDBRANCH   1  25
BRANCH   4  32
HETATM   32  C5  UNL     1      -3.681  50.998 -22.106  1.00  0.00     0.014 C 
HETATM   33  C6  UNL     1      -4.637  50.932 -20.903  1.00  0.00     0.013 C 
BRANCH  32  34
HETATM   34  C7  UNL     1      -2.206  50.963 -21.592  1.00  0.00    -0.017 C 
HETATM   35  C8  UNL     1      -2.087  51.310 -20.104  1.00  0.00     0.010 C 
HETATM   36  C9  UNL     1      -1.245  51.822 -22.417  1.00  0.00     0.010 C 
ENDBRANCH  32  34
ENDBRANCH   4  32
BRANCH  15  37
HETATM   37  O6  UNL     1     -10.378  47.286 -21.812  1.00  0.00    -0.393 OA
HETATM   38  H36 UNL     1      -9.964  46.557 -22.314  1.00  0.00     0.210 HD
ENDBRANCH  15  37
BRANCH  16  39
HETATM   39  O7  UNL     1     -12.116  47.183 -19.931  1.00  0.00    -0.392 OA
HETATM   40  H38 UNL     1     -12.025  47.262 -20.910  1.00  0.00     0.210 HD
ENDBRANCH  16  39
BRANCH  18  41
HETATM   41  O8  UNL     1     -11.793  43.191 -19.014  1.00  0.00    -0.392 OA
HETATM   42  H41 UNL     1     -12.045  43.051 -19.943  1.00  0.00     0.210 HD
ENDBRANCH  18  41
BRANCH  19  43
HETATM   43  O9  UNL     1     -12.264  46.169 -16.960  1.00  0.00    -0.256 OA
BRANCH  43  44
HETATM   44  S1  UNL     1     -13.803  46.622 -16.701  1.00  0.00     0.240 S 
HETATM   45  O10 UNL     1     -14.140  46.404 -15.312  1.00  0.00    -0.579 OA
HETATM   46  O11 UNL     1     -14.004  47.901 -17.329  1.00  0.00    -0.579 OA
BRANCH  44  47
HETATM   47  O12 UNL     1     -14.619  45.520 -17.542  1.00  0.00    -0.274 OA
HETATM   48  H43 UNL     1     -14.322  44.622 -17.247  1.00  0.00     0.234 HD
ENDBRANCH  44  47
ENDBRANCH  43  44
ENDBRANCH  19  43
TORSDOF 12
ENDMDL
MODEL 4
REMARK minimizedAffinity -6.25052261
REMARK CNNscore 0.459294409
REMARK CNNaffinity 6.19273615
REMARK  12 active torsions:
REMARK  status: ('A' for Active; 'I' for Inactive)
REMARK    1  A    between atoms: O1_2  and  P1_3 
REMARK    2  A    between atoms: P1_3  and  O3_5 
REMARK    3  A    between atoms: P1_3  and  O4_6 
REMARK    4  A    between atoms: O4_6  and  C2_7 
REMARK    5  A    between atoms: C4_10  and  C5_11 
REMARK    6  A    between atoms: C5_11  and  C7_13 
REMARK    7  A    between atoms: C20_26  and  O6_27 
REMARK    8  A    between atoms: C21_28  and  O7_29 
REMARK    9  A    between atoms: C23_31  and  O8_32 
REMARK   10  A    between atoms: C24_33  and  O9_34 
REMARK   11  A    between atoms: O9_34  and  S1_35 
REMARK   12  A    between atoms: S1_35  and  O12_38 
ROOT
HETATM    1  C2  UNL     1     -10.517  45.984 -21.684  1.00  0.00     0.168 C 
HETATM    2  C3  UNL     1      -9.286  46.472 -20.891  1.00  0.00     0.157 C 
HETATM    3  O5  UNL     1      -8.253  46.988 -21.716  1.00  0.00    -0.377 OA
HETATM    4  C4  UNL     1      -7.262  47.779 -21.038  1.00  0.00     0.126 C 
HETATM    5  C10 UNL     1      -7.330  47.637 -19.496  1.00  0.00     0.037 C 
HETATM    6  C11 UNL     1      -8.738  47.843 -18.888  1.00  0.00    -0.009 C 
HETATM    7  C12 UNL     1      -8.876  49.220 -18.236  1.00  0.00     0.010 C 
HETATM    8  C13 UNL     1      -9.802  47.580 -19.962  1.00  0.00     0.030 C 
HETATM    9  C14 UNL     1     -11.224  47.102 -19.595  1.00  0.00    -0.031 C 
HETATM   10  C15 UNL     1     -11.208  45.940 -18.578  1.00  0.00     0.016 C 
HETATM   11  C16 UNL     1     -12.173  48.210 -19.119  1.00  0.00     0.010 C 
HETATM   12  C17 UNL     1     -13.632  47.726 -19.044  1.00  0.00     0.007 C 
HETATM   13  C18 UNL     1     -14.140  47.001 -20.322  1.00  0.00     0.001 C 
HETATM   14  C19 UNL     1     -13.103  46.056 -21.003  1.00  0.00     0.029 C 
HETATM   15  C20 UNL     1     -13.579  45.719 -22.441  1.00  0.00     0.152 C 
HETATM   16  C21 UNL     1     -15.117  45.699 -22.574  1.00  0.00     0.154 C 
HETATM   17  C22 UNL     1     -15.749  45.176 -21.272  1.00  0.00     0.057 C 
HETATM   18  C23 UNL     1     -17.201  44.676 -21.445  1.00  0.00     0.156 C 
HETATM   19  C24 UNL     1     -18.217  45.814 -21.569  1.00  0.00     0.173 C 
HETATM   20  C25 UNL     1     -18.084  46.781 -20.387  1.00  0.00     0.037 C 
HETATM   21  C26 UNL     1     -16.668  47.342 -20.248  1.00  0.00     0.012 C 
HETATM   22  C27 UNL     1     -15.548  46.264 -20.148  1.00  0.00    -0.031 C 
HETATM   23  C28 UNL     1     -15.630  45.576 -18.762  1.00  0.00     0.016 C 
HETATM   24  C29 UNL     1     -11.710  46.704 -21.016  1.00  0.00     0.033 C 
ENDROOT
BRANCH   1  25
HETATM   25  O4  UNL     1     -10.677  44.577 -21.578  1.00  0.00    -0.288 OA
BRANCH  25  26
HETATM   26  P1  UNL     1     -10.098  43.631 -22.743  1.00  0.00     0.393 P 
HETATM   27  O2  UNL     1     -10.888  42.378 -22.941  1.00  0.00    -0.631 OA
BRANCH  26  28
HETATM   28  O1  UNL     1      -8.546  43.415 -22.429  1.00  0.00    -0.302 OA
HETATM   29  C1  UNL     1      -7.640  43.940 -23.379  1.00  0.00     0.214 C 
ENDBRANCH  26  28
BRANCH  26  30
HETATM   30  O3  UNL     1     -10.100  44.534 -24.066  1.00  0.00    -0.307 OA
HETATM   31  H4  UNL     1     -10.345  43.988 -24.837  1.00  0.00     0.222 HD
ENDBRANCH  26  30
ENDBRANCH  25  26
ENDBRANCH   1  25
BRANCH   4  32
HETATM   32  C5  UNL     1      -7.306  49.249 -21.559  1.00  0.00     0.014 C 
HETATM   33  C6  UNL     1      -6.444  50.170 -20.678  1.00  0.00     0.013 C 
BRANCH  32  34
HETATM   34  C7  UNL     1      -6.904  49.445 -23.056  1.00  0.00    -0.017 C 
HETATM   35  C8  UNL     1      -8.074  49.218 -24.019  1.00  0.00     0.010 C 
HETATM   36  C9  UNL     1      -5.694  48.612 -23.485  1.00  0.00     0.010 C 
ENDBRANCH  32  34
ENDBRANCH   4  32
BRANCH  15  37
HETATM   37  O6  UNL     1     -13.118  44.428 -22.859  1.00  0.00    -0.393 OA
HETATM   38  H36 UNL     1     -12.833  43.918 -22.076  1.00  0.00     0.210 HD
ENDBRANCH  15  37
BRANCH  16  39
HETATM   39  O7  UNL     1     -15.485  44.905 -23.716  1.00  0.00    -0.392 OA
HETATM   40  H38 UNL     1     -14.735  44.270 -23.800  1.00  0.00     0.210 HD
ENDBRANCH  16  39
BRANCH  18  41
HETATM   41  O8  UNL     1     -17.584  43.845 -20.346  1.00  0.00    -0.392 OA
HETATM   42  H41 UNL     1     -17.167  42.976 -20.472  1.00  0.00     0.210 HD
ENDBRANCH  18  41
BRANCH  19  43
HETATM   43  O9  UNL     1     -18.009  46.528 -22.782  1.00  0.00    -0.256 OA
BRANCH  43  44
HETATM   44  S1  UNL     1     -18.948  46.201 -24.067  1.00  0.00     0.240 S 
HETATM   45  O10 UNL     1     -20.037  45.341 -23.660  1.00  0.00    -0.579 OA
HETATM   46  O11 UNL     1     -19.189  47.433 -24.771  1.00  0.00    -0.579 OA
BRANCH  44  47
HETATM   47  O12 UNL     1     -17.971  45.295 -24.969  1.00  0.00    -0.274 OA
HETATM   48  H43 UNL     1     -17.636  44.548 -24.411  1.00  0.00     0.234 HD
ENDBRANCH  44  47
ENDBRANCH  43  44
ENDBRANCH  19  43
TORSDOF 12
ENDMDL
MODEL 5
REMARK minimizedAffinity -6.52316856
REMARK CNNscore 0.33867687
REMARK CNNaffinity 5.90484381
REMARK  12 active torsions:
REMARK  status: ('A' for Active; 'I' for Inactive)
REMARK    1  A    between atoms: O1_2  and  P1_3 
REMARK    2  A    between atoms: P1_3  and  O3_5 
REMARK    3  A    between atoms: P1_3  and  O4_6 
REMARK    4  A    between atoms: O4_6  and  C2_7 
REMARK    5  A    between atoms: C4_10  and  C5_11 
REMARK    6  A    between atoms: C5_11  and  C7_13 
REMARK    7  A    between atoms: C20_26  and  O6_27 
REMARK    8  A    between atoms: C21_28  and  O7_29 
REMARK    9  A    between atoms: C23_31  and  O8_32 
REMARK   10  A    between atoms: C24_33  and  O9_34 
REMARK   11  A    between atoms: O9_34  and  S1_35 
REMARK   12  A    between atoms: S1_35  and  O12_38 
ROOT
HETATM    1  C2  UNL     1       1.040  50.460 -10.687  1.00  0.00     0.168 C 
HETATM    2  C3  UNL     1      -0.313  50.299 -11.412  1.00  0.00     0.157 C 
HETATM    3  O5  UNL     1      -1.067  49.187 -10.956  1.00  0.00    -0.377 OA
HETATM    4  C4  UNL     1      -2.458  49.197 -11.318  1.00  0.00     0.126 C 
HETATM    5  C10 UNL     1      -2.789  50.245 -12.412  1.00  0.00     0.037 C 
HETATM    6  C11 UNL     1      -2.263  51.671 -12.121  1.00  0.00    -0.009 C 
HETATM    7  C12 UNL     1      -3.383  52.599 -11.645  1.00  0.00     0.010 C 
HETATM    8  C13 UNL     1      -1.090  51.594 -11.136  1.00  0.00     0.030 C 
HETATM    9  C14 UNL     1       0.016  52.672 -11.104  1.00  0.00    -0.031 C 
HETATM   10  C15 UNL     1       0.540  53.016 -12.516  1.00  0.00     0.016 C 
HETATM   11  C16 UNL     1      -0.357  53.955 -10.350  1.00  0.00     0.010 C 
HETATM   12  C17 UNL     1       0.865  54.859 -10.112  1.00  0.00     0.007 C 
HETATM   13  C18 UNL     1       2.098  54.134  -9.502  1.00  0.00     0.001 C 
HETATM   14  C19 UNL     1       2.362  52.699 -10.053  1.00  0.00     0.029 C 
HETATM   15  C20 UNL     1       3.340  51.955  -9.108  1.00  0.00     0.152 C 
HETATM   16  C21 UNL     1       4.337  52.905  -8.409  1.00  0.00     0.154 C 
HETATM   17  C22 UNL     1       4.705  54.065  -9.351  1.00  0.00     0.057 C 
HETATM   18  C23 UNL     1       6.011  54.792  -8.960  1.00  0.00     0.156 C 
HETATM   19  C24 UNL     1       5.842  55.724  -7.758  1.00  0.00     0.173 C 
HETATM   20  C25 UNL     1       4.692  56.708  -8.001  1.00  0.00     0.037 C 
HETATM   21  C26 UNL     1       3.374  56.000  -8.317  1.00  0.00     0.012 C 
HETATM   22  C27 UNL     1       3.443  54.998  -9.508  1.00  0.00    -0.031 C 
HETATM   23  C28 UNL     1       3.568  55.793 -10.832  1.00  0.00     0.016 C 
HETATM   24  C29 UNL     1       1.041  51.929 -10.205  1.00  0.00     0.033 C 
ENDROOT
BRANCH   1  25
HETATM   25  O4  UNL     1       2.130  50.240 -11.570  1.00  0.00    -0.288 OA
BRANCH  25  26
HETATM   26  P1  UNL     1       2.713  48.750 -11.739  1.00  0.00     0.393 P 
HETATM   27  O2  UNL     1       3.179  48.142 -10.455  1.00  0.00    -0.631 OA
BRANCH  26  28
HETATM   28  O1  UNL     1       3.811  48.817 -12.898  1.00  0.00    -0.302 OA
HETATM   29  C1  UNL     1       3.923  50.052 -13.578  1.00  0.00     0.214 C 
ENDBRANCH  26  28
BRANCH  26  30
HETATM   30  O3  UNL     1       1.522  47.896 -12.388  1.00  0.00    -0.307 OA
HETATM   31  H4  UNL     1       1.518  46.997 -12.009  1.00  0.00     0.222 HD
ENDBRANCH  26  30
ENDBRANCH  25  26
ENDBRANCH   1  25
BRANCH   4  32
HETATM   32  C5  UNL     1      -3.342  49.295 -10.035  1.00  0.00     0.014 C 
HETATM   33  C6  UNL     1      -3.175  50.665  -9.357  1.00  0.00     0.013 C 
BRANCH  32  34
HETATM   34  C7  UNL     1      -4.863  49.005 -10.243  1.00  0.00    -0.017 C 
HETATM   35  C8  UNL     1      -5.140  48.147 -11.483  1.00  0.00     0.010 C 
HETATM   36  C9  UNL     1      -5.735  50.262 -10.260  1.00  0.00     0.010 C 
ENDBRANCH  32  34
ENDBRANCH   4  32
BRANCH  15  37
HETATM   37  O6  UNL     1       4.128  50.990  -9.818  1.00  0.00    -0.393 OA
HETATM   38  H36 UNL     1       4.083  51.180 -10.775  1.00  0.00     0.210 HD
ENDBRANCH  15  37
BRANCH  16  39
HETATM   39  O7  UNL     1       5.493  52.157  -7.990  1.00  0.00    -0.392 OA
HETATM   40  H38 UNL     1       5.522  51.409  -8.632  1.00  0.00     0.210 HD
ENDBRANCH  16  39
BRANCH  18  41
HETATM   41  O8  UNL     1       6.512  55.557 -10.059  1.00  0.00    -0.392 OA
HETATM   42  H41 UNL     1       6.929  54.941 -10.685  1.00  0.00     0.210 HD
ENDBRANCH  18  41
BRANCH  19  43
HETATM   43  O9  UNL     1       5.568  54.967  -6.584  1.00  0.00    -0.256 OA
BRANCH  43  44
HETATM   44  S1  UNL     1       6.796  54.537  -5.612  1.00  0.00     0.240 S 
HETATM   45  O10 UNL     1       6.942  53.098  -5.630  1.00  0.00    -0.579 OA
HETATM   46  O11 UNL     1       7.910  55.406  -5.889  1.00  0.00    -0.579 OA
BRANCH  44  47
HETATM   47  O12 UNL     1       6.219  54.915  -4.160  1.00  0.00    -0.274 OA
HETATM   48  H43 UNL     1       5.338  54.474  -4.052  1.00  0.00     0.234 HD
ENDBRANCH  44  47
ENDBRANCH  43  44
ENDBRANCH  19  43
TORSDOF 12
ENDMDL
MODEL 6
REMARK minimizedAffinity -6.32098389
REMARK CNNscore 0.332192898
REMARK CNNaffinity 6.23906517
REMARK  12 active torsions:
REMARK  status: ('A' for Active; 'I' for Inactive)
REMARK    1  A    between atoms: O1_2  and  P1_3 
REMARK    2  A    between atoms: P1_3  and  O3_5 
REMARK    3  A    between atoms: P1_3  and  O4_6 
REMARK    4  A    between atoms: O4_6  and  C2_7 
REMARK    5  A    between atoms: C4_10  and  C5_11 
REMARK    6  A    between atoms: C5_11  and  C7_13 
REMARK    7  A    between atoms: C20_26  and  O6_27 
REMARK    8  A    between atoms: C21_28  and  O7_29 
REMARK    9  A    between atoms: C23_31  and  O8_32 
REMARK   10  A    between atoms: C24_33  and  O9_34 
REMARK   11  A    between atoms: O9_34  and  S1_35 
REMARK   12  A    between atoms: S1_35  and  O12_38 
ROOT
HETATM    1  C2  UNL     1     -17.288  44.869 -23.731  1.00  0.00     0.168 C 
HETATM    2  C3  UNL     1     -17.828  45.640 -22.507  1.00  0.00     0.157 C 
HETATM    3  O5  UNL     1     -18.923  44.996 -21.875  1.00  0.00    -0.377 OA
HETATM    4  C4  UNL     1     -19.225  45.458 -20.547  1.00  0.00     0.126 C 
HETATM    5  C10 UNL     1     -18.512  46.789 -20.196  1.00  0.00     0.037 C 
HETATM    6  C11 UNL     1     -16.989  46.800 -20.472  1.00  0.00    -0.009 C 
HETATM    7  C12 UNL     1     -16.181  46.643 -19.183  1.00  0.00     0.010 C 
HETATM    8  C13 UNL     1     -16.652  45.735 -21.524  1.00  0.00     0.030 C 
HETATM    9  C14 UNL     1     -15.425  45.870 -22.451  1.00  0.00    -0.031 C 
HETATM   10  C15 UNL     1     -15.314  47.278 -23.077  1.00  0.00     0.016 C 
HETATM   11  C16 UNL     1     -14.089  45.468 -21.813  1.00  0.00     0.010 C 
HETATM   12  C17 UNL     1     -12.962  45.354 -22.856  1.00  0.00     0.007 C 
HETATM   13  C18 UNL     1     -13.321  44.497 -24.103  1.00  0.00     0.001 C 
HETATM   14  C19 UNL     1     -14.777  44.675 -24.633  1.00  0.00     0.029 C 
HETATM   15  C20 UNL     1     -15.122  43.508 -25.595  1.00  0.00     0.152 C 
HETATM   16  C21 UNL     1     -13.890  42.976 -26.357  1.00  0.00     0.154 C 
HETATM   17  C22 UNL     1     -12.919  44.131 -26.658  1.00  0.00     0.057 C 
HETATM   18  C23 UNL     1     -11.916  43.820 -27.792  1.00  0.00     0.156 C 
HETATM   19  C24 UNL     1     -10.786  42.886 -27.354  1.00  0.00     0.173 C 
HETATM   20  C25 UNL     1     -10.085  43.441 -26.109  1.00  0.00     0.037 C 
HETATM   21  C26 UNL     1     -11.055  43.685 -24.952  1.00  0.00     0.012 C 
HETATM   22  C27 UNL     1     -12.267  44.600 -25.301  1.00  0.00    -0.031 C 
HETATM   23  C28 UNL     1     -11.770  46.059 -25.459  1.00  0.00     0.016 C 
HETATM   24  C29 UNL     1     -15.771  44.745 -23.464  1.00  0.00     0.033 C 
ENDROOT
BRANCH   1  25
HETATM   25  O4  UNL     1     -17.511  45.588 -24.935  1.00  0.00    -0.288 OA
BRANCH  25  26
HETATM   26  P1  UNL     1     -18.968  45.544 -25.617  1.00  0.00     0.393 P 
HETATM   27  O2  UNL     1     -19.831  46.710 -25.257  1.00  0.00    -0.631 OA
BRANCH  26  28
HETATM   28  O1  UNL     1     -19.587  44.109 -25.280  1.00  0.00    -0.302 OA
HETATM   29  C1  UNL     1     -19.511  43.142 -26.308  1.00  0.00     0.214 C 
ENDBRANCH  26  28
BRANCH  26  30
HETATM   30  O3  UNL     1     -18.699  45.485 -27.195  1.00  0.00    -0.307 OA
HETATM   31  H4  UNL     1     -19.370  46.016 -27.663  1.00  0.00     0.222 HD
ENDBRANCH  26  30
ENDBRANCH  25  26
ENDBRANCH   1  25
BRANCH   4  32
HETATM   32  C5  UNL     1     -18.999  44.307 -19.519  1.00  0.00     0.014 C 
HETATM   33  C6  UNL     1     -19.765  44.578 -18.213  1.00  0.00     0.013 C 
BRANCH  32  34
HETATM   34  C7  UNL     1     -19.343  42.871 -20.029  1.00  0.00    -0.017 C 
HETATM   35  C8  UNL     1     -20.669  42.345 -19.470  1.00  0.00     0.010 C 
HETATM   36  C9  UNL     1     -18.226  41.850 -19.799  1.00  0.00     0.010 C 
ENDBRANCH  32  34
ENDBRANCH   4  32
BRANCH  15  37
HETATM   37  O6  UNL     1     -16.074  43.910 -26.590  1.00  0.00    -0.393 OA
HETATM   38  H36 UNL     1     -16.107  44.885 -26.627  1.00  0.00     0.210 HD
ENDBRANCH  15  37
BRANCH  16  39
HETATM   39  O7  UNL     1     -14.324  42.304 -27.554  1.00  0.00    -0.392 OA
HETATM   40  H38 UNL     1     -15.179  42.749 -27.764  1.00  0.00     0.210 HD
ENDBRANCH  16  39
BRANCH  18  41
HETATM   41  O8  UNL     1     -11.337  45.025 -28.299  1.00  0.00    -0.392 OA
HETATM   42  H41 UNL     1     -11.997  45.454 -28.869  1.00  0.00     0.210 HD
ENDBRANCH  18  41
BRANCH  19  43
HETATM   43  O9  UNL     1     -11.303  41.593 -27.060  1.00  0.00    -0.256 OA
BRANCH  43  44
HETATM   44  S1  UNL     1     -11.339  40.468 -28.231  1.00  0.00     0.240 S 
HETATM   45  O10 UNL     1     -12.704  40.040 -28.444  1.00  0.00    -0.579 OA
HETATM   46  O11 UNL     1     -10.520  40.930 -29.321  1.00  0.00    -0.579 OA
BRANCH  44  47
HETATM   47  O12 UNL     1     -10.583  39.234 -27.530  1.00  0.00    -0.274 OA
HETATM   48  H43 UNL     1     -11.029  39.047 -26.665  1.00  0.00     0.234 HD
ENDBRANCH  44  47
ENDBRANCH  43  44
ENDBRANCH  19  43
TORSDOF 12
ENDMDL
MODEL 7
REMARK minimizedAffinity -7.47136545
REMARK CNNscore 0.295279562
REMARK CNNaffinity 5.94911909
REMARK  12 active torsions:
REMARK  status: ('A' for Active; 'I' for Inactive)
REMARK    1  A    between atoms: O1_2  and  P1_3 
REMARK    2  A    between atoms: P1_3  and  O3_5 
REMARK    3  A    between atoms: P1_3  and  O4_6 
REMARK    4  A    between atoms: O4_6  and  C2_7 
REMARK    5  A    between atoms: C4_10  and  C5_11 
REMARK    6  A    between atoms: C5_11  and  C7_13 
REMARK    7  A    between atoms: C20_26  and  O6_27 
REMARK    8  A    between atoms: C21_28  and  O7_29 
REMARK    9  A    between atoms: C23_31  and  O8_32 
REMARK   10  A    between atoms: C24_33  and  O9_34 
REMARK   11  A    between atoms: O9_34  and  S1_35 
REMARK   12  A    between atoms: S1_35  and  O12_38 
ROOT
HETATM    1  C2  UNL     1     -16.219  45.329 -26.549  1.00  0.00     0.168 C 
HETATM    2  C3  UNL     1     -17.172  44.115 -26.502  1.00  0.00     0.157 C 
HETATM    3  O5  UNL     1     -18.462  44.392 -27.024  1.00  0.00    -0.377 OA
HETATM    4  C4  UNL     1     -19.257  43.238 -27.344  1.00  0.00     0.126 C 
HETATM    5  C10 UNL     1     -18.682  41.927 -26.749  1.00  0.00     0.037 C 
HETATM    6  C11 UNL     1     -17.182  41.686 -27.042  1.00  0.00    -0.009 C 
HETATM    7  C12 UNL     1     -16.982  40.647 -28.145  1.00  0.00     0.010 C 
HETATM    8  C13 UNL     1     -16.500  43.025 -27.350  1.00  0.00     0.030 C 
HETATM    9  C14 UNL     1     -14.995  43.249 -27.085  1.00  0.00    -0.031 C 
HETATM   10  C15 UNL     1     -14.564  42.751 -25.688  1.00  0.00     0.016 C 
HETATM   11  C16 UNL     1     -14.060  42.680 -28.161  1.00  0.00     0.010 C 
HETATM   12  C17 UNL     1     -12.613  43.176 -27.989  1.00  0.00     0.007 C 
HETATM   13  C18 UNL     1     -12.473  44.715 -27.817  1.00  0.00     0.001 C 
HETATM   14  C19 UNL     1     -13.573  45.386 -26.937  1.00  0.00     0.029 C 
HETATM   15  C20 UNL     1     -13.554  46.919 -27.169  1.00  0.00     0.152 C 
HETATM   16  C21 UNL     1     -12.147  47.457 -27.508  1.00  0.00     0.154 C 
HETATM   17  C22 UNL     1     -11.080  46.649 -26.749  1.00  0.00     0.057 C 
HETATM   18  C23 UNL     1      -9.718  47.371 -26.638  1.00  0.00     0.156 C 
HETATM   19  C24 UNL     1      -8.917  47.346 -27.942  1.00  0.00     0.173 C 
HETATM   20  C25 UNL     1      -8.759  45.907 -28.446  1.00  0.00     0.037 C 
HETATM   21  C26 UNL     1     -10.104  45.203 -28.632  1.00  0.00     0.012 C 
HETATM   22  C27 UNL     1     -11.017  45.200 -27.369  1.00  0.00    -0.031 C 
HETATM   23  C28 UNL     1     -10.424  44.229 -26.318  1.00  0.00     0.016 C 
HETATM   24  C29 UNL     1     -14.954  44.792 -27.255  1.00  0.00     0.033 C 
ENDROOT
BRANCH   1  25
HETATM   25  O4  UNL     1     -15.892  45.780 -25.243  1.00  0.00    -0.288 OA
BRANCH  25  26
HETATM   26  P1  UNL     1     -17.074  46.229 -24.249  1.00  0.00     0.393 P 
HETATM   27  O2  UNL     1     -17.940  47.314 -24.803  1.00  0.00    -0.631 OA
BRANCH  26  28
HETATM   28  O1  UNL     1     -16.388  46.557 -22.842  1.00  0.00    -0.302 OA
HETATM   29  C1  UNL     1     -15.157  47.250 -22.897  1.00  0.00     0.214 C 
ENDBRANCH  26  28
BRANCH  26  30
HETATM   30  O3  UNL     1     -17.920  44.899 -23.963  1.00  0.00    -0.307 OA
HETATM   31  H4  UNL     1     -18.869  45.118 -23.910  1.00  0.00     0.222 HD
ENDBRANCH  26  30
ENDBRANCH  25  26
ENDBRANCH   1  25
BRANCH   4  32
HETATM   32  C5  UNL     1     -19.533  43.189 -28.879  1.00  0.00     0.014 C 
HETATM   33  C6  UNL     1     -18.280  43.591 -29.675  1.00  0.00     0.013 C 
BRANCH  32  34
HETATM   34  C7  UNL     1     -20.073  41.828 -29.423  1.00  0.00    -0.017 C 
HETATM   35  C8  UNL     1     -19.493  41.465 -30.794  1.00  0.00     0.010 C 
HETATM   36  C9  UNL     1     -21.601  41.737 -29.450  1.00  0.00     0.010 C 
ENDBRANCH  32  34
ENDBRANCH   4  32
BRANCH  15  37
HETATM   37  O6  UNL     1     -13.992  47.633 -26.004  1.00  0.00    -0.393 OA
HETATM   38  H36 UNL     1     -13.956  47.038 -25.230  1.00  0.00     0.210 HD
ENDBRANCH  15  37
BRANCH  16  39
HETATM   39  O7  UNL     1     -12.087  48.862 -27.201  1.00  0.00    -0.392 OA
HETATM   40  H38 UNL     1     -12.756  48.964 -26.483  1.00  0.00     0.210 HD
ENDBRANCH  16  39
BRANCH  18  41
HETATM   41  O8  UNL     1      -8.920  46.788 -25.605  1.00  0.00    -0.392 OA
HETATM   42  H41 UNL     1      -9.264  47.100 -24.751  1.00  0.00     0.210 HD
ENDBRANCH  18  41
BRANCH  19  43
HETATM   43  O9  UNL     1      -9.576  48.120 -28.938  1.00  0.00    -0.256 OA
BRANCH  43  44
HETATM   44  S1  UNL     1      -8.736  48.627 -30.233  1.00  0.00     0.240 S 
HETATM   45  O10 UNL     1      -7.321  48.478 -29.976  1.00  0.00    -0.579 OA
HETATM   46  O11 UNL     1      -9.347  48.067 -31.410  1.00  0.00    -0.579 OA
BRANCH  44  47
HETATM   47  O12 UNL     1      -9.033  50.208 -30.223  1.00  0.00    -0.274 OA
HETATM   48  H43 UNL     1      -8.801  50.561 -29.326  1.00  0.00     0.234 HD
ENDBRANCH  44  47
ENDBRANCH  43  44
ENDBRANCH  19  43
TORSDOF 12
ENDMDL
MODEL 8
REMARK minimizedAffinity -8.09702778
REMARK CNNscore 0.278969616
REMARK CNNaffinity 6.04706812
REMARK  12 active torsions:
REMARK  status: ('A' for Active; 'I' for Inactive)
REMARK    1  A    between atoms: O1_2  and  P1_3 
REMARK    2  A    between atoms: P1_3  and  O3_5 
REMARK    3  A    between atoms: P1_3  and  O4_6 
REMARK    4  A    between atoms: O4_6  and  C2_7 
REMARK    5  A    between atoms: C4_10  and  C5_11 
REMARK    6  A    between atoms: C5_11  and  C7_13 
REMARK    7  A    between atoms: C20_26  and  O6_27 
REMARK    8  A    between atoms: C21_28  and  O7_29 
REMARK    9  A    between atoms: C23_31  and  O8_32 
REMARK   10  A    between atoms: C24_33  and  O9_34 
REMARK   11  A    between atoms: O9_34  and  S1_35 
REMARK   12  A    between atoms: S1_35  and  O12_38 
ROOT
HETATM    1  C2  UNL     1      -2.790  49.793 -20.337  1.00  0.00     0.168 C 
HETATM    2  C3  UNL     1      -3.073  50.947 -21.322  1.00  0.00     0.157 C 
HETATM    3  O5  UNL     1      -1.895  51.557 -21.828  1.00  0.00    -0.377 OA
HETATM    4  C4  UNL     1      -2.079  52.369 -23.000  1.00  0.00     0.126 C 
HETATM    5  C10 UNL     1      -3.569  52.688 -23.285  1.00  0.00     0.037 C 
HETATM    6  C11 UNL     1      -4.505  51.456 -23.291  1.00  0.00    -0.009 C 
HETATM    7  C12 UNL     1      -4.875  51.035 -24.715  1.00  0.00     0.010 C 
HETATM    8  C13 UNL     1      -3.866  50.323 -22.479  1.00  0.00     0.030 C 
HETATM    9  C14 UNL     1      -4.720  49.242 -21.781  1.00  0.00    -0.031 C 
HETATM   10  C15 UNL     1      -5.903  49.848 -20.993  1.00  0.00     0.016 C 
HETATM   11  C16 UNL     1      -5.216  48.120 -22.701  1.00  0.00     0.010 C 
HETATM   12  C17 UNL     1      -5.811  46.943 -21.907  1.00  0.00     0.007 C 
HETATM   13  C18 UNL     1      -4.912  46.425 -20.749  1.00  0.00     0.001 C 
HETATM   14  C19 UNL     1      -4.165  47.532 -19.943  1.00  0.00     0.029 C 
HETATM   15  C20 UNL     1      -3.029  46.886 -19.109  1.00  0.00     0.152 C 
HETATM   16  C21 UNL     1      -3.357  45.443 -18.666  1.00  0.00     0.154 C 
HETATM   17  C22 UNL     1      -4.864  45.310 -18.387  1.00  0.00     0.057 C 
HETATM   18  C23 UNL     1      -5.228  44.091 -17.510  1.00  0.00     0.156 C 
HETATM   19  C24 UNL     1      -5.176  42.766 -18.273  1.00  0.00     0.173 C 
HETATM   20  C25 UNL     1      -6.046  42.840 -19.534  1.00  0.00     0.037 C 
HETATM   21  C26 UNL     1      -5.648  43.999 -20.449  1.00  0.00     0.012 C 
HETATM   22  C27 UNL     1      -5.635  45.397 -19.761  1.00  0.00    -0.031 C 
HETATM   23  C28 UNL     1      -7.094  45.842 -19.491  1.00  0.00     0.016 C 
HETATM   24  C29 UNL     1      -3.616  48.610 -20.891  1.00  0.00     0.033 C 
ENDROOT
BRANCH   1  25
HETATM   25  O4  UNL     1      -3.222  50.114 -19.024  1.00  0.00    -0.288 OA
BRANCH  25  26
HETATM   26  P1  UNL     1      -2.242  50.946 -18.056  1.00  0.00     0.393 P 
HETATM   27  O2  UNL     1      -1.865  52.286 -18.600  1.00  0.00    -0.631 OA
BRANCH  26  28
HETATM   28  O1  UNL     1      -1.016  49.982 -17.709  1.00  0.00    -0.302 OA
HETATM   29  C1  UNL     1       0.196  50.618 -17.357  1.00  0.00     0.214 C 
ENDBRANCH  26  28
BRANCH  26  30
HETATM   30  O3  UNL     1      -3.029  51.082 -16.667  1.00  0.00    -0.307 OA
HETATM   31  H4  UNL     1      -2.859  51.960 -16.278  1.00  0.00     0.222 HD
ENDBRANCH  26  30
ENDBRANCH  25  26
ENDBRANCH   1  25
BRANCH   4  32
HETATM   32  C5  UNL     1      -1.305  51.748 -24.205  1.00  0.00     0.014 C 
HETATM   33  C6  UNL     1      -1.829  52.305 -25.540  1.00  0.00     0.013 C 
BRANCH  32  34
HETATM   34  C7  UNL     1       0.249  51.901 -24.158  1.00  0.00    -0.017 C 
HETATM   35  C8  UNL     1       0.698  53.179 -23.440  1.00  0.00     0.010 C 
HETATM   36  C9  UNL     1       0.922  51.796 -25.528  1.00  0.00     0.010 C 
ENDBRANCH  32  34
ENDBRANCH   4  32
BRANCH  15  37
HETATM   37  O6  UNL     1      -2.766  47.629 -17.911  1.00  0.00    -0.393 OA
HETATM   38  H36 UNL     1      -3.520  48.224 -17.731  1.00  0.00     0.210 HD
ENDBRANCH  15  37
BRANCH  16  39
HETATM   39  O7  UNL     1      -2.559  45.105 -17.517  1.00  0.00    -0.392 OA
HETATM   40  H38 UNL     1      -2.391  45.980 -17.094  1.00  0.00     0.210 HD
ENDBRANCH  16  39
BRANCH  18  41
HETATM   41  O8  UNL     1      -6.536  44.242 -16.952  1.00  0.00    -0.392 OA
HETATM   42  H41 UNL     1      -6.474  44.874 -16.217  1.00  0.00     0.210 HD
ENDBRANCH  18  41
BRANCH  19  43
HETATM   43  O9  UNL     1      -3.837  42.466 -18.647  1.00  0.00    -0.256 OA
BRANCH  43  44
HETATM   44  S1  UNL     1      -3.290  40.944 -18.490  1.00  0.00     0.240 S 
HETATM   45  O10 UNL     1      -1.846  40.942 -18.564  1.00  0.00    -0.579 OA
HETATM   46  O11 UNL     1      -3.985  40.331 -17.387  1.00  0.00    -0.579 OA
BRANCH  44  47
HETATM   47  O12 UNL     1      -3.814  40.261 -19.849  1.00  0.00    -0.274 OA
HETATM   48  H43 UNL     1      -3.502  40.811 -20.612  1.00  0.00     0.234 HD
ENDBRANCH  44  47
ENDBRANCH  43  44
ENDBRANCH  19  43
TORSDOF 12
ENDMDL
MODEL 9
REMARK minimizedAffinity -6.33406878
REMARK CNNscore 0.269865632
REMARK CNNaffinity 5.69581461
REMARK  12 active torsions:
REMARK  status: ('A' for Active; 'I' for Inactive)
REMARK    1  A    between atoms: O1_2  and  P1_3 
REMARK    2  A    between atoms: P1_3  and  O3_5 
REMARK    3  A    between atoms: P1_3  and  O4_6 
REMARK    4  A    between atoms: O4_6  and  C2_7 
REMARK    5  A    between atoms: C4_10  and  C5_11 
REMARK    6  A    between atoms: C5_11  and  C7_13 
REMARK    7  A    between atoms: C20_26  and  O6_27 
REMARK    8  A    between atoms: C21_28  and  O7_29 
REMARK    9  A    between atoms: C23_31  and  O8_32 
REMARK   10  A    between atoms: C24_33  and  O9_34 
REMARK   11  A    between atoms: O9_34  and  S1_35 
REMARK   12  A    between atoms: S1_35  and  O12_38 
ROOT
HETATM    1  C2  UNL     1     -11.282  44.196 -28.327  1.00  0.00     0.168 C 
HETATM    2  C3  UNL     1      -9.836  44.532 -28.751  1.00  0.00     0.157 C 
HETATM    3  O5  UNL     1      -9.680  44.672 -30.155  1.00  0.00    -0.377 OA
HETATM    4  C4  UNL     1      -8.475  45.332 -30.577  1.00  0.00     0.126 C 
HETATM    5  C10 UNL     1      -7.430  45.464 -29.438  1.00  0.00     0.037 C 
HETATM    6  C11 UNL     1      -7.979  46.063 -28.122  1.00  0.00    -0.009 C 
HETATM    7  C12 UNL     1      -7.563  47.525 -27.951  1.00  0.00     0.010 C 
HETATM    8  C13 UNL     1      -9.499  45.862 -28.063  1.00  0.00     0.030 C 
HETATM    9  C14 UNL     1     -10.253  45.766 -26.718  1.00  0.00    -0.031 C 
HETATM   10  C15 UNL     1      -9.559  44.810 -25.723  1.00  0.00     0.016 C 
HETATM   11  C16 UNL     1     -10.541  47.114 -26.044  1.00  0.00     0.010 C 
HETATM   12  C17 UNL     1     -11.529  46.973 -24.872  1.00  0.00     0.007 C 
HETATM   13  C18 UNL     1     -12.820  46.174 -25.207  1.00  0.00     0.001 C 
HETATM   14  C19 UNL     1     -12.610  44.930 -26.124  1.00  0.00     0.029 C 
HETATM   15  C20 UNL     1     -13.978  44.473 -26.693  1.00  0.00     0.152 C 
HETATM   16  C21 UNL     1     -15.153  44.761 -25.734  1.00  0.00     0.154 C 
HETATM   17  C22 UNL     1     -14.690  44.606 -24.275  1.00  0.00     0.057 C 
HETATM   18  C23 UNL     1     -15.850  44.408 -23.273  1.00  0.00     0.156 C 
HETATM   19  C24 UNL     1     -16.611  45.701 -22.972  1.00  0.00     0.173 C 
HETATM   20  C25 UNL     1     -15.642  46.797 -22.513  1.00  0.00     0.037 C 
HETATM   21  C26 UNL     1     -14.530  47.057 -23.530  1.00  0.00     0.012 C 
HETATM   22  C27 UNL     1     -13.711  45.795 -23.934  1.00  0.00    -0.031 C 
HETATM   23  C28 UNL     1     -12.807  45.377 -22.748  1.00  0.00     0.016 C 
HETATM   24  C29 UNL     1     -11.619  45.254 -27.252  1.00  0.00     0.033 C 
ENDROOT
BRANCH   1  25
HETATM   25  O4  UNL     1     -11.368  42.893 -27.769  1.00  0.00    -0.288 OA
BRANCH  25  26
HETATM   26  P1  UNL     1     -11.491  41.625 -28.752  1.00  0.00     0.393 P 
HETATM   27  O2  UNL     1     -10.776  41.807 -30.052  1.00  0.00    -0.631 OA
BRANCH  26  28
HETATM   28  O1  UNL     1     -13.050  41.290 -28.873  1.00  0.00    -0.302 OA
HETATM   29  C1  UNL     1     -13.436  39.982 -28.502  1.00  0.00     0.214 C 
ENDBRANCH  26  28
BRANCH  26  30
HETATM   30  O3  UNL     1     -10.895  40.387 -27.929  1.00  0.00    -0.307 OA
HETATM   31  H4  UNL     1     -10.399  39.801 -28.530  1.00  0.00     0.222 HD
ENDBRANCH  26  30
ENDBRANCH  25  26
ENDBRANCH   1  25
BRANCH   4  32
HETATM   32  C5  UNL     1      -8.824  46.672 -31.296  1.00  0.00     0.014 C 
HETATM   33  C6  UNL     1     -10.159  47.239 -30.783  1.00  0.00     0.013 C 
BRANCH  32  34
HETATM   34  C7  UNL     1      -7.730  47.784 -31.217  1.00  0.00    -0.017 C 
HETATM   35  C8  UNL     1      -8.322  49.196 -31.151  1.00  0.00     0.010 C 
HETATM   36  C9  UNL     1      -6.681  47.698 -32.329  1.00  0.00     0.010 C 
ENDBRANCH  32  34
ENDBRANCH   4  32
BRANCH  15  37
HETATM   37  O6  UNL     1     -13.998  43.062 -26.947  1.00  0.00    -0.393 OA
HETATM   38  H36 UNL     1     -13.259  42.639 -26.469  1.00  0.00     0.210 HD
ENDBRANCH  15  37
BRANCH  16  39
HETATM   39  O7  UNL     1     -16.253  43.888 -26.052  1.00  0.00    -0.392 OA
HETATM   40  H38 UNL     1     -15.808  43.102 -26.449  1.00  0.00     0.210 HD
ENDBRANCH  16  39
BRANCH  18  41
HETATM   41  O8  UNL     1     -15.365  43.869 -22.040  1.00  0.00    -0.392 OA
HETATM   42  H41 UNL     1     -15.193  42.922 -22.177  1.00  0.00     0.210 HD
ENDBRANCH  18  41
BRANCH  19  43
HETATM   43  O9  UNL     1     -17.303  46.145 -24.133  1.00  0.00    -0.256 OA
BRANCH  43  44
HETATM   44  S1  UNL     1     -18.873  45.770 -24.314  1.00  0.00     0.240 S 
HETATM   45  O10 UNL     1     -19.010  44.753 -25.332  1.00  0.00    -0.579 OA
HETATM   46  O11 UNL     1     -19.446  45.600 -23.004  1.00  0.00    -0.579 OA
BRANCH  44  47
HETATM   47  O12 UNL     1     -19.468  47.125 -24.945  1.00  0.00    -0.274 OA
HETATM   48  H43 UNL     1     -18.930  47.357 -25.744  1.00  0.00     0.234 HD
ENDBRANCH  44  47
ENDBRANCH  43  44
ENDBRANCH  19  43
TORSDOF 12
ENDMDL
