MODEL 1
REMARK minimizedAffinity -8.17115879
REMARK CNNscore 0.792697549
REMARK CNNaffinity 6.11432648
REMARK  12 active torsions:
REMARK  status: ('A' for Active; 'I' for Inactive)
REMARK    1  A    between atoms: C2_2  and  O1_3 
REMARK    2  A    between atoms: C2_2  and  C3_4 
REMARK    3  A    between atoms: C4_5  and  C5_6 
REMARK    4  A    between atoms: C5_6  and  O2_7 
REMARK    5  A    between atoms: C8_10  and  O3_11 
REMARK    6  A    between atoms: O3_11  and  C9_12 
REMARK    7  A    between atoms: C10_14  and  C11_15 
REMARK    8  A    between atoms: C11_15  and  O5_16 
REMARK    9  A    between atoms: C12_17  and  O6_18 
REMARK   10  A    between atoms: C13_19  and  O7_20 
REMARK   11  A    between atoms: C14_21  and  O8_22 
REMARK   12  A    between atoms: C15_23  and  O9_24 
ROOT
HETATM    1  C5  UNL     1      -0.925  51.768 -25.067  1.00  0.00     0.088 C 
HETATM    2  C6  UNL     1      -1.765  50.460 -25.133  1.00  0.00     0.052 C 
HETATM    3  C7  UNL     1      -2.458  50.097 -23.806  1.00  0.00     0.016 C 
HETATM    4  C8  UNL     1      -2.851  50.567 -26.235  1.00  0.00     0.160 C 
HETATM    5  C15 UNL     1      -2.395  51.397 -27.461  1.00  0.00     0.148 C 
HETATM    6  C16 UNL     1      -0.878  51.368 -27.633  1.00  0.00     0.046 C 
HETATM    7  C17 UNL     1      -0.093  51.935 -26.413  1.00  0.00    -0.010 C 
HETATM    8  C18 UNL     1       0.235  53.423 -26.689  1.00  0.00     0.018 C 
HETATM    9  C19 UNL     1       1.259  51.175 -26.380  1.00  0.00     0.018 C 
ENDROOT
BRANCH   4  10
HETATM   10  O3  UNL     1      -3.178  49.232 -26.673  1.00  0.00    -0.350 OA
BRANCH  10  11
HETATM   11  C9  UNL     1      -4.594  49.006 -26.699  1.00  0.00     0.292 C 
HETATM   12  O4  UNL     1      -4.975  48.355 -25.488  1.00  0.00    -0.348 OA
HETATM   13  C10 UNL     1      -6.374  48.058 -25.431  1.00  0.00     0.179 C 
HETATM   14  C12 UNL     1      -6.756  47.092 -26.563  1.00  0.00     0.180 C 
HETATM   15  C13 UNL     1      -6.386  47.720 -27.908  1.00  0.00     0.183 C 
HETATM   16  C14 UNL     1      -4.915  48.133 -27.933  1.00  0.00     0.204 C 
BRANCH  13  17
HETATM   17  C11 UNL     1      -6.702  47.454 -24.059  1.00  0.00     0.198 C 
BRANCH  17  18
HETATM   18  O5  UNL     1      -5.629  47.611 -23.135  1.00  0.00    -0.398 OA
HETATM   19  H18 UNL     1      -5.300  48.531 -23.234  1.00  0.00     0.209 HD
ENDBRANCH  17  18
ENDBRANCH  13  17
BRANCH  14  20
HETATM   20  O6  UNL     1      -8.158  46.797 -26.543  1.00  0.00    -0.390 OA
HETATM   21  H20 UNL     1      -8.337  46.366 -27.406  1.00  0.00     0.210 HD
ENDBRANCH  14  20
BRANCH  15  22
HETATM   22  O7  UNL     1      -6.664  46.778 -28.956  1.00  0.00    -0.390 OA
HETATM   23  H22 UNL     1      -6.184  47.111 -29.742  1.00  0.00     0.210 HD
ENDBRANCH  15  22
BRANCH  16  24
HETATM   24  O8  UNL     1      -4.663  48.809 -29.180  1.00  0.00    -0.388 OA
HETATM   25  H24 UNL     1      -4.833  49.765 -29.051  1.00  0.00     0.210 HD
ENDBRANCH  16  24
ENDBRANCH  10  11
ENDBRANCH   4  10
BRANCH   5  26
HETATM   26  O9  UNL     1      -3.000  50.887 -28.661  1.00  0.00    -0.393 OA
HETATM   27  H26 UNL     1      -2.620  49.990 -28.765  1.00  0.00     0.210 HD
ENDBRANCH   5  26
BRANCH   1  28
HETATM   28  C4  UNL     1      -0.036  51.801 -23.830  1.00  0.00     0.010 C 
HETATM   29  C3  UNL     1      -0.033  52.699 -22.826  1.00  0.00     0.003 C 
BRANCH  29  30
HETATM   30  C2  UNL     1       0.865  52.615 -21.627  1.00  0.00     0.136 C 
HETATM   31  C1  UNL     1       1.278  53.998 -21.147  1.00  0.00     0.043 C 
BRANCH  30  32
HETATM   32  O1  UNL     1       0.126  51.964 -20.600  1.00  0.00    -0.392 OA
HETATM   33  H5  UNL     1       0.725  51.854 -19.842  1.00  0.00     0.210 HD
ENDBRANCH  30  32
ENDBRANCH  29  30
ENDBRANCH   1  28
BRANCH   1  34
HETATM   34  O2  UNL     1      -1.882  52.835 -24.980  1.00  0.00    -0.385 OA
HETATM   35  H8  UNL     1      -1.403  53.655 -24.775  1.00  0.00     0.211 HD
ENDBRANCH   1  34
TORSDOF 12
ENDMDL
MODEL 2
REMARK minimizedAffinity -7.0553298
REMARK CNNscore 0.697011828
REMARK CNNaffinity 4.68417788
REMARK  12 active torsions:
REMARK  status: ('A' for Active; 'I' for Inactive)
REMARK    1  A    between atoms: C2_2  and  O1_3 
REMARK    2  A    between atoms: C2_2  and  C3_4 
REMARK    3  A    between atoms: C4_5  and  C5_6 
REMARK    4  A    between atoms: C5_6  and  O2_7 
REMARK    5  A    between atoms: C8_10  and  O3_11 
REMARK    6  A    between atoms: O3_11  and  C9_12 
REMARK    7  A    between atoms: C10_14  and  C11_15 
REMARK    8  A    between atoms: C11_15  and  O5_16 
REMARK    9  A    between atoms: C12_17  and  O6_18 
REMARK   10  A    between atoms: C13_19  and  O7_20 
REMARK   11  A    between atoms: C14_21  and  O8_22 
REMARK   12  A    between atoms: C15_23  and  O9_24 
ROOT
HETATM    1  C5  UNL     1      -2.205  50.633 -23.459  1.00  0.00     0.088 C 
HETATM    2  C6  UNL     1      -2.028  49.543 -22.362  1.00  0.00     0.052 C 
HETATM    3  C7  UNL     1      -0.850  49.807 -21.406  1.00  0.00     0.016 C 
HETATM    4  C8  UNL     1      -3.321  49.409 -21.516  1.00  0.00     0.160 C 
HETATM    5  C15 UNL     1      -4.613  49.649 -22.336  1.00  0.00     0.148 C 
HETATM    6  C16 UNL     1      -4.416  49.318 -23.813  1.00  0.00     0.046 C 
HETATM    7  C17 UNL     1      -3.305  50.159 -24.507  1.00  0.00    -0.010 C 
HETATM    8  C18 UNL     1      -3.971  51.371 -25.206  1.00  0.00     0.018 C 
HETATM    9  C19 UNL     1      -2.719  49.260 -25.627  1.00  0.00     0.018 C 
ENDROOT
BRANCH   4  10
HETATM   10  O3  UNL     1      -3.359  48.077 -20.964  1.00  0.00    -0.350 OA
BRANCH  10  11
HETATM   11  C9  UNL     1      -3.645  48.085 -19.558  1.00  0.00     0.292 C 
HETATM   12  O4  UNL     1      -3.119  49.286 -18.993  1.00  0.00    -0.348 OA
HETATM   13  C10 UNL     1      -3.328  49.374 -17.580  1.00  0.00     0.179 C 
HETATM   14  C12 UNL     1      -2.605  48.223 -16.865  1.00  0.00     0.180 C 
HETATM   15  C13 UNL     1      -3.118  46.889 -17.410  1.00  0.00     0.183 C 
HETATM   16  C14 UNL     1      -2.991  46.834 -18.932  1.00  0.00     0.204 C 
BRANCH  13  17
HETATM   17  C11 UNL     1      -2.822  50.735 -17.083  1.00  0.00     0.198 C 
BRANCH  17  18
HETATM   18  O5  UNL     1      -2.742  51.692 -18.135  1.00  0.00    -0.398 OA
HETATM   19  H18 UNL     1      -3.566  51.604 -18.664  1.00  0.00     0.209 HD
ENDBRANCH  17  18
ENDBRANCH  13  17
BRANCH  14  20
HETATM   20  O6  UNL     1      -2.818  48.275 -15.449  1.00  0.00    -0.390 OA
HETATM   21  H20 UNL     1      -2.513  47.404 -15.116  1.00  0.00     0.210 HD
ENDBRANCH  14  20
BRANCH  15  22
HETATM   22  O7  UNL     1      -2.377  45.820 -16.802  1.00  0.00    -0.390 OA
HETATM   23  H22 UNL     1      -2.553  45.031 -17.356  1.00  0.00     0.210 HD
ENDBRANCH  15  22
BRANCH  16  24
HETATM   24  O8  UNL     1      -3.587  45.602 -19.384  1.00  0.00    -0.388 OA
HETATM   25  H24 UNL     1      -4.535  45.768 -19.562  1.00  0.00     0.210 HD
ENDBRANCH  16  24
ENDBRANCH  10  11
ENDBRANCH   4  10
BRANCH   5  26
HETATM   26  O9  UNL     1      -5.684  48.838 -21.826  1.00  0.00    -0.393 OA
HETATM   27  H26 UNL     1      -5.400  47.917 -22.001  1.00  0.00     0.210 HD
ENDBRANCH   5  26
BRANCH   1  28
HETATM   28  C4  UNL     1      -0.879  50.975 -24.128  1.00  0.00     0.010 C 
HETATM   29  C3  UNL     1      -0.422  52.184 -24.507  1.00  0.00     0.003 C 
BRANCH  29  30
HETATM   30  C2  UNL     1       0.925  52.415 -25.126  1.00  0.00     0.136 C 
HETATM   31  C1  UNL     1       1.245  51.354 -26.169  1.00  0.00     0.043 C 
BRANCH  30  32
HETATM   32  O1  UNL     1       0.879  53.690 -25.755  1.00  0.00    -0.392 OA
HETATM   33  H5  UNL     1       1.769  53.870 -26.105  1.00  0.00     0.210 HD
ENDBRANCH  30  32
ENDBRANCH  29  30
ENDBRANCH   1  28
BRANCH   1  34
HETATM   34  O2  UNL     1      -2.692  51.795 -22.770  1.00  0.00    -0.385 OA
HETATM   35  H8  UNL     1      -2.664  52.545 -23.386  1.00  0.00     0.211 HD
ENDBRANCH   1  34
TORSDOF 12
ENDMDL
MODEL 3
REMARK minimizedAffinity -8.1883688
REMARK CNNscore 0.64247793
REMARK CNNaffinity 5.66306067
REMARK  12 active torsions:
REMARK  status: ('A' for Active; 'I' for Inactive)
REMARK    1  A    between atoms: C2_2  and  O1_3 
REMARK    2  A    between atoms: C2_2  and  C3_4 
REMARK    3  A    between atoms: C4_5  and  C5_6 
REMARK    4  A    between atoms: C5_6  and  O2_7 
REMARK    5  A    between atoms: C8_10  and  O3_11 
REMARK    6  A    between atoms: O3_11  and  C9_12 
REMARK    7  A    between atoms: C10_14  and  C11_15 
REMARK    8  A    between atoms: C11_15  and  O5_16 
REMARK    9  A    between atoms: C12_17  and  O6_18 
REMARK   10  A    between atoms: C13_19  and  O7_20 
REMARK   11  A    between atoms: C14_21  and  O8_22 
REMARK   12  A    between atoms: C15_23  and  O9_24 
ROOT
HETATM    1  C5  UNL     1      -2.829  50.494 -25.118  1.00  0.00     0.088 C 
HETATM    2  C6  UNL     1      -3.116  49.111 -25.770  1.00  0.00     0.052 C 
HETATM    3  C7  UNL     1      -3.961  48.171 -24.890  1.00  0.00     0.016 C 
HETATM    4  C8  UNL     1      -3.844  49.292 -27.128  1.00  0.00     0.160 C 
HETATM    5  C15 UNL     1      -3.401  50.564 -27.892  1.00  0.00     0.148 C 
HETATM    6  C16 UNL     1      -1.979  50.979 -27.524  1.00  0.00     0.046 C 
HETATM    7  C17 UNL     1      -1.785  51.297 -26.012  1.00  0.00    -0.010 C 
HETATM    8  C18 UNL     1      -1.932  52.825 -25.808  1.00  0.00     0.018 C 
HETATM    9  C19 UNL     1      -0.312  50.939 -25.682  1.00  0.00     0.018 C 
ENDROOT
BRANCH   4  10
HETATM   10  O3  UNL     1      -3.565  48.136 -27.944  1.00  0.00    -0.350 OA
BRANCH  10  11
HETATM   11  C9  UNL     1      -4.729  47.676 -28.643  1.00  0.00     0.292 C 
HETATM   12  O4  UNL     1      -4.580  47.984 -30.029  1.00  0.00    -0.348 OA
HETATM   13  C10 UNL     1      -5.712  47.589 -30.812  1.00  0.00     0.179 C 
HETATM   14  C12 UNL     1      -6.966  48.344 -30.347  1.00  0.00     0.180 C 
HETATM   15  C13 UNL     1      -7.205  48.061 -28.863  1.00  0.00     0.183 C 
HETATM   16  C14 UNL     1      -5.960  48.385 -28.037  1.00  0.00     0.204 C 
BRANCH  13  17
HETATM   17  C11 UNL     1      -5.418  47.869 -32.292  1.00  0.00     0.198 C 
BRANCH  17  18
HETATM   18  O5  UNL     1      -4.209  48.602 -32.468  1.00  0.00    -0.398 OA
HETATM   19  H18 UNL     1      -3.541  48.199 -31.872  1.00  0.00     0.209 HD
ENDBRANCH  17  18
ENDBRANCH  13  17
BRANCH  14  20
HETATM   20  O6  UNL     1      -8.120  47.949 -31.100  1.00  0.00    -0.390 OA
HETATM   21  H20 UNL     1      -8.883  48.307 -30.599  1.00  0.00     0.210 HD
ENDBRANCH  14  20
BRANCH  15  22
HETATM   22  O7  UNL     1      -8.326  48.838 -28.413  1.00  0.00    -0.390 OA
HETATM   23  H22 UNL     1      -8.278  48.824 -27.435  1.00  0.00     0.210 HD
ENDBRANCH  15  22
BRANCH  16  24
HETATM   24  O8  UNL     1      -6.217  47.997 -26.673  1.00  0.00    -0.388 OA
HETATM   25  H24 UNL     1      -5.936  47.066 -26.561  1.00  0.00     0.210 HD
ENDBRANCH  16  24
ENDBRANCH  10  11
ENDBRANCH   4  10
BRANCH   5  26
HETATM   26  O9  UNL     1      -3.457  50.338 -29.311  1.00  0.00    -0.393 OA
HETATM   27  H26 UNL     1      -2.778  49.652 -29.477  1.00  0.00     0.210 HD
ENDBRANCH   5  26
BRANCH   1  28
HETATM   28  C4  UNL     1      -2.361  50.347 -23.676  1.00  0.00     0.010 C 
HETATM   29  C3  UNL     1      -2.214  49.218 -22.956  1.00  0.00     0.003 C 
BRANCH  29  30
HETATM   30  C2  UNL     1      -1.705  49.183 -21.545  1.00  0.00     0.136 C 
HETATM   31  C1  UNL     1      -1.332  47.769 -21.126  1.00  0.00     0.043 C 
BRANCH  30  32
HETATM   32  O1  UNL     1      -0.544  50.005 -21.502  1.00  0.00    -0.392 OA
HETATM   33  H5  UNL     1      -0.247  50.033 -20.576  1.00  0.00     0.210 HD
ENDBRANCH  30  32
ENDBRANCH  29  30
ENDBRANCH   1  28
BRANCH   1  34
HETATM   34  O2  UNL     1      -4.083  51.193 -25.131  1.00  0.00    -0.385 OA
HETATM   35  H8  UNL     1      -3.988  51.994 -24.590  1.00  0.00     0.211 HD
ENDBRANCH   1  34
TORSDOF 12
ENDMDL
MODEL 4
REMARK minimizedAffinity -7.98233986
REMARK CNNscore 0.578564584
REMARK CNNaffinity 5.5168643
REMARK  12 active torsions:
REMARK  status: ('A' for Active; 'I' for Inactive)
REMARK    1  A    between atoms: C2_2  and  O1_3 
REMARK    2  A    between atoms: C2_2  and  C3_4 
REMARK    3  A    between atoms: C4_5  and  C5_6 
REMARK    4  A    between atoms: C5_6  and  O2_7 
REMARK    5  A    between atoms: C8_10  and  O3_11 
REMARK    6  A    between atoms: O3_11  and  C9_12 
REMARK    7  A    between atoms: C10_14  and  C11_15 
REMARK    8  A    between atoms: C11_15  and  O5_16 
REMARK    9  A    between atoms: C12_17  and  O6_18 
REMARK   10  A    between atoms: C13_19  and  O7_20 
REMARK   11  A    between atoms: C14_21  and  O8_22 
REMARK   12  A    between atoms: C15_23  and  O9_24 
ROOT
HETATM    1  C5  UNL     1      -1.000  52.126 -24.756  1.00  0.00     0.088 C 
HETATM    2  C6  UNL     1      -1.891  50.946 -24.272  1.00  0.00     0.052 C 
HETATM    3  C7  UNL     1      -2.322  51.054 -22.798  1.00  0.00     0.016 C 
HETATM    4  C8  UNL     1      -3.168  50.838 -25.146  1.00  0.00     0.160 C 
HETATM    5  C15 UNL     1      -2.929  51.227 -26.625  1.00  0.00     0.148 C 
HETATM    6  C16 UNL     1      -1.480  50.997 -27.045  1.00  0.00     0.046 C 
HETATM    7  C17 UNL     1      -0.444  51.811 -26.214  1.00  0.00    -0.010 C 
HETATM    8  C18 UNL     1      -0.114  53.115 -26.981  1.00  0.00     0.018 C 
HETATM    9  C19 UNL     1       0.853  50.961 -26.191  1.00  0.00     0.018 C 
ENDROOT
BRANCH   4  10
HETATM   10  O3  UNL     1      -3.634  49.473 -25.092  1.00  0.00    -0.350 OA
BRANCH  10  11
HETATM   11  C9  UNL     1      -5.017  49.390 -24.724  1.00  0.00     0.292 C 
HETATM   12  O4  UNL     1      -5.105  49.312 -23.301  1.00  0.00    -0.348 OA
HETATM   13  C10 UNL     1      -6.453  49.195 -22.832  1.00  0.00     0.179 C 
HETATM   14  C12 UNL     1      -7.086  47.900 -23.363  1.00  0.00     0.180 C 
HETATM   15  C13 UNL     1      -7.040  47.904 -24.892  1.00  0.00     0.183 C 
HETATM   16  C14 UNL     1      -5.615  48.134 -25.394  1.00  0.00     0.204 C 
BRANCH  13  17
HETATM   17  C11 UNL     1      -6.453  49.219 -21.298  1.00  0.00     0.198 C 
BRANCH  17  18
HETATM   18  O5  UNL     1      -6.670  50.530 -20.784  1.00  0.00    -0.398 OA
HETATM   19  H18 UNL     1      -7.397  50.927 -21.312  1.00  0.00     0.209 HD
ENDBRANCH  17  18
ENDBRANCH  13  17
BRANCH  14  20
HETATM   20  O6  UNL     1      -8.446  47.770 -22.927  1.00  0.00    -0.390 OA
HETATM   21  H20 UNL     1      -8.820  47.051 -23.480  1.00  0.00     0.210 HD
ENDBRANCH  14  20
BRANCH  15  22
HETATM   22  O7  UNL     1      -7.552  46.654 -25.379  1.00  0.00    -0.390 OA
HETATM   23  H22 UNL     1      -7.268  46.602 -26.315  1.00  0.00     0.210 HD
ENDBRANCH  15  22
BRANCH  16  24
HETATM   24  O8  UNL     1      -5.660  48.231 -26.832  1.00  0.00    -0.388 OA
HETATM   25  H24 UNL     1      -5.796  49.171 -27.071  1.00  0.00     0.210 HD
ENDBRANCH  16  24
ENDBRANCH  10  11
ENDBRANCH   4  10
BRANCH   5  26
HETATM   26  O9  UNL     1      -3.782  50.456 -27.488  1.00  0.00    -0.393 OA
HETATM   27  H26 UNL     1      -3.470  49.534 -27.380  1.00  0.00     0.210 HD
ENDBRANCH   5  26
BRANCH   1  28
HETATM   28  C4  UNL     1       0.118  52.425 -23.765  1.00  0.00     0.010 C 
HETATM   29  C3  UNL     1       0.026  52.628 -22.437  1.00  0.00     0.003 C 
BRANCH  29  30
HETATM   30  C2  UNL     1       1.203  52.879 -21.541  1.00  0.00     0.136 C 
HETATM   31  C1  UNL     1       1.633  54.338 -21.587  1.00  0.00     0.043 C 
BRANCH  30  32
HETATM   32  O1  UNL     1       0.796  52.552 -20.218  1.00  0.00    -0.392 OA
HETATM   33  H5  UNL     1       1.575  52.656 -19.644  1.00  0.00     0.210 HD
ENDBRANCH  30  32
ENDBRANCH  29  30
ENDBRANCH   1  28
BRANCH   1  34
HETATM   34  O2  UNL     1      -1.873  53.262 -24.829  1.00  0.00    -0.385 OA
HETATM   35  H8  UNL     1      -1.328  54.054 -24.970  1.00  0.00     0.211 HD
ENDBRANCH   1  34
TORSDOF 12
ENDMDL
MODEL 5
REMARK minimizedAffinity -6.67897844
REMARK CNNscore 0.575731337
REMARK CNNaffinity 5.18992567
REMARK  12 active torsions:
REMARK  status: ('A' for Active; 'I' for Inactive)
REMARK    1  A    between atoms: C2_2  and  O1_3 
REMARK    2  A    between atoms: C2_2  and  C3_4 
REMARK    3  A    between atoms: C4_5  and  C5_6 
REMARK    4  A    between atoms: C5_6  and  O2_7 
REMARK    5  A    between atoms: C8_10  and  O3_11 
REMARK    6  A    between atoms: O3_11  and  C9_12 
REMARK    7  A    between atoms: C10_14  and  C11_15 
REMARK    8  A    between atoms: C11_15  and  O5_16 
REMARK    9  A    between atoms: C12_17  and  O6_18 
REMARK   10  A    between atoms: C13_19  and  O7_20 
REMARK   11  A    between atoms: C14_21  and  O8_22 
REMARK   12  A    between atoms: C15_23  and  O9_24 
ROOT
HETATM    1  C5  UNL     1      -2.281  51.233 -24.831  1.00  0.00     0.088 C 
HETATM    2  C6  UNL     1      -2.073  50.745 -23.368  1.00  0.00     0.052 C 
HETATM    3  C7  UNL     1      -1.447  51.803 -22.440  1.00  0.00     0.016 C 
HETATM    4  C8  UNL     1      -3.423  50.294 -22.751  1.00  0.00     0.160 C 
HETATM    5  C15 UNL     1      -4.377  49.643 -23.782  1.00  0.00     0.148 C 
HETATM    6  C16 UNL     1      -3.613  49.007 -24.940  1.00  0.00     0.046 C 
HETATM    7  C17 UNL     1      -2.732  50.009 -25.742  1.00  0.00    -0.010 C 
HETATM    8  C18 UNL     1      -3.537  50.495 -26.973  1.00  0.00     0.018 C 
HETATM    9  C19 UNL     1      -1.531  49.190 -26.284  1.00  0.00     0.018 C 
ENDROOT
BRANCH   4  10
HETATM   10  O3  UNL     1      -3.141  49.337 -21.708  1.00  0.00    -0.350 OA
BRANCH  10  11
HETATM   11  C9  UNL     1      -3.493  49.835 -20.410  1.00  0.00     0.292 C 
HETATM   12  O4  UNL     1      -2.293  50.120 -19.691  1.00  0.00    -0.348 OA
HETATM   13  C10 UNL     1      -2.540  50.598 -18.364  1.00  0.00     0.179 C 
HETATM   14  C12 UNL     1      -3.275  49.527 -17.545  1.00  0.00     0.180 C 
HETATM   15  C13 UNL     1      -4.586  49.166 -18.246  1.00  0.00     0.183 C 
HETATM   16  C14 UNL     1      -4.334  48.755 -19.697  1.00  0.00     0.204 C 
BRANCH  13  17
HETATM   17  C11 UNL     1      -1.202  50.970 -17.710  1.00  0.00     0.198 C 
BRANCH  17  18
HETATM   18  O5  UNL     1      -0.264  49.899 -17.766  1.00  0.00    -0.398 OA
HETATM   19  H18 UNL     1      -0.314  49.523 -18.672  1.00  0.00     0.209 HD
ENDBRANCH  17  18
ENDBRANCH  13  17
BRANCH  14  20
HETATM   20  O6  UNL     1      -3.556  49.990 -16.217  1.00  0.00    -0.390 OA
HETATM   21  H20 UNL     1      -4.200  49.344 -15.857  1.00  0.00     0.210 HD
ENDBRANCH  14  20
BRANCH  15  22
HETATM   22  O7  UNL     1      -5.225  48.103 -17.523  1.00  0.00    -0.390 OA
HETATM   23  H22 UNL     1      -5.901  47.742 -18.133  1.00  0.00     0.210 HD
ENDBRANCH  15  22
BRANCH  16  24
HETATM   24  O8  UNL     1      -5.613  48.532 -20.324  1.00  0.00    -0.388 OA
HETATM   25  H24 UNL     1      -5.914  49.378 -20.714  1.00  0.00     0.210 HD
ENDBRANCH  16  24
ENDBRANCH  10  11
ENDBRANCH   4  10
BRANCH   5  26
HETATM   26  O9  UNL     1      -5.176  48.628 -23.151  1.00  0.00    -0.393 OA
HETATM   27  H26 UNL     1      -4.532  47.941 -22.883  1.00  0.00     0.210 HD
ENDBRANCH   5  26
BRANCH   1  28
HETATM   28  C4  UNL     1      -1.036  51.928 -25.371  1.00  0.00     0.010 C 
HETATM   29  C3  UNL     1       0.253  51.571 -25.217  1.00  0.00     0.003 C 
BRANCH  29  30
HETATM   30  C2  UNL     1       1.407  52.309 -25.829  1.00  0.00     0.136 C 
HETATM   31  C1  UNL     1       2.341  51.362 -26.567  1.00  0.00     0.043 C 
BRANCH  30  32
HETATM   32  O1  UNL     1       0.860  53.242 -26.753  1.00  0.00    -0.392 OA
HETATM   33  H5  UNL     1       1.601  53.763 -27.107  1.00  0.00     0.210 HD
ENDBRANCH  30  32
ENDBRANCH  29  30
ENDBRANCH   1  28
BRANCH   1  34
HETATM   34  O2  UNL     1      -3.354  52.185 -24.770  1.00  0.00    -0.385 OA
HETATM   35  H8  UNL     1      -3.410  52.634 -25.629  1.00  0.00     0.211 HD
ENDBRANCH   1  34
TORSDOF 12
ENDMDL
MODEL 6
REMARK minimizedAffinity -6.78644848
REMARK CNNscore 0.55844909
REMARK CNNaffinity 4.8999486
REMARK  12 active torsions:
REMARK  status: ('A' for Active; 'I' for Inactive)
REMARK    1  A    between atoms: C2_2  and  O1_3 
REMARK    2  A    between atoms: C2_2  and  C3_4 
REMARK    3  A    between atoms: C4_5  and  C5_6 
REMARK    4  A    between atoms: C5_6  and  O2_7 
REMARK    5  A    between atoms: C8_10  and  O3_11 
REMARK    6  A    between atoms: O3_11  and  C9_12 
REMARK    7  A    between atoms: C10_14  and  C11_15 
REMARK    8  A    between atoms: C11_15  and  O5_16 
REMARK    9  A    between atoms: C12_17  and  O6_18 
REMARK   10  A    between atoms: C13_19  and  O7_20 
REMARK   11  A    between atoms: C14_21  and  O8_22 
REMARK   12  A    between atoms: C15_23  and  O9_24 
ROOT
HETATM    1  C5  UNL     1      -2.142  51.325 -23.838  1.00  0.00     0.088 C 
HETATM    2  C6  UNL     1      -1.869  50.030 -23.019  1.00  0.00     0.052 C 
HETATM    3  C7  UNL     1      -0.790  50.195 -21.933  1.00  0.00     0.016 C 
HETATM    4  C8  UNL     1      -3.172  49.535 -22.338  1.00  0.00     0.160 C 
HETATM    5  C15 UNL     1      -4.442  49.806 -23.183  1.00  0.00     0.148 C 
HETATM    6  C16 UNL     1      -4.127  49.874 -24.675  1.00  0.00     0.046 C 
HETATM    7  C17 UNL     1      -3.110  50.990 -25.056  1.00  0.00    -0.010 C 
HETATM    8  C18 UNL     1      -3.902  52.244 -25.502  1.00  0.00     0.018 C 
HETATM    9  C19 UNL     1      -2.348  50.472 -26.304  1.00  0.00     0.018 C 
ENDROOT
BRANCH   4  10
HETATM   10  O3  UNL     1      -3.052  48.114 -22.121  1.00  0.00    -0.350 OA
BRANCH  10  11
HETATM   11  C9  UNL     1      -3.358  47.748 -20.768  1.00  0.00     0.292 C 
HETATM   12  O4  UNL     1      -4.533  48.450 -20.361  1.00  0.00    -0.348 OA
HETATM   13  C10 UNL     1      -4.905  48.174 -19.006  1.00  0.00     0.179 C 
HETATM   14  C12 UNL     1      -3.792  48.629 -18.049  1.00  0.00     0.180 C 
HETATM   15  C13 UNL     1      -2.490  47.914 -18.413  1.00  0.00     0.183 C 
HETATM   16  C14 UNL     1      -2.145  48.122 -19.888  1.00  0.00     0.204 C 
BRANCH  13  17
HETATM   17  C11 UNL     1      -6.226  48.890 -18.694  1.00  0.00     0.198 C 
BRANCH  17  18
HETATM   18  O5  UNL     1      -6.871  48.345 -17.547  1.00  0.00    -0.398 OA
HETATM   19  H18 UNL     1      -6.177  48.212 -16.865  1.00  0.00     0.209 HD
ENDBRANCH  17  18
ENDBRANCH  13  17
BRANCH  14  20
HETATM   20  O6  UNL     1      -4.130  48.342 -16.686  1.00  0.00    -0.390 OA
HETATM   21  H20 UNL     1      -3.293  48.461 -16.189  1.00  0.00     0.210 HD
ENDBRANCH  14  20
BRANCH  15  22
HETATM   22  O7  UNL     1      -1.435  48.408 -17.573  1.00  0.00    -0.390 OA
HETATM   23  H22 UNL     1      -0.603  48.124 -18.004  1.00  0.00     0.210 HD
ENDBRANCH  15  22
BRANCH  16  24
HETATM   24  O8  UNL     1      -0.972  47.340 -20.185  1.00  0.00    -0.388 OA
HETATM   25  H24 UNL     1      -1.262  46.450 -20.475  1.00  0.00     0.210 HD
ENDBRANCH  16  24
ENDBRANCH  10  11
ENDBRANCH   4  10
BRANCH   5  26
HETATM   26  O9  UNL     1      -5.414  48.769 -22.969  1.00  0.00    -0.393 OA
HETATM   27  H26 UNL     1      -4.995  47.962 -23.332  1.00  0.00     0.210 HD
ENDBRANCH   5  26
BRANCH   1  28
HETATM   28  C4  UNL     1      -0.844  51.981 -24.295  1.00  0.00     0.010 C 
HETATM   29  C3  UNL     1       0.172  51.431 -24.986  1.00  0.00     0.003 C 
BRANCH  29  30
HETATM   30  C2  UNL     1       1.395  52.183 -25.422  1.00  0.00     0.136 C 
HETATM   31  C1  UNL     1       1.848  51.749 -26.807  1.00  0.00     0.043 C 
BRANCH  30  32
HETATM   32  O1  UNL     1       1.044  53.562 -25.456  1.00  0.00    -0.392 OA
HETATM   33  H5  UNL     1       1.850  54.058 -25.679  1.00  0.00     0.210 HD
ENDBRANCH  30  32
ENDBRANCH  29  30
ENDBRANCH   1  28
BRANCH   1  34
HETATM   34  O2  UNL     1      -2.821  52.213 -22.938  1.00  0.00    -0.385 OA
HETATM   35  H8  UNL     1      -2.866  53.089 -23.355  1.00  0.00     0.211 HD
ENDBRANCH   1  34
TORSDOF 12
ENDMDL
MODEL 7
REMARK minimizedAffinity -8.18871021
REMARK CNNscore 0.535688698
REMARK CNNaffinity 5.18264246
REMARK  12 active torsions:
REMARK  status: ('A' for Active; 'I' for Inactive)
REMARK    1  A    between atoms: C2_2  and  O1_3 
REMARK    2  A    between atoms: C2_2  and  C3_4 
REMARK    3  A    between atoms: C4_5  and  C5_6 
REMARK    4  A    between atoms: C5_6  and  O2_7 
REMARK    5  A    between atoms: C8_10  and  O3_11 
REMARK    6  A    between atoms: O3_11  and  C9_12 
REMARK    7  A    between atoms: C10_14  and  C11_15 
REMARK    8  A    between atoms: C11_15  and  O5_16 
REMARK    9  A    between atoms: C12_17  and  O6_18 
REMARK   10  A    between atoms: C13_19  and  O7_20 
REMARK   11  A    between atoms: C14_21  and  O8_22 
REMARK   12  A    between atoms: C15_23  and  O9_24 
ROOT
HETATM    1  C5  UNL     1      -1.233  51.981 -24.463  1.00  0.00     0.088 C 
HETATM    2  C6  UNL     1      -1.833  50.670 -23.877  1.00  0.00     0.052 C 
HETATM    3  C7  UNL     1      -2.142  50.744 -22.371  1.00  0.00     0.016 C 
HETATM    4  C8  UNL     1      -3.139  50.292 -24.624  1.00  0.00     0.160 C 
HETATM    5  C15 UNL     1      -3.114  50.669 -26.125  1.00  0.00     0.148 C 
HETATM    6  C16 UNL     1      -1.692  50.705 -26.677  1.00  0.00     0.046 C 
HETATM    7  C17 UNL     1      -0.761  51.728 -25.962  1.00  0.00    -0.010 C 
HETATM    8  C18 UNL     1      -0.759  53.044 -26.777  1.00  0.00     0.018 C 
HETATM    9  C19 UNL     1       0.672  51.142 -26.049  1.00  0.00     0.018 C 
ENDROOT
BRANCH   4  10
HETATM   10  O3  UNL     1      -3.326  48.866 -24.505  1.00  0.00    -0.350 OA
BRANCH  10  11
HETATM   11  C9  UNL     1      -4.685  48.525 -24.199  1.00  0.00     0.292 C 
HETATM   12  O4  UNL     1      -5.349  48.167 -25.411  1.00  0.00    -0.348 OA
HETATM   13  C10 UNL     1      -6.728  47.837 -25.214  1.00  0.00     0.179 C 
HETATM   14  C12 UNL     1      -7.489  49.053 -24.662  1.00  0.00     0.180 C 
HETATM   15  C13 UNL     1      -6.843  49.500 -23.349  1.00  0.00     0.183 C 
HETATM   16  C14 UNL     1      -5.347  49.753 -23.535  1.00  0.00     0.204 C 
BRANCH  13  17
HETATM   17  C11 UNL     1      -7.327  47.373 -26.548  1.00  0.00     0.198 C 
BRANCH  17  18
HETATM   18  O5  UNL     1      -8.046  48.414 -27.203  1.00  0.00    -0.398 OA
HETATM   19  H18 UNL     1      -7.498  49.227 -27.132  1.00  0.00     0.209 HD
ENDBRANCH  17  18
ENDBRANCH  13  17
BRANCH  14  20
HETATM   20  O6  UNL     1      -8.869  48.741 -24.433  1.00  0.00    -0.390 OA
HETATM   21  H20 UNL     1      -9.208  49.485 -23.891  1.00  0.00     0.210 HD
ENDBRANCH  14  20
BRANCH  15  22
HETATM   22  O7  UNL     1      -7.502  50.688 -22.885  1.00  0.00    -0.390 OA
HETATM   23  H22 UNL     1      -6.906  51.070 -22.208  1.00  0.00     0.210 HD
ENDBRANCH  15  22
BRANCH  16  24
HETATM   24  O8  UNL     1      -4.785  50.066 -22.245  1.00  0.00    -0.388 OA
HETATM   25  H24 UNL     1      -4.497  49.229 -21.825  1.00  0.00     0.210 HD
ENDBRANCH  16  24
ENDBRANCH  10  11
ENDBRANCH   4  10
BRANCH   5  26
HETATM   26  O9  UNL     1      -3.876  49.720 -26.891  1.00  0.00    -0.393 OA
HETATM   27  H26 UNL     1      -3.384  48.879 -26.798  1.00  0.00     0.210 HD
ENDBRANCH   5  26
BRANCH   1  28
HETATM   28  C4  UNL     1      -0.109  52.522 -23.587  1.00  0.00     0.010 C 
HETATM   29  C3  UNL     1       0.107  52.305 -22.276  1.00  0.00     0.003 C 
BRANCH  29  30
HETATM   30  C2  UNL     1       1.276  52.858 -21.515  1.00  0.00     0.136 C 
HETATM   31  C1  UNL     1       1.504  54.327 -21.841  1.00  0.00     0.043 C 
BRANCH  30  32
HETATM   32  O1  UNL     1       0.969  52.729 -20.131  1.00  0.00    -0.392 OA
HETATM   33  H5  UNL     1       1.750  53.031 -19.635  1.00  0.00     0.210 HD
ENDBRANCH  30  32
ENDBRANCH  29  30
ENDBRANCH   1  28
BRANCH   1  34
HETATM   34  O2  UNL     1      -2.312  52.928 -24.471  1.00  0.00    -0.385 OA
HETATM   35  H8  UNL     1      -1.945  53.803 -24.676  1.00  0.00     0.211 HD
ENDBRANCH   1  34
TORSDOF 12
ENDMDL
MODEL 8
REMARK minimizedAffinity -7.3053956
REMARK CNNscore 0.469486684
REMARK CNNaffinity 4.74191666
REMARK  12 active torsions:
REMARK  status: ('A' for Active; 'I' for Inactive)
REMARK    1  A    between atoms: C2_2  and  O1_3 
REMARK    2  A    between atoms: C2_2  and  C3_4 
REMARK    3  A    between atoms: C4_5  and  C5_6 
REMARK    4  A    between atoms: C5_6  and  O2_7 
REMARK    5  A    between atoms: C8_10  and  O3_11 
REMARK    6  A    between atoms: O3_11  and  C9_12 
REMARK    7  A    between atoms: C10_14  and  C11_15 
REMARK    8  A    between atoms: C11_15  and  O5_16 
REMARK    9  A    between atoms: C12_17  and  O6_18 
REMARK   10  A    between atoms: C13_19  and  O7_20 
REMARK   11  A    between atoms: C14_21  and  O8_22 
REMARK   12  A    between atoms: C15_23  and  O9_24 
ROOT
HETATM    1  C5  UNL     1      -2.047  51.063 -23.056  1.00  0.00     0.088 C 
HETATM    2  C6  UNL     1      -1.547  50.514 -21.688  1.00  0.00     0.052 C 
HETATM    3  C7  UNL     1      -0.198  51.101 -21.236  1.00  0.00     0.016 C 
HETATM    4  C8  UNL     1      -2.595  50.791 -20.578  1.00  0.00     0.160 C 
HETATM    5  C15 UNL     1      -4.056  50.723 -21.088  1.00  0.00     0.148 C 
HETATM    6  C16 UNL     1      -4.190  49.807 -22.301  1.00  0.00     0.046 C 
HETATM    7  C17 UNL     1      -3.329  50.244 -23.522  1.00  0.00    -0.010 C 
HETATM    8  C18 UNL     1      -4.216  51.086 -24.472  1.00  0.00     0.018 C 
HETATM    9  C19 UNL     1      -2.966  48.942 -24.282  1.00  0.00     0.018 C 
ENDROOT
BRANCH   4  10
HETATM   10  O3  UNL     1      -2.417  49.807 -19.538  1.00  0.00    -0.350 OA
BRANCH  10  11
HETATM   11  C9  UNL     1      -2.255  50.410 -18.247  1.00  0.00     0.292 C 
HETATM   12  O4  UNL     1      -0.862  50.605 -18.007  1.00  0.00    -0.348 OA
HETATM   13  C10 UNL     1      -0.593  51.178 -16.723  1.00  0.00     0.179 C 
HETATM   14  C12 UNL     1      -1.081  50.238 -15.612  1.00  0.00     0.180 C 
HETATM   15  C13 UNL     1      -2.579  49.980 -15.790  1.00  0.00     0.183 C 
HETATM   16  C14 UNL     1      -2.881  49.465 -17.198  1.00  0.00     0.204 C 
BRANCH  13  17
HETATM   17  C11 UNL     1       0.914  51.441 -16.598  1.00  0.00     0.198 C 
BRANCH  17  18
HETATM   18  O5  UNL     1       1.249  52.791 -16.910  1.00  0.00    -0.398 OA
HETATM   19  H18 UNL     1       0.582  53.360 -16.467  1.00  0.00     0.209 HD
ENDBRANCH  17  18
ENDBRANCH  13  17
BRANCH  14  20
HETATM   20  O6  UNL     1      -0.845  50.799 -14.314  1.00  0.00    -0.390 OA
HETATM   21  H20 UNL     1      -1.374  50.247 -13.701  1.00  0.00     0.210 HD
ENDBRANCH  14  20
BRANCH  15  22
HETATM   22  O7  UNL     1      -3.011  49.032 -14.802  1.00  0.00    -0.390 OA
HETATM   23  H22 UNL     1      -3.883  48.711 -15.111  1.00  0.00     0.210 HD
ENDBRANCH  15  22
BRANCH  16  24
HETATM   24  O8  UNL     1      -4.311  49.346 -17.330  1.00  0.00    -0.388 OA
HETATM   25  H24 UNL     1      -4.660  50.196 -17.667  1.00  0.00     0.210 HD
ENDBRANCH  16  24
ENDBRANCH  10  11
ENDBRANCH   4  10
BRANCH   5  26
HETATM   26  O9  UNL     1      -4.923  50.236 -20.050  1.00  0.00    -0.393 OA
HETATM   27  H26 UNL     1      -4.629  49.315 -19.897  1.00  0.00     0.210 HD
ENDBRANCH   5  26
BRANCH   1  28
HETATM   28  C4  UNL     1      -0.939  51.047 -24.103  1.00  0.00     0.010 C 
HETATM   29  C3  UNL     1      -0.301  52.094 -24.660  1.00  0.00     0.003 C 
BRANCH  29  30
HETATM   30  C2  UNL     1       0.810  51.965 -25.660  1.00  0.00     0.136 C 
HETATM   31  C1  UNL     1       0.524  50.858 -26.664  1.00  0.00     0.043 C 
BRANCH  30  32
HETATM   32  O1  UNL     1       0.898  53.208 -26.346  1.00  0.00    -0.392 OA
HETATM   33  H5  UNL     1       1.656  53.148 -26.953  1.00  0.00     0.210 HD
ENDBRANCH  30  32
ENDBRANCH  29  30
ENDBRANCH   1  28
BRANCH   1  34
HETATM   34  O2  UNL     1      -2.432  52.423 -22.807  1.00  0.00    -0.385 OA
HETATM   35  H8  UNL     1      -2.597  52.852 -23.662  1.00  0.00     0.211 HD
ENDBRANCH   1  34
TORSDOF 12
ENDMDL
MODEL 9
REMARK minimizedAffinity -7.06269598
REMARK CNNscore 0.410506397
REMARK CNNaffinity 5.08782053
REMARK  12 active torsions:
REMARK  status: ('A' for Active; 'I' for Inactive)
REMARK    1  A    between atoms: C2_2  and  O1_3 
REMARK    2  A    between atoms: C2_2  and  C3_4 
REMARK    3  A    between atoms: C4_5  and  C5_6 
REMARK    4  A    between atoms: C5_6  and  O2_7 
REMARK    5  A    between atoms: C8_10  and  O3_11 
REMARK    6  A    between atoms: O3_11  and  C9_12 
REMARK    7  A    between atoms: C10_14  and  C11_15 
REMARK    8  A    between atoms: C11_15  and  O5_16 
REMARK    9  A    between atoms: C12_17  and  O6_18 
REMARK   10  A    between atoms: C13_19  and  O7_20 
REMARK   11  A    between atoms: C14_21  and  O8_22 
REMARK   12  A    between atoms: C15_23  and  O9_24 
ROOT
HETATM    1  C5  UNL     1       5.988  64.165 -35.361  1.00  0.00     0.088 C 
HETATM    2  C6  UNL     1       6.250  65.425 -36.236  1.00  0.00     0.052 C 
HETATM    3  C7  UNL     1       7.480  65.302 -37.154  1.00  0.00     0.016 C 
HETATM    4  C8  UNL     1       5.014  65.739 -37.118  1.00  0.00     0.160 C 
HETATM    5  C15 UNL     1       3.670  65.394 -36.429  1.00  0.00     0.148 C 
HETATM    6  C16 UNL     1       3.781  65.456 -34.908  1.00  0.00     0.046 C 
HETATM    7  C17 UNL     1       4.834  64.477 -34.311  1.00  0.00    -0.010 C 
HETATM    8  C18 UNL     1       4.108  63.180 -33.876  1.00  0.00     0.018 C 
HETATM    9  C19 UNL     1       5.365  65.150 -33.018  1.00  0.00     0.018 C 
ENDROOT
BRANCH   4  10
HETATM   10  O3  UNL     1       5.030  67.148 -37.428  1.00  0.00    -0.350 OA
BRANCH  10  11
HETATM   11  C9  UNL     1       5.329  67.392 -38.809  1.00  0.00     0.292 C 
HETATM   12  O4  UNL     1       6.533  68.154 -38.888  1.00  0.00    -0.348 OA
HETATM   13  C10 UNL     1       6.901  68.477 -40.233  1.00  0.00     0.179 C 
HETATM   14  C12 UNL     1       5.813  69.343 -40.886  1.00  0.00     0.180 C 
HETATM   15  C13 UNL     1       4.481  68.592 -40.851  1.00  0.00     0.183 C 
HETATM   16  C14 UNL     1       4.137  68.156 -39.427  1.00  0.00     0.204 C 
BRANCH  13  17
HETATM   17  C11 UNL     1       8.252  69.206 -40.221  1.00  0.00     0.198 C 
BRANCH  17  18
HETATM   18  O5  UNL     1       9.270  68.455 -40.876  1.00  0.00    -0.398 OA
HETATM   19  H18 UNL     1       8.876  68.101 -41.703  1.00  0.00     0.209 HD
ENDBRANCH  17  18
ENDBRANCH  13  17
BRANCH  14  20
HETATM   20  O6  UNL     1       6.147  69.661 -42.243  1.00  0.00    -0.390 OA
HETATM   21  H20 UNL     1       5.318  70.015 -42.630  1.00  0.00     0.210 HD
ENDBRANCH  14  20
BRANCH  15  22
HETATM   22  O7  UNL     1       3.452  69.441 -41.382  1.00  0.00    -0.390 OA
HETATM   23  H22 UNL     1       2.606  69.031 -41.106  1.00  0.00     0.210 HD
ENDBRANCH  15  22
BRANCH  16  24
HETATM   24  O8  UNL     1       2.932  67.367 -39.482  1.00  0.00    -0.388 OA
HETATM   25  H24 UNL     1       3.184  66.429 -39.609  1.00  0.00     0.210 HD
ENDBRANCH  16  24
ENDBRANCH  10  11
ENDBRANCH   4  10
BRANCH   5  26
HETATM   26  O9  UNL     1       2.645  66.310 -36.849  1.00  0.00    -0.393 OA
HETATM   27  H26 UNL     1       2.933  67.178 -36.498  1.00  0.00     0.210 HD
ENDBRANCH   5  26
BRANCH   1  28
HETATM   28  C4  UNL     1       7.265  63.676 -34.688  1.00  0.00     0.010 C 
HETATM   29  C3  UNL     1       7.629  62.410 -34.405  1.00  0.00     0.003 C 
BRANCH  29  30
HETATM   30  C2  UNL     1       8.936  62.034 -33.771  1.00  0.00     0.136 C 
HETATM   31  C1  UNL     1       9.777  63.265 -33.466  1.00  0.00     0.043 C 
BRANCH  30  32
HETATM   32  O1  UNL     1       8.629  61.364 -32.555  1.00  0.00    -0.392 OA
HETATM   33  H5  UNL     1       9.472  61.065 -32.171  1.00  0.00     0.210 HD
ENDBRANCH  30  32
ENDBRANCH  29  30
ENDBRANCH   1  28
BRANCH   1  34
HETATM   34  O2  UNL     1       5.526  63.155 -36.270  1.00  0.00    -0.385 OA
HETATM   35  H8  UNL     1       5.505  62.308 -35.796  1.00  0.00     0.211 HD
ENDBRANCH   1  34
TORSDOF 12
ENDMDL
