MODEL 1
REMARK minimizedAffinity -9.34735012
REMARK  7 active torsions:
REMARK  status: ('A' for Active; 'I' for Inactive)
REMARK    1  A    between atoms: O1_2  and  C2_3 
REMARK    2  A    between atoms: C19_21  and  C20_22 
REMARK    3  A    between atoms: C20_22  and  C22_24 
REMARK    4  A    between atoms: C22_24  and  C23_25 
REMARK    5  A    between atoms: C23_25  and  C24_26 
REMARK    6  A    between atoms: C25_27  and  C27_29 
REMARK    7  A    between atoms: C27_29  and  O4_31 
ROOT
HETATM    1  C2  UNL     1      -4.903  47.340 -21.079  1.00  0.00     0.151 C 
HETATM    2  C3  UNL     1      -6.320  47.417 -21.656  1.00  0.00     0.043 C 
HETATM    3  C4  UNL     1      -6.284  47.390 -23.192  1.00  0.00     0.016 C 
HETATM    4  C5  UNL     1      -7.683  47.135 -23.849  1.00  0.00     0.018 C 
HETATM    5  C6  UNL     1      -8.861  47.793 -23.102  1.00  0.00     0.023 C 
HETATM    6  C7  UNL     1      -7.963  45.617 -23.900  1.00  0.00     0.023 C 
HETATM    7  C8  UNL     1      -7.658  47.623 -25.303  1.00  0.00     0.135 C 
HETATM    8  O2  UNL     1      -8.678  47.954 -25.906  1.00  0.00    -0.297 OA
HETATM    9  C9  UNL     1      -6.325  47.599 -26.008  1.00  0.00     0.080 C 
HETATM   10  C10 UNL     1      -5.235  48.365 -25.261  1.00  0.00     0.021 C 
HETATM   11  C11 UNL     1      -5.509  48.636 -23.752  1.00  0.00    -0.015 C 
HETATM   12  C12 UNL     1      -6.318  49.949 -23.612  1.00  0.00     0.020 C 
HETATM   13  C13 UNL     1      -4.170  48.842 -22.989  1.00  0.00    -0.066 C 
HETATM   14  C14 UNL     1      -3.910  48.232 -21.798  1.00  0.00    -0.039 C 
HETATM   15  C15 UNL     1      -2.542  48.426 -21.137  1.00  0.00    -0.010 C 
HETATM   16  C16 UNL     1      -1.627  47.319 -21.756  1.00  0.00     0.021 C 
HETATM   17  C17 UNL     1      -2.402  48.329 -19.604  1.00  0.00     0.015 C 
HETATM   18  C18 UNL     1      -1.096  49.086 -19.270  1.00  0.00     0.007 C 
HETATM   19  C19 UNL     1      -0.741  49.929 -20.517  1.00  0.00    -0.002 C 
HETATM   20  C28 UNL     1      -2.048  49.908 -21.359  1.00  0.00    -0.029 C 
HETATM   21  C29 UNL     1      -3.069  50.961 -20.838  1.00  0.00     0.016 C 
HETATM   22  C30 UNL     1      -1.859  50.116 -22.862  1.00  0.00     0.015 C 
HETATM   23  C31 UNL     1      -3.153  49.799 -23.641  1.00  0.00     0.036 C 
ENDROOT
BRANCH  19  24
HETATM   24  C20 UNL     1       0.078  51.235 -20.307  1.00  0.00    -0.014 C 
HETATM   25  C21 UNL     1      -0.203  51.796 -18.900  1.00  0.00     0.010 C 
BRANCH  24  26
HETATM   26  C22 UNL     1       0.092  52.369 -21.359  1.00  0.00     0.008 C 
BRANCH  26  27
HETATM   27  C23 UNL     1       0.848  52.222 -22.683  1.00  0.00     0.028 C 
BRANCH  27  28
HETATM   28  C24 UNL     1       0.351  53.082 -23.808  1.00  0.00    -0.013 C 
HETATM   29  C25 UNL     1       0.581  52.909 -25.126  1.00  0.00     0.008 C 
HETATM   30  C26 UNL     1       1.428  51.832 -25.732  1.00  0.00     0.055 C 
BRANCH  29  31
HETATM   31  C27 UNL     1      -0.049  53.893 -26.042  1.00  0.00     0.171 C 
HETATM   32  O3  UNL     1      -0.734  53.646 -27.019  1.00  0.00    -0.646 OA
BRANCH  31  33
HETATM   33  O4  UNL     1       0.216  55.162 -25.692  1.00  0.00    -0.773 OA
HETATM   34  H41 UNL     1      -0.253  55.687 -26.372  1.00  0.00     0.167 HD
ENDBRANCH  31  33
ENDBRANCH  29  31
ENDBRANCH  27  28
ENDBRANCH  26  27
ENDBRANCH  24  26
ENDBRANCH  19  24
BRANCH   1  35
HETATM   35  O1  UNL     1      -4.429  45.993 -21.186  1.00  0.00    -0.386 OA
HETATM   36  C1  UNL     1      -4.550  45.260 -19.975  1.00  0.00     0.202 C 
ENDBRANCH   1  35
TORSDOF 7
ENDMDL
MODEL 2
REMARK minimizedAffinity -9.26786137
REMARK  7 active torsions:
REMARK  status: ('A' for Active; 'I' for Inactive)
REMARK    1  A    between atoms: O1_2  and  C2_3 
REMARK    2  A    between atoms: C19_21  and  C20_22 
REMARK    3  A    between atoms: C20_22  and  C22_24 
REMARK    4  A    between atoms: C22_24  and  C23_25 
REMARK    5  A    between atoms: C23_25  and  C24_26 
REMARK    6  A    between atoms: C25_27  and  C27_29 
REMARK    7  A    between atoms: C27_29  and  O4_31 
ROOT
HETATM    1  C2  UNL     1       0.933  52.578 -21.896  1.00  0.00     0.151 C 
HETATM    2  C3  UNL     1       0.713  52.046 -23.315  1.00  0.00     0.043 C 
HETATM    3  C4  UNL     1      -0.734  52.290 -23.769  1.00  0.00     0.016 C 
HETATM    4  C5  UNL     1      -0.954  52.080 -25.307  1.00  0.00     0.018 C 
HETATM    5  C6  UNL     1      -0.123  50.930 -25.912  1.00  0.00     0.023 C 
HETATM    6  C7  UNL     1      -0.573  53.370 -26.066  1.00  0.00     0.023 C 
HETATM    7  C8  UNL     1      -2.444  51.836 -25.577  1.00  0.00     0.135 C 
HETATM    8  O2  UNL     1      -2.844  51.226 -26.569  1.00  0.00    -0.297 OA
HETATM    9  C9  UNL     1      -3.423  52.459 -24.614  1.00  0.00     0.080 C 
HETATM   10  C10 UNL     1      -3.165  52.073 -23.159  1.00  0.00     0.021 C 
HETATM   11  C11 UNL     1      -1.743  51.519 -22.847  1.00  0.00    -0.015 C 
HETATM   12  C12 UNL     1      -1.729  49.991 -23.098  1.00  0.00     0.020 C 
HETATM   13  C13 UNL     1      -1.398  51.737 -21.347  1.00  0.00    -0.066 C 
HETATM   14  C14 UNL     1      -0.196  52.235 -20.942  1.00  0.00    -0.039 C 
HETATM   15  C15 UNL     1       0.050  52.490 -19.452  1.00  0.00    -0.010 C 
HETATM   16  C16 UNL     1      -0.490  53.933 -19.188  1.00  0.00     0.021 C 
HETATM   17  C17 UNL     1       1.482  52.426 -18.882  1.00  0.00     0.015 C 
HETATM   18  C18 UNL     1       1.302  52.186 -17.365  1.00  0.00     0.007 C 
HETATM   19  C19 UNL     1      -0.158  51.715 -17.161  1.00  0.00    -0.002 C 
HETATM   20  C28 UNL     1      -0.629  51.350 -18.598  1.00  0.00    -0.029 C 
HETATM   21  C29 UNL     1      -0.143  49.929 -19.005  1.00  0.00     0.016 C 
HETATM   22  C30 UNL     1      -2.139  51.432 -18.829  1.00  0.00     0.015 C 
HETATM   23  C31 UNL     1      -2.484  51.335 -20.330  1.00  0.00     0.036 C 
ENDROOT
BRANCH  19  24
HETATM   24  C20 UNL     1      -0.467  50.803 -15.940  1.00  0.00    -0.014 C 
HETATM   25  C21 UNL     1       0.316  49.483 -16.074  1.00  0.00     0.010 C 
BRANCH  24  26
HETATM   26  C22 UNL     1      -1.915  50.538 -15.465  1.00  0.00     0.008 C 
BRANCH  26  27
HETATM   27  C23 UNL     1      -2.274  50.504 -13.976  1.00  0.00     0.028 C 
BRANCH  27  28
HETATM   28  C24 UNL     1      -2.904  51.755 -13.436  1.00  0.00    -0.013 C 
HETATM   29  C25 UNL     1      -3.411  51.941 -12.200  1.00  0.00     0.008 C 
HETATM   30  C26 UNL     1      -3.485  50.905 -11.120  1.00  0.00     0.055 C 
BRANCH  29  31
HETATM   31  C27 UNL     1      -3.959  53.289 -11.905  1.00  0.00     0.171 C 
HETATM   32  O3  UNL     1      -4.150  53.775 -10.804  1.00  0.00    -0.646 OA
BRANCH  31  33
HETATM   33  O4  UNL     1      -4.254  53.977 -13.021  1.00  0.00    -0.773 OA
HETATM   34  H41 UNL     1      -4.599  54.827 -12.678  1.00  0.00     0.167 HD
ENDBRANCH  31  33
ENDBRANCH  29  31
ENDBRANCH  27  28
ENDBRANCH  26  27
ENDBRANCH  24  26
ENDBRANCH  19  24
BRANCH   1  35
HETATM   35  O1  UNL     1       1.038  54.006 -21.943  1.00  0.00    -0.386 OA
HETATM   36  C1  UNL     1       1.467  54.494 -23.207  1.00  0.00     0.202 C 
ENDBRANCH   1  35
TORSDOF 7
ENDMDL
MODEL 3
REMARK minimizedAffinity -9.19562817
REMARK  7 active torsions:
REMARK  status: ('A' for Active; 'I' for Inactive)
REMARK    1  A    between atoms: O1_2  and  C2_3 
REMARK    2  A    between atoms: C19_21  and  C20_22 
REMARK    3  A    between atoms: C20_22  and  C22_24 
REMARK    4  A    between atoms: C22_24  and  C23_25 
REMARK    5  A    between atoms: C23_25  and  C24_26 
REMARK    6  A    between atoms: C25_27  and  C27_29 
REMARK    7  A    between atoms: C27_29  and  O4_31 
ROOT
HETATM    1  C2  UNL     1      -4.473  47.865 -19.980  1.00  0.00     0.151 C 
HETATM    2  C3  UNL     1      -5.995  47.831 -20.150  1.00  0.00     0.043 C 
HETATM    3  C4  UNL     1      -6.373  47.454 -21.590  1.00  0.00     0.016 C 
HETATM    4  C5  UNL     1      -7.884  47.078 -21.766  1.00  0.00     0.018 C 
HETATM    5  C6  UNL     1      -8.846  47.908 -20.892  1.00  0.00     0.023 C 
HETATM    6  C7  UNL     1      -8.094  45.593 -21.397  1.00  0.00     0.023 C 
HETATM    7  C8  UNL     1      -8.275  47.222 -23.242  1.00  0.00     0.135 C 
HETATM    8  O2  UNL     1      -9.435  47.422 -23.601  1.00  0.00    -0.297 OA
HETATM    9  C9  UNL     1      -7.182  47.016 -24.260  1.00  0.00     0.080 C 
HETATM   10  C10 UNL     1      -5.968  47.914 -24.031  1.00  0.00     0.021 C 
HETATM   11  C11 UNL     1      -5.838  48.527 -22.605  1.00  0.00    -0.015 C 
HETATM   12  C12 UNL     1      -6.640  49.850 -22.547  1.00  0.00     0.020 C 
HETATM   13  C13 UNL     1      -4.354  48.880 -22.304  1.00  0.00    -0.066 C 
HETATM   14  C14 UNL     1      -3.754  48.553 -21.125  1.00  0.00    -0.039 C 
HETATM   15  C15 UNL     1      -2.269  48.871 -20.924  1.00  0.00    -0.010 C 
HETATM   16  C16 UNL     1      -1.504  47.638 -21.505  1.00  0.00     0.021 C 
HETATM   17  C17 UNL     1      -1.716  49.124 -19.506  1.00  0.00     0.015 C 
HETATM   18  C18 UNL     1      -0.406  49.916 -19.719  1.00  0.00     0.007 C 
HETATM   19  C19 UNL     1      -0.440  50.447 -21.172  1.00  0.00    -0.002 C 
HETATM   20  C28 UNL     1      -1.924  50.255 -21.597  1.00  0.00    -0.029 C 
HETATM   21  C29 UNL     1      -2.815  51.416 -21.066  1.00  0.00     0.016 C 
HETATM   22  C30 UNL     1      -2.157  50.112 -23.102  1.00  0.00     0.015 C 
HETATM   23  C31 UNL     1      -3.597  49.647 -23.406  1.00  0.00     0.036 C 
ENDROOT
BRANCH  19  24
HETATM   24  C20 UNL     1       0.342  51.753 -21.491  1.00  0.00    -0.014 C 
HETATM   25  C21 UNL     1       0.345  52.666 -20.251  1.00  0.00     0.010 C 
BRANCH  24  26
HETATM   26  C22 UNL     1       0.075  52.572 -22.776  1.00  0.00     0.008 C 
BRANCH  26  27
HETATM   27  C23 UNL     1       0.666  52.156 -24.127  1.00  0.00     0.028 C 
BRANCH  27  28
HETATM   28  C24 UNL     1       0.326  53.051 -25.283  1.00  0.00    -0.013 C 
HETATM   29  C25 UNL     1       0.233  52.701 -26.582  1.00  0.00     0.008 C 
HETATM   30  C26 UNL     1       0.498  51.336 -27.141  1.00  0.00     0.055 C 
BRANCH  29  31
HETATM   31  C27 UNL     1      -0.144  53.777 -27.532  1.00  0.00     0.171 C 
HETATM   32  O3  UNL     1      -0.277  54.962 -27.279  1.00  0.00    -0.646 OA
BRANCH  31  33
HETATM   33  O4  UNL     1      -0.345  53.314 -28.777  1.00  0.00    -0.773 OA
HETATM   34  H41 UNL     1      -0.583  54.118 -29.282  1.00  0.00     0.167 HD
ENDBRANCH  31  33
ENDBRANCH  29  31
ENDBRANCH  27  28
ENDBRANCH  26  27
ENDBRANCH  24  26
ENDBRANCH  19  24
BRANCH   1  35
HETATM   35  O1  UNL     1      -3.981  46.522 -19.909  1.00  0.00    -0.386 OA
HETATM   36  C1  UNL     1      -4.493  45.683 -20.935  1.00  0.00     0.202 C 
ENDBRANCH   1  35
TORSDOF 7
ENDMDL
MODEL 4
REMARK minimizedAffinity -8.65896225
REMARK  7 active torsions:
REMARK  status: ('A' for Active; 'I' for Inactive)
REMARK    1  A    between atoms: O1_2  and  C2_3 
REMARK    2  A    between atoms: C19_21  and  C20_22 
REMARK    3  A    between atoms: C20_22  and  C22_24 
REMARK    4  A    between atoms: C22_24  and  C23_25 
REMARK    5  A    between atoms: C23_25  and  C24_26 
REMARK    6  A    between atoms: C25_27  and  C27_29 
REMARK    7  A    between atoms: C27_29  and  O4_31 
ROOT
HETATM    1  C2  UNL     1      -5.479  48.793 -22.479  1.00  0.00     0.151 C 
HETATM    2  C3  UNL     1      -5.900  47.320 -22.440  1.00  0.00     0.043 C 
HETATM    3  C4  UNL     1      -6.022  46.827 -20.990  1.00  0.00     0.016 C 
HETATM    4  C5  UNL     1      -6.756  45.450 -20.854  1.00  0.00     0.018 C 
HETATM    5  C6  UNL     1      -6.459  44.460 -21.999  1.00  0.00     0.023 C 
HETATM    6  C7  UNL     1      -8.284  45.678 -20.830  1.00  0.00     0.023 C 
HETATM    7  C8  UNL     1      -6.388  44.809 -19.510  1.00  0.00     0.135 C 
HETATM    8  O2  UNL     1      -6.444  43.594 -19.321  1.00  0.00    -0.297 OA
HETATM    9  C9  UNL     1      -6.033  45.745 -18.382  1.00  0.00     0.080 C 
HETATM   10  C10 UNL     1      -4.909  46.715 -18.736  1.00  0.00     0.021 C 
HETATM   11  C11 UNL     1      -4.635  46.911 -20.257  1.00  0.00    -0.015 C 
HETATM   12  C12 UNL     1      -3.644  45.822 -20.737  1.00  0.00     0.020 C 
HETATM   13  C13 UNL     1      -3.959  48.288 -20.510  1.00  0.00    -0.066 C 
HETATM   14  C14 UNL     1      -4.369  49.128 -21.502  1.00  0.00    -0.039 C 
HETATM   15  C15 UNL     1      -3.702  50.499 -21.649  1.00  0.00    -0.010 C 
HETATM   16  C16 UNL     1      -4.498  51.447 -20.694  1.00  0.00     0.021 C 
HETATM   17  C17 UNL     1      -3.641  51.186 -23.029  1.00  0.00     0.015 C 
HETATM   18  C18 UNL     1      -2.485  52.207 -22.920  1.00  0.00     0.007 C 
HETATM   19  C19 UNL     1      -1.661  51.813 -21.672  1.00  0.00    -0.002 C 
HETATM   20  C28 UNL     1      -2.159  50.377 -21.342  1.00  0.00    -0.029 C 
HETATM   21  C29 UNL     1      -1.454  49.318 -22.240  1.00  0.00     0.016 C 
HETATM   22  C30 UNL     1      -2.006  49.953 -19.881  1.00  0.00     0.015 C 
HETATM   23  C31 UNL     1      -2.774  48.646 -19.591  1.00  0.00     0.036 C 
ENDROOT
BRANCH  19  24
HETATM   24  C20 UNL     1      -0.151  52.183 -21.646  1.00  0.00    -0.014 C 
HETATM   25  C21 UNL     1       0.179  52.899 -20.323  1.00  0.00     0.010 C 
BRANCH  24  26
HETATM   26  C22 UNL     1       0.539  52.887 -22.839  1.00  0.00     0.008 C 
BRANCH  26  27
HETATM   27  C23 UNL     1       0.638  52.218 -24.213  1.00  0.00     0.028 C 
BRANCH  27  28
HETATM   28  C24 UNL     1       0.226  53.071 -25.377  1.00  0.00    -0.013 C 
HETATM   29  C25 UNL     1       0.413  52.806 -26.686  1.00  0.00     0.008 C 
HETATM   30  C26 UNL     1       1.118  51.607 -27.243  1.00  0.00     0.055 C 
BRANCH  29  31
HETATM   31  C27 UNL     1      -0.112  53.808 -27.647  1.00  0.00     0.171 C 
HETATM   32  O3  UNL     1      -0.315  54.990 -27.431  1.00  0.00    -0.646 OA
BRANCH  31  33
HETATM   33  O4  UNL     1      -0.369  53.276 -28.853  1.00  0.00    -0.773 OA
HETATM   34  H41 UNL     1      -0.703  54.038 -29.370  1.00  0.00     0.167 HD
ENDBRANCH  31  33
ENDBRANCH  29  31
ENDBRANCH  27  28
ENDBRANCH  26  27
ENDBRANCH  24  26
ENDBRANCH  19  24
BRANCH   1  35
HETATM   35  O1  UNL     1      -6.607  49.609 -22.145  1.00  0.00    -0.386 OA
HETATM   36  C1  UNL     1      -7.256  49.205 -20.948  1.00  0.00     0.202 C 
ENDBRANCH   1  35
TORSDOF 7
ENDMDL
MODEL 5
REMARK minimizedAffinity -8.61006641
REMARK  7 active torsions:
REMARK  status: ('A' for Active; 'I' for Inactive)
REMARK    1  A    between atoms: O1_2  and  C2_3 
REMARK    2  A    between atoms: C19_21  and  C20_22 
REMARK    3  A    between atoms: C20_22  and  C22_24 
REMARK    4  A    between atoms: C22_24  and  C23_25 
REMARK    5  A    between atoms: C23_25  and  C24_26 
REMARK    6  A    between atoms: C25_27  and  C27_29 
REMARK    7  A    between atoms: C27_29  and  O4_31 
ROOT
HETATM    1  C2  UNL     1      -5.365  48.074 -23.366  1.00  0.00     0.151 C 
HETATM    2  C3  UNL     1      -6.152  47.016 -22.586  1.00  0.00     0.043 C 
HETATM    3  C4  UNL     1      -7.024  47.672 -21.505  1.00  0.00     0.016 C 
HETATM    4  C5  UNL     1      -8.095  46.708 -20.890  1.00  0.00     0.018 C 
HETATM    5  C6  UNL     1      -7.618  45.250 -20.737  1.00  0.00     0.023 C 
HETATM    6  C7  UNL     1      -9.351  46.688 -21.790  1.00  0.00     0.023 C 
HETATM    7  C8  UNL     1      -8.543  47.250 -19.527  1.00  0.00     0.135 C 
HETATM    8  O2  UNL     1      -9.011  46.524 -18.650  1.00  0.00    -0.297 OA
HETATM    9  C9  UNL     1      -8.469  48.743 -19.329  1.00  0.00     0.080 C 
HETATM   10  C10 UNL     1      -7.083  49.320 -19.605  1.00  0.00     0.021 C 
HETATM   11  C11 UNL     1      -6.132  48.424 -20.454  1.00  0.00    -0.015 C 
HETATM   12  C12 UNL     1      -5.377  47.453 -19.513  1.00  0.00     0.020 C 
HETATM   13  C13 UNL     1      -5.060  49.298 -21.163  1.00  0.00    -0.066 C 
HETATM   14  C14 UNL     1      -4.746  49.138 -22.480  1.00  0.00    -0.039 C 
HETATM   15  C15 UNL     1      -3.730  50.081 -23.131  1.00  0.00    -0.010 C 
HETATM   16  C16 UNL     1      -4.563  51.312 -23.613  1.00  0.00     0.021 C 
HETATM   17  C17 UNL     1      -2.886  49.601 -24.330  1.00  0.00     0.015 C 
HETATM   18  C18 UNL     1      -1.660  50.541 -24.362  1.00  0.00     0.007 C 
HETATM   19  C19 UNL     1      -1.607  51.248 -22.987  1.00  0.00    -0.002 C 
HETATM   20  C28 UNL     1      -2.575  50.409 -22.106  1.00  0.00    -0.029 C 
HETATM   21  C29 UNL     1      -1.876  49.128 -21.565  1.00  0.00     0.016 C 
HETATM   22  C30 UNL     1      -3.198  51.158 -20.927  1.00  0.00     0.015 C 
HETATM   23  C31 UNL     1      -4.346  50.348 -20.289  1.00  0.00     0.036 C 
ENDROOT
BRANCH  19  24
HETATM   24  C20 UNL     1      -0.221  51.721 -22.462  1.00  0.00    -0.014 C 
HETATM   25  C21 UNL     1      -0.401  52.425 -21.104  1.00  0.00     0.010 C 
BRANCH  24  26
HETATM   26  C22 UNL     1       0.771  52.498 -23.358  1.00  0.00     0.008 C 
BRANCH  26  27
HETATM   27  C23 UNL     1       0.860  52.239 -24.865  1.00  0.00     0.028 C 
BRANCH  27  28
HETATM   28  C24 UNL     1       0.227  53.283 -25.737  1.00  0.00    -0.013 C 
HETATM   29  C25 UNL     1      -0.181  53.136 -27.014  1.00  0.00     0.008 C 
HETATM   30  C26 UNL     1      -0.040  51.894 -27.840  1.00  0.00     0.055 C 
BRANCH  29  31
HETATM   31  C27 UNL     1      -0.803  54.324 -27.651  1.00  0.00     0.171 C 
HETATM   32  O3  UNL     1      -1.797  54.339 -28.357  1.00  0.00    -0.646 OA
BRANCH  31  33
HETATM   33  O4  UNL     1      -0.140  55.459 -27.376  1.00  0.00    -0.773 OA
HETATM   34  H41 UNL     1      -0.653  56.143 -27.853  1.00  0.00     0.167 HD
ENDBRANCH  31  33
ENDBRANCH  29  31
ENDBRANCH  27  28
ENDBRANCH  26  27
ENDBRANCH  24  26
ENDBRANCH  19  24
BRANCH   1  35
HETATM   35  O1  UNL     1      -6.250  48.734 -24.278  1.00  0.00    -0.386 OA
HETATM   36  C1  UNL     1      -7.440  49.204 -23.662  1.00  0.00     0.202 C 
ENDBRANCH   1  35
TORSDOF 7
ENDMDL
MODEL 6
REMARK minimizedAffinity -8.60866642
REMARK  7 active torsions:
REMARK  status: ('A' for Active; 'I' for Inactive)
REMARK    1  A    between atoms: O1_2  and  C2_3 
REMARK    2  A    between atoms: C19_21  and  C20_22 
REMARK    3  A    between atoms: C20_22  and  C22_24 
REMARK    4  A    between atoms: C22_24  and  C23_25 
REMARK    5  A    between atoms: C23_25  and  C24_26 
REMARK    6  A    between atoms: C25_27  and  C27_29 
REMARK    7  A    between atoms: C27_29  and  O4_31 
ROOT
HETATM    1  C2  UNL     1      -4.645  47.567 -20.675  1.00  0.00     0.151 C 
HETATM    2  C3  UNL     1      -6.127  47.421 -21.034  1.00  0.00     0.043 C 
HETATM    3  C4  UNL     1      -6.312  47.330 -22.556  1.00  0.00     0.016 C 
HETATM    4  C5  UNL     1      -7.741  46.854 -22.989  1.00  0.00     0.018 C 
HETATM    5  C6  UNL     1      -8.879  47.375 -22.089  1.00  0.00     0.023 C 
HETATM    6  C7  UNL     1      -7.803  45.311 -22.961  1.00  0.00     0.023 C 
HETATM    7  C8  UNL     1      -7.998  47.276 -24.441  1.00  0.00     0.135 C 
HETATM    8  O2  UNL     1      -9.133  47.434 -24.891  1.00  0.00    -0.297 OA
HETATM    9  C9  UNL     1      -6.793  47.406 -25.338  1.00  0.00     0.080 C 
HETATM   10  C10 UNL     1      -5.728  48.348 -24.782  1.00  0.00     0.021 C 
HETATM   11  C11 UNL     1      -5.815  48.646 -23.256  1.00  0.00    -0.015 C 
HETATM   12  C12 UNL     1      -6.776  49.839 -23.026  1.00  0.00     0.020 C 
HETATM   13  C13 UNL     1      -4.423  49.070 -22.709  1.00  0.00    -0.066 C 
HETATM   14  C14 UNL     1      -3.907  48.556 -21.557  1.00  0.00    -0.039 C 
HETATM   15  C15 UNL     1      -2.499  48.967 -21.115  1.00  0.00    -0.010 C 
HETATM   16  C16 UNL     1      -1.535  47.972 -21.838  1.00  0.00     0.021 C 
HETATM   17  C17 UNL     1      -2.125  48.959 -19.618  1.00  0.00     0.015 C 
HETATM   18  C18 UNL     1      -0.906  49.904 -19.503  1.00  0.00     0.007 C 
HETATM   19  C19 UNL     1      -0.862  50.733 -20.808  1.00  0.00    -0.002 C 
HETATM   20  C28 UNL     1      -2.261  50.492 -21.443  1.00  0.00    -0.029 C 
HETATM   21  C29 UNL     1      -3.337  51.415 -20.798  1.00  0.00     0.016 C 
HETATM   22  C30 UNL     1      -2.326  50.657 -22.962  1.00  0.00     0.015 C 
HETATM   23  C31 UNL     1      -3.660  50.129 -23.529  1.00  0.00     0.036 C 
ENDROOT
BRANCH  19  24
HETATM   24  C20 UNL     1      -0.218  52.148 -20.755  1.00  0.00    -0.014 C 
HETATM   25  C21 UNL     1       1.059  52.163 -21.614  1.00  0.00     0.010 C 
BRANCH  24  26
HETATM   26  C22 UNL     1       0.009  52.892 -19.418  1.00  0.00     0.008 C 
BRANCH  26  27
HETATM   27  C23 UNL     1       1.289  52.694 -18.600  1.00  0.00     0.028 C 
BRANCH  27  28
HETATM   28  C24 UNL     1       1.083  52.289 -17.169  1.00  0.00    -0.013 C 
HETATM   29  C25 UNL     1       1.997  52.316 -16.178  1.00  0.00     0.008 C 
HETATM   30  C26 UNL     1       3.433  52.720 -16.322  1.00  0.00     0.055 C 
BRANCH  29  31
HETATM   31  C27 UNL     1       1.532  51.883 -14.836  1.00  0.00     0.171 C 
HETATM   32  O3  UNL     1       1.820  50.847 -14.262  1.00  0.00    -0.646 OA
BRANCH  31  33
HETATM   33  O4  UNL     1       0.709  52.778 -14.266  1.00  0.00    -0.773 OA
HETATM   34  H41 UNL     1       0.487  52.366 -13.406  1.00  0.00     0.167 HD
ENDBRANCH  31  33
ENDBRANCH  29  31
ENDBRANCH  27  28
ENDBRANCH  26  27
ENDBRANCH  24  26
ENDBRANCH  19  24
BRANCH   1  35
HETATM   35  O1  UNL     1      -4.002  46.296 -20.821  1.00  0.00    -0.386 OA
HETATM   36  C1  UNL     1      -3.857  45.598 -19.592  1.00  0.00     0.202 C 
ENDBRANCH   1  35
TORSDOF 7
ENDMDL
MODEL 7
REMARK minimizedAffinity -8.589324
REMARK  7 active torsions:
REMARK  status: ('A' for Active; 'I' for Inactive)
REMARK    1  A    between atoms: O1_2  and  C2_3 
REMARK    2  A    between atoms: C19_21  and  C20_22 
REMARK    3  A    between atoms: C20_22  and  C22_24 
REMARK    4  A    between atoms: C22_24  and  C23_25 
REMARK    5  A    between atoms: C23_25  and  C24_26 
REMARK    6  A    between atoms: C25_27  and  C27_29 
REMARK    7  A    between atoms: C27_29  and  O4_31 
ROOT
HETATM    1  C2  UNL     1       0.686  52.403 -22.023  1.00  0.00     0.151 C 
HETATM    2  C3  UNL     1       0.523  51.892 -23.458  1.00  0.00     0.043 C 
HETATM    3  C4  UNL     1      -0.887  52.196 -23.986  1.00  0.00     0.016 C 
HETATM    4  C5  UNL     1      -1.032  52.006 -25.535  1.00  0.00     0.018 C 
HETATM    5  C6  UNL     1      -0.214  50.830 -26.106  1.00  0.00     0.023 C 
HETATM    6  C7  UNL     1      -0.561  53.287 -26.260  1.00  0.00     0.023 C 
HETATM    7  C8  UNL     1      -2.513  51.823 -25.888  1.00  0.00     0.135 C 
HETATM    8  O2  UNL     1      -2.882  51.237 -26.906  1.00  0.00    -0.297 OA
HETATM    9  C9  UNL     1      -3.518  52.475 -24.973  1.00  0.00     0.080 C 
HETATM   10  C10 UNL     1      -3.354  52.068 -23.510  1.00  0.00     0.021 C 
HETATM   11  C11 UNL     1      -1.974  51.456 -23.127  1.00  0.00    -0.015 C 
HETATM   12  C12 UNL     1      -2.004  49.931 -23.393  1.00  0.00     0.020 C 
HETATM   13  C13 UNL     1      -1.702  51.649 -21.609  1.00  0.00    -0.066 C 
HETATM   14  C14 UNL     1      -0.505  52.097 -21.135  1.00  0.00    -0.039 C 
HETATM   15  C15 UNL     1      -0.331  52.330 -19.631  1.00  0.00    -0.010 C 
HETATM   16  C16 UNL     1      -0.829  53.790 -19.382  1.00  0.00     0.021 C 
HETATM   17  C17 UNL     1       1.064  52.206 -18.985  1.00  0.00     0.015 C 
HETATM   18  C18 UNL     1       0.793  51.960 -17.483  1.00  0.00     0.007 C 
HETATM   19  C19 UNL     1      -0.692  51.545 -17.363  1.00  0.00    -0.002 C 
HETATM   20  C28 UNL     1      -1.099  51.210 -18.826  1.00  0.00    -0.029 C 
HETATM   21  C29 UNL     1      -0.646  49.774 -19.221  1.00  0.00     0.016 C 
HETATM   22  C30 UNL     1      -2.590  51.353 -19.138  1.00  0.00     0.015 C 
HETATM   23  C31 UNL     1      -2.857  51.281 -20.656  1.00  0.00     0.036 C 
ENDROOT
BRANCH  19  24
HETATM   24  C20 UNL     1      -1.103  50.636 -16.170  1.00  0.00    -0.014 C 
HETATM   25  C21 UNL     1      -2.633  50.461 -16.161  1.00  0.00     0.010 C 
BRANCH  24  26
HETATM   26  C22 UNL     1      -0.567  50.874 -14.738  1.00  0.00     0.008 C 
BRANCH  26  27
HETATM   27  C23 UNL     1       0.799  51.521 -14.493  1.00  0.00     0.028 C 
BRANCH  27  28
HETATM   28  C24 UNL     1       1.878  50.591 -14.021  1.00  0.00    -0.013 C 
HETATM   29  C25 UNL     1       3.199  50.683 -14.276  1.00  0.00     0.008 C 
HETATM   30  C26 UNL     1       3.855  51.725 -15.130  1.00  0.00     0.055 C 
BRANCH  29  31
HETATM   31  C27 UNL     1       4.065  49.641 -13.667  1.00  0.00     0.171 C 
HETATM   32  O3  UNL     1       5.198  49.789 -13.245  1.00  0.00    -0.646 OA
BRANCH  31  33
HETATM   33  O4  UNL     1       3.464  48.440 -13.619  1.00  0.00    -0.773 OA
HETATM   34  H41 UNL     1       4.140  47.866 -13.204  1.00  0.00     0.167 HD
ENDBRANCH  31  33
ENDBRANCH  29  31
ENDBRANCH  27  28
ENDBRANCH  26  27
ENDBRANCH  24  26
ENDBRANCH  19  24
BRANCH   1  35
HETATM   35  O1  UNL     1       0.847  53.826 -22.050  1.00  0.00    -0.386 OA
HETATM   36  C1  UNL     1       2.126  54.253 -21.602  1.00  0.00     0.202 C 
ENDBRANCH   1  35
TORSDOF 7
ENDMDL
MODEL 8
REMARK minimizedAffinity -8.58863831
REMARK  7 active torsions:
REMARK  status: ('A' for Active; 'I' for Inactive)
REMARK    1  A    between atoms: O1_2  and  C2_3 
REMARK    2  A    between atoms: C19_21  and  C20_22 
REMARK    3  A    between atoms: C20_22  and  C22_24 
REMARK    4  A    between atoms: C22_24  and  C23_25 
REMARK    5  A    between atoms: C23_25  and  C24_26 
REMARK    6  A    between atoms: C25_27  and  C27_29 
REMARK    7  A    between atoms: C27_29  and  O4_31 
ROOT
HETATM    1  C2  UNL     1      -3.311  48.792 -22.918  1.00  0.00     0.151 C 
HETATM    2  C3  UNL     1      -4.061  47.514 -22.529  1.00  0.00     0.043 C 
HETATM    3  C4  UNL     1      -5.346  47.850 -21.758  1.00  0.00     0.016 C 
HETATM    4  C5  UNL     1      -6.327  46.637 -21.613  1.00  0.00     0.018 C 
HETATM    5  C6  UNL     1      -5.626  45.278 -21.417  1.00  0.00     0.023 C 
HETATM    6  C7  UNL     1      -7.202  46.523 -22.881  1.00  0.00     0.023 C 
HETATM    7  C8  UNL     1      -7.284  46.896 -20.443  1.00  0.00     0.135 C 
HETATM    8  O2  UNL     1      -7.841  45.984 -19.830  1.00  0.00    -0.297 OA
HETATM    9  C9  UNL     1      -7.595  48.336 -20.120  1.00  0.00     0.080 C 
HETATM   10  C10 UNL     1      -6.347  49.179 -19.871  1.00  0.00     0.021 C 
HETATM   11  C11 UNL     1      -5.011  48.592 -20.415  1.00  0.00    -0.015 C 
HETATM   12  C12 UNL     1      -4.402  47.646 -19.351  1.00  0.00     0.020 C 
HETATM   13  C13 UNL     1      -3.980  49.731 -20.656  1.00  0.00    -0.066 C 
HETATM   14  C14 UNL     1      -3.242  49.813 -21.799  1.00  0.00    -0.039 C 
HETATM   15  C15 UNL     1      -2.296  51.001 -21.998  1.00  0.00    -0.010 C 
HETATM   16  C16 UNL     1      -3.176  52.123 -22.639  1.00  0.00     0.021 C 
HETATM   17  C17 UNL     1      -1.037  50.850 -22.877  1.00  0.00     0.015 C 
HETATM   18  C18 UNL     1      -0.090  51.985 -22.425  1.00  0.00     0.007 C 
HETATM   19  C19 UNL     1      -0.623  52.491 -21.063  1.00  0.00    -0.002 C 
HETATM   20  C28 UNL     1      -1.619  51.381 -20.624  1.00  0.00    -0.029 C 
HETATM   21  C29 UNL     1      -0.871  50.179 -19.976  1.00  0.00     0.016 C 
HETATM   22  C30 UNL     1      -2.725  51.836 -19.670  1.00  0.00     0.015 C 
HETATM   23  C31 UNL     1      -3.816  50.756 -19.517  1.00  0.00     0.036 C 
ENDROOT
BRANCH  19  24
HETATM   24  C20 UNL     1       0.394  53.120 -20.069  1.00  0.00    -0.014 C 
HETATM   25  C21 UNL     1       1.716  53.411 -20.802  1.00  0.00     0.010 C 
BRANCH  24  26
HETATM   26  C22 UNL     1       0.661  52.506 -18.675  1.00  0.00     0.008 C 
BRANCH  26  27
HETATM   27  C23 UNL     1       1.868  52.930 -17.832  1.00  0.00     0.028 C 
BRANCH  27  28
HETATM   28  C24 UNL     1       1.918  52.359 -16.445  1.00  0.00    -0.013 C 
HETATM   29  C25 UNL     1       3.020  52.112 -15.707  1.00  0.00     0.008 C 
HETATM   30  C26 UNL     1       4.435  52.321 -16.152  1.00  0.00     0.055 C 
BRANCH  29  31
HETATM   31  C27 UNL     1       2.796  51.563 -14.345  1.00  0.00     0.171 C 
HETATM   32  O3  UNL     1       1.907  51.872 -13.571  1.00  0.00    -0.646 OA
BRANCH  31  33
HETATM   33  O4  UNL     1       3.713  50.642 -14.007  1.00  0.00    -0.773 OA
HETATM   34  H41 UNL     1       3.445  50.377 -13.104  1.00  0.00     0.167 HD
ENDBRANCH  31  33
ENDBRANCH  29  31
ENDBRANCH  27  28
ENDBRANCH  26  27
ENDBRANCH  24  26
ENDBRANCH  19  24
BRANCH   1  35
HETATM   35  O1  UNL     1      -3.983  49.409 -24.022  1.00  0.00    -0.386 OA
HETATM   36  C1  UNL     1      -4.533  48.471 -24.937  1.00  0.00     0.202 C 
ENDBRANCH   1  35
TORSDOF 7
ENDMDL
MODEL 9
REMARK minimizedAffinity -8.5770483
REMARK  7 active torsions:
REMARK  status: ('A' for Active; 'I' for Inactive)
REMARK    1  A    between atoms: O1_2  and  C2_3 
REMARK    2  A    between atoms: C19_21  and  C20_22 
REMARK    3  A    between atoms: C20_22  and  C22_24 
REMARK    4  A    between atoms: C22_24  and  C23_25 
REMARK    5  A    between atoms: C23_25  and  C24_26 
REMARK    6  A    between atoms: C25_27  and  C27_29 
REMARK    7  A    between atoms: C27_29  and  O4_31 
ROOT
HETATM    1  C2  UNL     1      -4.475  49.251 -20.281  1.00  0.00     0.151 C 
HETATM    2  C3  UNL     1      -5.881  49.215 -19.674  1.00  0.00     0.043 C 
HETATM    3  C4  UNL     1      -6.639  47.961 -20.133  1.00  0.00     0.016 C 
HETATM    4  C5  UNL     1      -7.943  47.678 -19.311  1.00  0.00     0.018 C 
HETATM    5  C6  UNL     1      -8.708  48.948 -18.885  1.00  0.00     0.023 C 
HETATM    6  C7  UNL     1      -7.586  46.904 -18.023  1.00  0.00     0.023 C 
HETATM    7  C8  UNL     1      -8.870  46.768 -20.126  1.00  0.00     0.135 C 
HETATM    8  O2  UNL     1     -10.088  46.738 -19.950  1.00  0.00    -0.297 OA
HETATM    9  C9  UNL     1      -8.214  45.828 -21.106  1.00  0.00     0.080 C 
HETATM   10  C10 UNL     1      -7.299  46.538 -22.101  1.00  0.00     0.021 C 
HETATM   11  C11 UNL     1      -6.831  47.966 -21.692  1.00  0.00    -0.015 C 
HETATM   12  C12 UNL     1      -7.888  48.998 -22.156  1.00  0.00     0.020 C 
HETATM   13  C13 UNL     1      -5.499  48.323 -22.410  1.00  0.00    -0.066 C 
HETATM   14  C14 UNL     1      -4.444  48.881 -21.752  1.00  0.00    -0.039 C 
HETATM   15  C15 UNL     1      -3.138  49.141 -22.508  1.00  0.00    -0.010 C 
HETATM   16  C16 UNL     1      -2.331  47.807 -22.405  1.00  0.00     0.021 C 
HETATM   17  C17 UNL     1      -2.198  50.280 -22.061  1.00  0.00     0.015 C 
HETATM   18  C18 UNL     1      -1.330  50.596 -23.301  1.00  0.00     0.007 C 
HETATM   19  C19 UNL     1      -2.038  49.951 -24.515  1.00  0.00    -0.002 C 
HETATM   20  C28 UNL     1      -3.460  49.621 -23.977  1.00  0.00    -0.029 C 
HETATM   21  C29 UNL     1      -4.378  50.877 -24.007  1.00  0.00     0.016 C 
HETATM   22  C30 UNL     1      -4.178  48.476 -24.694  1.00  0.00     0.015 C 
HETATM   23  C31 UNL     1      -5.440  48.035 -23.924  1.00  0.00     0.036 C 
ENDROOT
BRANCH  19  24
HETATM   24  C20 UNL     1      -1.820  50.593 -25.915  1.00  0.00    -0.014 C 
HETATM   25  C21 UNL     1      -2.893  50.075 -26.890  1.00  0.00     0.010 C 
BRANCH  24  26
HETATM   26  C22 UNL     1      -0.430  50.625 -26.592  1.00  0.00     0.008 C 
BRANCH  26  27
HETATM   27  C23 UNL     1       0.746  51.385 -25.969  1.00  0.00     0.028 C 
BRANCH  27  28
HETATM   28  C24 UNL     1       0.646  52.882 -26.020  1.00  0.00    -0.013 C 
HETATM   29  C25 UNL     1       0.640  53.732 -24.974  1.00  0.00     0.008 C 
HETATM   30  C26 UNL     1       0.687  53.340 -23.528  1.00  0.00     0.055 C 
BRANCH  29  31
HETATM   31  C27 UNL     1       0.555  55.179 -25.296  1.00  0.00     0.171 C 
HETATM   32  O3  UNL     1       0.066  55.677 -26.295  1.00  0.00    -0.646 OA
BRANCH  31  33
HETATM   33  O4  UNL     1       1.101  55.950 -24.340  1.00  0.00    -0.773 OA
HETATM   34  H41 UNL     1       0.975  56.858 -24.684  1.00  0.00     0.167 HD
ENDBRANCH  31  33
ENDBRANCH  29  31
ENDBRANCH  27  28
ENDBRANCH  26  27
ENDBRANCH  24  26
ENDBRANCH  19  24
BRANCH   1  35
HETATM   35  O1  UNL     1      -3.641  48.318 -19.585  1.00  0.00    -0.386 OA
HETATM   36  C1  UNL     1      -2.680  48.944 -18.746  1.00  0.00     0.202 C 
ENDBRANCH   1  35
TORSDOF 7
ENDMDL
