MODEL 1
REMARK minimizedAffinity -9.49186325
REMARK CNNscore 0.622667432
REMARK CNNaffinity 7.30029154
REMARK  3 active torsions:
REMARK  status: ('A' for Active; 'I' for Inactive)
REMARK    1  A    between atoms: C2_2  and  O1_3 
REMARK    2  A    between atoms: O1_3  and  C3_4 
REMARK    3  A    between atoms: C3_4  and  C4_6 
ROOT
HETATM    1  C4  UNL     1      -6.607   6.168  13.887  1.00  0.00     0.045 C 
HETATM    2  C5  UNL     1      -7.734   7.214  13.834  1.00  0.00     0.026 C 
HETATM    3  C6  UNL     1      -6.311   5.742  15.348  1.00  0.00     0.020 C 
HETATM    4  C7  UNL     1      -5.161   6.531  15.975  1.00  0.00     0.011 C 
HETATM    5  C8  UNL     1      -3.814   6.323  15.224  1.00  0.00    -0.036 C 
HETATM    6  C9  UNL     1      -3.099   5.082  15.819  1.00  0.00     0.016 C 
HETATM    7  C10 UNL     1      -2.925   7.564  15.480  1.00  0.00     0.011 C 
HETATM    8  C11 UNL     1      -1.689   7.671  14.568  1.00  0.00     0.015 C 
HETATM    9  C12 UNL     1      -1.998   7.606  13.039  1.00  0.00    -0.013 C 
HETATM   10  C13 UNL     1      -2.871   8.834  12.654  1.00  0.00     0.021 C 
HETATM   11  C14 UNL     1      -2.807   6.318  12.864  1.00  0.00    -0.070 C 
HETATM   12  C15 UNL     1      -2.356   5.290  12.131  1.00  0.00    -0.022 C 
HETATM   13  C16 UNL     1      -1.010   5.205  11.508  1.00  0.00     0.033 C 
HETATM   14  C17 UNL     1       0.046   6.227  12.035  1.00  0.00     0.007 C 
HETATM   15  C18 UNL     1       1.386   6.127  11.145  1.00  0.00    -0.034 C 
HETATM   16  C19 UNL     1       1.694   4.592  10.996  1.00  0.00     0.016 C 
HETATM   17  C20 UNL     1       2.634   6.708  11.879  1.00  0.00     0.017 C 
HETATM   18  C21 UNL     1       3.458   7.805  11.204  1.00  0.00     0.080 C 
HETATM   19  C22 UNL     1       3.401   7.938   9.700  1.00  0.00     0.135 C 
HETATM   20  O3  UNL     1       4.102   8.786   9.141  1.00  0.00    -0.297 OA
HETATM   21  C23 UNL     1       2.496   7.005   8.905  1.00  0.00     0.017 C 
HETATM   22  C24 UNL     1       3.314   5.735   8.612  1.00  0.00     0.023 C 
HETATM   23  C25 UNL     1       2.174   7.642   7.531  1.00  0.00     0.023 C 
HETATM   24  C26 UNL     1       1.172   6.768   9.728  1.00  0.00     0.009 C 
HETATM   25  C27 UNL     1       0.334   8.077   9.770  1.00  0.00     0.007 C 
HETATM   26  C28 UNL     1      -0.898   8.091  10.677  1.00  0.00     0.011 C 
HETATM   27  C29 UNL     1      -0.622   7.648  12.139  1.00  0.00    -0.028 C 
HETATM   28  C30 UNL     1       0.329   8.692  12.779  1.00  0.00     0.016 C 
HETATM   29  C31 UNL     1      -4.065   6.081  13.704  1.00  0.00     0.024 C 
HETATM   30  C32 UNL     1      -5.343   6.778  13.210  1.00  0.00     0.029 C 
ENDROOT
BRANCH   1  31
HETATM   31  C3  UNL     1      -7.081   4.934  13.104  1.00  0.00     0.267 C 
HETATM   32  O2  UNL     1      -8.154   4.831  12.526  1.00  0.00    -0.264 OA
BRANCH  31  33
HETATM   33  O1  UNL     1      -6.127   3.958  13.132  1.00  0.00    -0.321 OA
BRANCH  33  34
HETATM   34  C2  UNL     1      -5.810   3.399  11.852  1.00  0.00     0.174 C 
HETATM   35  C1  UNL     1      -6.337   1.977  11.812  1.00  0.00     0.034 C 
ENDBRANCH  33  34
ENDBRANCH  31  33
ENDBRANCH   1  31
TORSDOF 3
ENDMDL
MODEL 2
REMARK minimizedAffinity -8.46546459
REMARK CNNscore 0.550155044
REMARK CNNaffinity 7.24648905
REMARK  3 active torsions:
REMARK  status: ('A' for Active; 'I' for Inactive)
REMARK    1  A    between atoms: C2_2  and  O1_3 
REMARK    2  A    between atoms: O1_3  and  C3_4 
REMARK    3  A    between atoms: C3_4  and  C4_6 
ROOT
HETATM    1  C4  UNL     1      -7.603   4.969  12.892  1.00  0.00     0.045 C 
HETATM    2  C5  UNL     1      -8.549   5.262  11.714  1.00  0.00     0.026 C 
HETATM    3  C6  UNL     1      -8.322   5.185  14.249  1.00  0.00     0.020 C 
HETATM    4  C7  UNL     1      -8.084   6.578  14.832  1.00  0.00     0.011 C 
HETATM    5  C8  UNL     1      -6.582   6.852  15.133  1.00  0.00    -0.036 C 
HETATM    6  C9  UNL     1      -6.263   6.353  16.567  1.00  0.00     0.016 C 
HETATM    7  C10 UNL     1      -6.353   8.382  15.090  1.00  0.00     0.011 C 
HETATM    8  C11 UNL     1      -4.876   8.813  15.058  1.00  0.00     0.015 C 
HETATM    9  C12 UNL     1      -4.033   8.168  13.913  1.00  0.00    -0.013 C 
HETATM   10  C13 UNL     1      -4.604   8.639  12.546  1.00  0.00     0.021 C 
HETATM   11  C14 UNL     1      -4.251   6.661  14.077  1.00  0.00    -0.070 C 
HETATM   12  C15 UNL     1      -3.245   5.826  14.373  1.00  0.00    -0.022 C 
HETATM   13  C16 UNL     1      -1.854   6.237  14.693  1.00  0.00     0.033 C 
HETATM   14  C17 UNL     1      -1.655   7.747  15.035  1.00  0.00     0.007 C 
HETATM   15  C18 UNL     1      -0.082   8.066  15.183  1.00  0.00    -0.034 C 
HETATM   16  C19 UNL     1       0.513   6.911  16.069  1.00  0.00     0.016 C 
HETATM   17  C20 UNL     1       0.189   9.367  15.999  1.00  0.00     0.017 C 
HETATM   18  C21 UNL     1       1.036  10.479  15.379  1.00  0.00     0.080 C 
HETATM   19  C22 UNL     1       2.004  10.127  14.274  1.00  0.00     0.135 C 
HETATM   20  O3  UNL     1       2.730  11.007  13.803  1.00  0.00    -0.297 OA
HETATM   21  C23 UNL     1       2.079   8.687  13.783  1.00  0.00     0.017 C 
HETATM   22  C24 UNL     1       3.086   7.959  14.692  1.00  0.00     0.023 C 
HETATM   23  C25 UNL     1       2.681   8.658  12.356  1.00  0.00     0.023 C 
HETATM   24  C26 UNL     1       0.625   8.080  13.780  1.00  0.00     0.009 C 
HETATM   25  C27 UNL     1      -0.230   8.757  12.673  1.00  0.00     0.007 C 
HETATM   26  C28 UNL     1      -1.723   8.426  12.639  1.00  0.00     0.011 C 
HETATM   27  C29 UNL     1      -2.453   8.618  13.996  1.00  0.00    -0.028 C 
HETATM   28  C30 UNL     1      -2.409  10.128  14.348  1.00  0.00     0.016 C 
HETATM   29  C31 UNL     1      -5.671   6.091  14.120  1.00  0.00     0.024 C 
HETATM   30  C32 UNL     1      -6.358   5.896  12.759  1.00  0.00     0.029 C 
ENDROOT
BRANCH   1  31
HETATM   31  C3  UNL     1      -7.178   3.497  12.792  1.00  0.00     0.267 C 
HETATM   32  O2  UNL     1      -7.892   2.534  13.040  1.00  0.00    -0.264 OA
BRANCH  31  33
HETATM   33  O1  UNL     1      -5.883   3.404  12.374  1.00  0.00    -0.321 OA
BRANCH  33  34
HETATM   34  C2  UNL     1      -5.716   2.810  11.081  1.00  0.00     0.174 C 
HETATM   35  C1  UNL     1      -5.594   1.309  11.259  1.00  0.00     0.034 C 
ENDBRANCH  33  34
ENDBRANCH  31  33
ENDBRANCH   1  31
TORSDOF 3
ENDMDL
MODEL 3
REMARK minimizedAffinity -6.18368816
REMARK CNNscore 0.525262594
REMARK CNNaffinity 6.50339079
REMARK  3 active torsions:
REMARK  status: ('A' for Active; 'I' for Inactive)
REMARK    1  A    between atoms: C2_2  and  O1_3 
REMARK    2  A    between atoms: O1_3  and  C3_4 
REMARK    3  A    between atoms: C3_4  and  C4_6 
ROOT
HETATM    1  C4  UNL     1     -13.058   2.922  24.528  1.00  0.00     0.045 C 
HETATM    2  C5  UNL     1     -11.660   2.279  24.466  1.00  0.00     0.026 C 
HETATM    3  C6  UNL     1     -13.934   2.464  23.334  1.00  0.00     0.020 C 
HETATM    4  C7  UNL     1     -13.897   3.444  22.161  1.00  0.00     0.011 C 
HETATM    5  C8  UNL     1     -14.447   4.850  22.538  1.00  0.00    -0.036 C 
HETATM    6  C9  UNL     1     -15.982   4.859  22.313  1.00  0.00     0.016 C 
HETATM    7  C10 UNL     1     -13.811   5.888  21.582  1.00  0.00     0.011 C 
HETATM    8  C11 UNL     1     -14.000   7.355  22.006  1.00  0.00     0.015 C 
HETATM    9  C12 UNL     1     -13.526   7.682  23.458  1.00  0.00    -0.013 C 
HETATM   10  C13 UNL     1     -11.991   7.448  23.547  1.00  0.00     0.021 C 
HETATM   11  C14 UNL     1     -14.259   6.666  24.339  1.00  0.00    -0.070 C 
HETATM   12  C15 UNL     1     -15.150   7.045  25.267  1.00  0.00    -0.022 C 
HETATM   13  C16 UNL     1     -15.627   8.434  25.484  1.00  0.00     0.033 C 
HETATM   14  C17 UNL     1     -15.321   9.443  24.332  1.00  0.00     0.007 C 
HETATM   15  C18 UNL     1     -15.740  10.930  24.790  1.00  0.00    -0.034 C 
HETATM   16  C19 UNL     1     -17.164  10.798  25.444  1.00  0.00     0.016 C 
HETATM   17  C20 UNL     1     -15.952  11.891  23.579  1.00  0.00     0.017 C 
HETATM   18  C21 UNL     1     -15.170  13.202  23.515  1.00  0.00     0.080 C 
HETATM   19  C22 UNL     1     -14.637  13.796  24.798  1.00  0.00     0.135 C 
HETATM   20  O3  UNL     1     -14.049  14.881  24.764  1.00  0.00    -0.297 OA
HETATM   21  C23 UNL     1     -14.859  13.052  26.109  1.00  0.00     0.017 C 
HETATM   22  C24 UNL     1     -16.230  13.499  26.648  1.00  0.00     0.023 C 
HETATM   23  C25 UNL     1     -13.811  13.515  27.151  1.00  0.00     0.023 C 
HETATM   24  C26 UNL     1     -14.722  11.506  25.839  1.00  0.00     0.009 C 
HETATM   25  C27 UNL     1     -13.244  11.153  25.511  1.00  0.00     0.007 C 
HETATM   26  C28 UNL     1     -12.950   9.727  25.042  1.00  0.00     0.011 C 
HETATM   27  C29 UNL     1     -13.834   9.247  23.859  1.00  0.00    -0.028 C 
HETATM   28  C30 UNL     1     -13.495  10.126  22.627  1.00  0.00     0.016 C 
HETATM   29  C31 UNL     1     -14.155   5.170  24.036  1.00  0.00     0.024 C 
HETATM   30  C32 UNL     1     -12.883   4.470  24.540  1.00  0.00     0.029 C 
ENDROOT
BRANCH   1  31
HETATM   31  C3  UNL     1     -13.725   2.457  25.831  1.00  0.00     0.267 C 
HETATM   32  O2  UNL     1     -14.754   1.800  25.905  1.00  0.00    -0.264 OA
BRANCH  31  33
HETATM   33  O1  UNL     1     -13.000   2.872  26.910  1.00  0.00    -0.321 OA
BRANCH  33  34
HETATM   34  C2  UNL     1     -12.740   1.851  27.881  1.00  0.00     0.174 C 
HETATM   35  C1  UNL     1     -11.938   2.465  29.013  1.00  0.00     0.034 C 
ENDBRANCH  33  34
ENDBRANCH  31  33
ENDBRANCH   1  31
TORSDOF 3
ENDMDL
MODEL 4
REMARK minimizedAffinity -7.63047791
REMARK CNNscore 0.456807703
REMARK CNNaffinity 6.62983513
REMARK  3 active torsions:
REMARK  status: ('A' for Active; 'I' for Inactive)
REMARK    1  A    between atoms: C2_2  and  O1_3 
REMARK    2  A    between atoms: O1_3  and  C3_4 
REMARK    3  A    between atoms: C3_4  and  C4_6 
ROOT
HETATM    1  C4  UNL     1       2.826  11.900  20.459  1.00  0.00     0.045 C 
HETATM    2  C5  UNL     1       2.400  12.315  21.879  1.00  0.00     0.026 C 
HETATM    3  C6  UNL     1       3.418  13.103  19.682  1.00  0.00     0.020 C 
HETATM    4  C7  UNL     1       2.383  13.812  18.808  1.00  0.00     0.011 C 
HETATM    5  C8  UNL     1       1.792  12.884  17.708  1.00  0.00    -0.036 C 
HETATM    6  C9  UNL     1       2.698  12.963  16.451  1.00  0.00     0.016 C 
HETATM    7  C10 UNL     1       0.389  13.418  17.329  1.00  0.00     0.011 C 
HETATM    8  C11 UNL     1      -0.463  12.453  16.487  1.00  0.00     0.015 C 
HETATM    9  C12 UNL     1      -0.640  11.030  17.106  1.00  0.00    -0.013 C 
HETATM   10  C13 UNL     1      -1.416  11.162  18.447  1.00  0.00     0.021 C 
HETATM   11  C14 UNL     1       0.787  10.547  17.375  1.00  0.00    -0.070 C 
HETATM   12  C15 UNL     1       1.303   9.476  16.754  1.00  0.00    -0.022 C 
HETATM   13  C16 UNL     1       0.637   8.707  15.672  1.00  0.00     0.033 C 
HETATM   14  C17 UNL     1      -0.583   9.408  14.995  1.00  0.00     0.007 C 
HETATM   15  C18 UNL     1      -1.297   8.384  13.975  1.00  0.00    -0.034 C 
HETATM   16  C19 UNL     1      -0.138   7.717  13.148  1.00  0.00     0.016 C 
HETATM   17  C20 UNL     1      -2.170   9.116  12.909  1.00  0.00     0.017 C 
HETATM   18  C21 UNL     1      -3.643   8.737  12.758  1.00  0.00     0.080 C 
HETATM   19  C22 UNL     1      -4.096   7.372  13.221  1.00  0.00     0.135 C 
HETATM   20  O3  UNL     1      -5.272   7.037  13.055  1.00  0.00    -0.297 OA
HETATM   21  C23 UNL     1      -3.083   6.431  13.861  1.00  0.00     0.017 C 
HETATM   22  C24 UNL     1      -2.412   5.654  12.715  1.00  0.00     0.023 C 
HETATM   23  C25 UNL     1      -3.826   5.380  14.722  1.00  0.00     0.023 C 
HETATM   24  C26 UNL     1      -2.101   7.282  14.753  1.00  0.00     0.009 C 
HETATM   25  C27 UNL     1      -2.857   7.837  15.992  1.00  0.00     0.007 C 
HETATM   26  C28 UNL     1      -2.112   8.837  16.878  1.00  0.00     0.011 C 
HETATM   27  C29 UNL     1      -1.496  10.038  16.110  1.00  0.00    -0.028 C 
HETATM   28  C30 UNL     1      -2.663  10.864  15.509  1.00  0.00     0.016 C 
HETATM   29  C31 UNL     1       1.745  11.405  18.203  1.00  0.00     0.024 C 
HETATM   30  C32 UNL     1       1.582  11.312  19.729  1.00  0.00     0.029 C 
ENDROOT
BRANCH   1  31
HETATM   31  C3  UNL     1       3.914  10.823  20.597  1.00  0.00     0.267 C 
HETATM   32  O2  UNL     1       5.106  10.988  20.378  1.00  0.00    -0.264 OA
BRANCH  31  33
HETATM   33  O1  UNL     1       3.365   9.644  21.012  1.00  0.00    -0.321 OA
BRANCH  33  34
HETATM   34  C2  UNL     1       3.887   9.148  22.250  1.00  0.00     0.174 C 
HETATM   35  C1  UNL     1       2.721   8.721  23.120  1.00  0.00     0.034 C 
ENDBRANCH  33  34
ENDBRANCH  31  33
ENDBRANCH   1  31
TORSDOF 3
ENDMDL
MODEL 5
REMARK minimizedAffinity -6.054739
REMARK CNNscore 0.450011611
REMARK CNNaffinity 6.4348278
REMARK  3 active torsions:
REMARK  status: ('A' for Active; 'I' for Inactive)
REMARK    1  A    between atoms: C2_2  and  O1_3 
REMARK    2  A    between atoms: O1_3  and  C3_4 
REMARK    3  A    between atoms: C3_4  and  C4_6 
ROOT
HETATM    1  C4  UNL     1     -13.257   3.070  28.441  1.00  0.00     0.045 C 
HETATM    2  C5  UNL     1     -12.178   3.789  29.271  1.00  0.00     0.026 C 
HETATM    3  C6  UNL     1     -12.733   1.713  27.904  1.00  0.00     0.020 C 
HETATM    4  C7  UNL     1     -12.175   1.813  26.484  1.00  0.00     0.011 C 
HETATM    5  C8  UNL     1     -13.248   2.259  25.449  1.00  0.00    -0.036 C 
HETATM    6  C9  UNL     1     -13.982   0.999  24.919  1.00  0.00     0.016 C 
HETATM    7  C10 UNL     1     -12.519   2.931  24.260  1.00  0.00     0.011 C 
HETATM    8  C11 UNL     1     -13.436   3.705  23.296  1.00  0.00     0.015 C 
HETATM    9  C12 UNL     1     -14.340   4.780  23.977  1.00  0.00    -0.013 C 
HETATM   10  C13 UNL     1     -13.430   5.873  24.606  1.00  0.00     0.021 C 
HETATM   11  C14 UNL     1     -15.078   4.018  25.081  1.00  0.00    -0.070 C 
HETATM   12  C15 UNL     1     -16.412   3.875  25.076  1.00  0.00    -0.022 C 
HETATM   13  C16 UNL     1     -17.317   4.311  23.982  1.00  0.00     0.033 C 
HETATM   14  C17 UNL     1     -16.627   4.639  22.620  1.00  0.00     0.007 C 
HETATM   15  C18 UNL     1     -17.710   5.259  21.601  1.00  0.00    -0.034 C 
HETATM   16  C19 UNL     1     -18.981   4.339  21.705  1.00  0.00     0.016 C 
HETATM   17  C20 UNL     1     -17.262   5.143  20.111  1.00  0.00     0.017 C 
HETATM   18  C21 UNL     1     -17.198   6.401  19.246  1.00  0.00     0.080 C 
HETATM   19  C22 UNL     1     -18.034   7.598  19.637  1.00  0.00     0.135 C 
HETATM   20  O3  UNL     1     -18.030   8.600  18.917  1.00  0.00    -0.297 OA
HETATM   21  C23 UNL     1     -18.882   7.530  20.902  1.00  0.00     0.017 C 
HETATM   22  C24 UNL     1     -20.231   6.908  20.499  1.00  0.00     0.023 C 
HETATM   23  C25 UNL     1     -19.194   8.965  21.393  1.00  0.00     0.023 C 
HETATM   24  C26 UNL     1     -18.083   6.732  22.000  1.00  0.00     0.009 C 
HETATM   25  C27 UNL     1     -16.858   7.564  22.474  1.00  0.00     0.007 C 
HETATM   26  C28 UNL     1     -15.861   6.875  23.408  1.00  0.00     0.011 C 
HETATM   27  C29 UNL     1     -15.342   5.505  22.892  1.00  0.00    -0.028 C 
HETATM   28  C30 UNL     1     -14.530   5.763  21.597  1.00  0.00     0.016 C 
HETATM   29  C31 UNL     1     -14.291   3.209  26.114  1.00  0.00     0.024 C 
HETATM   30  C32 UNL     1     -13.684   4.012  27.275  1.00  0.00     0.029 C 
ENDROOT
BRANCH   1  31
HETATM   31  C3  UNL     1     -14.453   2.801  29.366  1.00  0.00     0.267 C 
HETATM   32  O2  UNL     1     -14.891   1.696  29.657  1.00  0.00    -0.264 OA
BRANCH  31  33
HETATM   33  O1  UNL     1     -14.964   3.977  29.836  1.00  0.00    -0.321 OA
BRANCH  33  34
HETATM   34  C2  UNL     1     -15.304   3.964  31.227  1.00  0.00     0.174 C 
HETATM   35  C1  UNL     1     -14.550   5.089  31.910  1.00  0.00     0.034 C 
ENDBRANCH  33  34
ENDBRANCH  31  33
ENDBRANCH   1  31
TORSDOF 3
ENDMDL
MODEL 6
REMARK minimizedAffinity -9.20717525
REMARK CNNscore 0.380904973
REMARK CNNaffinity 7.03164148
REMARK  3 active torsions:
REMARK  status: ('A' for Active; 'I' for Inactive)
REMARK    1  A    between atoms: C2_2  and  O1_3 
REMARK    2  A    between atoms: O1_3  and  C3_4 
REMARK    3  A    between atoms: C3_4  and  C4_6 
ROOT
HETATM    1  C4  UNL     1       3.135   7.452  10.830  1.00  0.00     0.045 C 
HETATM    2  C5  UNL     1       4.163   6.366  10.466  1.00  0.00     0.026 C 
HETATM    3  C6  UNL     1       3.723   8.452  11.858  1.00  0.00     0.020 C 
HETATM    4  C7  UNL     1       3.367   8.096  13.302  1.00  0.00     0.011 C 
HETATM    5  C8  UNL     1       1.833   8.118  13.563  1.00  0.00    -0.036 C 
HETATM    6  C9  UNL     1       1.418   9.557  13.966  1.00  0.00     0.016 C 
HETATM    7  C10 UNL     1       1.535   7.175  14.755  1.00  0.00     0.011 C 
HETATM    8  C11 UNL     1       0.047   6.836  14.951  1.00  0.00     0.015 C 
HETATM    9  C12 UNL     1      -0.663   6.255  13.687  1.00  0.00    -0.013 C 
HETATM   10  C13 UNL     1      -0.000   4.896  13.324  1.00  0.00     0.021 C 
HETATM   11  C14 UNL     1      -0.385   7.280  12.585  1.00  0.00    -0.070 C 
HETATM   12  C15 UNL     1      -1.371   7.969  11.992  1.00  0.00    -0.022 C 
HETATM   13  C16 UNL     1      -2.803   7.929  12.384  1.00  0.00     0.033 C 
HETATM   14  C17 UNL     1      -3.105   7.312  13.787  1.00  0.00     0.007 C 
HETATM   15  C18 UNL     1      -4.698   7.180  13.988  1.00  0.00    -0.034 C 
HETATM   16  C19 UNL     1      -5.310   8.550  13.518  1.00  0.00     0.016 C 
HETATM   17  C20 UNL     1      -5.102   7.065  15.490  1.00  0.00     0.017 C 
HETATM   18  C21 UNL     1      -5.945   5.876  15.952  1.00  0.00     0.080 C 
HETATM   19  C22 UNL     1      -6.797   5.150  14.937  1.00  0.00     0.135 C 
HETATM   20  O3  UNL     1      -7.522   4.222  15.309  1.00  0.00    -0.297 OA
HETATM   21  C23 UNL     1      -6.759   5.595  13.480  1.00  0.00     0.017 C 
HETATM   22  C24 UNL     1      -7.803   6.716  13.331  1.00  0.00     0.023 C 
HETATM   23  C25 UNL     1      -7.234   4.434  12.572  1.00  0.00     0.023 C 
HETATM   24  C26 UNL     1      -5.282   6.009  13.120  1.00  0.00     0.009 C 
HETATM   25  C27 UNL     1      -4.369   4.751  13.100  1.00  0.00     0.007 C 
HETATM   26  C28 UNL     1      -2.864   4.978  12.947  1.00  0.00     0.011 C 
HETATM   27  C29 UNL     1      -2.264   5.993  13.957  1.00  0.00    -0.028 C 
HETATM   28  C30 UNL     1      -2.412   5.389  15.378  1.00  0.00     0.016 C 
HETATM   29  C31 UNL     1       1.051   7.708  12.277  1.00  0.00     0.024 C 
HETATM   30  C32 UNL     1       1.861   6.750  11.389  1.00  0.00     0.029 C 
ENDROOT
BRANCH   1  31
HETATM   31  C3  UNL     1       2.793   8.218   9.543  1.00  0.00     0.267 C 
HETATM   32  O2  UNL     1       3.579   8.480   8.643  1.00  0.00    -0.264 OA
BRANCH  31  33
HETATM   33  O1  UNL     1       1.473   8.564   9.533  1.00  0.00    -0.321 OA
BRANCH  33  34
HETATM   34  C2  UNL     1       0.770   8.195   8.340  1.00  0.00     0.174 C 
HETATM   35  C1  UNL     1       1.715   7.401   7.459  1.00  0.00     0.034 C 
ENDBRANCH  33  34
ENDBRANCH  31  33
ENDBRANCH   1  31
TORSDOF 3
ENDMDL
MODEL 7
REMARK minimizedAffinity -6.29666424
REMARK CNNscore 0.377069473
REMARK CNNaffinity 6.3774209
REMARK  3 active torsions:
REMARK  status: ('A' for Active; 'I' for Inactive)
REMARK    1  A    between atoms: C2_2  and  O1_3 
REMARK    2  A    between atoms: O1_3  and  C3_4 
REMARK    3  A    between atoms: C3_4  and  C4_6 
ROOT
HETATM    1  C4  UNL     1     -14.923  10.430  21.465  1.00  0.00     0.045 C 
HETATM    2  C5  UNL     1     -15.698  11.695  21.878  1.00  0.00     0.026 C 
HETATM    3  C6  UNL     1     -15.435   9.883  20.108  1.00  0.00     0.020 C 
HETATM    4  C7  UNL     1     -16.488   8.786  20.270  1.00  0.00     0.011 C 
HETATM    5  C8  UNL     1     -15.940   7.536  21.018  1.00  0.00    -0.036 C 
HETATM    6  C9  UNL     1     -15.304   6.575  19.980  1.00  0.00     0.016 C 
HETATM    7  C10 UNL     1     -17.135   6.811  21.683  1.00  0.00     0.011 C 
HETATM    8  C11 UNL     1     -16.746   5.738  22.714  1.00  0.00     0.015 C 
HETATM    9  C12 UNL     1     -15.794   6.237  23.848  1.00  0.00    -0.013 C 
HETATM   10  C13 UNL     1     -16.535   7.322  24.679  1.00  0.00     0.021 C 
HETATM   11  C14 UNL     1     -14.611   6.866  23.107  1.00  0.00    -0.070 C 
HETATM   12  C15 UNL     1     -13.368   6.372  23.207  1.00  0.00    -0.022 C 
HETATM   13  C16 UNL     1     -12.994   5.125  23.921  1.00  0.00     0.033 C 
HETATM   14  C17 UNL     1     -14.175   4.167  24.276  1.00  0.00     0.007 C 
HETATM   15  C18 UNL     1     -13.634   2.958  25.194  1.00  0.00    -0.034 C 
HETATM   16  C19 UNL     1     -12.311   2.453  24.511  1.00  0.00     0.016 C 
HETATM   17  C20 UNL     1     -14.583   1.721  25.173  1.00  0.00     0.017 C 
HETATM   18  C21 UNL     1     -15.120   1.164  26.492  1.00  0.00     0.080 C 
HETATM   19  C22 UNL     1     -14.354   1.441  27.765  1.00  0.00     0.135 C 
HETATM   20  O3  UNL     1     -14.750   0.952  28.827  1.00  0.00    -0.297 OA
HETATM   21  C23 UNL     1     -13.097   2.299  27.703  1.00  0.00     0.017 C 
HETATM   22  C24 UNL     1     -11.927   1.352  27.384  1.00  0.00     0.023 C 
HETATM   23  C25 UNL     1     -12.806   2.892  29.104  1.00  0.00     0.023 C 
HETATM   24  C26 UNL     1     -13.326   3.452  26.653  1.00  0.00     0.009 C 
HETATM   25  C27 UNL     1     -14.381   4.458  27.192  1.00  0.00     0.007 C 
HETATM   26  C28 UNL     1     -14.867   5.546  26.232  1.00  0.00     0.011 C 
HETATM   27  C29 UNL     1     -15.364   5.014  24.861  1.00  0.00    -0.028 C 
HETATM   28  C30 UNL     1     -16.624   4.148  25.118  1.00  0.00     0.016 C 
HETATM   29  C31 UNL     1     -14.852   7.951  22.055  1.00  0.00     0.024 C 
HETATM   30  C32 UNL     1     -15.080   9.371  22.597  1.00  0.00     0.029 C 
ENDROOT
BRANCH   1  31
HETATM   31  C3  UNL     1     -13.446  10.821  21.309  1.00  0.00     0.267 C 
HETATM   32  O2  UNL     1     -13.034  11.830  20.753  1.00  0.00    -0.264 OA
BRANCH  31  33
HETATM   33  O1  UNL     1     -12.643   9.883  21.890  1.00  0.00    -0.321 OA
BRANCH  33  34
HETATM   34  C2  UNL     1     -11.550  10.420  22.644  1.00  0.00     0.174 C 
HETATM   35  C1  UNL     1     -10.925   9.293  23.444  1.00  0.00     0.034 C 
ENDBRANCH  33  34
ENDBRANCH  31  33
ENDBRANCH   1  31
TORSDOF 3
ENDMDL
MODEL 8
REMARK minimizedAffinity -6.34021044
REMARK CNNscore 0.357475638
REMARK CNNaffinity 6.17017174
REMARK  3 active torsions:
REMARK  status: ('A' for Active; 'I' for Inactive)
REMARK    1  A    between atoms: C2_2  and  O1_3 
REMARK    2  A    between atoms: O1_3  and  C3_4 
REMARK    3  A    between atoms: C3_4  and  C4_6 
ROOT
HETATM    1  C4  UNL     1     -12.206  12.058  23.939  1.00  0.00     0.045 C 
HETATM    2  C5  UNL     1     -12.310  13.193  24.974  1.00  0.00     0.026 C 
HETATM    3  C6  UNL     1     -12.949  12.429  22.630  1.00  0.00     0.020 C 
HETATM    4  C7  UNL     1     -14.380  11.893  22.587  1.00  0.00     0.011 C 
HETATM    5  C8  UNL     1     -14.439  10.339  22.647  1.00  0.00    -0.036 C 
HETATM    6  C9  UNL     1     -14.338   9.782  21.202  1.00  0.00     0.016 C 
HETATM    7  C10 UNL     1     -15.815   9.932  23.229  1.00  0.00     0.011 C 
HETATM    8  C11 UNL     1     -15.926   8.455  23.646  1.00  0.00     0.015 C 
HETATM    9  C12 UNL     1     -14.821   7.971  24.637  1.00  0.00    -0.013 C 
HETATM   10  C13 UNL     1     -14.964   8.762  25.968  1.00  0.00     0.021 C 
HETATM   11  C14 UNL     1     -13.502   8.340  23.952  1.00  0.00    -0.070 C 
HETATM   12  C15 UNL     1     -12.617   7.408  23.569  1.00  0.00    -0.022 C 
HETATM   13  C16 UNL     1     -12.831   5.940  23.638  1.00  0.00     0.033 C 
HETATM   14  C17 UNL     1     -14.308   5.480  23.851  1.00  0.00     0.007 C 
HETATM   15  C18 UNL     1     -14.349   3.885  24.080  1.00  0.00    -0.034 C 
HETATM   16  C19 UNL     1     -13.420   3.263  22.974  1.00  0.00     0.016 C 
HETATM   17  C20 UNL     1     -15.758   3.278  23.795  1.00  0.00     0.017 C 
HETATM   18  C21 UNL     1     -16.452   2.452  24.878  1.00  0.00     0.080 C 
HETATM   19  C22 UNL     1     -15.609   1.801  25.950  1.00  0.00     0.135 C 
HETATM   20  O3  UNL     1     -16.154   1.089  26.799  1.00  0.00    -0.297 OA
HETATM   21  C23 UNL     1     -14.101   2.020  25.944  1.00  0.00     0.017 C 
HETATM   22  C24 UNL     1     -13.499   0.941  25.027  1.00  0.00     0.023 C 
HETATM   23  C25 UNL     1     -13.534   1.752  27.360  1.00  0.00     0.023 C 
HETATM   24  C26 UNL     1     -13.811   3.505  25.505  1.00  0.00     0.009 C 
HETATM   25  C27 UNL     1     -14.278   4.488  26.615  1.00  0.00     0.007 C 
HETATM   26  C28 UNL     1     -14.243   5.982  26.290  1.00  0.00     0.011 C 
HETATM   27  C29 UNL     1     -14.965   6.367  24.971  1.00  0.00    -0.028 C 
HETATM   28  C30 UNL     1     -16.474   6.055  25.149  1.00  0.00     0.016 C 
HETATM   29  C31 UNL     1     -13.253   9.776  23.488  1.00  0.00     0.024 C 
HETATM   30  C32 UNL     1     -12.795  10.763  24.575  1.00  0.00     0.029 C 
ENDROOT
BRANCH   1  31
HETATM   31  C3  UNL     1     -10.718  11.857  23.617  1.00  0.00     0.267 C 
HETATM   32  O2  UNL     1     -10.270  11.068  22.796  1.00  0.00    -0.264 OA
BRANCH  31  33
HETATM   33  O1  UNL     1      -9.951  12.694  24.374  1.00  0.00    -0.321 OA
BRANCH  33  34
HETATM   34  C2  UNL     1      -9.150  13.612  23.620  1.00  0.00     0.174 C 
HETATM   35  C1  UNL     1      -7.795  12.974  23.380  1.00  0.00     0.034 C 
ENDBRANCH  33  34
ENDBRANCH  31  33
ENDBRANCH   1  31
TORSDOF 3
ENDMDL
MODEL 9
REMARK minimizedAffinity -7.93809128
REMARK CNNscore 0.334754884
REMARK CNNaffinity 6.50116014
REMARK  3 active torsions:
REMARK  status: ('A' for Active; 'I' for Inactive)
REMARK    1  A    between atoms: C2_2  and  O1_3 
REMARK    2  A    between atoms: O1_3  and  C3_4 
REMARK    3  A    between atoms: C3_4  and  C4_6 
ROOT
HETATM    1  C4  UNL     1       1.549   7.417   9.979  1.00  0.00     0.045 C 
HETATM    2  C5  UNL     1       1.055   7.538   8.527  1.00  0.00     0.026 C 
HETATM    3  C6  UNL     1       1.604   5.933  10.426  1.00  0.00     0.020 C 
HETATM    4  C7  UNL     1       0.342   5.489  11.166  1.00  0.00     0.011 C 
HETATM    5  C8  UNL     1       0.106   6.288  12.480  1.00  0.00    -0.036 C 
HETATM    6  C9  UNL     1       0.861   5.579  13.635  1.00  0.00     0.016 C 
HETATM    7  C10 UNL     1      -1.409   6.255  12.798  1.00  0.00     0.011 C 
HETATM    8  C11 UNL     1      -1.861   7.247  13.884  1.00  0.00     0.015 C 
HETATM    9  C12 UNL     1      -1.456   8.732  13.621  1.00  0.00    -0.013 C 
HETATM   10  C13 UNL     1      -2.167   9.222  12.328  1.00  0.00     0.021 C 
HETATM   11  C14 UNL     1       0.058   8.684  13.396  1.00  0.00    -0.070 C 
HETATM   12  C15 UNL     1       0.918   9.301  14.219  1.00  0.00    -0.022 C 
HETATM   13  C16 UNL     1       0.553   9.990  15.483  1.00  0.00     0.033 C 
HETATM   14  C17 UNL     1      -0.869   9.669  16.043  1.00  0.00     0.007 C 
HETATM   15  C18 UNL     1      -1.179  10.619  17.308  1.00  0.00    -0.034 C 
HETATM   16  C19 UNL     1       0.112  10.582  18.205  1.00  0.00     0.016 C 
HETATM   17  C20 UNL     1      -2.308  10.048  18.221  1.00  0.00     0.017 C 
HETATM   18  C21 UNL     1      -3.530  10.912  18.533  1.00  0.00     0.080 C 
HETATM   19  C22 UNL     1      -3.407  12.414  18.422  1.00  0.00     0.135 C 
HETATM   20  O3  UNL     1      -4.372  13.123  18.723  1.00  0.00    -0.297 OA
HETATM   21  C23 UNL     1      -2.086  13.020  17.964  1.00  0.00     0.017 C 
HETATM   22  C24 UNL     1      -1.217  13.193  19.222  1.00  0.00     0.023 C 
HETATM   23  C25 UNL     1      -2.335  14.444  17.409  1.00  0.00     0.023 C 
HETATM   24  C26 UNL     1      -1.468  12.093  16.850  1.00  0.00     0.009 C 
HETATM   25  C27 UNL     1      -2.328  12.172  15.557  1.00  0.00     0.007 C 
HETATM   26  C28 UNL     1      -1.986  11.201  14.426  1.00  0.00     0.011 C 
HETATM   27  C29 UNL     1      -1.908   9.713  14.862  1.00  0.00    -0.028 C 
HETATM   28  C30 UNL     1      -3.324   9.278  15.317  1.00  0.00     0.016 C 
HETATM   29  C31 UNL     1       0.648   7.744  12.342  1.00  0.00     0.024 C 
HETATM   30  C32 UNL     1       0.595   8.246  10.890  1.00  0.00     0.029 C 
ENDROOT
BRANCH   1  31
HETATM   31  C3  UNL     1       2.970   7.998  10.037  1.00  0.00     0.267 C 
HETATM   32  O2  UNL     1       3.739   8.085   9.090  1.00  0.00    -0.264 OA
BRANCH  31  33
HETATM   33  O1  UNL     1       3.259   8.421  11.302  1.00  0.00    -0.321 OA
BRANCH  33  34
HETATM   34  C2  UNL     1       4.241   7.631  11.983  1.00  0.00     0.174 C 
HETATM   35  C1  UNL     1       4.980   6.800  10.952  1.00  0.00     0.034 C 
ENDBRANCH  33  34
ENDBRANCH  31  33
ENDBRANCH   1  31
TORSDOF 3
ENDMDL
