MODEL 1
REMARK minimizedAffinity -7.50497246
REMARK  4 active torsions:
REMARK  status: ('A' for Active; 'I' for Inactive)
REMARK    1  A    between atoms: C2_2  and  C4_4 
REMARK    2  A    between atoms: C13_13  and  C15_15 
REMARK    3  A    between atoms: C15_15  and  O1_16 
REMARK    4  A    between atoms: C18_19  and  O2_20 
ROOT
HETATM    1  C4  UNL     1       3.082   7.112   8.971  1.00  0.00     0.021 C 
HETATM    2  C5  UNL     1       2.375   5.827   9.449  1.00  0.00     0.008 C 
HETATM    3  C6  UNL     1       1.079   6.141  10.196  1.00  0.00     0.009 C 
HETATM    4  C7  UNL     1       1.290   6.954  11.501  1.00  0.00     0.034 C 
HETATM    5  C8  UNL     1      -0.044   7.593  12.077  1.00  0.00    -0.033 C 
HETATM    6  C9  UNL     1      -0.634   8.613  11.059  1.00  0.00     0.016 C 
HETATM    7  C10 UNL     1      -1.133   6.501  12.241  1.00  0.00     0.010 C 
HETATM    8  C11 UNL     1      -0.890   5.520  13.376  1.00  0.00     0.002 C 
HETATM    9  C12 UNL     1      -0.204   6.117  14.598  1.00  0.00     0.012 C 
HETATM   10  C13 UNL     1      -0.351   7.647  14.750  1.00  0.00    -0.018 C 
HETATM   11  C14 UNL     1      -1.838   8.038  14.953  1.00  0.00     0.018 C 
HETATM   12  C16 UNL     1       0.226   8.358  13.455  1.00  0.00     0.007 C 
HETATM   13  C17 UNL     1       1.718   8.743  13.615  1.00  0.00     0.041 C 
HETATM   14  C18 UNL     1       2.364   9.165  12.307  1.00  0.00     0.156 C 
HETATM   15  C19 UNL     1       2.409   7.987  11.366  1.00  0.00     0.118 A 
HETATM   16  O3  UNL     1       3.717   7.351  11.355  1.00  0.00    -0.366 OA
HETATM   17  C20 UNL     1       3.321   8.020  10.153  1.00  0.00     0.165 A 
ENDROOT
BRANCH  10  18
HETATM   18  C15 UNL     1       0.393   8.076  16.055  1.00  0.00     0.173 C 
BRANCH  18  19
HETATM   19  O1  UNL     1       1.221   7.036  16.572  1.00  0.00    -0.400 OA
HETATM   20  H28 UNL     1       0.645   6.393  17.017  1.00  0.00     0.209 HD
ENDBRANCH  18  19
ENDBRANCH  10  18
BRANCH  14  21
HETATM   21  O2  UNL     1       3.681   9.642  12.595  1.00  0.00    -0.392 OA
HETATM   22  H33 UNL     1       4.255   8.850  12.597  1.00  0.00     0.210 HD
ENDBRANCH  14  21
BRANCH   1  23
HETATM   23  C2  UNL     1       2.321   7.877   7.841  1.00  0.00    -0.016 C 
HETATM   24  C1  UNL     1       0.997   8.485   8.317  1.00  0.00     0.010 C 
HETATM   25  C3  UNL     1       2.023   6.960   6.644  1.00  0.00     0.010 C 
ENDBRANCH   1  23
TORSDOF 4
ENDMDL
MODEL 2
REMARK minimizedAffinity -7.29673719
REMARK  4 active torsions:
REMARK  status: ('A' for Active; 'I' for Inactive)
REMARK    1  A    between atoms: C2_2  and  C4_4 
REMARK    2  A    between atoms: C13_13  and  C15_15 
REMARK    3  A    between atoms: C15_15  and  O1_16 
REMARK    4  A    between atoms: C18_19  and  O2_20 
ROOT
HETATM    1  C4  UNL     1      -1.989   8.496  14.107  1.00  0.00     0.021 C 
HETATM    2  C5  UNL     1      -1.825   9.357  12.838  1.00  0.00     0.008 C 
HETATM    3  C6  UNL     1      -1.314   8.531  11.658  1.00  0.00     0.009 C 
HETATM    4  C7  UNL     1       0.099   7.929  11.881  1.00  0.00     0.034 C 
HETATM    5  C8  UNL     1       0.478   6.789  10.844  1.00  0.00    -0.033 C 
HETATM    6  C9  UNL     1      -0.500   5.585  10.988  1.00  0.00     0.016 C 
HETATM    7  C10 UNL     1       0.286   7.301   9.392  1.00  0.00     0.010 C 
HETATM    8  C11 UNL     1       1.314   8.322   8.933  1.00  0.00     0.002 C 
HETATM    9  C12 UNL     1       2.712   8.118   9.502  1.00  0.00     0.012 C 
HETATM   10  C13 UNL     1       3.023   6.683   9.978  1.00  0.00    -0.018 C 
HETATM   11  C14 UNL     1       2.979   5.688   8.788  1.00  0.00     0.018 C 
HETATM   12  C16 UNL     1       1.968   6.257  11.082  1.00  0.00     0.007 C 
HETATM   13  C17 UNL     1       2.465   6.566  12.516  1.00  0.00     0.041 C 
HETATM   14  C18 UNL     1       1.372   6.430  13.563  1.00  0.00     0.156 C 
HETATM   15  C19 UNL     1       0.318   7.484  13.327  1.00  0.00     0.118 A 
HETATM   16  O3  UNL     1       0.484   8.625  14.213  1.00  0.00    -0.366 OA
HETATM   17  C20 UNL     1      -0.678   7.817  14.423  1.00  0.00     0.165 A 
ENDROOT
BRANCH  10  18
HETATM   18  C15 UNL     1       4.492   6.658  10.509  1.00  0.00     0.173 C 
BRANCH  18  19
HETATM   19  O1  UNL     1       5.085   5.367  10.399  1.00  0.00    -0.400 OA
HETATM   20  H28 UNL     1       4.732   4.817  11.118  1.00  0.00     0.209 HD
ENDBRANCH  18  19
ENDBRANCH  10  18
BRANCH  14  21
HETATM   21  O2  UNL     1       1.971   6.585  14.853  1.00  0.00    -0.392 OA
HETATM   22  H33 UNL     1       1.986   7.546  15.025  1.00  0.00     0.210 HD
ENDBRANCH  14  21
BRANCH   1  23
HETATM   23  C2  UNL     1      -3.141   7.444  14.021  1.00  0.00    -0.016 C 
HETATM   24  C1  UNL     1      -4.455   8.038  13.498  1.00  0.00     0.010 C 
HETATM   25  C3  UNL     1      -3.418   6.799  15.388  1.00  0.00     0.010 C 
ENDBRANCH   1  23
TORSDOF 4
ENDMDL
MODEL 3
REMARK minimizedAffinity -7.26581192
REMARK  4 active torsions:
REMARK  status: ('A' for Active; 'I' for Inactive)
REMARK    1  A    between atoms: C2_2  and  C4_4 
REMARK    2  A    between atoms: C13_13  and  C15_15 
REMARK    3  A    between atoms: C15_15  and  O1_16 
REMARK    4  A    between atoms: C18_19  and  O2_20 
ROOT
HETATM    1  C4  UNL     1      -8.751   6.758  15.784  1.00  0.00     0.021 C 
HETATM    2  C5  UNL     1      -7.552   6.894  16.745  1.00  0.00     0.008 C 
HETATM    3  C6  UNL     1      -6.299   7.383  16.019  1.00  0.00     0.009 C 
HETATM    4  C7  UNL     1      -5.788   6.407  14.927  1.00  0.00     0.034 C 
HETATM    5  C8  UNL     1      -4.733   7.055  13.935  1.00  0.00    -0.033 C 
HETATM    6  C9  UNL     1      -5.387   8.231  13.149  1.00  0.00     0.016 C 
HETATM    7  C10 UNL     1      -3.568   7.696  14.735  1.00  0.00     0.010 C 
HETATM    8  C11 UNL     1      -2.622   6.704  15.391  1.00  0.00     0.002 C 
HETATM    9  C12 UNL     1      -2.405   5.416  14.608  1.00  0.00     0.012 C 
HETATM   10  C13 UNL     1      -2.694   5.513  13.094  1.00  0.00    -0.018 C 
HETATM   11  C14 UNL     1      -1.721   6.509  12.411  1.00  0.00     0.018 C 
HETATM   12  C16 UNL     1      -4.193   5.984  12.877  1.00  0.00     0.007 C 
HETATM   13  C17 UNL     1      -5.165   4.787  12.726  1.00  0.00     0.041 C 
HETATM   14  C18 UNL     1      -6.626   5.199  12.798  1.00  0.00     0.156 C 
HETATM   15  C19 UNL     1      -6.932   5.721  14.180  1.00  0.00     0.118 A 
HETATM   16  O3  UNL     1      -7.578   4.717  15.009  1.00  0.00    -0.366 OA
HETATM   17  C20 UNL     1      -8.373   5.849  14.640  1.00  0.00     0.165 A 
ENDROOT
BRANCH  10  18
HETATM   18  C15 UNL     1      -2.403   4.117  12.456  1.00  0.00     0.173 C 
BRANCH  18  19
HETATM   19  O1  UNL     1      -3.308   3.115  12.915  1.00  0.00    -0.400 OA
HETATM   20  H28 UNL     1      -3.032   2.853  13.808  1.00  0.00     0.209 HD
ENDBRANCH  18  19
ENDBRANCH  10  18
BRANCH  14  21
HETATM   21  O2  UNL     1      -7.426   4.052  12.495  1.00  0.00    -0.392 OA
HETATM   22  H33 UNL     1      -7.541   3.578  13.341  1.00  0.00     0.210 HD
ENDBRANCH  14  21
BRANCH   1  23
HETATM   23  C2  UNL     1      -9.291   8.121  15.241  1.00  0.00    -0.016 C 
HETATM   24  C1  UNL     1      -9.869   9.016  16.343  1.00  0.00     0.010 C 
HETATM   25  C3  UNL     1     -10.380   7.910  14.177  1.00  0.00     0.010 C 
ENDBRANCH   1  23
TORSDOF 4
ENDMDL
MODEL 4
REMARK minimizedAffinity -7.14193487
REMARK  4 active torsions:
REMARK  status: ('A' for Active; 'I' for Inactive)
REMARK    1  A    between atoms: C2_2  and  C4_4 
REMARK    2  A    between atoms: C13_13  and  C15_15 
REMARK    3  A    between atoms: C15_15  and  O1_16 
REMARK    4  A    between atoms: C18_19  and  O2_20 
ROOT
HETATM    1  C4  UNL     1      -2.309   6.418  14.412  1.00  0.00     0.021 C 
HETATM    2  C5  UNL     1      -1.069   7.080  15.045  1.00  0.00     0.008 C 
HETATM    3  C6  UNL     1      -0.247   7.845  14.008  1.00  0.00     0.009 C 
HETATM    4  C7  UNL     1       0.344   6.945  12.891  1.00  0.00     0.034 C 
HETATM    5  C8  UNL     1       0.874   7.755  11.633  1.00  0.00    -0.033 C 
HETATM    6  C9  UNL     1      -0.300   8.521  10.954  1.00  0.00     0.016 C 
HETATM    7  C10 UNL     1       1.872   8.853  12.085  1.00  0.00     0.010 C 
HETATM    8  C11 UNL     1       3.221   8.336  12.557  1.00  0.00     0.002 C 
HETATM    9  C12 UNL     1       3.718   7.093  11.829  1.00  0.00     0.012 C 
HETATM   10  C13 UNL     1       3.111   6.869  10.427  1.00  0.00    -0.018 C 
HETATM   11  C14 UNL     1       3.506   8.021   9.466  1.00  0.00     0.018 C 
HETATM   12  C16 UNL     1       1.532   6.781  10.548  1.00  0.00     0.007 C 
HETATM   13  C17 UNL     1       1.039   5.322  10.714  1.00  0.00     0.041 C 
HETATM   14  C18 UNL     1      -0.425   5.233  11.110  1.00  0.00     0.156 C 
HETATM   15  C19 UNL     1      -0.608   5.819  12.488  1.00  0.00     0.118 A 
HETATM   16  O3  UNL     1      -0.673   4.789  13.512  1.00  0.00    -0.366 OA
HETATM   17  C20 UNL     1      -1.874   5.529  13.273  1.00  0.00     0.165 A 
ENDROOT
BRANCH  10  18
HETATM   18  C15 UNL     1       3.742   5.571   9.830  1.00  0.00     0.173 C 
BRANCH  18  19
HETATM   19  O1  UNL     1       5.067   5.347  10.305  1.00  0.00    -0.400 OA
HETATM   20  H28 UNL     1       5.659   5.950   9.826  1.00  0.00     0.209 HD
ENDBRANCH  18  19
ENDBRANCH  10  18
BRANCH  14  21
HETATM   21  O2  UNL     1      -0.810   3.856  11.084  1.00  0.00    -0.392 OA
HETATM   22  H33 UNL     1      -0.574   3.498  11.962  1.00  0.00     0.210 HD
ENDBRANCH  14  21
BRANCH   1  23
HETATM   23  C2  UNL     1      -3.397   7.431  13.929  1.00  0.00    -0.016 C 
HETATM   24  C1  UNL     1      -4.649   6.744  13.373  1.00  0.00     0.010 C 
HETATM   25  C3  UNL     1      -2.847   8.372  12.845  1.00  0.00     0.010 C 
ENDBRANCH   1  23
TORSDOF 4
ENDMDL
MODEL 5
REMARK minimizedAffinity -7.00431681
REMARK  4 active torsions:
REMARK  status: ('A' for Active; 'I' for Inactive)
REMARK    1  A    between atoms: C2_2  and  C4_4 
REMARK    2  A    between atoms: C13_13  and  C15_15 
REMARK    3  A    between atoms: C15_15  and  O1_16 
REMARK    4  A    between atoms: C18_19  and  O2_20 
ROOT
HETATM    1  C4  UNL     1       1.510   6.752   9.638  1.00  0.00     0.021 C 
HETATM    2  C5  UNL     1       0.411   7.828   9.529  1.00  0.00     0.008 C 
HETATM    3  C6  UNL     1       0.077   8.433  10.893  1.00  0.00     0.009 C 
HETATM    4  C7  UNL     1      -0.504   7.411  11.906  1.00  0.00     0.034 C 
HETATM    5  C8  UNL     1      -0.505   7.930  13.405  1.00  0.00    -0.033 C 
HETATM    6  C9  UNL     1       0.953   8.187  13.886  1.00  0.00     0.016 C 
HETATM    7  C10 UNL     1      -1.215   9.306  13.495  1.00  0.00     0.010 C 
HETATM    8  C11 UNL     1      -2.723   9.262  13.310  1.00  0.00     0.002 C 
HETATM    9  C12 UNL     1      -3.395   8.009  13.858  1.00  0.00     0.012 C 
HETATM   10  C13 UNL     1      -2.603   7.267  14.955  1.00  0.00    -0.018 C 
HETATM   11  C14 UNL     1      -2.442   8.158  16.215  1.00  0.00     0.018 C 
HETATM   12  C16 UNL     1      -1.178   6.863  14.390  1.00  0.00     0.007 C 
HETATM   13  C17 UNL     1      -1.172   5.438  13.781  1.00  0.00     0.041 C 
HETATM   14  C18 UNL     1       0.089   5.138  12.989  1.00  0.00     0.156 C 
HETATM   15  C19 UNL     1       0.145   6.033  11.776  1.00  0.00     0.118 A 
HETATM   16  O3  UNL     1      -0.304   5.348  10.575  1.00  0.00    -0.366 OA
HETATM   17  C20 UNL     1       1.082   5.699  10.630  1.00  0.00     0.165 A 
ENDROOT
BRANCH  10  18
HETATM   18  C15 UNL     1      -3.445   6.030  15.405  1.00  0.00     0.173 C 
BRANCH  18  19
HETATM   19  O1  UNL     1      -4.695   6.406  15.976  1.00  0.00    -0.400 OA
HETATM   20  H28 UNL     1      -4.526   6.719  16.880  1.00  0.00     0.209 HD
ENDBRANCH  18  19
ENDBRANCH  10  18
BRANCH  14  21
HETATM   21  O2  UNL     1       0.056   3.760  12.608  1.00  0.00    -0.392 OA
HETATM   22  H33 UNL     1      -0.449   3.727  11.773  1.00  0.00     0.210 HD
ENDBRANCH  14  21
BRANCH   1  23
HETATM   23  C2  UNL     1       2.919   7.314  10.013  1.00  0.00    -0.016 C 
HETATM   24  C1  UNL     1       3.513   8.216   8.924  1.00  0.00     0.010 C 
HETATM   25  C3  UNL     1       3.920   6.183  10.295  1.00  0.00     0.010 C 
ENDBRANCH   1  23
TORSDOF 4
ENDMDL
MODEL 6
REMARK minimizedAffinity -6.95905304
REMARK  4 active torsions:
REMARK  status: ('A' for Active; 'I' for Inactive)
REMARK    1  A    between atoms: C2_2  and  C4_4 
REMARK    2  A    between atoms: C13_13  and  C15_15 
REMARK    3  A    between atoms: C15_15  and  O1_16 
REMARK    4  A    between atoms: C18_19  and  O2_20 
ROOT
HETATM    1  C4  UNL     1      -6.439   6.715  14.081  1.00  0.00     0.021 C 
HETATM    2  C5  UNL     1      -5.985   5.800  12.925  1.00  0.00     0.008 C 
HETATM    3  C6  UNL     1      -4.539   5.339  13.106  1.00  0.00     0.009 C 
HETATM    4  C7  UNL     1      -3.505   6.496  13.089  1.00  0.00     0.034 C 
HETATM    5  C8  UNL     1      -2.074   6.082  13.635  1.00  0.00    -0.033 C 
HETATM    6  C9  UNL     1      -2.173   5.652  15.129  1.00  0.00     0.016 C 
HETATM    7  C10 UNL     1      -1.556   4.829  12.882  1.00  0.00     0.010 C 
HETATM    8  C11 UNL     1      -1.143   5.073  11.440  1.00  0.00     0.002 C 
HETATM    9  C12 UNL     1      -0.527   6.442  11.177  1.00  0.00     0.012 C 
HETATM   10  C13 UNL     1       0.082   7.135  12.416  1.00  0.00    -0.018 C 
HETATM   11  C14 UNL     1       1.273   6.314  12.975  1.00  0.00     0.018 C 
HETATM   12  C16 UNL     1      -1.037   7.295  13.528  1.00  0.00     0.007 C 
HETATM   13  C17 UNL     1      -1.761   8.662  13.437  1.00  0.00     0.041 C 
HETATM   14  C18 UNL     1      -3.010   8.729  14.299  1.00  0.00     0.156 C 
HETATM   15  C19 UNL     1      -4.036   7.758  13.771  1.00  0.00     0.118 A 
HETATM   16  O3  UNL     1      -5.039   8.420  12.952  1.00  0.00    -0.366 OA
HETATM   17  C20 UNL     1      -5.487   7.880  14.199  1.00  0.00     0.165 A 
ENDROOT
BRANCH  10  18
HETATM   18  C15 UNL     1       0.676   8.505  11.958  1.00  0.00     0.173 C 
BRANCH  18  19
HETATM   19  O1  UNL     1       0.488   8.737  10.565  1.00  0.00    -0.400 OA
HETATM   20  H28 UNL     1       1.142   8.203  10.084  1.00  0.00     0.209 HD
ENDBRANCH  18  19
ENDBRANCH  10  18
BRANCH  14  21
HETATM   21  O2  UNL     1      -3.505  10.070  14.260  1.00  0.00    -0.392 OA
HETATM   22  H33 UNL     1      -4.076  10.119  13.468  1.00  0.00     0.210 HD
ENDBRANCH  14  21
BRANCH   1  23
HETATM   23  C2  UNL     1      -6.579   5.984  15.456  1.00  0.00    -0.016 C 
HETATM   24  C1  UNL     1      -7.500   4.760  15.391  1.00  0.00     0.010 C 
HETATM   25  C3  UNL     1      -7.115   6.929  16.543  1.00  0.00     0.010 C 
ENDBRANCH   1  23
TORSDOF 4
ENDMDL
MODEL 7
REMARK minimizedAffinity -6.92972374
REMARK  4 active torsions:
REMARK  status: ('A' for Active; 'I' for Inactive)
REMARK    1  A    between atoms: C2_2  and  C4_4 
REMARK    2  A    between atoms: C13_13  and  C15_15 
REMARK    3  A    between atoms: C15_15  and  O1_16 
REMARK    4  A    between atoms: C18_19  and  O2_20 
ROOT
HETATM    1  C4  UNL     1       3.852   6.633  10.367  1.00  0.00     0.021 C 
HETATM    2  C5  UNL     1       3.141   7.997  10.256  1.00  0.00     0.008 C 
HETATM    3  C6  UNL     1       2.295   8.293  11.494  1.00  0.00     0.009 C 
HETATM    4  C7  UNL     1       1.134   7.287  11.715  1.00  0.00     0.034 C 
HETATM    5  C8  UNL     1       0.492   7.361  13.164  1.00  0.00    -0.033 C 
HETATM    6  C9  UNL     1       1.555   6.992  14.242  1.00  0.00     0.016 C 
HETATM    7  C10 UNL     1       0.069   8.818  13.489  1.00  0.00     0.010 C 
HETATM    8  C11 UNL     1      -1.143   9.318  12.722  1.00  0.00     0.002 C 
HETATM    9  C12 UNL     1      -2.195   8.255  12.429  1.00  0.00     0.012 C 
HETATM   10  C13 UNL     1      -2.171   7.032  13.371  1.00  0.00    -0.018 C 
HETATM   11  C14 UNL     1      -2.494   7.455  14.828  1.00  0.00     0.018 C 
HETATM   12  C16 UNL     1      -0.740   6.352  13.308  1.00  0.00     0.007 C 
HETATM   13  C17 UNL     1      -0.678   5.218  12.253  1.00  0.00     0.041 C 
HETATM   14  C18 UNL     1       0.738   4.744  11.977  1.00  0.00     0.156 C 
HETATM   15  C19 UNL     1       1.523   5.859  11.332  1.00  0.00     0.118 A 
HETATM   16  O3  UNL     1       1.606   5.702   9.889  1.00  0.00    -0.366 OA
HETATM   17  C20 UNL     1       2.828   5.554  10.619  1.00  0.00     0.165 A 
ENDROOT
BRANCH  10  18
HETATM   18  C15 UNL     1      -3.318   6.065  12.936  1.00  0.00     0.173 C 
BRANCH  18  19
HETATM   19  O1  UNL     1      -3.802   5.279  14.021  1.00  0.00    -0.400 OA
HETATM   20  H28 UNL     1      -3.159   4.570  14.184  1.00  0.00     0.209 HD
ENDBRANCH  18  19
ENDBRANCH  10  18
BRANCH  14  21
HETATM   21  O2  UNL     1       0.665   3.605  11.114  1.00  0.00    -0.392 OA
HETATM   22  H33 UNL     1       0.631   3.962  10.206  1.00  0.00     0.210 HD
ENDBRANCH  14  21
BRANCH   1  23
HETATM   23  C2  UNL     1       4.974   6.585  11.454  1.00  0.00    -0.016 C 
HETATM   24  C1  UNL     1       4.868   7.725  12.474  1.00  0.00     0.010 C 
HETATM   25  C3  UNL     1       6.374   6.639  10.821  1.00  0.00     0.010 C 
ENDBRANCH   1  23
TORSDOF 4
ENDMDL
MODEL 8
REMARK minimizedAffinity -6.89493322
REMARK  4 active torsions:
REMARK  status: ('A' for Active; 'I' for Inactive)
REMARK    1  A    between atoms: C2_2  and  C4_4 
REMARK    2  A    between atoms: C13_13  and  C15_15 
REMARK    3  A    between atoms: C15_15  and  O1_16 
REMARK    4  A    between atoms: C18_19  and  O2_20 
ROOT
HETATM    1  C4  UNL     1       0.315   5.832  11.265  1.00  0.00     0.021 C 
HETATM    2  C5  UNL     1      -0.435   7.173  11.125  1.00  0.00     0.008 C 
HETATM    3  C6  UNL     1      -1.321   7.452  12.339  1.00  0.00     0.009 C 
HETATM    4  C7  UNL     1      -2.455   6.412  12.540  1.00  0.00     0.034 C 
HETATM    5  C8  UNL     1      -3.134   6.477  13.972  1.00  0.00    -0.033 C 
HETATM    6  C9  UNL     1      -2.088   6.149  15.079  1.00  0.00     0.016 C 
HETATM    7  C10 UNL     1      -3.610   7.923  14.274  1.00  0.00     0.010 C 
HETATM    8  C11 UNL     1      -4.818   8.379  13.473  1.00  0.00     0.002 C 
HETATM    9  C12 UNL     1      -5.829   7.282  13.163  1.00  0.00     0.012 C 
HETATM   10  C13 UNL     1      -5.790   6.068  14.116  1.00  0.00    -0.018 C 
HETATM   11  C14 UNL     1      -6.162   6.492  15.561  1.00  0.00     0.018 C 
HETATM   12  C16 UNL     1      -4.338   5.431  14.094  1.00  0.00     0.007 C 
HETATM   13  C17 UNL     1      -4.215   4.292  13.051  1.00  0.00     0.041 C 
HETATM   14  C18 UNL     1      -2.778   3.860  12.813  1.00  0.00     0.156 C 
HETATM   15  C19 UNL     1      -2.012   4.994  12.179  1.00  0.00     0.118 A 
HETATM   16  O3  UNL     1      -1.889   4.828  10.740  1.00  0.00    -0.366 OA
HETATM   17  C20 UNL     1      -0.681   4.724  11.501  1.00  0.00     0.165 A 
ENDROOT
BRANCH  10  18
HETATM   18  C15 UNL     1      -6.896   5.062  13.660  1.00  0.00     0.173 C 
BRANCH  18  19
HETATM   19  O1  UNL     1      -7.710   4.626  14.746  1.00  0.00    -0.400 OA
HETATM   20  H28 UNL     1      -7.205   3.966  15.248  1.00  0.00     0.209 HD
ENDBRANCH  18  19
ENDBRANCH  10  18
BRANCH  14  21
HETATM   21  O2  UNL     1      -2.795   2.712  11.959  1.00  0.00    -0.392 OA
HETATM   22  H33 UNL     1      -2.818   3.061  11.047  1.00  0.00     0.210 HD
ENDBRANCH  14  21
BRANCH   1  23
HETATM   23  C2  UNL     1       1.411   5.827  12.380  1.00  0.00    -0.016 C 
HETATM   24  C1  UNL     1       0.824   5.765  13.794  1.00  0.00     0.010 C 
HETATM   25  C3  UNL     1       2.310   7.070  12.290  1.00  0.00     0.010 C 
ENDBRANCH   1  23
TORSDOF 4
ENDMDL
MODEL 9
REMARK minimizedAffinity -6.84632063
REMARK  4 active torsions:
REMARK  status: ('A' for Active; 'I' for Inactive)
REMARK    1  A    between atoms: C2_2  and  C4_4 
REMARK    2  A    between atoms: C13_13  and  C15_15 
REMARK    3  A    between atoms: C15_15  and  O1_16 
REMARK    4  A    between atoms: C18_19  and  O2_20 
ROOT
HETATM    1  C4  UNL     1      -7.447   5.246  14.285  1.00  0.00     0.021 C 
HETATM    2  C5  UNL     1      -6.793   5.727  15.596  1.00  0.00     0.008 C 
HETATM    3  C6  UNL     1      -5.745   6.810  15.339  1.00  0.00     0.009 C 
HETATM    4  C7  UNL     1      -4.544   6.328  14.483  1.00  0.00     0.034 C 
HETATM    5  C8  UNL     1      -3.655   7.511  13.908  1.00  0.00    -0.033 C 
HETATM    6  C9  UNL     1      -4.500   8.402  12.950  1.00  0.00     0.016 C 
HETATM    7  C10 UNL     1      -3.210   8.453  15.057  1.00  0.00     0.010 C 
HETATM    8  C11 UNL     1      -2.164   7.869  15.993  1.00  0.00     0.002 C 
HETATM    9  C12 UNL     1      -1.161   6.936  15.326  1.00  0.00     0.012 C 
HETATM   10  C13 UNL     1      -0.992   7.136  13.804  1.00  0.00    -0.018 C 
HETATM   11  C14 UNL     1      -0.422   8.545  13.495  1.00  0.00     0.018 C 
HETATM   12  C16 UNL     1      -2.397   6.951  13.094  1.00  0.00     0.007 C 
HETATM   13  C17 UNL     1      -2.625   5.494  12.618  1.00  0.00     0.041 C 
HETATM   14  C18 UNL     1      -4.058   5.227  12.192  1.00  0.00     0.156 C 
HETATM   15  C19 UNL     1      -4.968   5.346  13.390  1.00  0.00     0.118 A 
HETATM   16  O3  UNL     1      -5.304   4.046  13.948  1.00  0.00    -0.366 OA
HETATM   17  C20 UNL     1      -6.373   4.774  13.335  1.00  0.00     0.165 A 
ENDROOT
BRANCH  10  18
HETATM   18  C15 UNL     1       0.077   6.115  13.300  1.00  0.00     0.173 C 
BRANCH  18  19
HETATM   19  O1  UNL     1       0.422   5.157  14.297  1.00  0.00    -0.400 OA
HETATM   20  H28 UNL     1       1.019   5.589  14.930  1.00  0.00     0.209 HD
ENDBRANCH  18  19
ENDBRANCH  10  18
BRANCH  14  21
HETATM   21  O2  UNL     1      -4.118   3.912  11.633  1.00  0.00    -0.392 OA
HETATM   22  H33 UNL     1      -4.254   3.308  12.389  1.00  0.00     0.210 HD
ENDBRANCH  14  21
BRANCH   1  23
HETATM   23  C2  UNL     1      -8.355   6.314  13.594  1.00  0.00    -0.016 C 
HETATM   24  C1  UNL     1      -9.566   6.710  14.447  1.00  0.00     0.010 C 
HETATM   25  C3  UNL     1      -8.869   5.820  12.233  1.00  0.00     0.010 C 
ENDBRANCH   1  23
TORSDOF 4
ENDMDL
