MODEL 1
REMARK minimizedAffinity -7.30451059
REMARK CNNscore 0.412536561
REMARK CNNaffinity 6.7939229
REMARK  6 active torsions:
REMARK  status: ('A' for Active; 'I' for Inactive)
REMARK    1  A    between atoms: C13_15  and  O3_16 
REMARK    2  A    between atoms: C22_26  and  O5_27 
REMARK    3  A    between atoms: C23_28  and  O6_29 
REMARK    4  A    between atoms: C29_36  and  C30_37 
REMARK    5  A    between atoms: C30_37  and  C32_39 
REMARK    6  A    between atoms: C32_39  and  O8_40 
ROOT
HETATM    1  C1  UNL     1      -3.172  -9.489  10.949  1.00  0.00     0.046 C 
HETATM    2  C2  UNL     1      -4.569  -9.493  10.395  1.00  0.00    -0.056 C 
HETATM    3  C3  UNL     1      -4.795  -9.504   9.067  1.00  0.00    -0.004 C 
HETATM    4  C4  UNL     1      -6.185  -9.386   8.509  1.00  0.00     0.150 C 
HETATM    5  C5  UNL     1      -6.298  -9.794   7.045  1.00  0.00     0.270 C 
HETATM    6  O1  UNL     1      -6.299  -8.950   6.145  1.00  0.00    -0.264 OA
HETATM    7  O2  UNL     1      -6.357 -11.139   6.832  1.00  0.00    -0.315 OA
HETATM    8  C6  UNL     1      -6.651 -11.613   5.487  1.00  0.00     0.139 C 
HETATM    9  C7  UNL     1      -8.089 -11.269   5.104  1.00  0.00     0.065 C 
HETATM   10  C8  UNL     1      -8.317 -11.518   3.623  1.00  0.00     0.131 C 
HETATM   11  C9  UNL     1      -9.781 -11.272   3.177  1.00  0.00     0.059 C 
HETATM   12  C10 UNL     1     -10.338  -9.923   3.574  1.00  0.00    -0.019 C 
HETATM   13  C11 UNL     1     -11.471  -9.660   4.265  1.00  0.00    -0.059 C 
HETATM   14  C12 UNL     1     -12.449 -10.716   4.711  1.00  0.00     0.046 C 
HETATM   15  C13 UNL     1     -11.800  -8.212   4.642  1.00  0.00     0.153 C 
HETATM   16  C14 UNL     1     -11.904  -7.867   6.170  1.00  0.00     0.037 C 
HETATM   17  C15 UNL     1     -13.273  -8.170   6.792  1.00  0.00     0.017 C 
HETATM   18  C16 UNL     1     -10.725  -8.439   6.928  1.00  0.00    -0.020 C 
HETATM   19  C17 UNL     1     -10.746  -9.451   7.812  1.00  0.00    -0.003 C 
HETATM   20  C18 UNL     1      -9.529 -10.039   8.298  1.00  0.00     0.008 C 
HETATM   21  C19 UNL     1      -8.620  -9.429   9.071  1.00  0.00    -0.019 C 
HETATM   22  C20 UNL     1      -8.769  -8.110   9.778  1.00  0.00     0.206 C 
HETATM   23  O4  UNL     1      -7.633  -8.011  10.673  1.00  0.00    -0.375 OA
HETATM   24  C21 UNL     1      -7.138  -9.358  10.840  1.00  0.00     0.194 C 
HETATM   25  C22 UNL     1      -5.699  -9.425  11.410  1.00  0.00     0.179 C 
HETATM   26  C23 UNL     1      -7.270  -9.971   9.444  1.00  0.00     0.128 C 
HETATM   27  O7  UNL     1      -7.438 -10.654   2.898  1.00  0.00    -0.349 OA
HETATM   28  C24 UNL     1      -6.065 -11.040   2.998  1.00  0.00     0.167 C 
HETATM   29  C25 UNL     1      -5.241  -9.915   2.327  1.00  0.00     0.069 C 
HETATM   30  C26 UNL     1      -4.013 -10.504   1.637  1.00  0.00     0.012 C 
HETATM   31  C27 UNL     1      -4.467 -11.439   0.498  1.00  0.00     0.011 C 
HETATM   32  C28 UNL     1      -4.624 -10.619  -0.792  1.00  0.00     0.012 C 
HETATM   33  C29 UNL     1      -5.781 -12.178   0.883  1.00  0.00     0.134 C 
HETATM   34  O9  UNL     1      -5.860 -12.295   2.318  1.00  0.00    -0.349 OA
HETATM   35  C33 UNL     1      -5.573 -11.228   4.458  1.00  0.00     0.101 C 
ENDROOT
BRANCH  33  36
HETATM   36  C30 UNL     1      -5.881 -13.628   0.325  1.00  0.00     0.035 C 
HETATM   37  C31 UNL     1      -6.939 -13.695  -0.788  1.00  0.00     0.015 C 
BRANCH  36  38
HETATM   38  C32 UNL     1      -4.547 -14.199  -0.177  1.00  0.00     0.170 C 
BRANCH  38  39
HETATM   39  O8  UNL     1      -4.518 -14.250  -1.604  1.00  0.00    -0.400 OA
HETATM   40  H46 UNL     1      -3.638 -14.584  -1.860  1.00  0.00     0.209 HD
ENDBRANCH  38  39
ENDBRANCH  36  38
ENDBRANCH  33  36
BRANCH  15  41
HETATM   41  O3  UNL     1     -12.988  -7.800   3.972  1.00  0.00    -0.391 OA
HETATM   42  H17 UNL     1     -13.162  -8.447   3.259  1.00  0.00     0.210 HD
ENDBRANCH  15  41
BRANCH  26  43
HETATM   43  O6  UNL     1      -7.255 -11.392   9.529  1.00  0.00    -0.381 OA
HETATM   44  H30 UNL     1      -8.083 -11.679   9.957  1.00  0.00     0.211 HD
ENDBRANCH  26  43
BRANCH  25  45
HETATM   45  O5  UNL     1      -5.587 -10.593  12.230  1.00  0.00    -0.389 OA
HETATM   46  H29 UNL     1      -5.554 -11.361  11.626  1.00  0.00     0.210 HD
ENDBRANCH  25  45
TORSDOF 6
ENDMDL
MODEL 2
REMARK minimizedAffinity -10.4095945
REMARK CNNscore 0.359455109
REMARK CNNaffinity 6.76214647
REMARK  6 active torsions:
REMARK  status: ('A' for Active; 'I' for Inactive)
REMARK    1  A    between atoms: C13_15  and  O3_16 
REMARK    2  A    between atoms: C22_26  and  O5_27 
REMARK    3  A    between atoms: C23_28  and  O6_29 
REMARK    4  A    between atoms: C29_36  and  C30_37 
REMARK    5  A    between atoms: C30_37  and  C32_39 
REMARK    6  A    between atoms: C32_39  and  O8_40 
ROOT
HETATM    1  C1  UNL     1      -1.708  10.325  18.247  1.00  0.00     0.046 C 
HETATM    2  C2  UNL     1      -1.387   9.769  16.888  1.00  0.00    -0.056 C 
HETATM    3  C3  UNL     1      -0.175   9.949  16.328  1.00  0.00    -0.004 C 
HETATM    4  C4  UNL     1       0.111   9.501  14.922  1.00  0.00     0.150 C 
HETATM    5  C5  UNL     1       1.596   9.430  14.588  1.00  0.00     0.270 C 
HETATM    6  O1  UNL     1       2.158  10.345  13.981  1.00  0.00    -0.264 OA
HETATM    7  O2  UNL     1       2.229   8.311  15.044  1.00  0.00    -0.315 OA
HETATM    8  C6  UNL     1       3.599   8.070  14.615  1.00  0.00     0.139 C 
HETATM    9  C7  UNL     1       3.641   7.751  13.121  1.00  0.00     0.065 C 
HETATM   10  C8  UNL     1       5.073   7.762  12.616  1.00  0.00     0.131 C 
HETATM   11  C9  UNL     1       5.202   7.361  11.125  1.00  0.00     0.059 C 
HETATM   12  C10 UNL     1       4.308   8.142  10.188  1.00  0.00    -0.019 C 
HETATM   13  C11 UNL     1       3.417   7.660   9.292  1.00  0.00    -0.059 C 
HETATM   14  C12 UNL     1       3.209   6.194   9.015  1.00  0.00     0.046 C 
HETATM   15  C13 UNL     1       2.542   8.641   8.503  1.00  0.00     0.153 C 
HETATM   16  C14 UNL     1       0.988   8.539   8.694  1.00  0.00     0.037 C 
HETATM   17  C15 UNL     1       0.313   7.480   7.813  1.00  0.00     0.017 C 
HETATM   18  C16 UNL     1       0.635   8.457  10.164  1.00  0.00    -0.020 C 
HETATM   19  C17 UNL     1       0.138   7.392  10.818  1.00  0.00    -0.003 C 
HETATM   20  C18 UNL     1       0.050   7.375  12.252  1.00  0.00     0.008 C 
HETATM   21  C19 UNL     1      -0.744   8.158  12.995  1.00  0.00    -0.019 C 
HETATM   22  C20 UNL     1      -1.859   9.043  12.509  1.00  0.00     0.206 C 
HETATM   23  O4  UNL     1      -2.567   9.476  13.697  1.00  0.00    -0.375 OA
HETATM   24  C21 UNL     1      -2.209   8.539  14.738  1.00  0.00     0.194 C 
HETATM   25  C22 UNL     1      -2.516   9.052  16.167  1.00  0.00     0.179 C 
HETATM   26  C23 UNL     1      -0.723   8.270  14.492  1.00  0.00     0.128 C 
HETATM   27  O7  UNL     1       5.590   9.082  12.810  1.00  0.00    -0.349 OA
HETATM   28  C24 UNL     1       5.818   9.398  14.186  1.00  0.00     0.167 C 
HETATM   29  C25 UNL     1       6.190  10.900  14.236  1.00  0.00     0.069 C 
HETATM   30  C26 UNL     1       7.202  11.151  15.352  1.00  0.00     0.012 C 
HETATM   31  C27 UNL     1       8.508  10.396  15.036  1.00  0.00     0.011 C 
HETATM   32  C28 UNL     1       9.421  11.303  14.196  1.00  0.00     0.012 C 
HETATM   33  C29 UNL     1       8.206   9.048  14.320  1.00  0.00     0.134 C 
HETATM   34  O9  UNL     1       6.895   8.589  14.701  1.00  0.00    -0.349 OA
HETATM   35  C33 UNL     1       4.586   9.149  15.096  1.00  0.00     0.101 C 
ENDROOT
BRANCH  33  36
HETATM   36  C30 UNL     1       9.191   7.900  14.688  1.00  0.00     0.035 C 
HETATM   37  C31 UNL     1      10.525   8.089  13.950  1.00  0.00     0.015 C 
BRANCH  36  38
HETATM   38  C32 UNL     1       9.437   7.744  16.196  1.00  0.00     0.170 C 
BRANCH  38  39
HETATM   39  O8  UNL     1       8.206   7.765  16.919  1.00  0.00    -0.400 OA
HETATM   40  H46 UNL     1       8.425   7.625  17.860  1.00  0.00     0.209 HD
ENDBRANCH  38  39
ENDBRANCH  36  38
ENDBRANCH  33  36
BRANCH  15  41
HETATM   41  O3  UNL     1       2.865   8.564   7.118  1.00  0.00    -0.391 OA
HETATM   42  H17 UNL     1       3.719   8.093   7.040  1.00  0.00     0.210 HD
ENDBRANCH  15  41
BRANCH  26  43
HETATM   43  O6  UNL     1      -0.333   7.057  15.127  1.00  0.00    -0.381 OA
HETATM   44  H30 UNL     1      -0.755   6.317  14.652  1.00  0.00     0.211 HD
ENDBRANCH  26  43
BRANCH  25  45
HETATM   45  O5  UNL     1      -2.882   7.934  16.984  1.00  0.00    -0.389 OA
HETATM   46  H29 UNL     1      -2.061   7.437  17.167  1.00  0.00     0.210 HD
ENDBRANCH  25  45
TORSDOF 6
ENDMDL
MODEL 3
REMARK minimizedAffinity -6.95515013
REMARK CNNscore 0.321246147
REMARK CNNaffinity 6.04559135
REMARK  6 active torsions:
REMARK  status: ('A' for Active; 'I' for Inactive)
REMARK    1  A    between atoms: C13_15  and  O3_16 
REMARK    2  A    between atoms: C22_26  and  O5_27 
REMARK    3  A    between atoms: C23_28  and  O6_29 
REMARK    4  A    between atoms: C29_36  and  C30_37 
REMARK    5  A    between atoms: C30_37  and  C32_39 
REMARK    6  A    between atoms: C32_39  and  O8_40 
ROOT
HETATM    1  C1  UNL     1      -6.310 -10.717  11.969  1.00  0.00     0.046 C 
HETATM    2  C2  UNL     1      -6.512 -10.491  10.497  1.00  0.00    -0.056 C 
HETATM    3  C3  UNL     1      -7.746 -10.431   9.962  1.00  0.00    -0.004 C 
HETATM    4  C4  UNL     1      -7.949 -10.326   8.476  1.00  0.00     0.150 C 
HETATM    5  C5  UNL     1      -9.354  -9.890   8.076  1.00  0.00     0.270 C 
HETATM    6  O1  UNL     1     -10.204 -10.714   7.728  1.00  0.00    -0.264 OA
HETATM    7  O2  UNL     1      -9.582  -8.549   8.173  1.00  0.00    -0.315 OA
HETATM    8  C6  UNL     1     -10.830  -8.021   7.639  1.00  0.00     0.139 C 
HETATM    9  C7  UNL     1     -10.846  -8.135   6.115  1.00  0.00     0.065 C 
HETATM   10  C8  UNL     1     -12.235  -7.838   5.576  1.00  0.00     0.131 C 
HETATM   11  C9  UNL     1     -12.308  -7.849   4.028  1.00  0.00     0.059 C 
HETATM   12  C10 UNL     1     -11.752  -9.100   3.385  1.00  0.00    -0.019 C 
HETATM   13  C11 UNL     1     -10.802  -9.192   2.427  1.00  0.00    -0.059 C 
HETATM   14  C12 UNL     1     -10.162  -8.002   1.758  1.00  0.00     0.046 C 
HETATM   15  C13 UNL     1     -10.318 -10.576   1.981  1.00  0.00     0.153 C 
HETATM   16  C14 UNL     1      -8.802 -10.917   2.199  1.00  0.00     0.037 C 
HETATM   17  C15 UNL     1      -7.876 -10.413   1.083  1.00  0.00     0.017 C 
HETATM   18  C16 UNL     1      -8.366 -10.543   3.599  1.00  0.00    -0.020 C 
HETATM   19  C17 UNL     1      -7.529  -9.549   3.947  1.00  0.00    -0.003 C 
HETATM   20  C18 UNL     1      -7.367  -9.162   5.321  1.00  0.00     0.008 C 
HETATM   21  C19 UNL     1      -6.819  -9.914   6.285  1.00  0.00    -0.019 C 
HETATM   22  C20 UNL     1      -6.062 -11.201   6.113  1.00  0.00     0.206 C 
HETATM   23  O4  UNL     1      -5.464 -11.484   7.402  1.00  0.00    -0.375 OA
HETATM   24  C21 UNL     1      -5.458 -10.232   8.123  1.00  0.00     0.194 C 
HETATM   25  C22 UNL     1      -5.253 -10.395   9.650  1.00  0.00     0.179 C 
HETATM   26  C23 UNL     1      -6.797  -9.590   7.752  1.00  0.00     0.128 C 
HETATM   27  O7  UNL     1     -13.126  -8.820   6.112  1.00  0.00    -0.349 OA
HETATM   28  C24 UNL     1     -13.371  -8.651   7.511  1.00  0.00     0.167 C 
HETATM   29  C25 UNL     1     -14.189  -9.884   7.966  1.00  0.00     0.069 C 
HETATM   30  C26 UNL     1     -15.170  -9.484   9.066  1.00  0.00     0.012 C 
HETATM   31  C27 UNL     1     -16.191  -8.478   8.498  1.00  0.00     0.011 C 
HETATM   32  C28 UNL     1     -17.383  -9.249   7.910  1.00  0.00     0.012 C 
HETATM   33  C29 UNL     1     -15.521  -7.548   7.444  1.00  0.00     0.134 C 
HETATM   34  O9  UNL     1     -14.114  -7.436   7.734  1.00  0.00    -0.349 OA
HETATM   35  C33 UNL     1     -12.077  -8.558   8.363  1.00  0.00     0.101 C 
ENDROOT
BRANCH  33  36
HETATM   36  C30 UNL     1     -16.078  -6.095   7.435  1.00  0.00     0.035 C 
HETATM   37  C31 UNL     1     -16.813  -5.801   8.753  1.00  0.00     0.015 C 
BRANCH  36  38
HETATM   38  C32 UNL     1     -15.017  -5.017   7.169  1.00  0.00     0.170 C 
BRANCH  38  39
HETATM   39  O8  UNL     1     -15.310  -4.297   5.972  1.00  0.00    -0.400 OA
HETATM   40  H46 UNL     1     -14.625  -3.608   5.878  1.00  0.00     0.209 HD
ENDBRANCH  38  39
ENDBRANCH  36  38
ENDBRANCH  33  36
BRANCH  15  41
HETATM   41  O3  UNL     1     -10.671 -10.792   0.618  1.00  0.00    -0.391 OA
HETATM   42  H17 UNL     1     -11.339 -10.118   0.377  1.00  0.00     0.210 HD
ENDBRANCH  15  41
BRANCH  26  43
HETATM   43  O6  UNL     1      -6.757  -8.190   8.004  1.00  0.00    -0.381 OA
HETATM   44  H30 UNL     1      -6.150  -7.783   7.358  1.00  0.00     0.211 HD
ENDBRANCH  26  43
BRANCH  25  45
HETATM   45  O5  UNL     1      -4.516  -9.267  10.134  1.00  0.00    -0.389 OA
HETATM   46  H29 UNL     1      -5.131  -8.507  10.137  1.00  0.00     0.210 HD
ENDBRANCH  25  45
TORSDOF 6
ENDMDL
MODEL 4
REMARK minimizedAffinity -8.44534969
REMARK CNNscore 0.314435154
REMARK CNNaffinity 6.01166677
REMARK  6 active torsions:
REMARK  status: ('A' for Active; 'I' for Inactive)
REMARK    1  A    between atoms: C13_15  and  O3_16 
REMARK    2  A    between atoms: C22_26  and  O5_27 
REMARK    3  A    between atoms: C23_28  and  O6_29 
REMARK    4  A    between atoms: C29_36  and  C30_37 
REMARK    5  A    between atoms: C30_37  and  C32_39 
REMARK    6  A    between atoms: C32_39  and  O8_40 
ROOT
HETATM    1  C1  UNL     1       6.780   7.461  13.380  1.00  0.00     0.046 C 
HETATM    2  C2  UNL     1       5.368   7.953  13.522  1.00  0.00    -0.056 C 
HETATM    3  C3  UNL     1       4.831   8.196  14.734  1.00  0.00    -0.004 C 
HETATM    4  C4  UNL     1       3.384   8.571  14.887  1.00  0.00     0.150 C 
HETATM    5  C5  UNL     1       3.044   9.173  16.246  1.00  0.00     0.270 C 
HETATM    6  O1  UNL     1       2.544   8.487  17.140  1.00  0.00    -0.264 OA
HETATM    7  O2  UNL     1       3.371  10.489  16.382  1.00  0.00    -0.315 OA
HETATM    8  C6  UNL     1       2.918  11.193  17.574  1.00  0.00     0.139 C 
HETATM    9  C7  UNL     1       1.398  11.347  17.554  1.00  0.00     0.065 C 
HETATM   10  C8  UNL     1       0.897  11.835  18.903  1.00  0.00     0.131 C 
HETATM   11  C9  UNL     1      -0.630  12.098  18.933  1.00  0.00     0.059 C 
HETATM   12  C10 UNL     1      -1.474  10.940  18.448  1.00  0.00    -0.019 C 
HETATM   13  C11 UNL     1      -2.418  10.946  17.479  1.00  0.00    -0.059 C 
HETATM   14  C12 UNL     1      -2.858  12.183  16.739  1.00  0.00     0.046 C 
HETATM   15  C13 UNL     1      -3.091   9.628  17.080  1.00  0.00     0.153 C 
HETATM   16  C14 UNL     1      -2.913   9.144  15.599  1.00  0.00     0.037 C 
HETATM   17  C15 UNL     1      -3.908   9.764  14.609  1.00  0.00     0.017 C 
HETATM   18  C16 UNL     1      -1.461   9.236  15.178  1.00  0.00    -0.020 C 
HETATM   19  C17 UNL     1      -0.931  10.089  14.284  1.00  0.00    -0.003 C 
HETATM   20  C18 UNL     1       0.491  10.220  14.134  1.00  0.00     0.008 C 
HETATM   21  C19 UNL     1       1.318   9.273  13.669  1.00  0.00    -0.019 C 
HETATM   22  C20 UNL     1       0.934   7.983  12.999  1.00  0.00     0.206 C 
HETATM   23  O4  UNL     1       2.164   7.437  12.459  1.00  0.00    -0.375 OA
HETATM   24  C21 UNL     1       3.093   8.541  12.386  1.00  0.00     0.194 C 
HETATM   25  C22 UNL     1       4.570   8.101  12.237  1.00  0.00     0.179 C 
HETATM   26  C23 UNL     1       2.818   9.334  13.666  1.00  0.00     0.128 C 
HETATM   27  O7  UNL     1       1.238  10.843  19.876  1.00  0.00    -0.349 OA
HETATM   28  C24 UNL     1       2.641  10.784  20.148  1.00  0.00     0.167 C 
HETATM   29  C25 UNL     1       2.860   9.555  21.063  1.00  0.00     0.069 C 
HETATM   30  C26 UNL     1       3.997   9.829  22.045  1.00  0.00     0.012 C 
HETATM   31  C27 UNL     1       3.598  10.992  22.976  1.00  0.00     0.011 C 
HETATM   32  C28 UNL     1       2.865  10.424  24.202  1.00  0.00     0.012 C 
HETATM   33  C29 UNL     1       2.734  12.038  22.213  1.00  0.00     0.134 C 
HETATM   34  O9  UNL     1       3.061  11.994  20.810  1.00  0.00    -0.349 OA
HETATM   35  C33 UNL     1       3.517  10.633  18.876  1.00  0.00     0.101 C 
ENDROOT
BRANCH  33  36
HETATM   36  C30 UNL     1       2.971  13.508  22.667  1.00  0.00     0.035 C 
HETATM   37  C31 UNL     1       4.446  13.713  23.048  1.00  0.00     0.015 C 
BRANCH  36  38
HETATM   38  C32 UNL     1       2.540  14.560  21.635  1.00  0.00     0.170 C 
BRANCH  38  39
HETATM   39  O8  UNL     1       1.168  14.390  21.275  1.00  0.00    -0.400 OA
HETATM   40  H46 UNL     1       0.946  15.106  20.650  1.00  0.00     0.209 HD
ENDBRANCH  38  39
ENDBRANCH  36  38
ENDBRANCH  33  36
BRANCH  15  41
HETATM   41  O3  UNL     1      -4.477   9.679  17.409  1.00  0.00    -0.391 OA
HETATM   42  H17 UNL     1      -4.606  10.431  18.021  1.00  0.00     0.210 HD
ENDBRANCH  15  41
BRANCH  26  43
HETATM   43  O6  UNL     1       3.312  10.663  13.535  1.00  0.00    -0.381 OA
HETATM   44  H30 UNL     1       2.757  11.130  12.883  1.00  0.00     0.211 HD
ENDBRANCH  26  43
BRANCH  25  45
HETATM   45  O5  UNL     1       5.256   9.071  11.437  1.00  0.00    -0.389 OA
HETATM   46  H29 UNL     1       5.383   9.862  11.997  1.00  0.00     0.210 HD
ENDBRANCH  25  45
TORSDOF 6
ENDMDL
MODEL 5
REMARK minimizedAffinity -8.89973927
REMARK CNNscore 0.305388778
REMARK CNNaffinity 6.85856295
REMARK  6 active torsions:
REMARK  status: ('A' for Active; 'I' for Inactive)
REMARK    1  A    between atoms: C13_15  and  O3_16 
REMARK    2  A    between atoms: C22_26  and  O5_27 
REMARK    3  A    between atoms: C23_28  and  O6_29 
REMARK    4  A    between atoms: C29_36  and  C30_37 
REMARK    5  A    between atoms: C30_37  and  C32_39 
REMARK    6  A    between atoms: C32_39  and  O8_40 
ROOT
HETATM    1  C1  UNL     1      -7.322   2.629  12.866  1.00  0.00     0.046 C 
HETATM    2  C2  UNL     1      -6.877   3.925  13.483  1.00  0.00    -0.056 C 
HETATM    3  C3  UNL     1      -5.589   4.317  13.434  1.00  0.00    -0.004 C 
HETATM    4  C4  UNL     1      -5.120   5.550  14.153  1.00  0.00     0.150 C 
HETATM    5  C5  UNL     1      -3.756   6.051  13.691  1.00  0.00     0.270 C 
HETATM    6  O1  UNL     1      -2.730   5.782  14.320  1.00  0.00    -0.264 OA
HETATM    7  O2  UNL     1      -3.778   6.768  12.531  1.00  0.00    -0.315 OA
HETATM    8  C6  UNL     1      -2.555   7.440  12.113  1.00  0.00     0.139 C 
HETATM    9  C7  UNL     1      -2.223   8.584  13.071  1.00  0.00     0.065 C 
HETATM   10  C8  UNL     1      -0.825   9.112  12.800  1.00  0.00     0.131 C 
HETATM   11  C9  UNL     1      -0.449  10.333  13.677  1.00  0.00     0.059 C 
HETATM   12  C10 UNL     1      -0.653  10.123  15.161  1.00  0.00    -0.019 C 
HETATM   13  C11 UNL     1      -1.368  10.885  16.020  1.00  0.00    -0.059 C 
HETATM   14  C12 UNL     1      -2.053  12.171  15.634  1.00  0.00     0.046 C 
HETATM   15  C13 UNL     1      -1.519  10.434  17.476  1.00  0.00     0.153 C 
HETATM   16  C14 UNL     1      -2.971  10.142  17.997  1.00  0.00     0.037 C 
HETATM   17  C15 UNL     1      -3.731  11.387  18.474  1.00  0.00     0.017 C 
HETATM   18  C16 UNL     1      -3.728   9.278  17.012  1.00  0.00    -0.020 C 
HETATM   19  C17 UNL     1      -4.769   9.647  16.246  1.00  0.00    -0.003 C 
HETATM   20  C18 UNL     1      -5.260   8.797  15.197  1.00  0.00     0.008 C 
HETATM   21  C19 UNL     1      -5.852   7.608  15.368  1.00  0.00    -0.019 C 
HETATM   22  C20 UNL     1      -6.336   7.013  16.661  1.00  0.00     0.206 C 
HETATM   23  O4  UNL     1      -7.119   5.850  16.293  1.00  0.00    -0.375 OA
HETATM   24  C21 UNL     1      -7.474   6.031  14.904  1.00  0.00     0.194 C 
HETATM   25  C22 UNL     1      -7.944   4.729  14.208  1.00  0.00     0.179 C 
HETATM   26  C23 UNL     1      -6.214   6.636  14.281  1.00  0.00     0.128 C 
HETATM   27  O7  UNL     1       0.096   8.043  13.037  1.00  0.00    -0.349 OA
HETATM   28  C24 UNL     1       0.030   7.017  12.043  1.00  0.00     0.167 C 
HETATM   29  C25 UNL     1       0.937   5.865  12.539  1.00  0.00     0.069 C 
HETATM   30  C26 UNL     1       1.604   5.174  11.352  1.00  0.00     0.012 C 
HETATM   31  C27 UNL     1       2.535   6.174  10.636  1.00  0.00     0.011 C 
HETATM   32  C28 UNL     1       3.930   6.109  11.278  1.00  0.00     0.012 C 
HETATM   33  C29 UNL     1       1.938   7.611  10.682  1.00  0.00     0.134 C 
HETATM   34  O9  UNL     1       0.503   7.529  10.781  1.00  0.00    -0.349 OA
HETATM   35  C33 UNL     1      -1.402   6.469  11.805  1.00  0.00     0.101 C 
ENDROOT
BRANCH  33  36
HETATM   36  C30 UNL     1       2.237   8.462   9.413  1.00  0.00     0.035 C 
HETATM   37  C31 UNL     1       3.613   8.089   8.838  1.00  0.00     0.015 C 
BRANCH  36  38
HETATM   38  C32 UNL     1       1.162   8.361   8.322  1.00  0.00     0.170 C 
BRANCH  38  39
HETATM   39  O8  UNL     1       1.593   7.513   7.257  1.00  0.00    -0.400 OA
HETATM   40  H46 UNL     1       0.857   7.460   6.618  1.00  0.00     0.209 HD
ENDBRANCH  38  39
ENDBRANCH  36  38
ENDBRANCH  33  36
BRANCH  15  41
HETATM   41  O3  UNL     1      -0.876  11.368  18.337  1.00  0.00    -0.391 OA
HETATM   42  H17 UNL     1      -0.295  11.927  17.783  1.00  0.00     0.210 HD
ENDBRANCH  15  41
BRANCH  26  43
HETATM   43  O6  UNL     1      -6.535   7.282  13.054  1.00  0.00    -0.381 OA
HETATM   44  H30 UNL     1      -7.063   8.076  13.258  1.00  0.00     0.211 HD
ENDBRANCH  26  43
BRANCH  25  45
HETATM   45  O5  UNL     1      -8.938   5.066  13.234  1.00  0.00    -0.389 OA
HETATM   46  H29 UNL     1      -8.471   5.486  12.486  1.00  0.00     0.210 HD
ENDBRANCH  25  45
TORSDOF 6
ENDMDL
MODEL 6
REMARK minimizedAffinity -8.23739529
REMARK CNNscore 0.295475572
REMARK CNNaffinity 6.24983215
REMARK  6 active torsions:
REMARK  status: ('A' for Active; 'I' for Inactive)
REMARK    1  A    between atoms: C13_15  and  O3_16 
REMARK    2  A    between atoms: C22_26  and  O5_27 
REMARK    3  A    between atoms: C23_28  and  O6_29 
REMARK    4  A    between atoms: C29_36  and  C30_37 
REMARK    5  A    between atoms: C30_37  and  C32_39 
REMARK    6  A    between atoms: C32_39  and  O8_40 
ROOT
HETATM    1  C1  UNL     1     -10.107  -9.188  12.515  1.00  0.00     0.046 C 
HETATM    2  C2  UNL     1      -9.094  -9.279  11.409  1.00  0.00    -0.056 C 
HETATM    3  C3  UNL     1      -9.436  -9.711  10.180  1.00  0.00    -0.004 C 
HETATM    4  C4  UNL     1      -8.404  -9.918   9.108  1.00  0.00     0.150 C 
HETATM    5  C5  UNL     1      -8.988 -10.033   7.705  1.00  0.00     0.270 C 
HETATM    6  O1  UNL     1      -9.171 -11.134   7.178  1.00  0.00    -0.264 OA
HETATM    7  O2  UNL     1      -9.313  -8.843   7.124  1.00  0.00    -0.315 OA
HETATM    8  C6  UNL     1      -9.703  -8.843   5.721  1.00  0.00     0.139 C 
HETATM    9  C7  UNL     1      -8.508  -9.198   4.837  1.00  0.00     0.065 C 
HETATM   10  C8  UNL     1      -8.962  -9.460   3.412  1.00  0.00     0.131 C 
HETATM   11  C9  UNL     1      -7.792  -9.742   2.436  1.00  0.00     0.059 C 
HETATM   12  C10 UNL     1      -6.845 -10.829   2.893  1.00  0.00    -0.019 C 
HETATM   13  C11 UNL     1      -5.501 -10.758   3.034  1.00  0.00    -0.059 C 
HETATM   14  C12 UNL     1      -4.679  -9.548   2.672  1.00  0.00     0.046 C 
HETATM   15  C13 UNL     1      -4.742 -11.960   3.605  1.00  0.00     0.153 C 
HETATM   16  C14 UNL     1      -3.954 -11.749   4.945  1.00  0.00     0.037 C 
HETATM   17  C15 UNL     1      -2.551 -11.156   4.764  1.00  0.00     0.017 C 
HETATM   18  C16 UNL     1      -4.815 -11.034   5.965  1.00  0.00    -0.020 C 
HETATM   19  C17 UNL     1      -4.655  -9.780   6.422  1.00  0.00    -0.003 C 
HETATM   20  C18 UNL     1      -5.664  -9.147   7.224  1.00  0.00     0.008 C 
HETATM   21  C19 UNL     1      -6.024  -9.515   8.461  1.00  0.00    -0.019 C 
HETATM   22  C20 UNL     1      -5.319 -10.495   9.358  1.00  0.00     0.206 C 
HETATM   23  O4  UNL     1      -5.941 -10.358  10.660  1.00  0.00    -0.375 OA
HETATM   24  C21 UNL     1      -6.604  -9.073  10.652  1.00  0.00     0.194 C 
HETATM   25  C22 UNL     1      -7.663  -8.914  11.771  1.00  0.00     0.179 C 
HETATM   26  C23 UNL     1      -7.187  -8.972   9.241  1.00  0.00     0.128 C 
HETATM   27  O7  UNL     1      -9.852 -10.580   3.440  1.00  0.00    -0.349 OA
HETATM   28  C24 UNL     1     -11.113 -10.279   4.042  1.00  0.00     0.167 C 
HETATM   29  C25 UNL     1     -11.874 -11.621   4.163  1.00  0.00     0.069 C 
HETATM   30  C26 UNL     1     -13.372 -11.393   3.976  1.00  0.00     0.012 C 
HETATM   31  C27 UNL     1     -13.635 -10.879   2.546  1.00  0.00     0.011 C 
HETATM   32  C28 UNL     1     -13.844 -12.081   1.611  1.00  0.00     0.012 C 
HETATM   33  C29 UNL     1     -12.471  -9.963   2.067  1.00  0.00     0.134 C 
HETATM   34  O9  UNL     1     -11.842  -9.353   3.211  1.00  0.00    -0.349 OA
HETATM   35  C33 UNL     1     -10.995  -9.634   5.449  1.00  0.00     0.101 C 
ENDROOT
BRANCH  33  36
HETATM   36  C30 UNL     1     -12.924  -8.792   1.147  1.00  0.00     0.035 C 
HETATM   37  C31 UNL     1     -14.450  -8.816   0.971  1.00  0.00     0.015 C 
BRANCH  36  38
HETATM   38  C32 UNL     1     -12.467  -7.406   1.625  1.00  0.00     0.170 C 
BRANCH  38  39
HETATM   39  O8  UNL     1     -13.382  -6.394   1.203  1.00  0.00    -0.400 OA
HETATM   40  H46 UNL     1     -13.060  -5.548   1.567  1.00  0.00     0.209 HD
ENDBRANCH  38  39
ENDBRANCH  36  38
ENDBRANCH  33  36
BRANCH  15  41
HETATM   41  O3  UNL     1      -3.873 -12.495   2.612  1.00  0.00    -0.391 OA
HETATM   42  H17 UNL     1      -4.148 -12.124   1.749  1.00  0.00     0.210 HD
ENDBRANCH  15  41
BRANCH  26  43
HETATM   43  O6  UNL     1      -7.473  -7.614   8.925  1.00  0.00    -0.381 OA
HETATM   44  H30 UNL     1      -6.626  -7.140   8.830  1.00  0.00     0.211 HD
ENDBRANCH  26  43
BRANCH  25  45
HETATM   45  O5  UNL     1      -7.681  -7.546  12.191  1.00  0.00    -0.389 OA
HETATM   46  H29 UNL     1      -8.122  -7.038  11.482  1.00  0.00     0.210 HD
ENDBRANCH  25  45
TORSDOF 6
ENDMDL
MODEL 7
REMARK minimizedAffinity -8.09658432
REMARK CNNscore 0.271669567
REMARK CNNaffinity 5.78765631
REMARK  6 active torsions:
REMARK  status: ('A' for Active; 'I' for Inactive)
REMARK    1  A    between atoms: C13_15  and  O3_16 
REMARK    2  A    between atoms: C22_26  and  O5_27 
REMARK    3  A    between atoms: C23_28  and  O6_29 
REMARK    4  A    between atoms: C29_36  and  C30_37 
REMARK    5  A    between atoms: C30_37  and  C32_39 
REMARK    6  A    between atoms: C32_39  and  O8_40 
ROOT
HETATM    1  C1  UNL     1       0.430   5.545  13.362  1.00  0.00     0.046 C 
HETATM    2  C2  UNL     1      -0.266   6.825  13.730  1.00  0.00    -0.056 C 
HETATM    3  C3  UNL     1      -0.066   7.412  14.926  1.00  0.00    -0.004 C 
HETATM    4  C4  UNL     1      -0.850   8.624  15.343  1.00  0.00     0.150 C 
HETATM    5  C5  UNL     1      -0.246   9.371  16.527  1.00  0.00     0.270 C 
HETATM    6  O1  UNL     1      -0.669   9.200  17.673  1.00  0.00    -0.264 OA
HETATM    7  O2  UNL     1       0.798  10.189  16.210  1.00  0.00    -0.315 OA
HETATM    8  C6  UNL     1       1.315  11.078  17.241  1.00  0.00     0.139 C 
HETATM    9  C7  UNL     1       0.287  12.157  17.578  1.00  0.00     0.065 C 
HETATM   10  C8  UNL     1       0.705  12.917  18.825  1.00  0.00     0.131 C 
HETATM   11  C9  UNL     1      -0.248  14.086  19.180  1.00  0.00     0.059 C 
HETATM   12  C10 UNL     1      -1.708  13.700  19.265  1.00  0.00    -0.019 C 
HETATM   13  C11 UNL     1      -2.756  14.254  18.613  1.00  0.00    -0.059 C 
HETATM   14  C12 UNL     1      -2.645  15.452  17.706  1.00  0.00     0.046 C 
HETATM   15  C13 UNL     1      -4.150  13.641  18.778  1.00  0.00     0.153 C 
HETATM   16  C14 UNL     1      -4.851  13.080  17.491  1.00  0.00     0.037 C 
HETATM   17  C15 UNL     1      -5.592  14.140  16.665  1.00  0.00     0.017 C 
HETATM   18  C16 UNL     1      -3.897  12.214  16.697  1.00  0.00    -0.020 C 
HETATM   19  C17 UNL     1      -3.355  12.496  15.499  1.00  0.00    -0.003 C 
HETATM   20  C18 UNL     1      -2.299  11.690  14.953  1.00  0.00     0.008 C 
HETATM   21  C19 UNL     1      -2.411  10.413  14.563  1.00  0.00    -0.019 C 
HETATM   22  C20 UNL     1      -3.680   9.624  14.394  1.00  0.00     0.206 C 
HETATM   23  O4  UNL     1      -3.297   8.399  13.722  1.00  0.00    -0.375 OA
HETATM   24  C21 UNL     1      -2.014   8.662  13.111  1.00  0.00     0.194 C 
HETATM   25  C22 UNL     1      -1.244   7.381  12.707  1.00  0.00     0.179 C 
HETATM   26  C23 UNL     1      -1.282   9.512  14.152  1.00  0.00     0.128 C 
HETATM   27  O7  UNL     1       0.750  11.982  19.907  1.00  0.00    -0.349 OA
HETATM   28  C24 UNL     1       1.841  11.063  19.808  1.00  0.00     0.167 C 
HETATM   29  C25 UNL     1       1.640  10.019  20.933  1.00  0.00     0.069 C 
HETATM   30  C26 UNL     1       2.993   9.561  21.471  1.00  0.00     0.012 C 
HETATM   31  C27 UNL     1       3.716  10.758  22.121  1.00  0.00     0.011 C 
HETATM   32  C28 UNL     1       3.314  10.842  23.602  1.00  0.00     0.012 C 
HETATM   33  C29 UNL     1       3.399  12.075  21.355  1.00  0.00     0.134 C 
HETATM   34  O9  UNL     1       3.088  11.766  19.983  1.00  0.00    -0.349 OA
HETATM   35  C33 UNL     1       1.919  10.330  18.442  1.00  0.00     0.101 C 
ENDROOT
BRANCH  33  36
HETATM   36  C30 UNL     1       4.583  13.085  21.314  1.00  0.00     0.035 C 
HETATM   37  C31 UNL     1       4.737  13.777  22.678  1.00  0.00     0.015 C 
BRANCH  36  38
HETATM   38  C32 UNL     1       5.920  12.467  20.880  1.00  0.00     0.170 C 
BRANCH  38  39
HETATM   39  O8  UNL     1       5.783  11.774  19.639  1.00  0.00    -0.400 OA
HETATM   40  H46 UNL     1       6.668  11.438  19.400  1.00  0.00     0.209 HD
ENDBRANCH  38  39
ENDBRANCH  36  38
ENDBRANCH  33  36
BRANCH  15  41
HETATM   41  O3  UNL     1      -5.010  14.571  19.430  1.00  0.00    -0.391 OA
HETATM   42  H17 UNL     1      -4.445  15.265  19.826  1.00  0.00     0.210 HD
ENDBRANCH  15  41
BRANCH  26  43
HETATM   43  O6  UNL     1      -0.210  10.221  13.541  1.00  0.00    -0.381 OA
HETATM   44  H30 UNL     1      -0.592  10.901  12.955  1.00  0.00     0.211 HD
ENDBRANCH  26  43
BRANCH  25  45
HETATM   45  O5  UNL     1      -0.487   7.658  11.523  1.00  0.00    -0.389 OA
HETATM   46  H29 UNL     1       0.267   8.218  11.794  1.00  0.00     0.210 HD
ENDBRANCH  25  45
TORSDOF 6
ENDMDL
MODEL 8
REMARK minimizedAffinity -7.09769011
REMARK CNNscore 0.26521045
REMARK CNNaffinity 5.98931742
REMARK  6 active torsions:
REMARK  status: ('A' for Active; 'I' for Inactive)
REMARK    1  A    between atoms: C13_15  and  O3_16 
REMARK    2  A    between atoms: C22_26  and  O5_27 
REMARK    3  A    between atoms: C23_28  and  O6_29 
REMARK    4  A    between atoms: C29_36  and  C30_37 
REMARK    5  A    between atoms: C30_37  and  C32_39 
REMARK    6  A    between atoms: C32_39  and  O8_40 
ROOT
HETATM    1  C1  UNL     1     -17.828   6.581  16.011  1.00  0.00     0.046 C 
HETATM    2  C2  UNL     1     -16.980   7.437  16.910  1.00  0.00    -0.056 C 
HETATM    3  C3  UNL     1     -16.751   7.091  18.191  1.00  0.00    -0.004 C 
HETATM    4  C4  UNL     1     -16.007   8.003  19.126  1.00  0.00     0.150 C 
HETATM    5  C5  UNL     1     -15.511   7.315  20.393  1.00  0.00     0.270 C 
HETATM    6  O1  UNL     1     -16.136   7.401  21.452  1.00  0.00    -0.264 OA
HETATM    7  O2  UNL     1     -14.368   6.588  20.235  1.00  0.00    -0.315 OA
HETATM    8  C6  UNL     1     -13.722   6.051  21.424  1.00  0.00     0.139 C 
HETATM    9  C7  UNL     1     -13.145   7.183  22.274  1.00  0.00     0.065 C 
HETATM   10  C8  UNL     1     -12.711   6.658  23.631  1.00  0.00     0.131 C 
HETATM   11  C9  UNL     1     -12.035   7.734  24.518  1.00  0.00     0.059 C 
HETATM   12  C10 UNL     1     -12.838   9.006  24.679  1.00  0.00    -0.019 C 
HETATM   13  C11 UNL     1     -12.443  10.276  24.432  1.00  0.00    -0.059 C 
HETATM   14  C12 UNL     1     -11.049  10.658  24.006  1.00  0.00     0.046 C 
HETATM   15  C13 UNL     1     -13.457  11.417  24.576  1.00  0.00     0.153 C 
HETATM   16  C14 UNL     1     -13.780  12.263  23.294  1.00  0.00     0.037 C 
HETATM   17  C15 UNL     1     -12.785  13.399  23.021  1.00  0.00     0.017 C 
HETATM   18  C16 UNL     1     -14.048  11.359  22.110  1.00  0.00    -0.020 C 
HETATM   19  C17 UNL     1     -13.272  11.198  21.024  1.00  0.00    -0.003 C 
HETATM   20  C18 UNL     1     -13.529  10.150  20.075  1.00  0.00     0.008 C 
HETATM   21  C19 UNL     1     -14.603  10.065  19.278  1.00  0.00    -0.019 C 
HETATM   22  C20 UNL     1     -15.637  11.128  19.032  1.00  0.00     0.206 C 
HETATM   23  O4  UNL     1     -16.434  10.654  17.918  1.00  0.00    -0.375 OA
HETATM   24  C21 UNL     1     -15.636   9.648  17.256  1.00  0.00     0.194 C 
HETATM   25  C22 UNL     1     -16.451   8.730  16.311  1.00  0.00     0.179 C 
HETATM   26  C23 UNL     1     -14.967   8.896  18.408  1.00  0.00     0.128 C 
HETATM   27  O7  UNL     1     -13.873   6.146  24.290  1.00  0.00    -0.349 OA
HETATM   28  C24 UNL     1     -14.359   4.934  23.708  1.00  0.00     0.167 C 
HETATM   29  C25 UNL     1     -15.705   4.620  24.404  1.00  0.00     0.069 C 
HETATM   30  C26 UNL     1     -15.889   3.110  24.533  1.00  0.00     0.012 C 
HETATM   31  C27 UNL     1     -14.789   2.539  25.451  1.00  0.00     0.011 C 
HETATM   32  C28 UNL     1     -15.278   2.582  26.907  1.00  0.00     0.012 C 
HETATM   33  C29 UNL     1     -13.454   3.317  25.261  1.00  0.00     0.134 C 
HETATM   34  O9  UNL     1     -13.410   3.871  23.932  1.00  0.00    -0.349 OA
HETATM   35  C33 UNL     1     -14.588   5.025  22.176  1.00  0.00     0.101 C 
ENDROOT
BRANCH  33  36
HETATM   36  C30 UNL     1     -12.180   2.434  25.404  1.00  0.00     0.035 C 
HETATM   37  C31 UNL     1     -12.309   1.514  26.629  1.00  0.00     0.015 C 
BRANCH  36  38
HETATM   38  C32 UNL     1     -11.846   1.608  24.154  1.00  0.00     0.170 C 
BRANCH  38  39
HETATM   39  O8  UNL     1     -11.340   0.322  24.512  1.00  0.00    -0.400 OA
HETATM   40  H46 UNL     1     -11.183  -0.166  23.681  1.00  0.00     0.209 HD
ENDBRANCH  38  39
ENDBRANCH  36  38
ENDBRANCH  33  36
BRANCH  15  41
HETATM   41  O3  UNL     1     -13.061  12.280  25.637  1.00  0.00    -0.391 OA
HETATM   42  H17 UNL     1     -12.386  11.807  26.165  1.00  0.00     0.210 HD
ENDBRANCH  15  41
BRANCH  26  43
HETATM   43  O6  UNL     1     -13.825   8.189  17.936  1.00  0.00    -0.381 OA
HETATM   44  H30 UNL     1     -13.143   8.842  17.694  1.00  0.00     0.211 HD
ENDBRANCH  26  43
BRANCH  25  45
HETATM   45  O5  UNL     1     -15.621   8.362  15.204  1.00  0.00    -0.389 OA
HETATM   46  H29 UNL     1     -14.975   7.710  15.539  1.00  0.00     0.210 HD
ENDBRANCH  25  45
TORSDOF 6
ENDMDL
MODEL 9
REMARK minimizedAffinity -6.88685417
REMARK CNNscore 0.261822701
REMARK CNNaffinity 6.23013163
REMARK  6 active torsions:
REMARK  status: ('A' for Active; 'I' for Inactive)
REMARK    1  A    between atoms: C13_15  and  O3_16 
REMARK    2  A    between atoms: C22_26  and  O5_27 
REMARK    3  A    between atoms: C23_28  and  O6_29 
REMARK    4  A    between atoms: C29_36  and  C30_37 
REMARK    5  A    between atoms: C30_37  and  C32_39 
REMARK    6  A    between atoms: C32_39  and  O8_40 
ROOT
HETATM    1  C1  UNL     1      -1.912  12.921   3.137  1.00  0.00     0.046 C 
HETATM    2  C2  UNL     1      -0.768  13.895   3.089  1.00  0.00    -0.056 C 
HETATM    3  C3  UNL     1       0.262  13.722   2.238  1.00  0.00    -0.004 C 
HETATM    4  C4  UNL     1       1.463  14.624   2.271  1.00  0.00     0.150 C 
HETATM    5  C5  UNL     1       2.336  14.534   1.024  1.00  0.00     0.270 C 
HETATM    6  O1  UNL     1       3.358  13.844   1.009  1.00  0.00    -0.264 OA
HETATM    7  O2  UNL     1       1.870  15.237  -0.047  1.00  0.00    -0.315 OA
HETATM    8  C6  UNL     1       2.729  15.359  -1.218  1.00  0.00     0.139 C 
HETATM    9  C7  UNL     1       3.944  16.228  -0.898  1.00  0.00     0.065 C 
HETATM   10  C8  UNL     1       4.967  16.142  -2.017  1.00  0.00     0.131 C 
HETATM   11  C9  UNL     1       6.192  17.067  -1.803  1.00  0.00     0.059 C 
HETATM   12  C10 UNL     1       6.868  16.907  -0.460  1.00  0.00    -0.019 C 
HETATM   13  C11 UNL     1       7.140  17.865   0.455  1.00  0.00    -0.059 C 
HETATM   14  C12 UNL     1       6.864  19.332   0.246  1.00  0.00     0.046 C 
HETATM   15  C13 UNL     1       7.754  17.465   1.801  1.00  0.00     0.153 C 
HETATM   16  C14 UNL     1       6.926  17.780   3.097  1.00  0.00     0.037 C 
HETATM   17  C15 UNL     1       7.103  19.209   3.626  1.00  0.00     0.017 C 
HETATM   18  C16 UNL     1       5.487  17.341   2.931  1.00  0.00    -0.020 C 
HETATM   19  C17 UNL     1       4.407  18.134   2.824  1.00  0.00    -0.003 C 
HETATM   20  C18 UNL     1       3.125  17.600   2.455  1.00  0.00     0.008 C 
HETATM   21  C19 UNL     1       2.389  16.756   3.190  1.00  0.00    -0.019 C 
HETATM   22  C20 UNL     1       2.616  16.368   4.625  1.00  0.00     0.206 C 
HETATM   23  O4  UNL     1       1.427  15.646   5.032  1.00  0.00    -0.375 OA
HETATM   24  C21 UNL     1       0.397  16.007   4.085  1.00  0.00     0.194 C 
HETATM   25  C22 UNL     1      -0.814  15.041   4.085  1.00  0.00     0.179 C 
HETATM   26  C23 UNL     1       1.135  16.060   2.746  1.00  0.00     0.128 C 
HETATM   27  O7  UNL     1       5.396  14.780  -2.107  1.00  0.00    -0.349 OA
HETATM   28  C24 UNL     1       4.392  13.909  -2.632  1.00  0.00     0.167 C 
HETATM   29  C25 UNL     1       4.939  12.469  -2.489  1.00  0.00     0.069 C 
HETATM   30  C26 UNL     1       4.460  11.607  -3.654  1.00  0.00     0.012 C 
HETATM   31  C27 UNL     1       5.043  12.159  -4.971  1.00  0.00     0.011 C 
HETATM   32  C28 UNL     1       6.408  11.501  -5.230  1.00  0.00     0.012 C 
HETATM   33  C29 UNL     1       5.144  13.711  -4.921  1.00  0.00     0.134 C 
HETATM   34  O9  UNL     1       4.147  14.225  -4.017  1.00  0.00    -0.349 OA
HETATM   35  C33 UNL     1       3.030  14.010  -1.894  1.00  0.00     0.101 C 
ENDROOT
BRANCH  33  36
HETATM   36  C30 UNL     1       4.889  14.407  -6.290  1.00  0.00     0.035 C 
HETATM   37  C31 UNL     1       6.208  14.545  -7.068  1.00  0.00     0.015 C 
BRANCH  36  38
HETATM   38  C32 UNL     1       3.831  13.713  -7.159  1.00  0.00     0.170 C 
BRANCH  38  39
HETATM   39  O8  UNL     1       4.219  13.714  -8.533  1.00  0.00    -0.400 OA
HETATM   40  H46 UNL     1       3.530  13.229  -9.025  1.00  0.00     0.209 HD
ENDBRANCH  38  39
ENDBRANCH  36  38
ENDBRANCH  33  36
BRANCH  15  41
HETATM   41  O3  UNL     1       9.061  18.019   1.916  1.00  0.00    -0.391 OA
HETATM   42  H17 UNL     1       9.337  18.308   1.023  1.00  0.00     0.210 HD
ENDBRANCH  15  41
BRANCH  26  43
HETATM   43  O6  UNL     1       0.389  16.824   1.804  1.00  0.00    -0.381 OA
HETATM   44  H30 UNL     1       0.411  17.757   2.086  1.00  0.00     0.211 HD
ENDBRANCH  26  43
BRANCH  25  45
HETATM   45  O5  UNL     1      -1.998  15.793   3.794  1.00  0.00    -0.389 OA
HETATM   46  H29 UNL     1      -1.968  16.009   2.841  1.00  0.00     0.210 HD
ENDBRANCH  25  45
TORSDOF 6
ENDMDL
