MODEL 1
REMARK minimizedAffinity -8.71222878
REMARK CNNscore 0.52643317
REMARK CNNaffinity 7.38326883
REMARK  6 active torsions:
REMARK  status: ('A' for Active; 'I' for Inactive)
REMARK    1  A    between atoms: C2_2  and  C30_31 
REMARK    2  A    between atoms: C3_3  and  C4_4 
REMARK    3  A    between atoms: C4_4  and  C5_5 
REMARK    4  A    between atoms: C5_5  and  C6_6 
REMARK    5  A    between atoms: C6_6  and  C8_8 
REMARK    6  A    between atoms: C30_31  and  O3_33 
ROOT
HETATM    1  C8  UNL     1      -5.675   5.239  13.618  1.00  0.00    -0.002 C 
HETATM    2  C9  UNL     1      -5.373   5.415  15.140  1.00  0.00     0.007 C 
HETATM    3  C10 UNL     1      -6.578   6.153  15.768  1.00  0.00     0.015 C 
HETATM    4  C11 UNL     1      -7.380   6.675  14.563  1.00  0.00    -0.013 C 
HETATM    5  C12 UNL     1      -6.666   7.995  14.100  1.00  0.00     0.021 C 
HETATM    6  C13 UNL     1      -8.853   7.057  14.760  1.00  0.00    -0.070 C 
HETATM    7  C14 UNL     1      -9.218   7.839  15.787  1.00  0.00    -0.022 C 
HETATM    8  C15 UNL     1     -10.525   8.553  15.868  1.00  0.00     0.034 C 
HETATM    9  C16 UNL     1     -11.210   8.737  14.486  1.00  0.00     0.013 C 
HETATM   10  C17 UNL     1     -12.605   9.465  14.605  1.00  0.00     0.018 C 
HETATM   11  C18 UNL     1     -12.787  10.450  13.426  1.00  0.00     0.023 C 
HETATM   12  C19 UNL     1     -12.783  10.298  15.891  1.00  0.00     0.023 C 
HETATM   13  C20 UNL     1     -13.745   8.439  14.599  1.00  0.00     0.135 C 
HETATM   14  O1  UNL     1     -14.885   8.730  14.232  1.00  0.00    -0.297 OA
HETATM   15  C21 UNL     1     -13.451   7.067  15.158  1.00  0.00     0.080 C 
HETATM   16  C22 UNL     1     -12.204   6.413  14.563  1.00  0.00     0.017 C 
HETATM   17  C23 UNL     1     -11.271   7.359  13.736  1.00  0.00    -0.031 C 
HETATM   18  C24 UNL     1     -11.885   7.474  12.319  1.00  0.00     0.016 C 
HETATM   19  C25 UNL     1      -9.829   6.680  13.636  1.00  0.00     0.024 C 
HETATM   20  C26 UNL     1      -9.090   6.775  12.279  1.00  0.00     0.010 C 
HETATM   21  C27 UNL     1      -7.797   5.916  12.193  1.00  0.00     0.011 C 
HETATM   22  C28 UNL     1      -7.221   5.478  13.561  1.00  0.00    -0.029 C 
HETATM   23  C29 UNL     1      -7.915   4.160  14.044  1.00  0.00     0.016 C 
ENDROOT
BRANCH   1  24
HETATM   24  C6  UNL     1      -5.078   3.926  13.035  1.00  0.00    -0.014 C 
HETATM   25  C7  UNL     1      -5.904   3.375  11.868  1.00  0.00     0.010 C 
BRANCH  24  26
HETATM   26  C5  UNL     1      -3.592   4.072  12.612  1.00  0.00     0.008 C 
BRANCH  26  27
HETATM   27  C4  UNL     1      -3.332   4.045  11.101  1.00  0.00     0.028 C 
BRANCH  27  28
HETATM   28  C3  UNL     1      -2.257   3.046  10.766  1.00  0.00    -0.013 C 
HETATM   29  C2  UNL     1      -2.243   1.721  11.022  1.00  0.00     0.008 C 
HETATM   30  C1  UNL     1      -3.323   0.935  11.706  1.00  0.00     0.055 C 
BRANCH  29  31
HETATM   31  C30 UNL     1      -1.037   0.976  10.571  1.00  0.00     0.171 C 
HETATM   32  O2  UNL     1      -0.232   0.395  11.278  1.00  0.00    -0.646 OA
BRANCH  31  33
HETATM   33  O3  UNL     1      -0.892   0.997   9.237  1.00  0.00    -0.773 OA
HETATM   34  H46 UNL     1      -0.074   0.479   9.091  1.00  0.00     0.167 HD
ENDBRANCH  31  33
ENDBRANCH  29  31
ENDBRANCH  27  28
ENDBRANCH  26  27
ENDBRANCH  24  26
ENDBRANCH   1  24
TORSDOF 6
ENDMDL
MODEL 2
REMARK minimizedAffinity -7.18909931
REMARK CNNscore 0.437342525
REMARK CNNaffinity 6.17830896
REMARK  6 active torsions:
REMARK  status: ('A' for Active; 'I' for Inactive)
REMARK    1  A    between atoms: C2_2  and  C30_31 
REMARK    2  A    between atoms: C3_3  and  C4_4 
REMARK    3  A    between atoms: C4_4  and  C5_5 
REMARK    4  A    between atoms: C5_5  and  C6_6 
REMARK    5  A    between atoms: C6_6  and  C8_8 
REMARK    6  A    between atoms: C30_31  and  O3_33 
ROOT
HETATM    1  C8  UNL     1       2.887  13.275  19.988  1.00  0.00    -0.002 C 
HETATM    2  C9  UNL     1       3.408  13.996  18.704  1.00  0.00     0.007 C 
HETATM    3  C10 UNL     1       2.487  13.578  17.534  1.00  0.00     0.015 C 
HETATM    4  C11 UNL     1       1.679  12.391  18.085  1.00  0.00    -0.013 C 
HETATM    5  C12 UNL     1       2.607  11.130  17.955  1.00  0.00     0.021 C 
HETATM    6  C13 UNL     1       0.365  12.001  17.395  1.00  0.00    -0.070 C 
HETATM    7  C14 UNL     1       0.316  11.867  16.061  1.00  0.00    -0.022 C 
HETATM    8  C15 UNL     1      -0.777  11.159  15.334  1.00  0.00     0.034 C 
HETATM    9  C16 UNL     1      -1.570  10.169  16.231  1.00  0.00     0.013 C 
HETATM   10  C17 UNL     1      -2.741   9.459  15.446  1.00  0.00     0.018 C 
HETATM   11  C18 UNL     1      -2.843   7.978  15.879  1.00  0.00     0.023 C 
HETATM   12  C19 UNL     1      -2.566   9.447  13.914  1.00  0.00     0.023 C 
HETATM   13  C20 UNL     1      -4.074  10.168  15.720  1.00  0.00     0.135 C 
HETATM   14  O1  UNL     1      -5.156   9.587  15.618  1.00  0.00    -0.297 OA
HETATM   15  C21 UNL     1      -4.028  11.646  16.024  1.00  0.00     0.080 C 
HETATM   16  C22 UNL     1      -3.043  12.017  17.132  1.00  0.00     0.017 C 
HETATM   17  C23 UNL     1      -2.032  10.896  17.544  1.00  0.00    -0.031 C 
HETATM   18  C24 UNL     1      -2.776   9.954  18.523  1.00  0.00     0.016 C 
HETATM   19  C25 UNL     1      -0.802  11.581  18.299  1.00  0.00     0.024 C 
HETATM   20  C26 UNL     1      -0.236  10.854  19.543  1.00  0.00     0.010 C 
HETATM   21  C27 UNL     1       0.811  11.678  20.344  1.00  0.00     0.011 C 
HETATM   22  C28 UNL     1       1.439  12.857  19.565  1.00  0.00    -0.029 C 
HETATM   23  C29 UNL     1       0.533  14.128  19.682  1.00  0.00     0.016 C 
ENDROOT
BRANCH   1  24
HETATM   24  C6  UNL     1       3.097  14.120  21.277  1.00  0.00    -0.014 C 
HETATM   25  C7  UNL     1       2.383  15.473  21.213  1.00  0.00     0.010 C 
BRANCH  24  26
HETATM   26  C5  UNL     1       2.690  13.364  22.570  1.00  0.00     0.008 C 
BRANCH  26  27
HETATM   27  C4  UNL     1       3.719  12.354  23.093  1.00  0.00     0.028 C 
BRANCH  27  28
HETATM   28  C3  UNL     1       3.080  11.007  23.303  1.00  0.00    -0.013 C 
HETATM   29  C2  UNL     1       3.108   9.937  22.483  1.00  0.00     0.008 C 
HETATM   30  C1  UNL     1       3.803   9.850  21.155  1.00  0.00     0.055 C 
BRANCH  29  31
HETATM   31  C30 UNL     1       2.381   8.727  22.954  1.00  0.00     0.171 C 
HETATM   32  O2  UNL     1       1.940   7.825  22.263  1.00  0.00    -0.646 OA
BRANCH  31  33
HETATM   33  O3  UNL     1       2.238   8.704  24.288  1.00  0.00    -0.773 OA
HETATM   34  H46 UNL     1       1.751   7.869  24.448  1.00  0.00     0.167 HD
ENDBRANCH  31  33
ENDBRANCH  29  31
ENDBRANCH  27  28
ENDBRANCH  26  27
ENDBRANCH  24  26
ENDBRANCH   1  24
TORSDOF 6
ENDMDL
MODEL 3
REMARK minimizedAffinity -7.2763567
REMARK CNNscore 0.418699086
REMARK CNNaffinity 7.03346634
REMARK  6 active torsions:
REMARK  status: ('A' for Active; 'I' for Inactive)
REMARK    1  A    between atoms: C2_2  and  C30_31 
REMARK    2  A    between atoms: C3_3  and  C4_4 
REMARK    3  A    between atoms: C4_4  and  C5_5 
REMARK    4  A    between atoms: C5_5  and  C6_6 
REMARK    5  A    between atoms: C6_6  and  C8_8 
REMARK    6  A    between atoms: C30_31  and  O3_33 
ROOT
HETATM    1  C8  UNL     1     -13.641   9.615  14.284  1.00  0.00    -0.002 C 
HETATM    2  C9  UNL     1     -14.216   8.240  13.818  1.00  0.00     0.007 C 
HETATM    3  C10 UNL     1     -13.027   7.258  13.703  1.00  0.00     0.015 C 
HETATM    4  C11 UNL     1     -11.779   8.154  13.776  1.00  0.00    -0.013 C 
HETATM    5  C12 UNL     1     -11.579   8.745  12.334  1.00  0.00     0.021 C 
HETATM    6  C13 UNL     1     -10.430   7.522  14.147  1.00  0.00    -0.070 C 
HETATM    7  C14 UNL     1     -10.019   6.400  13.538  1.00  0.00    -0.022 C 
HETATM    8  C15 UNL     1      -8.609   5.912  13.553  1.00  0.00     0.034 C 
HETATM    9  C16 UNL     1      -7.578   7.026  13.879  1.00  0.00     0.013 C 
HETATM   10  C17 UNL     1      -6.099   6.477  13.922  1.00  0.00     0.018 C 
HETATM   11  C18 UNL     1      -5.136   7.508  13.288  1.00  0.00     0.023 C 
HETATM   12  C19 UNL     1      -5.886   5.159  13.149  1.00  0.00     0.023 C 
HETATM   13  C20 UNL     1      -5.674   6.198  15.369  1.00  0.00     0.135 C 
HETATM   14  O1  UNL     1      -4.492   6.205  15.717  1.00  0.00    -0.297 OA
HETATM   15  C21 UNL     1      -6.755   5.809  16.351  1.00  0.00     0.080 C 
HETATM   16  C22 UNL     1      -7.944   6.768  16.368  1.00  0.00     0.017 C 
HETATM   17  C23 UNL     1      -8.013   7.787  15.183  1.00  0.00    -0.031 C 
HETATM   18  C24 UNL     1      -7.065   8.959  15.539  1.00  0.00     0.016 C 
HETATM   19  C25 UNL     1      -9.511   8.330  15.073  1.00  0.00     0.024 C 
HETATM   20  C26 UNL     1      -9.702   9.838  14.776  1.00  0.00     0.010 C 
HETATM   21  C27 UNL     1     -11.171  10.332  14.893  1.00  0.00     0.011 C 
HETATM   22  C28 UNL     1     -12.236   9.211  14.842  1.00  0.00    -0.029 C 
HETATM   23  C29 UNL     1     -12.456   8.607  16.269  1.00  0.00     0.016 C 
ENDROOT
BRANCH   1  24
HETATM   24  C6  UNL     1     -14.630  10.404  15.189  1.00  0.00    -0.014 C 
HETATM   25  C7  UNL     1     -14.618  11.908  14.899  1.00  0.00     0.010 C 
BRANCH  24  26
HETATM   26  C5  UNL     1     -16.082   9.860  15.117  1.00  0.00     0.008 C 
BRANCH  26  27
HETATM   27  C4  UNL     1     -17.046  10.673  14.244  1.00  0.00     0.028 C 
BRANCH  27  28
HETATM   28  C3  UNL     1     -16.994  10.200  12.815  1.00  0.00    -0.013 C 
HETATM   29  C2  UNL     1     -18.008  10.116  11.930  1.00  0.00     0.008 C 
HETATM   30  C1  UNL     1     -19.440  10.489  12.177  1.00  0.00     0.055 C 
BRANCH  29  31
HETATM   31  C30 UNL     1     -17.658   9.609  10.575  1.00  0.00     0.171 C 
HETATM   32  O2  UNL     1     -18.389   9.565   9.601  1.00  0.00    -0.646 OA
BRANCH  31  33
HETATM   33  O3  UNL     1     -16.391   9.171  10.504  1.00  0.00    -0.773 OA
HETATM   34  H46 UNL     1     -16.307   8.873   9.575  1.00  0.00     0.167 HD
ENDBRANCH  31  33
ENDBRANCH  29  31
ENDBRANCH  27  28
ENDBRANCH  26  27
ENDBRANCH  24  26
ENDBRANCH   1  24
TORSDOF 6
ENDMDL
MODEL 4
REMARK minimizedAffinity -7.14610481
REMARK CNNscore 0.380295873
REMARK CNNaffinity 6.00323629
REMARK  6 active torsions:
REMARK  status: ('A' for Active; 'I' for Inactive)
REMARK    1  A    between atoms: C2_2  and  C30_31 
REMARK    2  A    between atoms: C3_3  and  C4_4 
REMARK    3  A    between atoms: C4_4  and  C5_5 
REMARK    4  A    between atoms: C5_5  and  C6_6 
REMARK    5  A    between atoms: C6_6  and  C8_8 
REMARK    6  A    between atoms: C30_31  and  O3_33 
ROOT
HETATM    1  C8  UNL     1       3.303  10.681  20.677  1.00  0.00    -0.002 C 
HETATM    2  C9  UNL     1       4.406  11.429  19.862  1.00  0.00     0.007 C 
HETATM    3  C10 UNL     1       3.694  12.232  18.749  1.00  0.00     0.015 C 
HETATM    4  C11 UNL     1       2.259  11.678  18.733  1.00  0.00    -0.013 C 
HETATM    5  C12 UNL     1       2.312  10.348  17.898  1.00  0.00     0.021 C 
HETATM    6  C13 UNL     1       1.145  12.516  18.091  1.00  0.00    -0.070 C 
HETATM    7  C14 UNL     1       1.323  13.061  16.878  1.00  0.00    -0.022 C 
HETATM    8  C15 UNL     1       0.212  13.573  16.024  1.00  0.00     0.034 C 
HETATM    9  C16 UNL     1      -1.174  12.984  16.402  1.00  0.00     0.013 C 
HETATM   10  C17 UNL     1      -2.335  13.569  15.506  1.00  0.00     0.018 C 
HETATM   11  C18 UNL     1      -3.349  12.452  15.165  1.00  0.00     0.023 C 
HETATM   12  C19 UNL     1      -1.867  14.150  14.156  1.00  0.00     0.023 C 
HETATM   13  C20 UNL     1      -3.053  14.709  16.239  1.00  0.00     0.135 C 
HETATM   14  O1  UNL     1      -4.219  15.017  15.986  1.00  0.00    -0.297 OA
HETATM   15  C21 UNL     1      -2.246  15.524  17.222  1.00  0.00     0.080 C 
HETATM   16  C22 UNL     1      -1.496  14.680  18.252  1.00  0.00     0.017 C 
HETATM   17  C23 UNL     1      -1.417  13.147  17.946  1.00  0.00    -0.031 C 
HETATM   18  C24 UNL     1      -2.756  12.523  18.412  1.00  0.00     0.016 C 
HETATM   19  C25 UNL     1      -0.218  12.525  18.797  1.00  0.00     0.024 C 
HETATM   20  C26 UNL     1      -0.452  11.142  19.452  1.00  0.00     0.010 C 
HETATM   21  C27 UNL     1       0.671  10.700  20.432  1.00  0.00     0.011 C 
HETATM   22  C28 UNL     1       2.009  11.459  20.267  1.00  0.00    -0.029 C 
HETATM   23  C29 UNL     1       1.983  12.789  21.092  1.00  0.00     0.016 C 
ENDROOT
BRANCH   1  24
HETATM   24  C6  UNL     1       3.667  10.531  22.182  1.00  0.00    -0.014 C 
HETATM   25  C7  UNL     1       3.377   9.124  22.716  1.00  0.00     0.010 C 
BRANCH  24  26
HETATM   26  C5  UNL     1       5.134  10.927  22.493  1.00  0.00     0.008 C 
BRANCH  26  27
HETATM   27  C4  UNL     1       5.332  12.351  23.028  1.00  0.00     0.028 C 
BRANCH  27  28
HETATM   28  C3  UNL     1       6.796  12.695  23.089  1.00  0.00    -0.013 C 
HETATM   29  C2  UNL     1       7.550  13.293  22.143  1.00  0.00     0.008 C 
HETATM   30  C1  UNL     1       7.083  13.762  20.796  1.00  0.00     0.055 C 
BRANCH  29  31
HETATM   31  C30 UNL     1       8.982  13.510  22.482  1.00  0.00     0.171 C 
HETATM   32  O2  UNL     1       9.848  13.950  21.747  1.00  0.00    -0.646 OA
BRANCH  31  33
HETATM   33  O3  UNL     1       9.268  13.157  23.746  1.00  0.00    -0.773 OA
HETATM   34  H46 UNL     1      10.225  13.350  23.824  1.00  0.00     0.167 HD
ENDBRANCH  31  33
ENDBRANCH  29  31
ENDBRANCH  27  28
ENDBRANCH  26  27
ENDBRANCH  24  26
ENDBRANCH   1  24
TORSDOF 6
ENDMDL
MODEL 5
REMARK minimizedAffinity -8.50508022
REMARK CNNscore 0.341535956
REMARK CNNaffinity 6.88152456
REMARK  6 active torsions:
REMARK  status: ('A' for Active; 'I' for Inactive)
REMARK    1  A    between atoms: C2_2  and  C30_31 
REMARK    2  A    between atoms: C3_3  and  C4_4 
REMARK    3  A    between atoms: C4_4  and  C5_5 
REMARK    4  A    between atoms: C5_5  and  C6_6 
REMARK    5  A    between atoms: C6_6  and  C8_8 
REMARK    6  A    between atoms: C30_31  and  O3_33 
ROOT
HETATM    1  C8  UNL     1      -7.933   5.922  14.339  1.00  0.00    -0.002 C 
HETATM    2  C9  UNL     1      -7.893   4.365  14.463  1.00  0.00     0.007 C 
HETATM    3  C10 UNL     1      -6.456   3.911  14.117  1.00  0.00     0.015 C 
HETATM    4  C11 UNL     1      -5.801   5.153  13.487  1.00  0.00    -0.013 C 
HETATM    5  C12 UNL     1      -6.275   5.186  11.989  1.00  0.00     0.021 C 
HETATM    6  C13 UNL     1      -4.270   5.238  13.431  1.00  0.00    -0.070 C 
HETATM    7  C14 UNL     1      -3.550   4.198  12.982  1.00  0.00    -0.022 C 
HETATM    8  C15 UNL     1      -2.126   4.295  12.553  1.00  0.00     0.034 C 
HETATM    9  C16 UNL     1      -1.692   5.740  12.185  1.00  0.00     0.013 C 
HETATM   10  C17 UNL     1      -0.172   5.819  11.766  1.00  0.00     0.018 C 
HETATM   11  C18 UNL     1      -0.001   6.806  10.588  1.00  0.00     0.023 C 
HETATM   12  C19 UNL     1       0.430   4.479  11.294  1.00  0.00     0.023 C 
HETATM   13  C20 UNL     1       0.685   6.279  12.952  1.00  0.00     0.135 C 
HETATM   14  O1  UNL     1       1.770   6.841  12.795  1.00  0.00    -0.297 OA
HETATM   15  C21 UNL     1       0.202   5.928  14.340  1.00  0.00     0.080 C 
HETATM   16  C22 UNL     1      -1.249   6.325  14.605  1.00  0.00     0.017 C 
HETATM   17  C23 UNL     1      -2.086   6.724  13.344  1.00  0.00    -0.031 C 
HETATM   18  C24 UNL     1      -1.743   8.200  13.022  1.00  0.00     0.016 C 
HETATM   19  C25 UNL     1      -3.636   6.608  13.711  1.00  0.00     0.024 C 
HETATM   20  C26 UNL     1      -4.579   7.714  13.178  1.00  0.00     0.010 C 
HETATM   21  C27 UNL     1      -6.024   7.652  13.748  1.00  0.00     0.011 C 
HETATM   22  C28 UNL     1      -6.413   6.292  14.375  1.00  0.00    -0.029 C 
HETATM   23  C29 UNL     1      -5.954   6.235  15.871  1.00  0.00     0.016 C 
ENDROOT
BRANCH   1  24
HETATM   24  C6  UNL     1      -8.910   6.580  15.355  1.00  0.00    -0.014 C 
HETATM   25  C7  UNL     1      -8.249   7.705  16.157  1.00  0.00     0.010 C 
BRANCH  24  26
HETATM   26  C5  UNL     1     -10.215   7.095  14.693  1.00  0.00     0.008 C 
BRANCH  26  27
HETATM   27  C4  UNL     1     -10.445   8.609  14.781  1.00  0.00     0.028 C 
BRANCH  27  28
HETATM   28  C3  UNL     1     -11.316   9.079  13.646  1.00  0.00    -0.013 C 
HETATM   29  C2  UNL     1     -12.661   9.025  13.554  1.00  0.00     0.008 C 
HETATM   30  C1  UNL     1     -13.604   8.480  14.586  1.00  0.00     0.055 C 
BRANCH  29  31
HETATM   31  C30 UNL     1     -13.257   9.570  12.305  1.00  0.00     0.171 C 
HETATM   32  O2  UNL     1     -14.442   9.627  12.026  1.00  0.00    -0.646 OA
BRANCH  31  33
HETATM   33  O3  UNL     1     -12.327  10.023  11.449  1.00  0.00    -0.773 OA
HETATM   34  H46 UNL     1     -12.855  10.343  10.689  1.00  0.00     0.167 HD
ENDBRANCH  31  33
ENDBRANCH  29  31
ENDBRANCH  27  28
ENDBRANCH  26  27
ENDBRANCH  24  26
ENDBRANCH   1  24
TORSDOF 6
ENDMDL
MODEL 6
REMARK minimizedAffinity -8.29581642
REMARK CNNscore 0.295594841
REMARK CNNaffinity 6.70024109
REMARK  6 active torsions:
REMARK  status: ('A' for Active; 'I' for Inactive)
REMARK    1  A    between atoms: C2_2  and  C30_31 
REMARK    2  A    between atoms: C3_3  and  C4_4 
REMARK    3  A    between atoms: C4_4  and  C5_5 
REMARK    4  A    between atoms: C5_5  and  C6_6 
REMARK    5  A    between atoms: C6_6  and  C8_8 
REMARK    6  A    between atoms: C30_31  and  O3_33 
ROOT
HETATM    1  C8  UNL     1      -3.484   5.988  12.904  1.00  0.00    -0.002 C 
HETATM    2  C9  UNL     1      -1.973   5.591  12.927  1.00  0.00     0.007 C 
HETATM    3  C10 UNL     1      -1.223   6.675  13.734  1.00  0.00     0.015 C 
HETATM    4  C11 UNL     1      -2.237   7.824  13.870  1.00  0.00    -0.013 C 
HETATM    5  C12 UNL     1      -2.176   8.625  12.520  1.00  0.00     0.021 C 
HETATM    6  C13 UNL     1      -2.031   8.871  14.974  1.00  0.00    -0.070 C 
HETATM    7  C14 UNL     1      -0.830   9.444  15.147  1.00  0.00    -0.022 C 
HETATM    8  C15 UNL     1      -0.609  10.698  15.922  1.00  0.00     0.034 C 
HETATM    9  C16 UNL     1      -1.894  11.556  16.080  1.00  0.00     0.013 C 
HETATM   10  C17 UNL     1      -1.639  12.860  16.932  1.00  0.00     0.018 C 
HETATM   11  C18 UNL     1      -2.429  14.045  16.329  1.00  0.00     0.023 C 
HETATM   12  C19 UNL     1      -0.165  13.310  16.985  1.00  0.00     0.023 C 
HETATM   13  C20 UNL     1      -2.073  12.641  18.387  1.00  0.00     0.135 C 
HETATM   14  O1  UNL     1      -2.402  13.576  19.119  1.00  0.00    -0.297 OA
HETATM   15  C21 UNL     1      -1.988  11.237  18.936  1.00  0.00     0.080 C 
HETATM   16  C22 UNL     1      -2.675  10.190  18.060  1.00  0.00     0.017 C 
HETATM   17  C23 UNL     1      -3.066  10.661  16.620  1.00  0.00    -0.031 C 
HETATM   18  C24 UNL     1      -4.403  11.433  16.744  1.00  0.00     0.016 C 
HETATM   19  C25 UNL     1      -3.283   9.367  15.710  1.00  0.00     0.024 C 
HETATM   20  C26 UNL     1      -4.473   9.385  14.718  1.00  0.00     0.010 C 
HETATM   21  C27 UNL     1      -4.747   8.021  14.024  1.00  0.00     0.011 C 
HETATM   22  C28 UNL     1      -3.569   7.020  14.077  1.00  0.00    -0.029 C 
HETATM   23  C29 UNL     1      -3.608   6.207  15.413  1.00  0.00     0.016 C 
ENDROOT
BRANCH   1  24
HETATM   24  C6  UNL     1      -4.429   4.752  12.897  1.00  0.00    -0.014 C 
HETATM   25  C7  UNL     1      -5.897   5.140  12.694  1.00  0.00     0.010 C 
BRANCH  24  26
HETATM   26  C5  UNL     1      -4.014   3.678  11.857  1.00  0.00     0.008 C 
BRANCH  26  27
HETATM   27  C4  UNL     1      -3.875   2.252  12.403  1.00  0.00     0.028 C 
BRANCH  27  28
HETATM   28  C3  UNL     1      -2.890   1.464  11.582  1.00  0.00    -0.013 C 
HETATM   29  C2  UNL     1      -1.602   1.764  11.314  1.00  0.00     0.008 C 
HETATM   30  C1  UNL     1      -0.851   2.972  11.791  1.00  0.00     0.055 C 
BRANCH  29  31
HETATM   31  C30 UNL     1      -0.862   0.790  10.467  1.00  0.00     0.171 C 
HETATM   32  O2  UNL     1      -0.172  -0.137  10.853  1.00  0.00    -0.646 OA
BRANCH  31  33
HETATM   33  O3  UNL     1      -1.020   1.029   9.155  1.00  0.00    -0.773 OA
HETATM   34  H46 UNL     1      -0.487   0.326   8.731  1.00  0.00     0.167 HD
ENDBRANCH  31  33
ENDBRANCH  29  31
ENDBRANCH  27  28
ENDBRANCH  26  27
ENDBRANCH  24  26
ENDBRANCH   1  24
TORSDOF 6
ENDMDL
MODEL 7
REMARK minimizedAffinity -7.34915018
REMARK CNNscore 0.283207119
REMARK CNNaffinity 5.63746786
REMARK  6 active torsions:
REMARK  status: ('A' for Active; 'I' for Inactive)
REMARK    1  A    between atoms: C2_2  and  C30_31 
REMARK    2  A    between atoms: C3_3  and  C4_4 
REMARK    3  A    between atoms: C4_4  and  C5_5 
REMARK    4  A    between atoms: C5_5  and  C6_6 
REMARK    5  A    between atoms: C6_6  and  C8_8 
REMARK    6  A    between atoms: C30_31  and  O3_33 
ROOT
HETATM    1  C8  UNL     1       7.637  13.505  20.952  1.00  0.00    -0.002 C 
HETATM    2  C9  UNL     1       6.724  14.585  20.287  1.00  0.00     0.007 C 
HETATM    3  C10 UNL     1       6.655  14.264  18.776  1.00  0.00     0.015 C 
HETATM    4  C11 UNL     1       7.773  13.232  18.550  1.00  0.00    -0.013 C 
HETATM    5  C12 UNL     1       9.108  14.051  18.432  1.00  0.00     0.021 C 
HETATM    6  C13 UNL     1       7.726  12.347  17.296  1.00  0.00    -0.070 C 
HETATM    7  C14 UNL     1       7.507  12.894  16.091  1.00  0.00    -0.022 C 
HETATM    8  C15 UNL     1       7.793  12.206  14.799  1.00  0.00     0.034 C 
HETATM    9  C16 UNL     1       8.814  11.043  14.937  1.00  0.00     0.013 C 
HETATM   10  C17 UNL     1       9.073  10.311  13.563  1.00  0.00     0.018 C 
HETATM   11  C18 UNL     1      10.571   9.946  13.436  1.00  0.00     0.023 C 
HETATM   12  C19 UNL     1       8.730  11.153  12.317  1.00  0.00     0.023 C 
HETATM   13  C20 UNL     1       8.223   9.038  13.467  1.00  0.00     0.135 C 
HETATM   14  O1  UNL     1       8.549   8.086  12.755  1.00  0.00    -0.297 OA
HETATM   15  C21 UNL     1       6.905   9.022  14.203  1.00  0.00     0.080 C 
HETATM   16  C22 UNL     1       7.015   9.425  15.673  1.00  0.00     0.017 C 
HETATM   17  C23 UNL     1       8.370  10.082  16.097  1.00  0.00    -0.031 C 
HETATM   18  C24 UNL     1       9.375   8.928  16.340  1.00  0.00     0.016 C 
HETATM   19  C25 UNL     1       8.137  10.878  17.462  1.00  0.00     0.024 C 
HETATM   20  C26 UNL     1       9.248  10.787  18.538  1.00  0.00     0.010 C 
HETATM   21  C27 UNL     1       8.861  11.407  19.910  1.00  0.00     0.011 C 
HETATM   22  C28 UNL     1       7.660  12.381  19.864  1.00  0.00    -0.029 C 
HETATM   23  C29 UNL     1       6.315  11.589  19.983  1.00  0.00     0.016 C 
ENDROOT
BRANCH   1  24
HETATM   24  C6  UNL     1       7.200  13.162  22.405  1.00  0.00    -0.014 C 
HETATM   25  C7  UNL     1       7.486  14.302  23.387  1.00  0.00     0.010 C 
BRANCH  24  26
HETATM   26  C5  UNL     1       5.712  12.735  22.504  1.00  0.00     0.008 C 
BRANCH  26  27
HETATM   27  C4  UNL     1       5.461  11.373  23.163  1.00  0.00     0.028 C 
BRANCH  27  28
HETATM   28  C3  UNL     1       4.503  10.554  22.339  1.00  0.00    -0.013 C 
HETATM   29  C2  UNL     1       3.390   9.912  22.751  1.00  0.00     0.008 C 
HETATM   30  C1  UNL     1       2.847   9.878  24.150  1.00  0.00     0.055 C 
BRANCH  29  31
HETATM   31  C30 UNL     1       2.630   9.175  21.705  1.00  0.00     0.171 C 
HETATM   32  O2  UNL     1       2.623   9.407  20.509  1.00  0.00    -0.646 OA
BRANCH  31  33
HETATM   33  O3  UNL     1       1.902   8.169  22.216  1.00  0.00    -0.773 OA
HETATM   34  H46 UNL     1       1.465   7.784  21.428  1.00  0.00     0.167 HD
ENDBRANCH  31  33
ENDBRANCH  29  31
ENDBRANCH  27  28
ENDBRANCH  26  27
ENDBRANCH  24  26
ENDBRANCH   1  24
TORSDOF 6
ENDMDL
MODEL 8
REMARK minimizedAffinity -7.71624899
REMARK CNNscore 0.22874181
REMARK CNNaffinity 6.9180274
REMARK  6 active torsions:
REMARK  status: ('A' for Active; 'I' for Inactive)
REMARK    1  A    between atoms: C2_2  and  C30_31 
REMARK    2  A    between atoms: C3_3  and  C4_4 
REMARK    3  A    between atoms: C4_4  and  C5_5 
REMARK    4  A    between atoms: C5_5  and  C6_6 
REMARK    5  A    between atoms: C6_6  and  C8_8 
REMARK    6  A    between atoms: C30_31  and  O3_33 
ROOT
HETATM    1  C8  UNL     1      -5.712   5.643  13.954  1.00  0.00    -0.002 C 
HETATM    2  C9  UNL     1      -5.515   5.838  15.491  1.00  0.00     0.007 C 
HETATM    3  C10 UNL     1      -6.812   6.469  16.046  1.00  0.00     0.015 C 
HETATM    4  C11 UNL     1      -7.584   6.926  14.796  1.00  0.00    -0.013 C 
HETATM    5  C12 UNL     1      -6.958   8.304  14.375  1.00  0.00     0.021 C 
HETATM    6  C13 UNL     1      -9.093   7.182  14.906  1.00  0.00    -0.070 C 
HETATM    7  C14 UNL     1      -9.582   7.927  15.909  1.00  0.00    -0.022 C 
HETATM    8  C15 UNL     1     -10.947   8.527  15.913  1.00  0.00     0.034 C 
HETATM    9  C16 UNL     1     -11.563   8.659  14.493  1.00  0.00     0.013 C 
HETATM   10  C17 UNL     1     -13.020   9.266  14.529  1.00  0.00     0.018 C 
HETATM   11  C18 UNL     1     -13.215  10.236  13.340  1.00  0.00     0.023 C 
HETATM   12  C19 UNL     1     -13.342  10.076  15.801  1.00  0.00     0.023 C 
HETATM   13  C20 UNL     1     -14.066   8.147  14.457  1.00  0.00     0.135 C 
HETATM   14  O1  UNL     1     -15.203   8.342  14.024  1.00  0.00    -0.297 OA
HETATM   15  C21 UNL     1     -13.691   6.802  15.033  1.00  0.00     0.080 C 
HETATM   16  C22 UNL     1     -12.361   6.259  14.513  1.00  0.00     0.017 C 
HETATM   17  C23 UNL     1     -11.464   7.283  13.742  1.00  0.00    -0.031 C 
HETATM   18  C24 UNL     1     -12.001   7.351  12.291  1.00  0.00     0.016 C 
HETATM   19  C25 UNL     1      -9.966   6.729  13.727  1.00  0.00     0.024 C 
HETATM   20  C26 UNL     1      -9.159   6.891  12.416  1.00  0.00     0.010 C 
HETATM   21  C27 UNL     1      -7.796   6.145  12.407  1.00  0.00     0.011 C 
HETATM   22  C28 UNL     1      -7.266   5.751  13.806  1.00  0.00    -0.029 C 
HETATM   23  C29 UNL     1      -7.873   4.378  14.249  1.00  0.00     0.016 C 
ENDROOT
BRANCH   1  24
HETATM   24  C6  UNL     1      -4.972   4.388  13.408  1.00  0.00    -0.014 C 
HETATM   25  C7  UNL     1      -5.828   3.589  12.420  1.00  0.00     0.010 C 
BRANCH  24  26
HETATM   26  C5  UNL     1      -3.598   4.723  12.771  1.00  0.00     0.008 C 
BRANCH  26  27
HETATM   27  C4  UNL     1      -2.580   5.379  13.712  1.00  0.00     0.028 C 
BRANCH  27  28
HETATM   28  C3  UNL     1      -1.843   6.487  13.007  1.00  0.00    -0.013 C 
HETATM   29  C2  UNL     1      -2.233   7.767  12.834  1.00  0.00     0.008 C 
HETATM   30  C1  UNL     1      -3.511   8.382  13.323  1.00  0.00     0.055 C 
BRANCH  29  31
HETATM   31  C30 UNL     1      -1.292   8.647  12.090  1.00  0.00     0.171 C 
HETATM   32  O2  UNL     1      -0.630   8.347  11.112  1.00  0.00    -0.646 OA
BRANCH  31  33
HETATM   33  O3  UNL     1      -1.222   9.881  12.615  1.00  0.00    -0.773 OA
HETATM   34  H46 UNL     1      -0.578  10.337  12.035  1.00  0.00     0.167 HD
ENDBRANCH  31  33
ENDBRANCH  29  31
ENDBRANCH  27  28
ENDBRANCH  26  27
ENDBRANCH  24  26
ENDBRANCH   1  24
TORSDOF 6
ENDMDL
MODEL 9
REMARK minimizedAffinity -8.06830883
REMARK CNNscore 0.221527427
REMARK CNNaffinity 6.82483673
REMARK  6 active torsions:
REMARK  status: ('A' for Active; 'I' for Inactive)
REMARK    1  A    between atoms: C2_2  and  C30_31 
REMARK    2  A    between atoms: C3_3  and  C4_4 
REMARK    3  A    between atoms: C4_4  and  C5_5 
REMARK    4  A    between atoms: C5_5  and  C6_6 
REMARK    5  A    between atoms: C6_6  and  C8_8 
REMARK    6  A    between atoms: C30_31  and  O3_33 
ROOT
HETATM    1  C8  UNL     1      -5.811   4.730  12.884  1.00  0.00    -0.002 C 
HETATM    2  C9  UNL     1      -5.347   4.869  14.369  1.00  0.00     0.007 C 
HETATM    3  C10 UNL     1      -6.426   5.686  15.115  1.00  0.00     0.015 C 
HETATM    4  C11 UNL     1      -7.303   6.277  13.997  1.00  0.00    -0.013 C 
HETATM    5  C12 UNL     1      -6.544   7.546  13.468  1.00  0.00     0.021 C 
HETATM    6  C13 UNL     1      -8.718   6.763  14.340  1.00  0.00    -0.070 C 
HETATM    7  C14 UNL     1      -8.921   7.560  15.400  1.00  0.00    -0.022 C 
HETATM    8  C15 UNL     1     -10.157   8.366  15.612  1.00  0.00     0.034 C 
HETATM    9  C16 UNL     1     -10.960   8.613  14.306  1.00  0.00     0.013 C 
HETATM   10  C17 UNL     1     -12.280   9.439  14.564  1.00  0.00     0.018 C 
HETATM   11  C18 UNL     1     -12.505  10.445  13.412  1.00  0.00     0.023 C 
HETATM   12  C19 UNL     1     -12.268  10.271  15.863  1.00  0.00     0.023 C 
HETATM   13  C20 UNL     1     -13.487   8.498  14.669  1.00  0.00     0.135 C 
HETATM   14  O1  UNL     1     -14.634   8.875  14.419  1.00  0.00    -0.297 OA
HETATM   15  C21 UNL     1     -13.241   7.103  15.193  1.00  0.00     0.080 C 
HETATM   16  C22 UNL     1     -12.110   6.367  14.476  1.00  0.00     0.017 C 
HETATM   17  C23 UNL     1     -11.197   7.250  13.563  1.00  0.00    -0.031 C 
HETATM   18  C24 UNL     1     -11.938   7.422  12.213  1.00  0.00     0.016 C 
HETATM   19  C25 UNL     1      -9.825   6.469  13.318  1.00  0.00     0.024 C 
HETATM   20  C26 UNL     1      -9.219   6.523  11.894  1.00  0.00     0.010 C 
HETATM   21  C27 UNL     1      -8.007   5.573  11.679  1.00  0.00     0.011 C 
HETATM   22  C28 UNL     1      -7.333   5.081  12.981  1.00  0.00    -0.029 C 
HETATM   23  C29 UNL     1      -8.070   3.813  13.528  1.00  0.00     0.016 C 
ENDROOT
BRANCH   1  24
HETATM   24  C6  UNL     1      -5.372   3.383  12.241  1.00  0.00    -0.014 C 
HETATM   25  C7  UNL     1      -6.548   2.425  12.030  1.00  0.00     0.010 C 
BRANCH  24  26
HETATM   26  C5  UNL     1      -4.593   3.571  10.912  1.00  0.00     0.008 C 
BRANCH  26  27
HETATM   27  C4  UNL     1      -3.078   3.346  11.000  1.00  0.00     0.028 C 
BRANCH  27  28
HETATM   28  C3  UNL     1      -2.518   3.991  12.239  1.00  0.00    -0.013 C 
HETATM   29  C2  UNL     1      -1.477   4.844  12.335  1.00  0.00     0.008 C 
HETATM   30  C1  UNL     1      -0.635   5.352  11.202  1.00  0.00     0.055 C 
BRANCH  29  31
HETATM   31  C30 UNL     1      -1.145   5.327  13.703  1.00  0.00     0.171 C 
HETATM   32  O2  UNL     1      -1.885   5.922  14.466  1.00  0.00    -0.646 OA
BRANCH  31  33
HETATM   33  O3  UNL     1       0.118   5.039  14.054  1.00  0.00    -0.773 OA
HETATM   34  H46 UNL     1       0.191   5.410  14.958  1.00  0.00     0.167 HD
ENDBRANCH  31  33
ENDBRANCH  29  31
ENDBRANCH  27  28
ENDBRANCH  26  27
ENDBRANCH  24  26
ENDBRANCH   1  24
TORSDOF 6
ENDMDL
