MODEL 1
REMARK minimizedAffinity -10.057888
REMARK  7 active torsions:
REMARK  status: ('A' for Active; 'I' for Inactive)
REMARK    1  A    between atoms: C2_2  and  C30_33 
REMARK    2  A    between atoms: C3_3  and  C4_4 
REMARK    3  A    between atoms: C4_4  and  C5_5 
REMARK    4  A    between atoms: C5_5  and  C6_6 
REMARK    5  A    between atoms: C6_6  and  C8_8 
REMARK    6  A    between atoms: C15_15  and  O1_16 
REMARK    7  A    between atoms: C30_33  and  O5_35 
ROOT
HETATM    1  C8  UNL     1      -0.836  49.292 -18.271  1.00  0.00    -0.002 C 
HETATM    2  C9  UNL     1      -2.099  48.402 -18.216  1.00  0.00     0.007 C 
HETATM    3  C10 UNL     1      -2.764  48.496 -19.611  1.00  0.00     0.015 C 
HETATM    4  C11 UNL     1      -1.691  49.118 -20.533  1.00  0.00    -0.005 C 
HETATM    5  C12 UNL     1      -0.749  47.953 -20.975  1.00  0.00     0.021 C 
HETATM    6  C13 UNL     1      -2.050  49.808 -21.842  1.00  0.00     0.002 C 
HETATM    7  C14 UNL     1      -1.295  50.833 -22.337  1.00  0.00    -0.032 C 
HETATM    8  C15 UNL     1      -0.098  51.380 -21.551  1.00  0.00     0.149 C 
HETATM    9  C16 UNL     1       0.202  50.743 -20.174  1.00  0.00     0.047 C 
HETATM   10  C17 UNL     1      -1.069  50.169 -19.534  1.00  0.00    -0.026 C 
HETATM   11  C18 UNL     1      -2.051  51.339 -19.228  1.00  0.00     0.016 C 
HETATM   12  C19 UNL     1      -1.661  51.511 -23.690  1.00  0.00    -0.012 C 
HETATM   13  C20 UNL     1      -2.742  52.572 -23.346  1.00  0.00     0.021 C 
HETATM   14  C21 UNL     1      -0.504  52.258 -24.427  1.00  0.00     0.021 C 
HETATM   15  C22 UNL     1       0.215  51.402 -25.458  1.00  0.00     0.080 C 
HETATM   16  C23 UNL     1      -0.755  51.036 -26.562  1.00  0.00     0.135 C 
HETATM   17  O2  UNL     1      -0.395  51.057 -27.739  1.00  0.00    -0.297 OA
HETATM   18  C24 UNL     1      -2.182  50.628 -26.148  1.00  0.00     0.018 C 
HETATM   19  C25 UNL     1      -3.145  51.733 -26.595  1.00  0.00     0.023 C 
HETATM   20  C26 UNL     1      -2.530  49.340 -26.929  1.00  0.00     0.023 C 
HETATM   21  C27 UNL     1      -2.175  50.345 -24.611  1.00  0.00     0.020 C 
HETATM   22  C28 UNL     1      -3.463  49.758 -24.036  1.00  0.00     0.090 C 
HETATM   23  C29 UNL     1      -3.240  49.293 -22.611  1.00  0.00     0.157 C 
HETATM   24  O3  UNL     1      -4.030  48.500 -22.103  1.00  0.00    -0.293 OA
ENDROOT
BRANCH   1  25
HETATM   25  C6  UNL     1      -0.308  49.896 -16.940  1.00  0.00    -0.014 C 
HETATM   26  C7  UNL     1      -1.477  50.069 -15.953  1.00  0.00     0.010 C 
BRANCH  25  27
HETATM   27  C5  UNL     1       0.620  51.134 -16.921  1.00  0.00     0.008 C 
BRANCH  27  28
HETATM   28  C4  UNL     1       0.987  51.839 -15.610  1.00  0.00     0.028 C 
BRANCH  28  29
HETATM   29  C3  UNL     1       1.951  51.099 -14.729  1.00  0.00    -0.013 C 
HETATM   30  C2  UNL     1       3.294  51.212 -14.722  1.00  0.00     0.008 C 
HETATM   31  C1  UNL     1       4.103  52.078 -15.640  1.00  0.00     0.055 C 
BRANCH  30  32
HETATM   32  C30 UNL     1       4.025  50.382 -13.731  1.00  0.00     0.171 C 
HETATM   33  O4  UNL     1       4.898  49.565 -13.964  1.00  0.00    -0.646 OA
BRANCH  32  34
HETATM   34  O5  UNL     1       3.619  50.614 -12.472  1.00  0.00    -0.773 OA
HETATM   35  H44 UNL     1       4.172  50.004 -11.940  1.00  0.00     0.167 HD
ENDBRANCH  32  34
ENDBRANCH  30  32
ENDBRANCH  28  29
ENDBRANCH  27  28
ENDBRANCH  25  27
ENDBRANCH   1  25
BRANCH   8  36
HETATM   36  O1  UNL     1      -0.322  52.774 -21.347  1.00  0.00    -0.391 OA
HETATM   37  H22 UNL     1       0.474  53.143 -20.931  1.00  0.00     0.210 HD
ENDBRANCH   8  36
TORSDOF 7
ENDMDL
MODEL 2
REMARK minimizedAffinity -9.97660637
REMARK  7 active torsions:
REMARK  status: ('A' for Active; 'I' for Inactive)
REMARK    1  A    between atoms: C2_2  and  C30_33 
REMARK    2  A    between atoms: C3_3  and  C4_4 
REMARK    3  A    between atoms: C4_4  and  C5_5 
REMARK    4  A    between atoms: C5_5  and  C6_6 
REMARK    5  A    between atoms: C6_6  and  C8_8 
REMARK    6  A    between atoms: C15_15  and  O1_16 
REMARK    7  A    between atoms: C30_33  and  O5_35 
ROOT
HETATM    1  C8  UNL     1      -0.989  49.322 -18.193  1.00  0.00    -0.002 C 
HETATM    2  C9  UNL     1      -2.260  48.443 -18.158  1.00  0.00     0.007 C 
HETATM    3  C10 UNL     1      -2.897  48.535 -19.567  1.00  0.00     0.015 C 
HETATM    4  C11 UNL     1      -1.801  49.143 -20.470  1.00  0.00    -0.005 C 
HETATM    5  C12 UNL     1      -0.860  47.968 -20.888  1.00  0.00     0.021 C 
HETATM    6  C13 UNL     1      -2.129  49.830 -21.790  1.00  0.00     0.002 C 
HETATM    7  C14 UNL     1      -1.355  50.846 -22.275  1.00  0.00    -0.032 C 
HETATM    8  C15 UNL     1      -0.169  51.387 -21.468  1.00  0.00     0.149 C 
HETATM    9  C16 UNL     1       0.098  50.755 -20.082  1.00  0.00     0.047 C 
HETATM   10  C17 UNL     1      -1.190  50.195 -19.464  1.00  0.00    -0.026 C 
HETATM   11  C18 UNL     1      -2.168  51.374 -19.184  1.00  0.00     0.016 C 
HETATM   12  C19 UNL     1      -1.689  51.520 -23.638  1.00  0.00    -0.012 C 
HETATM   13  C20 UNL     1      -2.768  52.591 -23.321  1.00  0.00     0.021 C 
HETATM   14  C21 UNL     1      -0.512  52.253 -24.355  1.00  0.00     0.021 C 
HETATM   15  C22 UNL     1       0.220  51.386 -25.368  1.00  0.00     0.080 C 
HETATM   16  C23 UNL     1      -0.731  51.023 -26.489  1.00  0.00     0.135 C 
HETATM   17  O2  UNL     1      -0.348  51.035 -27.659  1.00  0.00    -0.297 OA
HETATM   18  C24 UNL     1      -2.168  50.628 -26.101  1.00  0.00     0.018 C 
HETATM   19  C25 UNL     1      -3.113  51.739 -26.573  1.00  0.00     0.023 C 
HETATM   20  C26 UNL     1      -2.512  49.340 -26.883  1.00  0.00     0.023 C 
HETATM   21  C27 UNL     1      -2.194  50.354 -24.563  1.00  0.00     0.020 C 
HETATM   22  C28 UNL     1      -3.498  49.780 -24.010  1.00  0.00     0.090 C 
HETATM   23  C29 UNL     1      -3.307  49.321 -22.579  1.00  0.00     0.157 C 
HETATM   24  O3  UNL     1      -4.114  48.537 -22.083  1.00  0.00    -0.293 OA
ENDROOT
BRANCH   1  25
HETATM   25  C6  UNL     1      -0.482  49.929 -16.855  1.00  0.00    -0.014 C 
HETATM   26  C7  UNL     1       0.109  48.813 -15.975  1.00  0.00     0.010 C 
BRANCH  25  27
HETATM   27  C5  UNL     1      -1.354  50.892 -16.016  1.00  0.00     0.008 C 
BRANCH  27  28
HETATM   28  C4  UNL     1      -2.243  50.380 -14.876  1.00  0.00     0.028 C 
BRANCH  28  29
HETATM   29  C3  UNL     1      -3.063  51.427 -14.180  1.00  0.00    -0.013 C 
HETATM   30  C2  UNL     1      -2.904  51.877 -12.920  1.00  0.00     0.008 C 
HETATM   31  C1  UNL     1      -1.889  51.379 -11.936  1.00  0.00     0.055 C 
BRANCH  30  32
HETATM   32  C30 UNL     1      -3.838  52.942 -12.472  1.00  0.00     0.171 C 
HETATM   33  O4  UNL     1      -4.229  53.140 -11.336  1.00  0.00    -0.646 OA
BRANCH  32  34
HETATM   34  O5  UNL     1      -4.248  53.721 -13.487  1.00  0.00    -0.773 OA
HETATM   35  H44 UNL     1      -4.851  54.359 -13.051  1.00  0.00     0.167 HD
ENDBRANCH  32  34
ENDBRANCH  30  32
ENDBRANCH  28  29
ENDBRANCH  27  28
ENDBRANCH  25  27
ENDBRANCH   1  25
BRANCH   8  36
HETATM   36  O1  UNL     1      -0.386  52.784 -21.275  1.00  0.00    -0.391 OA
HETATM   37  H22 UNL     1       0.405  53.149 -20.846  1.00  0.00     0.210 HD
ENDBRANCH   8  36
TORSDOF 7
ENDMDL
MODEL 3
REMARK minimizedAffinity -9.864007
REMARK  7 active torsions:
REMARK  status: ('A' for Active; 'I' for Inactive)
REMARK    1  A    between atoms: C2_2  and  C30_33 
REMARK    2  A    between atoms: C3_3  and  C4_4 
REMARK    3  A    between atoms: C4_4  and  C5_5 
REMARK    4  A    between atoms: C5_5  and  C6_6 
REMARK    5  A    between atoms: C6_6  and  C8_8 
REMARK    6  A    between atoms: C15_15  and  O1_16 
REMARK    7  A    between atoms: C30_33  and  O5_35 
ROOT
HETATM    1  C8  UNL     1      -1.408  50.478 -23.167  1.00  0.00    -0.002 C 
HETATM    2  C9  UNL     1      -0.994  51.953 -23.368  1.00  0.00     0.007 C 
HETATM    3  C10 UNL     1      -0.575  52.487 -21.977  1.00  0.00     0.015 C 
HETATM    4  C11 UNL     1      -0.398  51.230 -21.095  1.00  0.00    -0.005 C 
HETATM    5  C12 UNL     1       1.029  50.668 -21.395  1.00  0.00     0.021 C 
HETATM    6  C13 UNL     1      -0.448  51.294 -19.574  1.00  0.00     0.002 C 
HETATM    7  C14 UNL     1      -0.892  50.237 -18.831  1.00  0.00    -0.032 C 
HETATM    8  C15 UNL     1      -1.432  48.972 -19.507  1.00  0.00     0.149 C 
HETATM    9  C16 UNL     1      -1.474  48.951 -21.053  1.00  0.00     0.047 C 
HETATM   10  C17 UNL     1      -1.607  50.367 -21.628  1.00  0.00    -0.026 C 
HETATM   11  C18 UNL     1      -2.983  50.958 -21.199  1.00  0.00     0.016 C 
HETATM   12  C19 UNL     1      -0.913  50.309 -17.277  1.00  0.00    -0.012 C 
HETATM   13  C20 UNL     1      -2.239  51.031 -16.909  1.00  0.00     0.021 C 
HETATM   14  C21 UNL     1      -0.909  48.945 -16.519  1.00  0.00     0.021 C 
HETATM   15  C22 UNL     1       0.482  48.470 -16.123  1.00  0.00     0.080 C 
HETATM   16  C23 UNL     1       1.076  49.449 -15.132  1.00  0.00     0.135 C 
HETATM   17  O2  UNL     1       1.706  49.041 -14.156  1.00  0.00    -0.297 OA
HETATM   18  C24 UNL     1       0.872  50.951 -15.407  1.00  0.00     0.018 C 
HETATM   19  C25 UNL     1      -0.086  51.506 -14.348  1.00  0.00     0.023 C 
HETATM   20  C26 UNL     1       2.245  51.636 -15.220  1.00  0.00     0.023 C 
HETATM   21  C27 UNL     1       0.382  51.109 -16.883  1.00  0.00     0.020 C 
HETATM   22  C28 UNL     1       0.288  52.542 -17.404  1.00  0.00     0.090 C 
HETATM   23  C29 UNL     1       0.059  52.544 -18.901  1.00  0.00     0.157 C 
HETATM   24  O3  UNL     1       0.293  53.563 -19.547  1.00  0.00    -0.293 OA
ENDROOT
BRANCH   1  25
HETATM   25  C6  UNL     1      -2.420  49.858 -24.170  1.00  0.00    -0.014 C 
HETATM   26  C7  UNL     1      -2.977  48.544 -23.592  1.00  0.00     0.010 C 
BRANCH  25  27
HETATM   27  C5  UNL     1      -2.087  49.704 -25.673  1.00  0.00     0.008 C 
BRANCH  27  28
HETATM   28  C4  UNL     1      -1.368  50.812 -26.451  1.00  0.00     0.028 C 
BRANCH  28  29
HETATM   29  C3  UNL     1       0.128  50.811 -26.338  1.00  0.00    -0.013 C 
HETATM   30  C2  UNL     1       1.001  51.490 -27.109  1.00  0.00     0.008 C 
HETATM   31  C1  UNL     1       0.643  52.356 -28.279  1.00  0.00     0.055 C 
BRANCH  30  32
HETATM   32  C30 UNL     1       2.440  51.339 -26.775  1.00  0.00     0.171 C 
HETATM   33  O4  UNL     1       2.918  50.633 -25.905  1.00  0.00    -0.646 OA
BRANCH  32  34
HETATM   34  O5  UNL     1       3.228  52.097 -27.555  1.00  0.00    -0.773 OA
HETATM   35  H44 UNL     1       4.129  51.904 -27.221  1.00  0.00     0.167 HD
ENDBRANCH  32  34
ENDBRANCH  30  32
ENDBRANCH  28  29
ENDBRANCH  27  28
ENDBRANCH  25  27
ENDBRANCH   1  25
BRANCH   8  36
HETATM   36  O1  UNL     1      -2.762  48.769 -19.032  1.00  0.00    -0.391 OA
HETATM   37  H22 UNL     1      -3.075  47.920 -19.385  1.00  0.00     0.210 HD
ENDBRANCH   8  36
TORSDOF 7
ENDMDL
MODEL 4
REMARK minimizedAffinity -9.84547997
REMARK  7 active torsions:
REMARK  status: ('A' for Active; 'I' for Inactive)
REMARK    1  A    between atoms: C2_2  and  C30_33 
REMARK    2  A    between atoms: C3_3  and  C4_4 
REMARK    3  A    between atoms: C4_4  and  C5_5 
REMARK    4  A    between atoms: C5_5  and  C6_6 
REMARK    5  A    between atoms: C6_6  and  C8_8 
REMARK    6  A    between atoms: C15_15  and  O1_16 
REMARK    7  A    between atoms: C30_33  and  O5_35 
ROOT
HETATM    1  C8  UNL     1      -0.606  50.425 -21.319  1.00  0.00    -0.002 C 
HETATM    2  C9  UNL     1      -0.210  49.270 -20.372  1.00  0.00     0.007 C 
HETATM    3  C10 UNL     1      -1.493  48.437 -20.133  1.00  0.00     0.015 C 
HETATM    4  C11 UNL     1      -2.486  48.898 -21.223  1.00  0.00    -0.005 C 
HETATM    5  C12 UNL     1      -2.124  48.110 -22.523  1.00  0.00     0.021 C 
HETATM    6  C13 UNL     1      -3.990  48.695 -21.086  1.00  0.00     0.002 C 
HETATM    7  C14 UNL     1      -4.879  49.561 -21.656  1.00  0.00    -0.032 C 
HETATM    8  C15 UNL     1      -4.396  50.816 -22.392  1.00  0.00     0.149 C 
HETATM    9  C16 UNL     1      -2.871  51.072 -22.441  1.00  0.00     0.047 C 
HETATM   10  C17 UNL     1      -2.159  50.442 -21.236  1.00  0.00    -0.026 C 
HETATM   11  C18 UNL     1      -2.642  51.154 -19.938  1.00  0.00     0.016 C 
HETATM   12  C19 UNL     1      -6.413  49.326 -21.529  1.00  0.00    -0.012 C 
HETATM   13  C20 UNL     1      -6.815  49.931 -20.156  1.00  0.00     0.021 C 
HETATM   14  C21 UNL     1      -7.311  50.005 -22.610  1.00  0.00     0.021 C 
HETATM   15  C22 UNL     1      -7.631  49.102 -23.792  1.00  0.00     0.080 C 
HETATM   16  C23 UNL     1      -8.453  47.926 -23.309  1.00  0.00     0.135 C 
HETATM   17  O2  UNL     1      -9.408  47.520 -23.972  1.00  0.00    -0.297 OA
HETATM   18  C24 UNL     1      -8.036  47.264 -21.983  1.00  0.00     0.018 C 
HETATM   19  C25 UNL     1      -9.109  47.575 -20.934  1.00  0.00     0.023 C 
HETATM   20  C26 UNL     1      -8.025  45.737 -22.222  1.00  0.00     0.023 C 
HETATM   21  C27 UNL     1      -6.601  47.768 -21.623  1.00  0.00     0.020 C 
HETATM   22  C28 UNL     1      -5.938  47.090 -20.424  1.00  0.00     0.090 C 
HETATM   23  C29 UNL     1      -4.475  47.477 -20.344  1.00  0.00     0.157 C 
HETATM   24  O3  UNL     1      -3.704  46.789 -19.678  1.00  0.00    -0.293 OA
ENDROOT
BRANCH   1  25
HETATM   25  C6  UNL     1       0.230  51.735 -21.267  1.00  0.00    -0.014 C 
HETATM   26  C7  UNL     1      -0.200  52.572 -20.049  1.00  0.00     0.010 C 
BRANCH  25  27
HETATM   27  C5  UNL     1       0.419  52.630 -22.515  1.00  0.00     0.008 C 
BRANCH  27  28
HETATM   28  C4  UNL     1      -0.158  52.233 -23.879  1.00  0.00     0.028 C 
BRANCH  28  29
HETATM   29  C3  UNL     1       0.818  52.251 -25.019  1.00  0.00    -0.013 C 
HETATM   30  C2  UNL     1       0.706  51.597 -26.193  1.00  0.00     0.008 C 
HETATM   31  C1  UNL     1      -0.410  50.672 -26.575  1.00  0.00     0.055 C 
BRANCH  30  32
HETATM   32  C30 UNL     1       1.803  51.800 -27.173  1.00  0.00     0.171 C 
HETATM   33  O4  UNL     1       1.716  51.751 -28.387  1.00  0.00    -0.646 OA
BRANCH  32  34
HETATM   34  O5  UNL     1       2.980  52.055 -26.578  1.00  0.00    -0.773 OA
HETATM   35  H44 UNL     1       3.597  52.157 -27.332  1.00  0.00     0.167 HD
ENDBRANCH  32  34
ENDBRANCH  30  32
ENDBRANCH  28  29
ENDBRANCH  27  28
ENDBRANCH  25  27
ENDBRANCH   1  25
BRANCH   8  36
HETATM   36  O1  UNL     1      -5.006  51.942 -21.762  1.00  0.00    -0.391 OA
HETATM   37  H22 UNL     1      -4.776  52.730 -22.281  1.00  0.00     0.210 HD
ENDBRANCH   8  36
TORSDOF 7
ENDMDL
MODEL 5
REMARK minimizedAffinity -9.73177052
REMARK  7 active torsions:
REMARK  status: ('A' for Active; 'I' for Inactive)
REMARK    1  A    between atoms: C2_2  and  C30_33 
REMARK    2  A    between atoms: C3_3  and  C4_4 
REMARK    3  A    between atoms: C4_4  and  C5_5 
REMARK    4  A    between atoms: C5_5  and  C6_6 
REMARK    5  A    between atoms: C6_6  and  C8_8 
REMARK    6  A    between atoms: C15_15  and  O1_16 
REMARK    7  A    between atoms: C30_33  and  O5_35 
ROOT
HETATM    1  C8  UNL     1      -1.239  50.573 -22.428  1.00  0.00    -0.002 C 
HETATM    2  C9  UNL     1      -1.026  50.098 -20.973  1.00  0.00     0.007 C 
HETATM    3  C10 UNL     1      -2.276  49.269 -20.593  1.00  0.00     0.015 C 
HETATM    4  C11 UNL     1      -2.990  48.973 -21.931  1.00  0.00    -0.005 C 
HETATM    5  C12 UNL     1      -2.269  47.739 -22.561  1.00  0.00     0.021 C 
HETATM    6  C13 UNL     1      -4.466  48.600 -21.996  1.00  0.00     0.002 C 
HETATM    7  C14 UNL     1      -5.234  48.919 -23.080  1.00  0.00    -0.032 C 
HETATM    8  C15 UNL     1      -4.656  49.734 -24.242  1.00  0.00     0.149 C 
HETATM    9  C16 UNL     1      -3.184  50.198 -24.125  1.00  0.00     0.047 C 
HETATM   10  C17 UNL     1      -2.762  50.354 -22.659  1.00  0.00    -0.026 C 
HETATM   11  C18 UNL     1      -3.595  51.502 -22.014  1.00  0.00     0.016 C 
HETATM   12  C19 UNL     1      -6.734  48.508 -23.141  1.00  0.00    -0.012 C 
HETATM   13  C20 UNL     1      -7.502  49.613 -22.365  1.00  0.00     0.021 C 
HETATM   14  C21 UNL     1      -7.371  48.420 -24.564  1.00  0.00     0.021 C 
HETATM   15  C22 UNL     1      -7.332  47.024 -25.165  1.00  0.00     0.080 C 
HETATM   16  C23 UNL     1      -8.179  46.096 -24.320  1.00  0.00     0.135 C 
HETATM   17  O2  UNL     1      -8.912  45.263 -24.853  1.00  0.00    -0.297 OA
HETATM   18  C24 UNL     1      -8.069  46.230 -22.789  1.00  0.00     0.018 C 
HETATM   19  C25 UNL     1      -9.387  46.810 -22.264  1.00  0.00     0.023 C 
HETATM   20  C26 UNL     1      -7.909  44.803 -22.219  1.00  0.00     0.023 C 
HETATM   21  C27 UNL     1      -6.802  47.088 -22.471  1.00  0.00     0.020 C 
HETATM   22  C28 UNL     1      -6.421  47.191 -20.994  1.00  0.00     0.090 C 
HETATM   23  C29 UNL     1      -5.050  47.818 -20.847  1.00  0.00     0.157 C 
HETATM   24  O3  UNL     1      -4.432  47.679 -19.794  1.00  0.00    -0.293 OA
ENDROOT
BRANCH   1  25
HETATM   25  C6  UNL     1      -0.520  51.872 -22.888  1.00  0.00    -0.014 C 
HETATM   26  C7  UNL     1       0.063  52.599 -21.663  1.00  0.00     0.010 C 
BRANCH  25  27
HETATM   27  C5  UNL     1      -1.191  52.874 -23.858  1.00  0.00     0.008 C 
BRANCH  27  28
HETATM   28  C4  UNL     1      -0.553  53.232 -25.205  1.00  0.00     0.028 C 
BRANCH  28  29
HETATM   29  C3  UNL     1       0.772  52.583 -25.483  1.00  0.00    -0.013 C 
HETATM   30  C2  UNL     1       1.183  52.045 -26.648  1.00  0.00     0.008 C 
HETATM   31  C1  UNL     1       0.367  51.946 -27.901  1.00  0.00     0.055 C 
BRANCH  30  32
HETATM   32  C30 UNL     1       2.558  51.484 -26.671  1.00  0.00     0.171 C 
HETATM   33  O4  UNL     1       2.989  50.577 -25.982  1.00  0.00    -0.646 OA
BRANCH  32  34
HETATM   34  O5  UNL     1       3.346  52.098 -27.570  1.00  0.00    -0.773 OA
HETATM   35  H44 UNL     1       4.205  51.637 -27.469  1.00  0.00     0.167 HD
ENDBRANCH  32  34
ENDBRANCH  30  32
ENDBRANCH  28  29
ENDBRANCH  27  28
ENDBRANCH  25  27
ENDBRANCH   1  25
BRANCH   8  36
HETATM   36  O1  UNL     1      -5.468  50.897 -24.393  1.00  0.00    -0.391 OA
HETATM   37  H22 UNL     1      -5.163  51.370 -25.185  1.00  0.00     0.210 HD
ENDBRANCH   8  36
TORSDOF 7
ENDMDL
MODEL 6
REMARK minimizedAffinity -9.70337963
REMARK  7 active torsions:
REMARK  status: ('A' for Active; 'I' for Inactive)
REMARK    1  A    between atoms: C2_2  and  C30_33 
REMARK    2  A    between atoms: C3_3  and  C4_4 
REMARK    3  A    between atoms: C4_4  and  C5_5 
REMARK    4  A    between atoms: C5_5  and  C6_6 
REMARK    5  A    between atoms: C6_6  and  C8_8 
REMARK    6  A    between atoms: C15_15  and  O1_16 
REMARK    7  A    between atoms: C30_33  and  O5_35 
ROOT
HETATM    1  C8  UNL     1      -0.758  52.551 -23.849  1.00  0.00    -0.002 C 
HETATM    2  C9  UNL     1      -0.036  51.857 -25.026  1.00  0.00     0.007 C 
HETATM    3  C10 UNL     1      -0.974  50.724 -25.511  1.00  0.00     0.015 C 
HETATM    4  C11 UNL     1      -2.346  51.029 -24.867  1.00  0.00    -0.005 C 
HETATM    5  C12 UNL     1      -3.040  52.096 -25.773  1.00  0.00     0.021 C 
HETATM    6  C13 UNL     1      -3.413  49.956 -24.691  1.00  0.00     0.002 C 
HETATM    7  C14 UNL     1      -4.307  50.004 -23.659  1.00  0.00    -0.032 C 
HETATM    8  C15 UNL     1      -4.219  51.100 -22.591  1.00  0.00     0.149 C 
HETATM    9  C16 UNL     1      -3.070  52.129 -22.718  1.00  0.00     0.047 C 
HETATM   10  C17 UNL     1      -1.862  51.531 -23.452  1.00  0.00    -0.026 C 
HETATM   11  C18 UNL     1      -1.271  50.375 -22.590  1.00  0.00     0.016 C 
HETATM   12  C19 UNL     1      -5.408  48.914 -23.508  1.00  0.00    -0.012 C 
HETATM   13  C20 UNL     1      -4.726  47.732 -22.767  1.00  0.00     0.021 C 
HETATM   14  C21 UNL     1      -6.668  49.312 -22.676  1.00  0.00     0.021 C 
HETATM   15  C22 UNL     1      -7.814  49.846 -23.521  1.00  0.00     0.080 C 
HETATM   16  C23 UNL     1      -8.306  48.748 -24.441  1.00  0.00     0.135 C 
HETATM   17  O2  UNL     1      -9.512  48.587 -24.629  1.00  0.00    -0.297 OA
HETATM   18  C24 UNL     1      -7.245  47.869 -25.130  1.00  0.00     0.018 C 
HETATM   19  C25 UNL     1      -7.320  46.464 -24.523  1.00  0.00     0.023 C 
HETATM   20  C26 UNL     1      -7.635  47.772 -26.622  1.00  0.00     0.023 C 
HETATM   21  C27 UNL     1      -5.859  48.577 -24.976  1.00  0.00     0.020 C 
HETATM   22  C28 UNL     1      -4.700  47.945 -25.745  1.00  0.00     0.090 C 
HETATM   23  C29 UNL     1      -3.493  48.861 -25.723  1.00  0.00     0.157 C 
HETATM   24  O3  UNL     1      -2.597  48.700 -26.550  1.00  0.00    -0.293 OA
ENDROOT
BRANCH   1  25
HETATM   25  C6  UNL     1       0.110  53.275 -22.782  1.00  0.00    -0.014 C 
HETATM   26  C7  UNL     1       1.224  54.076 -23.482  1.00  0.00     0.010 C 
BRANCH  25  27
HETATM   27  C5  UNL     1       0.658  52.534 -21.540  1.00  0.00     0.008 C 
BRANCH  27  28
HETATM   28  C4  UNL     1      -0.052  52.612 -20.184  1.00  0.00     0.028 C 
BRANCH  28  29
HETATM   29  C3  UNL     1       0.840  52.871 -19.004  1.00  0.00    -0.013 C 
HETATM   30  C2  UNL     1       0.922  52.142 -17.874  1.00  0.00     0.008 C 
HETATM   31  C1  UNL     1       0.091  50.937 -17.549  1.00  0.00     0.055 C 
BRANCH  30  32
HETATM   32  C30 UNL     1       1.907  52.597 -16.860  1.00  0.00     0.171 C 
HETATM   33  O4  UNL     1       3.112  52.415 -16.880  1.00  0.00    -0.646 OA
BRANCH  32  34
HETATM   34  O5  UNL     1       1.329  53.265 -15.849  1.00  0.00    -0.773 OA
HETATM   35  H44 UNL     1       2.084  53.491 -15.267  1.00  0.00     0.167 HD
ENDBRANCH  32  34
ENDBRANCH  30  32
ENDBRANCH  28  29
ENDBRANCH  27  28
ENDBRANCH  25  27
ENDBRANCH   1  25
BRANCH   8  36
HETATM   36  O1  UNL     1      -4.088  50.454 -21.326  1.00  0.00    -0.391 OA
HETATM   37  H22 UNL     1      -4.124  51.140 -20.639  1.00  0.00     0.210 HD
ENDBRANCH   8  36
TORSDOF 7
ENDMDL
MODEL 7
REMARK minimizedAffinity -9.53465366
REMARK  7 active torsions:
REMARK  status: ('A' for Active; 'I' for Inactive)
REMARK    1  A    between atoms: C2_2  and  C30_33 
REMARK    2  A    between atoms: C3_3  and  C4_4 
REMARK    3  A    between atoms: C4_4  and  C5_5 
REMARK    4  A    between atoms: C5_5  and  C6_6 
REMARK    5  A    between atoms: C6_6  and  C8_8 
REMARK    6  A    between atoms: C15_15  and  O1_16 
REMARK    7  A    between atoms: C30_33  and  O5_35 
ROOT
HETATM    1  C8  UNL     1      -0.762  50.292 -21.167  1.00  0.00    -0.002 C 
HETATM    2  C9  UNL     1      -0.792  49.571 -19.801  1.00  0.00     0.007 C 
HETATM    3  C10 UNL     1      -2.128  48.790 -19.745  1.00  0.00     0.015 C 
HETATM    4  C11 UNL     1      -2.650  48.772 -21.199  1.00  0.00    -0.005 C 
HETATM    5  C12 UNL     1      -1.909  47.605 -21.928  1.00  0.00     0.021 C 
HETATM    6  C13 UNL     1      -4.117  48.529 -21.530  1.00  0.00     0.002 C 
HETATM    7  C14 UNL     1      -4.697  49.079 -22.638  1.00  0.00    -0.032 C 
HETATM    8  C15 UNL     1      -3.911  50.027 -23.551  1.00  0.00     0.149 C 
HETATM    9  C16 UNL     1      -2.451  50.350 -23.155  1.00  0.00     0.047 C 
HETATM   10  C17 UNL     1      -2.243  50.232 -21.639  1.00  0.00    -0.026 C 
HETATM   11  C18 UNL     1      -3.101  51.319 -20.927  1.00  0.00     0.016 C 
HETATM   12  C19 UNL     1      -6.191  48.801 -22.975  1.00  0.00    -0.012 C 
HETATM   13  C20 UNL     1      -7.007  49.820 -22.133  1.00  0.00     0.021 C 
HETATM   14  C21 UNL     1      -6.614  48.996 -24.466  1.00  0.00     0.021 C 
HETATM   15  C22 UNL     1      -6.559  47.717 -25.288  1.00  0.00     0.080 C 
HETATM   16  C23 UNL     1      -7.570  46.732 -24.740  1.00  0.00     0.135 C 
HETATM   17  O2  UNL     1      -8.259  46.057 -25.505  1.00  0.00    -0.297 OA
HETATM   18  C24 UNL     1      -7.682  46.606 -23.209  1.00  0.00     0.018 C 
HETATM   19  C25 UNL     1      -9.031  47.191 -22.777  1.00  0.00     0.023 C 
HETATM   20  C26 UNL     1      -7.684  45.096 -22.877  1.00  0.00     0.023 C 
HETATM   21  C27 UNL     1      -6.432  47.300 -22.576  1.00  0.00     0.020 C 
HETATM   22  C28 UNL     1      -6.271  47.131 -21.066  1.00  0.00     0.090 C 
HETATM   23  C29 UNL     1      -4.905  47.618 -20.625  1.00  0.00     0.157 C 
HETATM   24  O3  UNL     1      -4.459  47.261 -19.537  1.00  0.00    -0.293 OA
ENDROOT
BRANCH   1  25
HETATM   25  C6  UNL     1       0.085  51.589 -21.293  1.00  0.00    -0.014 C 
HETATM   26  C7  UNL     1      -0.039  52.412 -19.997  1.00  0.00     0.010 C 
BRANCH  25  27
HETATM   27  C5  UNL     1      -0.005  52.503 -22.538  1.00  0.00     0.008 C 
BRANCH  27  28
HETATM   28  C4  UNL     1       0.675  52.125 -23.858  1.00  0.00     0.028 C 
BRANCH  28  29
HETATM   29  C3  UNL     1       0.392  53.041 -25.013  1.00  0.00    -0.013 C 
HETATM   30  C2  UNL     1       0.236  52.692 -26.306  1.00  0.00     0.008 C 
HETATM   31  C1  UNL     1       0.363  51.304 -26.858  1.00  0.00     0.055 C 
BRANCH  30  32
HETATM   32  C30 UNL     1      -0.065  53.791 -27.259  1.00  0.00     0.171 C 
HETATM   33  O4  UNL     1      -0.070  54.985 -27.019  1.00  0.00    -0.646 OA
BRANCH  32  34
HETATM   34  O5  UNL     1      -0.354  53.336 -28.489  1.00  0.00    -0.773 OA
HETATM   35  H44 UNL     1      -0.534  54.155 -28.996  1.00  0.00     0.167 HD
ENDBRANCH  32  34
ENDBRANCH  30  32
ENDBRANCH  28  29
ENDBRANCH  27  28
ENDBRANCH  25  27
ENDBRANCH   1  25
BRANCH   8  36
HETATM   36  O1  UNL     1      -4.630  51.257 -23.609  1.00  0.00    -0.391 OA
HETATM   37  H22 UNL     1      -4.185  51.828 -24.258  1.00  0.00     0.210 HD
ENDBRANCH   8  36
TORSDOF 7
ENDMDL
MODEL 8
REMARK minimizedAffinity -9.52973652
REMARK  7 active torsions:
REMARK  status: ('A' for Active; 'I' for Inactive)
REMARK    1  A    between atoms: C2_2  and  C30_33 
REMARK    2  A    between atoms: C3_3  and  C4_4 
REMARK    3  A    between atoms: C4_4  and  C5_5 
REMARK    4  A    between atoms: C5_5  and  C6_6 
REMARK    5  A    between atoms: C6_6  and  C8_8 
REMARK    6  A    between atoms: C15_15  and  O1_16 
REMARK    7  A    between atoms: C30_33  and  O5_35 
ROOT
HETATM    1  C8  UNL     1      -2.021  48.254 -18.626  1.00  0.00    -0.002 C 
HETATM    2  C9  UNL     1      -3.361  47.513 -18.837  1.00  0.00     0.007 C 
HETATM    3  C10 UNL     1      -3.842  47.872 -20.264  1.00  0.00     0.015 C 
HETATM    4  C11 UNL     1      -2.611  48.490 -20.965  1.00  0.00    -0.005 C 
HETATM    5  C12 UNL     1      -1.739  47.299 -21.476  1.00  0.00     0.021 C 
HETATM    6  C13 UNL     1      -2.743  49.390 -22.187  1.00  0.00     0.002 C 
HETATM    7  C14 UNL     1      -1.838  50.382 -22.441  1.00  0.00    -0.032 C 
HETATM    8  C15 UNL     1      -0.697  50.677 -21.461  1.00  0.00     0.149 C 
HETATM    9  C16 UNL     1      -0.627  49.827 -20.171  1.00  0.00     0.047 C 
HETATM   10  C17 UNL     1      -2.015  49.317 -19.761  1.00  0.00    -0.026 C 
HETATM   11  C18 UNL     1      -2.909  50.537 -19.388  1.00  0.00     0.016 C 
HETATM   12  C19 UNL     1      -1.972  51.276 -23.708  1.00  0.00    -0.012 C 
HETATM   13  C20 UNL     1      -2.980  52.395 -23.325  1.00  0.00     0.021 C 
HETATM   14  C21 UNL     1      -0.670  51.982 -24.200  1.00  0.00     0.021 C 
HETATM   15  C22 UNL     1       0.082  51.201 -25.267  1.00  0.00     0.080 C 
HETATM   16  C23 UNL     1      -0.779  51.102 -26.508  1.00  0.00     0.135 C 
HETATM   17  O2  UNL     1      -0.280  51.245 -27.625  1.00  0.00    -0.297 OA
HETATM   18  C24 UNL     1      -2.277  50.804 -26.312  1.00  0.00     0.018 C 
HETATM   19  C25 UNL     1      -3.069  52.062 -26.687  1.00  0.00     0.023 C 
HETATM   20  C26 UNL     1      -2.652  49.684 -27.308  1.00  0.00     0.023 C 
HETATM   21  C27 UNL     1      -2.482  50.314 -24.841  1.00  0.00     0.020 C 
HETATM   22  C28 UNL     1      -3.881  49.802 -24.499  1.00  0.00     0.090 C 
HETATM   23  C29 UNL     1      -3.875  49.123 -23.144  1.00  0.00     0.157 C 
HETATM   24  O3  UNL     1      -4.794  48.362 -22.846  1.00  0.00    -0.293 OA
ENDROOT
BRANCH   1  25
HETATM   25  C6  UNL     1      -1.600  48.606 -17.172  1.00  0.00    -0.014 C 
HETATM   26  C7  UNL     1      -2.658  49.528 -16.539  1.00  0.00     0.010 C 
BRANCH  25  27
HETATM   27  C5  UNL     1      -0.170  49.090 -16.833  1.00  0.00     0.008 C 
BRANCH  27  28
HETATM   28  C4  UNL     1       0.111  50.544 -16.440  1.00  0.00     0.028 C 
BRANCH  28  29
HETATM   29  C3  UNL     1       0.196  51.514 -17.582  1.00  0.00    -0.013 C 
HETATM   30  C2  UNL     1       1.176  52.409 -17.815  1.00  0.00     0.008 C 
HETATM   31  C1  UNL     1       2.369  52.646 -16.939  1.00  0.00     0.055 C 
BRANCH  30  32
HETATM   32  C30 UNL     1       1.037  53.243 -19.036  1.00  0.00     0.171 C 
HETATM   33  O4  UNL     1       1.748  53.215 -20.025  1.00  0.00    -0.646 OA
BRANCH  32  34
HETATM   34  O5  UNL     1      -0.000  54.093 -18.960  1.00  0.00    -0.773 OA
HETATM   35  H44 UNL     1       0.037  54.572 -19.814  1.00  0.00     0.167 HD
ENDBRANCH  32  34
ENDBRANCH  30  32
ENDBRANCH  28  29
ENDBRANCH  27  28
ENDBRANCH  25  27
ENDBRANCH   1  25
BRANCH   8  36
HETATM   36  O1  UNL     1      -0.809  52.046 -21.075  1.00  0.00    -0.391 OA
HETATM   37  H22 UNL     1      -0.036  52.262 -20.528  1.00  0.00     0.210 HD
ENDBRANCH   8  36
TORSDOF 7
ENDMDL
MODEL 9
REMARK minimizedAffinity -9.33608627
REMARK  7 active torsions:
REMARK  status: ('A' for Active; 'I' for Inactive)
REMARK    1  A    between atoms: C2_2  and  C30_33 
REMARK    2  A    between atoms: C3_3  and  C4_4 
REMARK    3  A    between atoms: C4_4  and  C5_5 
REMARK    4  A    between atoms: C5_5  and  C6_6 
REMARK    5  A    between atoms: C6_6  and  C8_8 
REMARK    6  A    between atoms: C15_15  and  O1_16 
REMARK    7  A    between atoms: C30_33  and  O5_35 
ROOT
HETATM    1  C8  UNL     1      -0.667  52.443 -21.317  1.00  0.00    -0.002 C 
HETATM    2  C9  UNL     1      -0.195  52.156 -22.760  1.00  0.00     0.007 C 
HETATM    3  C10 UNL     1      -1.135  51.061 -23.321  1.00  0.00     0.015 C 
HETATM    4  C11 UNL     1      -2.334  51.017 -22.348  1.00  0.00    -0.005 C 
HETATM    5  C12 UNL     1      -3.299  52.171 -22.770  1.00  0.00     0.021 C 
HETATM    6  C13 UNL     1      -3.248  49.802 -22.244  1.00  0.00     0.002 C 
HETATM    7  C14 UNL     1      -3.873  49.480 -21.073  1.00  0.00    -0.032 C 
HETATM    8  C15 UNL     1      -3.616  50.286 -19.795  1.00  0.00     0.149 C 
HETATM    9  C16 UNL     1      -2.609  51.457 -19.881  1.00  0.00     0.047 C 
HETATM   10  C17 UNL     1      -1.568  51.220 -20.983  1.00  0.00    -0.026 C 
HETATM   11  C18 UNL     1      -0.707  49.978 -20.604  1.00  0.00     0.016 C 
HETATM   12  C19 UNL     1      -4.825  48.251 -20.990  1.00  0.00    -0.012 C 
HETATM   13  C20 UNL     1      -3.902  47.024 -20.750  1.00  0.00     0.021 C 
HETATM   14  C21 UNL     1      -5.878  48.265 -19.838  1.00  0.00     0.021 C 
HETATM   15  C22 UNL     1      -7.227  48.832 -20.251  1.00  0.00     0.080 C 
HETATM   16  C23 UNL     1      -7.840  47.934 -21.305  1.00  0.00     0.135 C 
HETATM   17  O2  UNL     1      -9.042  47.666 -21.272  1.00  0.00    -0.297 OA
HETATM   18  C24 UNL     1      -6.911  47.397 -22.409  1.00  0.00     0.018 C 
HETATM   19  C25 UNL     1      -6.737  45.889 -22.197  1.00  0.00     0.023 C 
HETATM   20  C26 UNL     1      -7.634  47.613 -23.757  1.00  0.00     0.023 C 
HETATM   21  C27 UNL     1      -5.584  48.222 -22.366  1.00  0.00     0.020 C 
HETATM   22  C28 UNL     1      -4.596  47.954 -23.501  1.00  0.00     0.090 C 
HETATM   23  C29 UNL     1      -3.489  48.989 -23.489  1.00  0.00     0.157 C 
HETATM   24  O3  UNL     1      -2.805  49.153 -24.498  1.00  0.00    -0.293 OA
ENDROOT
BRANCH   1  25
HETATM   25  C6  UNL     1       0.373  52.995 -20.302  1.00  0.00    -0.014 C 
HETATM   26  C7  UNL     1       1.736  53.158 -21.000  1.00  0.00     0.010 C 
BRANCH  25  27
HETATM   27  C5  UNL     1       0.543  52.377 -18.894  1.00  0.00     0.008 C 
BRANCH  27  28
HETATM   28  C4  UNL     1       1.617  52.881 -17.924  1.00  0.00     0.028 C 
BRANCH  28  29
HETATM   29  C3  UNL     1       1.636  52.210 -16.581  1.00  0.00    -0.013 C 
HETATM   30  C2  UNL     1       2.702  52.043 -15.773  1.00  0.00     0.008 C 
HETATM   31  C1  UNL     1       4.108  52.459 -16.083  1.00  0.00     0.055 C 
BRANCH  30  32
HETATM   32  C30 UNL     1       2.452  51.364 -14.475  1.00  0.00     0.171 C 
HETATM   33  O4  UNL     1       2.471  50.165 -14.263  1.00  0.00    -0.646 OA
BRANCH  32  34
HETATM   34  O5  UNL     1       2.180  52.233 -13.488  1.00  0.00    -0.773 OA
HETATM   35  H44 UNL     1       2.033  51.654 -12.712  1.00  0.00     0.167 HD
ENDBRANCH  32  34
ENDBRANCH  30  32
ENDBRANCH  28  29
ENDBRANCH  27  28
ENDBRANCH  25  27
ENDBRANCH   1  25
BRANCH   8  36
HETATM   36  O1  UNL     1      -3.143  49.376 -18.804  1.00  0.00    -0.391 OA
HETATM   37  H22 UNL     1      -3.066  49.864 -17.967  1.00  0.00     0.210 HD
ENDBRANCH   8  36
TORSDOF 7
ENDMDL
