MODEL 1
REMARK minimizedAffinity -7.63021612
REMARK CNNscore 0.57682097
REMARK CNNaffinity 7.62294054
REMARK  12 active torsions:
REMARK  status: ('A' for Active; 'I' for Inactive)
REMARK    1  A    between atoms: O1_2  and  C2_3 
REMARK    2  A    between atoms: C2_3  and  C3_4 
REMARK    3  A    between atoms: C2_3  and  C7_8 
REMARK    4  A    between atoms: C7_8  and  C8_9 
REMARK    5  A    between atoms: C8_9  and  C10_11 
REMARK    6  A    between atoms: C28_30  and  O3_31 
REMARK    7  A    between atoms: O3_31  and  C29_32 
REMARK    8  A    between atoms: C30_34  and  C31_35 
REMARK    9  A    between atoms: C31_35  and  O5_36 
REMARK   10  A    between atoms: C32_37  and  O6_38 
REMARK   11  A    between atoms: C33_39  and  O7_40 
REMARK   12  A    between atoms: C34_41  and  O8_42 
ROOT
HETATM    1  C10 UNL     1       3.158  55.384  -6.745  1.00  0.00    -0.002 C 
HETATM    2  C11 UNL     1       2.470  54.829  -5.457  1.00  0.00     0.006 C 
HETATM    3  C12 UNL     1       1.067  54.332  -5.846  1.00  0.00     0.011 C 
HETATM    4  C13 UNL     1       1.084  54.267  -7.385  1.00  0.00    -0.029 C 
HETATM    5  C14 UNL     1       1.769  52.908  -7.744  1.00  0.00     0.016 C 
HETATM    6  C15 UNL     1      -0.315  54.379  -8.069  1.00  0.00     0.028 C 
HETATM    7  C16 UNL     1      -1.252  53.241  -7.706  1.00  0.00    -0.021 C 
HETATM    8  C17 UNL     1      -1.967  52.588  -8.639  1.00  0.00     0.008 C 
HETATM    9  C18 UNL     1      -1.852  52.948 -10.118  1.00  0.00     0.092 C 
HETATM   10  O2  UNL     1      -2.526  54.226 -10.206  1.00  0.00    -0.374 OA
HETATM   11  C19 UNL     1      -1.546  55.266 -10.116  1.00  0.00     0.179 C 
HETATM   12  C20 UNL     1      -0.220  54.621  -9.645  1.00  0.00    -0.004 C 
HETATM   13  C21 UNL     1       0.957  55.540 -10.070  1.00  0.00     0.014 C 
HETATM   14  C22 UNL     1       2.248  55.481  -9.234  1.00  0.00     0.011 C 
HETATM   15  C23 UNL     1       1.947  55.540  -7.727  1.00  0.00    -0.032 C 
HETATM   16  C24 UNL     1       1.222  56.887  -7.413  1.00  0.00     0.016 C 
HETATM   17  C25 UNL     1      -0.350  53.260 -10.375  1.00  0.00     0.036 C 
HETATM   18  C26 UNL     1       0.013  53.219 -11.857  1.00  0.00     0.011 C 
HETATM   19  C27 UNL     1      -0.295  51.853 -12.476  1.00  0.00     0.033 C 
HETATM   20  C28 UNL     1      -1.379  51.046 -11.740  1.00  0.00     0.136 C 
HETATM   21  C35 UNL     1      -2.500  51.958 -11.165  1.00  0.00     0.014 C 
HETATM   22  C36 UNL     1      -3.223  52.713 -12.321  1.00  0.00     0.021 C 
HETATM   23  C37 UNL     1      -3.596  51.066 -10.533  1.00  0.00     0.021 C 
ENDROOT
BRANCH  20  24
HETATM   24  O3  UNL     1      -1.965  50.093 -12.637  1.00  0.00    -0.352 OA
BRANCH  24  25
HETATM   25  C29 UNL     1      -1.042  49.506 -13.567  1.00  0.00     0.292 C 
HETATM   26  O4  UNL     1      -0.973  50.267 -14.768  1.00  0.00    -0.348 OA
HETATM   27  C30 UNL     1      -1.849  49.849 -15.824  1.00  0.00     0.179 C 
HETATM   28  C32 UNL     1      -1.536  48.402 -16.269  1.00  0.00     0.180 C 
HETATM   29  C33 UNL     1      -1.059  47.499 -15.120  1.00  0.00     0.183 C 
HETATM   30  C34 UNL     1      -1.470  48.026 -13.755  1.00  0.00     0.204 C 
BRANCH  27  31
HETATM   31  C31 UNL     1      -3.326  50.108 -15.471  1.00  0.00     0.198 C 
BRANCH  31  32
HETATM   32  O5  UNL     1      -3.612  51.498 -15.379  1.00  0.00    -0.398 OA
HETATM   33  H48 UNL     1      -4.504  51.582 -15.003  1.00  0.00     0.209 HD
ENDBRANCH  31  32
ENDBRANCH  27  31
BRANCH  28  34
HETATM   34  O6  UNL     1      -0.506  48.427 -17.278  1.00  0.00    -0.390 OA
HETATM   35  H50 UNL     1       0.257  47.954 -16.875  1.00  0.00     0.210 HD
ENDBRANCH  28  34
BRANCH  29  36
HETATM   36  O7  UNL     1       0.380  47.350 -15.171  1.00  0.00    -0.390 OA
HETATM   37  H52 UNL     1       0.652  47.119 -14.257  1.00  0.00     0.210 HD
ENDBRANCH  29  36
BRANCH  30  38
HETATM   38  O8  UNL     1      -0.850  47.199 -12.747  1.00  0.00    -0.388 OA
HETATM   39  H54 UNL     1      -1.487  46.496 -12.524  1.00  0.00     0.210 HD
ENDBRANCH  30  38
ENDBRANCH  24  25
ENDBRANCH  20  24
BRANCH   1  40
HETATM   40  C8  UNL     1       4.045  56.628  -6.427  1.00  0.00    -0.011 C 
HETATM   41  C9  UNL     1       3.354  57.945  -6.794  1.00  0.00     0.010 C 
BRANCH  40  42
HETATM   42  C7  UNL     1       5.420  56.571  -7.156  1.00  0.00     0.040 C 
BRANCH  42  43
HETATM   43  C2  UNL     1       6.387  55.554  -6.509  1.00  0.00     0.144 C 
BRANCH  43  44
HETATM   44  O1  UNL     1       7.700  56.108  -6.453  1.00  0.00    -0.387 OA
HETATM   45  C1  UNL     1       7.926  56.907  -5.299  1.00  0.00     0.202 C 
ENDBRANCH  43  44
BRANCH  43  46
HETATM   46  C3  UNL     1       6.357  54.246  -7.269  1.00  0.00     0.007 C 
HETATM   47  C4  UNL     1       6.355  54.024  -8.601  1.00  0.00    -0.089 C 
HETATM   48  C5  UNL     1       6.313  55.094  -9.657  1.00  0.00     0.042 C 
HETATM   49  C6  UNL     1       6.384  52.619  -9.147  1.00  0.00     0.042 C 
ENDBRANCH  43  46
ENDBRANCH  42  43
ENDBRANCH  40  42
ENDBRANCH   1  40
TORSDOF 12
ENDMDL
MODEL 2
REMARK minimizedAffinity -8.85608101
REMARK CNNscore 0.576030731
REMARK CNNaffinity 7.47402382
REMARK  12 active torsions:
REMARK  status: ('A' for Active; 'I' for Inactive)
REMARK    1  A    between atoms: O1_2  and  C2_3 
REMARK    2  A    between atoms: C2_3  and  C3_4 
REMARK    3  A    between atoms: C2_3  and  C7_8 
REMARK    4  A    between atoms: C7_8  and  C8_9 
REMARK    5  A    between atoms: C8_9  and  C10_11 
REMARK    6  A    between atoms: C28_30  and  O3_31 
REMARK    7  A    between atoms: O3_31  and  C29_32 
REMARK    8  A    between atoms: C30_34  and  C31_35 
REMARK    9  A    between atoms: C31_35  and  O5_36 
REMARK   10  A    between atoms: C32_37  and  O6_38 
REMARK   11  A    between atoms: C33_39  and  O7_40 
REMARK   12  A    between atoms: C34_41  and  O8_42 
ROOT
HETATM    1  C10 UNL     1      -0.291  50.908 -21.195  1.00  0.00    -0.002 C 
HETATM    2  C11 UNL     1      -0.195  51.554 -19.775  1.00  0.00     0.006 C 
HETATM    3  C12 UNL     1      -1.372  51.030 -18.936  1.00  0.00     0.011 C 
HETATM    4  C13 UNL     1      -1.923  49.832 -19.733  1.00  0.00    -0.029 C 
HETATM    5  C14 UNL     1      -1.002  48.622 -19.370  1.00  0.00     0.016 C 
HETATM    6  C15 UNL     1      -3.421  49.487 -19.462  1.00  0.00     0.028 C 
HETATM    7  C16 UNL     1      -3.690  49.072 -18.025  1.00  0.00    -0.021 C 
HETATM    8  C17 UNL     1      -4.431  47.991 -17.727  1.00  0.00     0.008 C 
HETATM    9  C18 UNL     1      -5.023  47.111 -18.826  1.00  0.00     0.092 C 
HETATM   10  O2  UNL     1      -6.078  47.932 -19.381  1.00  0.00    -0.374 OA
HETATM   11  C19 UNL     1      -5.565  48.618 -20.529  1.00  0.00     0.179 C 
HETATM   12  C20 UNL     1      -4.026  48.458 -20.523  1.00  0.00    -0.004 C 
HETATM   13  C21 UNL     1      -3.500  48.665 -21.969  1.00  0.00     0.014 C 
HETATM   14  C22 UNL     1      -2.055  49.167 -22.139  1.00  0.00     0.011 C 
HETATM   15  C23 UNL     1      -1.757  50.355 -21.210  1.00  0.00    -0.032 C 
HETATM   16  C24 UNL     1      -2.727  51.526 -21.568  1.00  0.00     0.016 C 
HETATM   17  C25 UNL     1      -3.943  47.023 -19.942  1.00  0.00     0.036 C 
HETATM   18  C26 UNL     1      -4.183  45.860 -20.901  1.00  0.00     0.011 C 
HETATM   19  C27 UNL     1      -4.209  44.518 -20.165  1.00  0.00     0.033 C 
HETATM   20  C28 UNL     1      -4.576  44.612 -18.674  1.00  0.00     0.136 C 
HETATM   21  C35 UNL     1      -5.633  45.718 -18.399  1.00  0.00     0.014 C 
HETATM   22  C36 UNL     1      -6.956  45.397 -19.158  1.00  0.00     0.021 C 
HETATM   23  C37 UNL     1      -6.020  45.679 -16.900  1.00  0.00     0.021 C 
ENDROOT
BRANCH  20  24
HETATM   24  O3  UNL     1      -5.089  43.351 -18.222  1.00  0.00    -0.352 OA
BRANCH  24  25
HETATM   25  C29 UNL     1      -5.095  42.320 -19.221  1.00  0.00     0.292 C 
HETATM   26  O4  UNL     1      -6.422  41.876 -19.490  1.00  0.00    -0.348 OA
HETATM   27  C30 UNL     1      -6.866  40.742 -18.734  1.00  0.00     0.179 C 
HETATM   28  C32 UNL     1      -5.985  39.503 -19.014  1.00  0.00     0.180 C 
HETATM   29  C33 UNL     1      -4.512  39.850 -19.284  1.00  0.00     0.183 C 
HETATM   30  C34 UNL     1      -4.124  41.212 -18.732  1.00  0.00     0.204 C 
BRANCH  27  31
HETATM   31  C31 UNL     1      -7.036  41.086 -17.241  1.00  0.00     0.198 C 
BRANCH  31  32
HETATM   32  O5  UNL     1      -6.665  39.998 -16.403  1.00  0.00    -0.398 OA
HETATM   33  H48 UNL     1      -6.944  40.225 -15.501  1.00  0.00     0.209 HD
ENDBRANCH  31  32
ENDBRANCH  27  31
BRANCH  28  34
HETATM   34  O6  UNL     1      -6.500  38.804 -20.165  1.00  0.00    -0.390 OA
HETATM   35  H50 UNL     1      -5.786  38.864 -20.840  1.00  0.00     0.210 HD
ENDBRANCH  28  34
BRANCH  29  36
HETATM   36  O7  UNL     1      -4.245  39.806 -20.706  1.00  0.00    -0.390 OA
HETATM   37  H52 UNL     1      -3.463  40.383 -20.843  1.00  0.00     0.210 HD
ENDBRANCH  29  36
BRANCH  30  38
HETATM   38  O8  UNL     1      -2.778  41.508 -19.167  1.00  0.00    -0.388 OA
HETATM   39  H54 UNL     1      -2.178  41.195 -18.465  1.00  0.00     0.210 HD
ENDBRANCH  30  38
ENDBRANCH  24  25
ENDBRANCH  20  24
BRANCH   1  40
HETATM   40  C8  UNL     1       0.158  51.905 -22.308  1.00  0.00    -0.011 C 
HETATM   41  C9  UNL     1       0.488  53.293 -21.747  1.00  0.00     0.010 C 
BRANCH  40  42
HETATM   42  C7  UNL     1      -0.918  52.065 -23.423  1.00  0.00     0.040 C 
BRANCH  42  43
HETATM   43  C2  UNL     1      -0.469  53.038 -24.536  1.00  0.00     0.144 C 
BRANCH  43  44
HETATM   44  O1  UNL     1      -1.489  53.134 -25.529  1.00  0.00    -0.387 OA
HETATM   45  C1  UNL     1      -2.694  52.474 -25.165  1.00  0.00     0.202 C 
ENDBRANCH  43  44
BRANCH  43  46
HETATM   46  C3  UNL     1       0.852  52.589 -25.123  1.00  0.00     0.007 C 
HETATM   47  C4  UNL     1       1.109  51.607 -26.013  1.00  0.00    -0.089 C 
HETATM   48  C5  UNL     1       0.084  50.665 -26.585  1.00  0.00     0.042 C 
HETATM   49  C6  UNL     1       2.511  51.369 -26.511  1.00  0.00     0.042 C 
ENDBRANCH  43  46
ENDBRANCH  42  43
ENDBRANCH  40  42
ENDBRANCH   1  40
TORSDOF 12
ENDMDL
MODEL 3
REMARK minimizedAffinity -7.75789595
REMARK CNNscore 0.502828777
REMARK CNNaffinity 6.76539183
REMARK  12 active torsions:
REMARK  status: ('A' for Active; 'I' for Inactive)
REMARK    1  A    between atoms: O1_2  and  C2_3 
REMARK    2  A    between atoms: C2_3  and  C3_4 
REMARK    3  A    between atoms: C2_3  and  C7_8 
REMARK    4  A    between atoms: C7_8  and  C8_9 
REMARK    5  A    between atoms: C8_9  and  C10_11 
REMARK    6  A    between atoms: C28_30  and  O3_31 
REMARK    7  A    between atoms: O3_31  and  C29_32 
REMARK    8  A    between atoms: C30_34  and  C31_35 
REMARK    9  A    between atoms: C31_35  and  O5_36 
REMARK   10  A    between atoms: C32_37  and  O6_38 
REMARK   11  A    between atoms: C33_39  and  O7_40 
REMARK   12  A    between atoms: C34_41  and  O8_42 
ROOT
HETATM    1  C10 UNL     1      -8.528  47.188 -28.880  1.00  0.00    -0.002 C 
HETATM    2  C11 UNL     1      -7.036  47.020 -29.314  1.00  0.00     0.006 C 
HETATM    3  C12 UNL     1      -7.007  46.164 -30.591  1.00  0.00     0.011 C 
HETATM    4  C13 UNL     1      -8.466  46.143 -31.085  1.00  0.00    -0.029 C 
HETATM    5  C14 UNL     1      -8.665  47.479 -31.872  1.00  0.00     0.016 C 
HETATM    6  C15 UNL     1      -8.848  44.917 -31.972  1.00  0.00     0.028 C 
HETATM    7  C16 UNL     1      -8.063  44.849 -33.271  1.00  0.00    -0.021 C 
HETATM    8  C17 UNL     1      -8.665  44.613 -34.450  1.00  0.00     0.008 C 
HETATM    9  C18 UNL     1     -10.177  44.424 -34.542  1.00  0.00     0.092 C 
HETATM   10  O2  UNL     1     -10.390  43.123 -33.944  1.00  0.00    -0.374 OA
HETATM   11  C19 UNL     1     -10.730  43.305 -32.565  1.00  0.00     0.179 C 
HETATM   12  C20 UNL     1     -10.423  44.776 -32.196  1.00  0.00    -0.004 C 
HETATM   13  C21 UNL     1     -11.271  45.164 -30.955  1.00  0.00     0.014 C 
HETATM   14  C22 UNL     1     -10.732  46.279 -30.041  1.00  0.00     0.011 C 
HETATM   15  C23 UNL     1      -9.244  46.073 -29.717  1.00  0.00    -0.032 C 
HETATM   16  C24 UNL     1      -9.076  44.709 -28.975  1.00  0.00     0.016 C 
HETATM   17  C25 UNL     1     -10.804  45.439 -33.545  1.00  0.00     0.036 C 
HETATM   18  C26 UNL     1     -12.287  45.687 -33.812  1.00  0.00     0.011 C 
HETATM   19  C27 UNL     1     -12.523  46.214 -35.230  1.00  0.00     0.033 C 
HETATM   20  C28 UNL     1     -11.422  45.850 -36.241  1.00  0.00     0.136 C 
HETATM   21  C35 UNL     1     -10.831  44.436 -35.980  1.00  0.00     0.014 C 
HETATM   22  C36 UNL     1     -11.942  43.353 -36.131  1.00  0.00     0.021 C 
HETATM   23  C37 UNL     1      -9.807  44.107 -37.095  1.00  0.00     0.021 C 
ENDROOT
BRANCH  20  24
HETATM   24  O3  UNL     1     -11.953  45.897 -37.573  1.00  0.00    -0.352 OA
BRANCH  24  25
HETATM   25  C29 UNL     1     -11.697  47.124 -38.272  1.00  0.00     0.292 C 
HETATM   26  O4  UNL     1     -12.127  48.247 -37.509  1.00  0.00    -0.348 OA
HETATM   27  C30 UNL     1     -13.456  48.713 -37.778  1.00  0.00     0.179 C 
HETATM   28  C32 UNL     1     -13.601  49.170 -39.248  1.00  0.00     0.180 C 
HETATM   29  C33 UNL     1     -12.746  48.352 -40.230  1.00  0.00     0.183 C 
HETATM   30  C34 UNL     1     -12.357  46.994 -39.670  1.00  0.00     0.204 C 
BRANCH  27  31
HETATM   31  C31 UNL     1     -14.518  47.697 -37.313  1.00  0.00     0.198 C 
BRANCH  31  32
HETATM   32  O5  UNL     1     -15.811  48.022 -37.808  1.00  0.00    -0.398 OA
HETATM   33  H48 UNL     1     -16.444  47.443 -37.352  1.00  0.00     0.209 HD
ENDBRANCH  31  32
ENDBRANCH  27  31
BRANCH  28  34
HETATM   34  O6  UNL     1     -13.209  50.554 -39.356  1.00  0.00    -0.390 OA
HETATM   35  H50 UNL     1     -12.418  50.549 -39.942  1.00  0.00     0.210 HD
ENDBRANCH  28  34
BRANCH  29  36
HETATM   36  O7  UNL     1     -11.555  49.092 -40.585  1.00  0.00    -0.390 OA
HETATM   37  H52 UNL     1     -10.902  48.417 -40.868  1.00  0.00     0.210 HD
ENDBRANCH  29  36
BRANCH  30  38
HETATM   38  O8  UNL     1     -11.437  46.372 -40.595  1.00  0.00    -0.388 OA
HETATM   39  H54 UNL     1     -11.971  45.826 -41.202  1.00  0.00     0.210 HD
ENDBRANCH  30  38
ENDBRANCH  24  25
ENDBRANCH  20  24
BRANCH   1  40
HETATM   40  C8  UNL     1      -8.674  47.185 -27.326  1.00  0.00    -0.011 C 
HETATM   41  C9  UNL     1     -10.075  47.611 -26.873  1.00  0.00     0.010 C 
BRANCH  40  42
HETATM   42  C7  UNL     1      -7.628  48.110 -26.636  1.00  0.00     0.040 C 
BRANCH  42  43
HETATM   43  C2  UNL     1      -6.874  47.392 -25.493  1.00  0.00     0.144 C 
BRANCH  43  44
HETATM   44  O1  UNL     1      -7.777  47.111 -24.425  1.00  0.00    -0.387 OA
HETATM   45  C1  UNL     1      -7.126  46.683 -23.236  1.00  0.00     0.202 C 
ENDBRANCH  43  44
BRANCH  43  46
HETATM   46  C3  UNL     1      -5.699  48.230 -25.036  1.00  0.00     0.007 C 
HETATM   47  C4  UNL     1      -4.602  48.620 -25.719  1.00  0.00    -0.089 C 
HETATM   48  C5  UNL     1      -4.275  48.222 -27.133  1.00  0.00     0.042 C 
HETATM   49  C6  UNL     1      -3.573  49.514 -25.076  1.00  0.00     0.042 C 
ENDBRANCH  43  46
ENDBRANCH  42  43
ENDBRANCH  40  42
ENDBRANCH   1  40
TORSDOF 12
ENDMDL
MODEL 4
REMARK minimizedAffinity -7.43173504
REMARK CNNscore 0.447201192
REMARK CNNaffinity 7.21059179
REMARK  12 active torsions:
REMARK  status: ('A' for Active; 'I' for Inactive)
REMARK    1  A    between atoms: O1_2  and  C2_3 
REMARK    2  A    between atoms: C2_3  and  C3_4 
REMARK    3  A    between atoms: C2_3  and  C7_8 
REMARK    4  A    between atoms: C7_8  and  C8_9 
REMARK    5  A    between atoms: C8_9  and  C10_11 
REMARK    6  A    between atoms: C28_30  and  O3_31 
REMARK    7  A    between atoms: O3_31  and  C29_32 
REMARK    8  A    between atoms: C30_34  and  C31_35 
REMARK    9  A    between atoms: C31_35  and  O5_36 
REMARK   10  A    between atoms: C32_37  and  O6_38 
REMARK   11  A    between atoms: C33_39  and  O7_40 
REMARK   12  A    between atoms: C34_41  and  O8_42 
ROOT
HETATM    1  C10 UNL     1       2.412  55.747  -6.938  1.00  0.00    -0.002 C 
HETATM    2  C11 UNL     1       1.384  56.922  -6.879  1.00  0.00     0.006 C 
HETATM    3  C12 UNL     1       0.292  56.649  -7.927  1.00  0.00     0.011 C 
HETATM    4  C13 UNL     1       0.488  55.174  -8.327  1.00  0.00    -0.029 C 
HETATM    5  C14 UNL     1      -0.232  54.337  -7.220  1.00  0.00     0.016 C 
HETATM    6  C15 UNL     1      -0.047  54.793  -9.743  1.00  0.00     0.028 C 
HETATM    7  C16 UNL     1      -1.549  54.972  -9.884  1.00  0.00    -0.021 C 
HETATM    8  C17 UNL     1      -2.325  54.026 -10.441  1.00  0.00     0.008 C 
HETATM    9  C18 UNL     1      -1.732  52.711 -10.941  1.00  0.00     0.092 C 
HETATM   10  O2  UNL     1      -1.005  53.101 -12.130  1.00  0.00    -0.374 OA
HETATM   11  C19 UNL     1       0.366  53.316 -11.777  1.00  0.00     0.179 C 
HETATM   12  C20 UNL     1       0.451  53.357 -10.232  1.00  0.00    -0.004 C 
HETATM   13  C21 UNL     1       1.905  53.018  -9.805  1.00  0.00     0.014 C 
HETATM   14  C22 UNL     1       2.404  53.575  -8.461  1.00  0.00     0.011 C 
HETATM   15  C23 UNL     1       2.059  55.065  -8.304  1.00  0.00    -0.032 C 
HETATM   16  C24 UNL     1       2.754  55.864  -9.453  1.00  0.00     0.016 C 
HETATM   17  C25 UNL     1      -0.641  52.305  -9.910  1.00  0.00     0.036 C 
HETATM   18  C26 UNL     1      -0.252  50.833 -10.014  1.00  0.00     0.011 C 
HETATM   19  C27 UNL     1      -1.460  49.915  -9.807  1.00  0.00     0.033 C 
HETATM   20  C28 UNL     1      -2.819  50.564 -10.119  1.00  0.00     0.136 C 
HETATM   21  C35 UNL     1      -2.737  51.551 -11.317  1.00  0.00     0.014 C 
HETATM   22  C36 UNL     1      -2.305  50.793 -12.609  1.00  0.00     0.021 C 
HETATM   23  C37 UNL     1      -4.158  52.080 -11.629  1.00  0.00     0.021 C 
ENDROOT
BRANCH  20  24
HETATM   24  O3  UNL     1      -3.784  49.545 -10.417  1.00  0.00    -0.352 OA
BRANCH  24  25
HETATM   25  C29 UNL     1      -4.729  49.295  -9.366  1.00  0.00     0.292 C 
HETATM   26  O4  UNL     1      -4.276  48.251  -8.509  1.00  0.00    -0.348 OA
HETATM   27  C30 UNL     1      -4.734  46.932  -8.836  1.00  0.00     0.179 C 
HETATM   28  C32 UNL     1      -6.276  46.842  -8.767  1.00  0.00     0.180 C 
HETATM   29  C33 UNL     1      -6.983  48.141  -9.186  1.00  0.00     0.183 C 
HETATM   30  C34 UNL     1      -6.100  49.034 -10.044  1.00  0.00     0.204 C 
BRANCH  27  31
HETATM   31  C31 UNL     1      -4.119  46.430 -10.157  1.00  0.00     0.198 C 
BRANCH  31  32
HETATM   32  O5  UNL     1      -4.788  45.273 -10.644  1.00  0.00    -0.398 OA
HETATM   33  H48 UNL     1      -4.256  44.924 -11.379  1.00  0.00     0.209 HD
ENDBRANCH  31  32
ENDBRANCH  27  31
BRANCH  28  34
HETATM   34  O6  UNL     1      -6.674  46.530  -7.416  1.00  0.00    -0.390 OA
HETATM   35  H50 UNL     1      -7.189  47.313  -7.116  1.00  0.00     0.210 HD
ENDBRANCH  28  34
BRANCH  29  36
HETATM   36  O7  UNL     1      -7.419  48.869  -8.014  1.00  0.00    -0.390 OA
HETATM   37  H52 UNL     1      -7.494  49.805  -8.300  1.00  0.00     0.210 HD
ENDBRANCH  29  36
BRANCH  30  38
HETATM   38  O8  UNL     1      -6.793  50.284 -10.255  1.00  0.00    -0.388 OA
HETATM   39  H54 UNL     1      -7.292  50.195 -11.088  1.00  0.00     0.210 HD
ENDBRANCH  30  38
ENDBRANCH  24  25
ENDBRANCH  20  24
BRANCH   1  40
HETATM   40  C8  UNL     1       3.869  56.250  -6.693  1.00  0.00    -0.011 C 
HETATM   41  C9  UNL     1       4.172  57.549  -7.447  1.00  0.00     0.010 C 
BRANCH  40  42
HETATM   42  C7  UNL     1       4.933  55.186  -7.093  1.00  0.00     0.040 C 
BRANCH  42  43
HETATM   43  C2  UNL     1       6.146  55.813  -7.819  1.00  0.00     0.144 C 
BRANCH  43  44
HETATM   44  O1  UNL     1       6.249  55.273  -9.135  1.00  0.00    -0.387 OA
HETATM   45  C1  UNL     1       6.593  53.894  -9.153  1.00  0.00     0.202 C 
ENDBRANCH  43  44
BRANCH  43  46
HETATM   46  C3  UNL     1       7.408  55.590  -7.015  1.00  0.00     0.007 C 
HETATM   47  C4  UNL     1       7.884  56.273  -5.951  1.00  0.00    -0.089 C 
HETATM   48  C5  UNL     1       7.253  57.504  -5.360  1.00  0.00     0.042 C 
HETATM   49  C6  UNL     1       9.148  55.834  -5.258  1.00  0.00     0.042 C 
ENDBRANCH  43  46
ENDBRANCH  42  43
ENDBRANCH  40  42
ENDBRANCH   1  40
TORSDOF 12
ENDMDL
MODEL 5
REMARK minimizedAffinity -7.87139082
REMARK CNNscore 0.357496887
REMARK CNNaffinity 7.0921936
REMARK  12 active torsions:
REMARK  status: ('A' for Active; 'I' for Inactive)
REMARK    1  A    between atoms: O1_2  and  C2_3 
REMARK    2  A    between atoms: C2_3  and  C3_4 
REMARK    3  A    between atoms: C2_3  and  C7_8 
REMARK    4  A    between atoms: C7_8  and  C8_9 
REMARK    5  A    between atoms: C8_9  and  C10_11 
REMARK    6  A    between atoms: C28_30  and  O3_31 
REMARK    7  A    between atoms: O3_31  and  C29_32 
REMARK    8  A    between atoms: C30_34  and  C31_35 
REMARK    9  A    between atoms: C31_35  and  O5_36 
REMARK   10  A    between atoms: C32_37  and  O6_38 
REMARK   11  A    between atoms: C33_39  and  O7_40 
REMARK   12  A    between atoms: C34_41  and  O8_42 
ROOT
HETATM    1  C10 UNL     1      -3.578  51.642 -23.101  1.00  0.00    -0.002 C 
HETATM    2  C11 UNL     1      -5.090  51.648 -23.499  1.00  0.00     0.006 C 
HETATM    3  C12 UNL     1      -5.710  50.324 -23.023  1.00  0.00     0.011 C 
HETATM    4  C13 UNL     1      -4.671  49.726 -22.055  1.00  0.00    -0.029 C 
HETATM    5  C14 UNL     1      -4.910  50.439 -20.685  1.00  0.00     0.016 C 
HETATM    6  C15 UNL     1      -4.734  48.175 -21.889  1.00  0.00     0.028 C 
HETATM    7  C16 UNL     1      -6.046  47.688 -21.299  1.00  0.00    -0.021 C 
HETATM    8  C17 UNL     1      -6.083  46.788 -20.302  1.00  0.00     0.008 C 
HETATM    9  C18 UNL     1      -4.799  46.225 -19.697  1.00  0.00     0.092 C 
HETATM   10  O2  UNL     1      -4.292  45.354 -20.736  1.00  0.00    -0.374 OA
HETATM   11  C19 UNL     1      -3.332  46.081 -21.513  1.00  0.00     0.179 C 
HETATM   12  C20 UNL     1      -3.460  47.576 -21.136  1.00  0.00    -0.004 C 
HETATM   13  C21 UNL     1      -2.128  48.292 -21.487  1.00  0.00     0.014 C 
HETATM   14  C22 UNL     1      -2.186  49.799 -21.798  1.00  0.00     0.011 C 
HETATM   15  C23 UNL     1      -3.328  50.130 -22.773  1.00  0.00    -0.032 C 
HETATM   16  C24 UNL     1      -3.083  49.364 -24.112  1.00  0.00     0.016 C 
HETATM   17  C25 UNL     1      -3.794  47.410 -19.631  1.00  0.00     0.036 C 
HETATM   18  C26 UNL     1      -2.631  47.142 -18.678  1.00  0.00     0.011 C 
HETATM   19  C27 UNL     1      -3.122  46.861 -17.255  1.00  0.00     0.033 C 
HETATM   20  C28 UNL     1      -4.565  46.335 -17.167  1.00  0.00     0.136 C 
HETATM   21  C35 UNL     1      -4.922  45.399 -18.357  1.00  0.00     0.014 C 
HETATM   22  C36 UNL     1      -3.995  44.146 -18.350  1.00  0.00     0.021 C 
HETATM   23  C37 UNL     1      -6.347  44.835 -18.140  1.00  0.00     0.021 C 
ENDROOT
BRANCH  20  24
HETATM   24  O3  UNL     1      -4.744  45.618 -15.937  1.00  0.00    -0.352 OA
BRANCH  24  25
HETATM   25  C29 UNL     1      -5.097  46.441 -14.816  1.00  0.00     0.292 C 
HETATM   26  O4  UNL     1      -4.129  46.332 -13.776  1.00  0.00    -0.348 OA
HETATM   27  C30 UNL     1      -4.404  45.349 -12.769  1.00  0.00     0.179 C 
HETATM   28  C32 UNL     1      -5.726  45.661 -12.030  1.00  0.00     0.180 C 
HETATM   29  C33 UNL     1      -6.790  46.311 -12.929  1.00  0.00     0.183 C 
HETATM   30  C34 UNL     1      -6.542  46.052 -14.406  1.00  0.00     0.204 C 
BRANCH  27  31
HETATM   31  C31 UNL     1      -4.304  43.917 -13.330  1.00  0.00     0.198 C 
BRANCH  31  32
HETATM   32  O5  UNL     1      -3.144  43.746 -14.135  1.00  0.00    -0.398 OA
HETATM   33  H48 UNL     1      -3.229  42.885 -14.577  1.00  0.00     0.209 HD
ENDBRANCH  31  32
ENDBRANCH  27  31
BRANCH  28  34
HETATM   34  O6  UNL     1      -5.457  46.556 -10.931  1.00  0.00    -0.390 OA
HETATM   35  H50 UNL     1      -5.948  47.381 -11.150  1.00  0.00     0.210 HD
ENDBRANCH  28  34
BRANCH  29  36
HETATM   36  O7  UNL     1      -6.839  47.737 -12.687  1.00  0.00    -0.390 OA
HETATM   37  H52 UNL     1      -7.213  48.129 -13.505  1.00  0.00     0.210 HD
ENDBRANCH  29  36
BRANCH  30  38
HETATM   38  O8  UNL     1      -7.497  46.824 -15.166  1.00  0.00    -0.388 OA
HETATM   39  H54 UNL     1      -8.267  46.247 -15.326  1.00  0.00     0.210 HD
ENDBRANCH  30  38
ENDBRANCH  24  25
ENDBRANCH  20  24
BRANCH   1  40
HETATM   40  C8  UNL     1      -2.700  52.341 -24.185  1.00  0.00    -0.011 C 
HETATM   41  C9  UNL     1      -3.295  52.207 -25.592  1.00  0.00     0.010 C 
BRANCH  40  42
HETATM   42  C7  UNL     1      -1.245  51.787 -24.209  1.00  0.00     0.040 C 
BRANCH  42  43
HETATM   43  C2  UNL     1      -0.189  52.914 -24.275  1.00  0.00     0.144 C 
BRANCH  43  44
HETATM   44  O1  UNL     1      -0.740  54.049 -24.939  1.00  0.00    -0.387 OA
HETATM   45  C1  UNL     1       0.155  54.648 -25.868  1.00  0.00     0.202 C 
ENDBRANCH  43  44
BRANCH  43  46
HETATM   46  C3  UNL     1       1.067  52.414 -24.956  1.00  0.00     0.007 C 
HETATM   47  C4  UNL     1       1.201  51.606 -26.030  1.00  0.00    -0.089 C 
HETATM   48  C5  UNL     1       0.066  50.950 -26.767  1.00  0.00     0.042 C 
HETATM   49  C6  UNL     1       2.565  51.282 -26.583  1.00  0.00     0.042 C 
ENDBRANCH  43  46
ENDBRANCH  42  43
ENDBRANCH  40  42
ENDBRANCH   1  40
TORSDOF 12
ENDMDL
MODEL 6
REMARK minimizedAffinity -8.14123726
REMARK CNNscore 0.356621832
REMARK CNNaffinity 7.14021492
REMARK  12 active torsions:
REMARK  status: ('A' for Active; 'I' for Inactive)
REMARK    1  A    between atoms: O1_2  and  C2_3 
REMARK    2  A    between atoms: C2_3  and  C3_4 
REMARK    3  A    between atoms: C2_3  and  C7_8 
REMARK    4  A    between atoms: C7_8  and  C8_9 
REMARK    5  A    between atoms: C8_9  and  C10_11 
REMARK    6  A    between atoms: C28_30  and  O3_31 
REMARK    7  A    between atoms: O3_31  and  C29_32 
REMARK    8  A    between atoms: C30_34  and  C31_35 
REMARK    9  A    between atoms: C31_35  and  O5_36 
REMARK   10  A    between atoms: C32_37  and  O6_38 
REMARK   11  A    between atoms: C33_39  and  O7_40 
REMARK   12  A    between atoms: C34_41  and  O8_42 
ROOT
HETATM    1  C10 UNL     1      -1.961  50.047 -23.192  1.00  0.00    -0.002 C 
HETATM    2  C11 UNL     1      -0.791  51.082 -23.209  1.00  0.00     0.006 C 
HETATM    3  C12 UNL     1      -0.553  51.552 -21.764  1.00  0.00     0.011 C 
HETATM    4  C13 UNL     1      -1.321  50.543 -20.889  1.00  0.00    -0.029 C 
HETATM    5  C14 UNL     1      -0.377  49.306 -20.742  1.00  0.00     0.016 C 
HETATM    6  C15 UNL     1      -1.756  51.075 -19.487  1.00  0.00     0.028 C 
HETATM    7  C16 UNL     1      -0.583  51.450 -18.598  1.00  0.00    -0.021 C 
HETATM    8  C17 UNL     1      -0.516  51.061 -17.313  1.00  0.00     0.008 C 
HETATM    9  C18 UNL     1      -1.613  50.200 -16.690  1.00  0.00     0.092 C 
HETATM   10  O2  UNL     1      -2.727  51.115 -16.566  1.00  0.00    -0.374 OA
HETATM   11  C19 UNL     1      -3.576  50.958 -17.709  1.00  0.00     0.179 C 
HETATM   12  C20 UNL     1      -2.804  50.119 -18.755  1.00  0.00    -0.004 C 
HETATM   13  C21 UNL     1      -3.829  49.457 -19.715  1.00  0.00     0.014 C 
HETATM   14  C22 UNL     1      -3.356  49.113 -21.139  1.00  0.00     0.011 C 
HETATM   15  C23 UNL     1      -2.595  50.286 -21.779  1.00  0.00    -0.032 C 
HETATM   16  C24 UNL     1      -3.553  51.517 -21.866  1.00  0.00     0.016 C 
HETATM   17  C25 UNL     1      -2.041  49.181 -17.784  1.00  0.00     0.036 C 
HETATM   18  C26 UNL     1      -2.805  47.990 -17.211  1.00  0.00     0.011 C 
HETATM   19  C27 UNL     1      -1.975  47.238 -16.167  1.00  0.00     0.033 C 
HETATM   20  C28 UNL     1      -0.880  48.081 -15.490  1.00  0.00     0.136 C 
HETATM   21  C35 UNL     1      -1.324  49.556 -15.277  1.00  0.00     0.014 C 
HETATM   22  C36 UNL     1      -2.566  49.613 -14.338  1.00  0.00     0.021 C 
HETATM   23  C37 UNL     1      -0.212  50.306 -14.503  1.00  0.00     0.021 C 
ENDROOT
BRANCH  20  24
HETATM   24  O3  UNL     1      -0.543  47.505 -14.220  1.00  0.00    -0.352 OA
BRANCH  24  25
HETATM   25  C29 UNL     1       0.866  47.406 -13.968  1.00  0.00     0.292 C 
HETATM   26  O4  UNL     1       1.458  46.383 -14.764  1.00  0.00    -0.348 OA
HETATM   27  C30 UNL     1       1.553  45.091 -14.150  1.00  0.00     0.179 C 
HETATM   28  C32 UNL     1       2.430  45.140 -12.877  1.00  0.00     0.180 C 
HETATM   29  C33 UNL     1       2.317  46.466 -12.108  1.00  0.00     0.183 C 
HETATM   30  C34 UNL     1       1.039  47.223 -12.436  1.00  0.00     0.204 C 
BRANCH  27  31
HETATM   31  C31 UNL     1       0.165  44.454 -13.950  1.00  0.00     0.198 C 
BRANCH  31  32
HETATM   32  O5  UNL     1      -0.572  44.399 -15.165  1.00  0.00    -0.398 OA
HETATM   33  H48 UNL     1      -1.480  44.139 -14.937  1.00  0.00     0.209 HD
ENDBRANCH  31  32
ENDBRANCH  27  31
BRANCH  28  34
HETATM   34  O6  UNL     1       3.812  44.951 -13.244  1.00  0.00    -0.390 OA
HETATM   35  H50 UNL     1       4.258  45.793 -12.999  1.00  0.00     0.210 HD
ENDBRANCH  28  34
BRANCH  29  36
HETATM   36  O7  UNL     1       3.463  47.303 -12.390  1.00  0.00    -0.390 OA
HETATM   37  H52 UNL     1       3.168  48.221 -12.212  1.00  0.00     0.210 HD
ENDBRANCH  29  36
BRANCH  30  38
HETATM   38  O8  UNL     1       1.099  48.512 -11.788  1.00  0.00    -0.388 OA
HETATM   39  H54 UNL     1       0.665  48.414 -10.920  1.00  0.00     0.210 HD
ENDBRANCH  30  38
ENDBRANCH  24  25
ENDBRANCH  20  24
BRANCH   1  40
HETATM   40  C8  UNL     1      -2.858  50.179 -24.461  1.00  0.00    -0.011 C 
HETATM   41  C9  UNL     1      -2.773  48.944 -25.366  1.00  0.00     0.010 C 
BRANCH  40  42
HETATM   42  C7  UNL     1      -2.499  51.437 -25.307  1.00  0.00     0.040 C 
BRANCH  42  43
HETATM   43  C2  UNL     1      -1.844  51.069 -26.658  1.00  0.00     0.144 C 
BRANCH  43  44
HETATM   44  O1  UNL     1      -2.538  49.970 -27.245  1.00  0.00    -0.387 OA
HETATM   45  C1  UNL     1      -3.372  50.347 -28.332  1.00  0.00     0.202 C 
ENDBRANCH  43  44
BRANCH  43  46
HETATM   46  C3  UNL     1      -0.373  50.770 -26.461  1.00  0.00     0.007 C 
HETATM   47  C4  UNL     1       0.708  51.382 -26.990  1.00  0.00    -0.089 C 
HETATM   48  C5  UNL     1       0.665  52.504 -27.990  1.00  0.00     0.042 C 
HETATM   49  C6  UNL     1       2.100  50.951 -26.604  1.00  0.00     0.042 C 
ENDBRANCH  43  46
ENDBRANCH  42  43
ENDBRANCH  40  42
ENDBRANCH   1  40
TORSDOF 12
ENDMDL
MODEL 7
REMARK minimizedAffinity -9.81682491
REMARK CNNscore 0.311618537
REMARK CNNaffinity 7.06559515
REMARK  12 active torsions:
REMARK  status: ('A' for Active; 'I' for Inactive)
REMARK    1  A    between atoms: O1_2  and  C2_3 
REMARK    2  A    between atoms: C2_3  and  C3_4 
REMARK    3  A    between atoms: C2_3  and  C7_8 
REMARK    4  A    between atoms: C7_8  and  C8_9 
REMARK    5  A    between atoms: C8_9  and  C10_11 
REMARK    6  A    between atoms: C28_30  and  O3_31 
REMARK    7  A    between atoms: O3_31  and  C29_32 
REMARK    8  A    between atoms: C30_34  and  C31_35 
REMARK    9  A    between atoms: C31_35  and  O5_36 
REMARK   10  A    between atoms: C32_37  and  O6_38 
REMARK   11  A    between atoms: C33_39  and  O7_40 
REMARK   12  A    between atoms: C34_41  and  O8_42 
ROOT
HETATM    1  C10 UNL     1      -0.983  50.045 -20.882  1.00  0.00    -0.002 C 
HETATM    2  C11 UNL     1      -0.394  48.598 -20.907  1.00  0.00     0.006 C 
HETATM    3  C12 UNL     1      -1.570  47.607 -20.886  1.00  0.00     0.011 C 
HETATM    4  C13 UNL     1      -2.811  48.461 -21.209  1.00  0.00    -0.029 C 
HETATM    5  C14 UNL     1      -2.835  48.602 -22.765  1.00  0.00     0.016 C 
HETATM    6  C15 UNL     1      -4.165  47.888 -20.685  1.00  0.00     0.028 C 
HETATM    7  C16 UNL     1      -4.525  46.545 -21.299  1.00  0.00    -0.021 C 
HETATM    8  C17 UNL     1      -5.757  46.292 -21.774  1.00  0.00     0.008 C 
HETATM    9  C18 UNL     1      -6.852  47.355 -21.739  1.00  0.00     0.092 C 
HETATM   10  O2  UNL     1      -7.192  47.441 -20.335  1.00  0.00    -0.374 OA
HETATM   11  C19 UNL     1      -6.450  48.518 -19.750  1.00  0.00     0.179 C 
HETATM   12  C20 UNL     1      -5.362  48.942 -20.765  1.00  0.00    -0.004 C 
HETATM   13  C21 UNL     1      -4.934  50.402 -20.453  1.00  0.00     0.014 C 
HETATM   14  C22 UNL     1      -3.515  50.834 -20.861  1.00  0.00     0.011 C 
HETATM   15  C23 UNL     1      -2.465  49.792 -20.441  1.00  0.00    -0.032 C 
HETATM   16  C24 UNL     1      -2.502  49.642 -18.887  1.00  0.00     0.016 C 
HETATM   17  C25 UNL     1      -6.158  48.706 -22.074  1.00  0.00     0.036 C 
HETATM   18  C26 UNL     1      -7.150  49.787 -22.499  1.00  0.00     0.011 C 
HETATM   19  C27 UNL     1      -7.960  49.358 -23.725  1.00  0.00     0.033 C 
HETATM   20  C28 UNL     1      -8.071  47.835 -23.918  1.00  0.00     0.136 C 
HETATM   21  C35 UNL     1      -8.170  47.077 -22.564  1.00  0.00     0.014 C 
HETATM   22  C36 UNL     1      -9.451  47.517 -21.795  1.00  0.00     0.021 C 
HETATM   23  C37 UNL     1      -8.380  45.570 -22.849  1.00  0.00     0.021 C 
ENDROOT
BRANCH  20  24
HETATM   24  O3  UNL     1      -9.229  47.532 -24.710  1.00  0.00    -0.352 OA
BRANCH  24  25
HETATM   25  C29 UNL     1      -9.358  48.323 -25.901  1.00  0.00     0.292 C 
HETATM   26  O4  UNL     1     -10.727  48.504 -26.249  1.00  0.00    -0.348 OA
HETATM   27  C30 UNL     1     -11.268  47.551 -27.174  1.00  0.00     0.179 C 
HETATM   28  C32 UNL     1     -10.520  47.599 -28.526  1.00  0.00     0.180 C 
HETATM   29  C33 UNL     1      -9.026  47.931 -28.387  1.00  0.00     0.183 C 
HETATM   30  C34 UNL     1      -8.492  47.640 -26.993  1.00  0.00     0.204 C 
BRANCH  27  31
HETATM   31  C31 UNL     1     -11.372  46.147 -26.547  1.00  0.00     0.198 C 
BRANCH  31  32
HETATM   32  O5  UNL     1     -11.529  45.137 -27.536  1.00  0.00    -0.398 OA
HETATM   33  H48 UNL     1     -11.745  44.313 -27.069  1.00  0.00     0.209 HD
ENDBRANCH  31  32
ENDBRANCH  27  31
BRANCH  28  34
HETATM   34  O6  UNL     1     -11.126  48.601 -29.369  1.00  0.00    -0.390 OA
HETATM   35  H50 UNL     1     -10.423  49.276 -29.506  1.00  0.00     0.210 HD
ENDBRANCH  28  34
BRANCH  29  36
HETATM   36  O7  UNL     1      -8.793  49.320 -28.717  1.00  0.00    -0.390 OA
HETATM   37  H52 UNL     1      -7.961  49.563 -28.258  1.00  0.00     0.210 HD
ENDBRANCH  29  36
BRANCH  30  38
HETATM   38  O8  UNL     1      -7.133  48.124 -26.921  1.00  0.00    -0.388 OA
HETATM   39  H54 UNL     1      -6.553  47.377 -27.158  1.00  0.00     0.210 HD
ENDBRANCH  30  38
ENDBRANCH  24  25
ENDBRANCH  20  24
BRANCH   1  40
HETATM   40  C8  UNL     1      -0.091  51.009 -20.040  1.00  0.00    -0.011 C 
HETATM   41  C9  UNL     1      -0.608  51.178 -18.607  1.00  0.00     0.010 C 
BRANCH  40  42
HETATM   42  C7  UNL     1       0.028  52.419 -20.691  1.00  0.00     0.040 C 
BRANCH  42  43
HETATM   43  C2  UNL     1       0.621  52.359 -22.117  1.00  0.00     0.144 C 
BRANCH  43  44
HETATM   44  O1  UNL     1       1.162  53.631 -22.467  1.00  0.00    -0.387 OA
HETATM   45  C1  UNL     1       1.570  54.398 -21.341  1.00  0.00     0.202 C 
ENDBRANCH  43  44
BRANCH  43  46
HETATM   46  C3  UNL     1      -0.433  51.901 -23.103  1.00  0.00     0.007 C 
HETATM   47  C4  UNL     1      -0.341  51.716 -24.437  1.00  0.00    -0.089 C 
HETATM   48  C5  UNL     1       0.876  52.009 -25.271  1.00  0.00     0.042 C 
HETATM   49  C6  UNL     1      -1.515  51.190 -25.222  1.00  0.00     0.042 C 
ENDBRANCH  43  46
ENDBRANCH  42  43
ENDBRANCH  40  42
ENDBRANCH   1  40
TORSDOF 12
ENDMDL
MODEL 8
REMARK minimizedAffinity -9.20687294
REMARK CNNscore 0.305193663
REMARK CNNaffinity 6.98514175
REMARK  12 active torsions:
REMARK  status: ('A' for Active; 'I' for Inactive)
REMARK    1  A    between atoms: O1_2  and  C2_3 
REMARK    2  A    between atoms: C2_3  and  C3_4 
REMARK    3  A    between atoms: C2_3  and  C7_8 
REMARK    4  A    between atoms: C7_8  and  C8_9 
REMARK    5  A    between atoms: C8_9  and  C10_11 
REMARK    6  A    between atoms: C28_30  and  O3_31 
REMARK    7  A    between atoms: O3_31  and  C29_32 
REMARK    8  A    between atoms: C30_34  and  C31_35 
REMARK    9  A    between atoms: C31_35  and  O5_36 
REMARK   10  A    between atoms: C32_37  and  O6_38 
REMARK   11  A    between atoms: C33_39  and  O7_40 
REMARK   12  A    between atoms: C34_41  and  O8_42 
ROOT
HETATM    1  C10 UNL     1      -0.879  50.453 -20.926  1.00  0.00    -0.002 C 
HETATM    2  C11 UNL     1      -0.143  49.093 -20.705  1.00  0.00     0.006 C 
HETATM    3  C12 UNL     1      -1.211  47.993 -20.574  1.00  0.00     0.011 C 
HETATM    4  C13 UNL     1      -2.515  48.647 -21.070  1.00  0.00    -0.029 C 
HETATM    5  C14 UNL     1      -2.469  48.549 -22.630  1.00  0.00     0.016 C 
HETATM    6  C15 UNL     1      -3.828  48.013 -20.515  1.00  0.00     0.028 C 
HETATM    7  C16 UNL     1      -4.014  46.562 -20.926  1.00  0.00    -0.021 C 
HETATM    8  C17 UNL     1      -5.186  46.106 -21.401  1.00  0.00     0.008 C 
HETATM    9  C18 UNL     1      -6.386  47.036 -21.572  1.00  0.00     0.092 C 
HETATM   10  O2  UNL     1      -6.807  47.294 -20.211  1.00  0.00    -0.374 OA
HETATM   11  C19 UNL     1      -6.213  48.521 -19.774  1.00  0.00     0.179 C 
HETATM   12  C20 UNL     1      -5.121  48.906 -20.802  1.00  0.00    -0.004 C 
HETATM   13  C21 UNL     1      -4.864  50.434 -20.705  1.00  0.00     0.014 C 
HETATM   14  C22 UNL     1      -3.476  50.953 -21.122  1.00  0.00     0.011 C 
HETATM   15  C23 UNL     1      -2.349  50.108 -20.506  1.00  0.00    -0.032 C 
HETATM   16  C24 UNL     1      -2.454  50.190 -18.950  1.00  0.00     0.016 C 
HETATM   17  C25 UNL     1      -5.818  48.389 -22.087  1.00  0.00     0.036 C 
HETATM   18  C26 UNL     1      -6.891  49.278 -22.710  1.00  0.00     0.011 C 
HETATM   19  C27 UNL     1      -7.587  48.582 -23.884  1.00  0.00     0.033 C 
HETATM   20  C28 UNL     1      -7.530  47.046 -23.843  1.00  0.00     0.136 C 
HETATM   21  C35 UNL     1      -7.621  46.493 -22.392  1.00  0.00     0.014 C 
HETATM   22  C36 UNL     1      -8.981  46.900 -21.748  1.00  0.00     0.021 C 
HETATM   23  C37 UNL     1      -7.660  44.946 -22.447  1.00  0.00     0.021 C 
ENDROOT
BRANCH  20  24
HETATM   24  O3  UNL     1      -8.606  46.501 -24.621  1.00  0.00    -0.352 OA
BRANCH  24  25
HETATM   25  C29 UNL     1      -9.639  47.442 -24.946  1.00  0.00     0.292 C 
HETATM   26  O4  UNL     1     -10.868  47.091 -24.317  1.00  0.00    -0.348 OA
HETATM   27  C30 UNL     1     -11.760  46.284 -25.096  1.00  0.00     0.179 C 
HETATM   28  C32 UNL     1     -12.189  47.015 -26.389  1.00  0.00     0.180 C 
HETATM   29  C33 UNL     1     -11.090  47.917 -26.975  1.00  0.00     0.183 C 
HETATM   30  C34 UNL     1      -9.701  47.528 -26.495  1.00  0.00     0.204 C 
BRANCH  27  31
HETATM   31  C31 UNL     1     -11.199  44.866 -25.315  1.00  0.00     0.198 C 
BRANCH  31  32
HETATM   32  O5  UNL     1     -12.066  43.868 -24.789  1.00  0.00    -0.398 OA
HETATM   33  H48 UNL     1     -11.582  43.026 -24.819  1.00  0.00     0.209 HD
ENDBRANCH  31  32
ENDBRANCH  27  31
BRANCH  28  34
HETATM   34  O6  UNL     1     -13.343  47.836 -26.112  1.00  0.00    -0.390 OA
HETATM   35  H50 UNL     1     -13.040  48.759 -26.266  1.00  0.00     0.210 HD
ENDBRANCH  28  34
BRANCH  29  36
HETATM   36  O7  UNL     1     -11.351  49.300 -26.639  1.00  0.00    -0.390 OA
HETATM   37  H52 UNL     1     -10.481  49.749 -26.683  1.00  0.00     0.210 HD
ENDBRANCH  29  36
BRANCH  30  38
HETATM   38  O8  UNL     1      -8.765  48.518 -26.973  1.00  0.00    -0.388 OA
HETATM   39  H54 UNL     1      -8.420  48.195 -27.826  1.00  0.00     0.210 HD
ENDBRANCH  30  38
ENDBRANCH  24  25
ENDBRANCH  20  24
BRANCH   1  40
HETATM   40  C8  UNL     1      -0.138  51.626 -20.211  1.00  0.00    -0.011 C 
HETATM   41  C9  UNL     1      -0.737  51.940 -18.836  1.00  0.00     0.010 C 
BRANCH  40  42
HETATM   42  C7  UNL     1      -0.143  52.930 -21.062  1.00  0.00     0.040 C 
BRANCH  42  43
HETATM   43  C2  UNL     1       0.090  52.652 -22.565  1.00  0.00     0.144 C 
BRANCH  43  44
HETATM   44  O1  UNL     1       0.960  53.644 -23.107  1.00  0.00    -0.387 OA
HETATM   45  C1  UNL     1       1.488  54.527 -22.126  1.00  0.00     0.202 C 
ENDBRANCH  43  44
BRANCH  43  46
HETATM   46  C3  UNL     1      -1.233  52.597 -23.298  1.00  0.00     0.007 C 
HETATM   47  C4  UNL     1      -1.583  51.883 -24.389  1.00  0.00    -0.089 C 
HETATM   48  C5  UNL     1      -0.657  51.001 -25.181  1.00  0.00     0.042 C 
HETATM   49  C6  UNL     1      -2.992  51.934 -24.921  1.00  0.00     0.042 C 
ENDBRANCH  43  46
ENDBRANCH  42  43
ENDBRANCH  40  42
ENDBRANCH   1  40
TORSDOF 12
ENDMDL
MODEL 9
REMARK minimizedAffinity -7.68191481
REMARK CNNscore 0.274391383
REMARK CNNaffinity 6.33992147
REMARK  12 active torsions:
REMARK  status: ('A' for Active; 'I' for Inactive)
REMARK    1  A    between atoms: O1_2  and  C2_3 
REMARK    2  A    between atoms: C2_3  and  C3_4 
REMARK    3  A    between atoms: C2_3  and  C7_8 
REMARK    4  A    between atoms: C7_8  and  C8_9 
REMARK    5  A    between atoms: C8_9  and  C10_11 
REMARK    6  A    between atoms: C28_30  and  O3_31 
REMARK    7  A    between atoms: O3_31  and  C29_32 
REMARK    8  A    between atoms: C30_34  and  C31_35 
REMARK    9  A    between atoms: C31_35  and  O5_36 
REMARK   10  A    between atoms: C32_37  and  O6_38 
REMARK   11  A    between atoms: C33_39  and  O7_40 
REMARK   12  A    between atoms: C34_41  and  O8_42 
ROOT
HETATM    1  C10 UNL     1      -9.777  47.017 -28.003  1.00  0.00    -0.002 C 
HETATM    2  C11 UNL     1      -8.734  48.156 -28.239  1.00  0.00     0.006 C 
HETATM    3  C12 UNL     1      -8.190  48.013 -29.670  1.00  0.00     0.011 C 
HETATM    4  C13 UNL     1      -9.161  47.038 -30.365  1.00  0.00    -0.029 C 
HETATM    5  C14 UNL     1     -10.382  47.905 -30.814  1.00  0.00     0.016 C 
HETATM    6  C15 UNL     1      -8.562  46.257 -31.577  1.00  0.00     0.028 C 
HETATM    7  C16 UNL     1      -8.134  47.161 -32.720  1.00  0.00    -0.021 C 
HETATM    8  C17 UNL     1      -8.458  46.889 -33.996  1.00  0.00     0.008 C 
HETATM    9  C18 UNL     1      -9.295  45.664 -34.356  1.00  0.00     0.092 C 
HETATM   10  O2  UNL     1      -8.385  44.560 -34.140  1.00  0.00    -0.374 OA
HETATM   11  C19 UNL     1      -8.605  44.036 -32.825  1.00  0.00     0.179 C 
HETATM   12  C20 UNL     1      -9.489  45.049 -32.059  1.00  0.00    -0.004 C 
HETATM   13  C21 UNL     1     -10.207  44.306 -30.900  1.00  0.00     0.014 C 
HETATM   14  C22 UNL     1     -10.617  45.131 -29.668  1.00  0.00     0.011 C 
HETATM   15  C23 UNL     1      -9.472  46.038 -29.188  1.00  0.00    -0.032 C 
HETATM   16  C24 UNL     1      -8.254  45.143 -28.794  1.00  0.00     0.016 C 
HETATM   17  C25 UNL     1     -10.371  45.529 -33.241  1.00  0.00     0.036 C 
HETATM   18  C26 UNL     1     -11.539  44.637 -33.655  1.00  0.00     0.011 C 
HETATM   19  C27 UNL     1     -12.231  45.162 -34.915  1.00  0.00     0.033 C 
HETATM   20  C28 UNL     1     -11.346  46.048 -35.810  1.00  0.00     0.136 C 
HETATM   21  C35 UNL     1      -9.865  45.572 -35.826  1.00  0.00     0.014 C 
HETATM   22  C36 UNL     1      -9.772  44.128 -36.406  1.00  0.00     0.021 C 
HETATM   23  C37 UNL     1      -9.069  46.449 -36.823  1.00  0.00     0.021 C 
ENDROOT
BRANCH  20  24
HETATM   24  O3  UNL     1     -11.855  46.040 -37.151  1.00  0.00    -0.352 OA
BRANCH  24  25
HETATM   25  C29 UNL     1     -11.684  47.277 -37.859  1.00  0.00     0.292 C 
HETATM   26  O4  UNL     1     -12.298  48.356 -37.160  1.00  0.00    -0.348 OA
HETATM   27  C30 UNL     1     -13.645  48.661 -37.543  1.00  0.00     0.179 C 
HETATM   28  C32 UNL     1     -13.723  49.075 -39.031  1.00  0.00     0.180 C 
HETATM   29  C33 UNL     1     -12.706  48.345 -39.923  1.00  0.00     0.183 C 
HETATM   30  C34 UNL     1     -12.211  47.049 -39.301  1.00  0.00     0.204 C 
BRANCH  27  31
HETATM   31  C31 UNL     1     -14.619  47.538 -37.137  1.00  0.00     0.198 C 
BRANCH  31  32
HETATM   32  O5  UNL     1     -15.951  47.818 -37.550  1.00  0.00    -0.398 OA
HETATM   33  H48 UNL     1     -16.525  47.158 -37.128  1.00  0.00     0.209 HD
ENDBRANCH  31  32
ENDBRANCH  27  31
BRANCH  28  34
HETATM   34  O6  UNL     1     -13.483  50.493 -39.143  1.00  0.00    -0.390 OA
HETATM   35  H50 UNL     1     -12.653  50.569 -39.665  1.00  0.00     0.210 HD
ENDBRANCH  28  34
BRANCH  29  36
HETATM   36  O7  UNL     1     -11.581  49.211 -40.203  1.00  0.00    -0.390 OA
HETATM   37  H52 UNL     1     -10.835  48.611 -40.418  1.00  0.00     0.210 HD
ENDBRANCH  29  36
BRANCH  30  38
HETATM   38  O8  UNL     1     -11.157  46.523 -40.136  1.00  0.00    -0.388 OA
HETATM   39  H54 UNL     1     -11.574  45.909 -40.768  1.00  0.00     0.210 HD
ENDBRANCH  30  38
ENDBRANCH  24  25
ENDBRANCH  20  24
BRANCH   1  40
HETATM   40  C8  UNL     1      -9.715  46.481 -26.539  1.00  0.00    -0.011 C 
HETATM   41  C9  UNL     1     -11.067  45.941 -26.059  1.00  0.00     0.010 C 
BRANCH  40  42
HETATM   42  C7  UNL     1      -9.233  47.569 -25.534  1.00  0.00     0.040 C 
BRANCH  42  43
HETATM   43  C2  UNL     1      -7.918  47.172 -24.825  1.00  0.00     0.144 C 
BRANCH  43  44
HETATM   44  O1  UNL     1      -6.805  47.694 -25.549  1.00  0.00    -0.387 OA
HETATM   45  C1  UNL     1      -5.833  48.313 -24.717  1.00  0.00     0.202 C 
ENDBRANCH  43  44
BRANCH  43  46
HETATM   46  C3  UNL     1      -7.840  45.668 -24.673  1.00  0.00     0.007 C 
HETATM   47  C4  UNL     1      -8.109  44.896 -23.598  1.00  0.00    -0.089 C 
HETATM   48  C5  UNL     1      -8.499  45.409 -22.239  1.00  0.00     0.042 C 
HETATM   49  C6  UNL     1      -8.022  43.395 -23.690  1.00  0.00     0.042 C 
ENDBRANCH  43  46
ENDBRANCH  42  43
ENDBRANCH  40  42
ENDBRANCH   1  40
TORSDOF 12
ENDMDL
