MODEL 1
REMARK minimizedAffinity -9.06810665
REMARK CNNscore 0.738929272
REMARK CNNaffinity 7.43481684
REMARK  14 active torsions:
REMARK  status: ('A' for Active; 'I' for Inactive)
REMARK    1  A    between atoms: C19_20  and  O2_21 
REMARK    2  A    between atoms: C19_20  and  C20_22 
REMARK    3  A    between atoms: C20_22  and  C21_24 
REMARK    4  A    between atoms: C21_24  and  O4_25 
REMARK    5  A    between atoms: O4_25  and  C22_26 
REMARK    6  A    between atoms: C22_26  and  C23_28 
REMARK    7  A    between atoms: C23_28  and  C24_29 
REMARK    8  A    between atoms: C24_29  and  C25_30 
REMARK       I    between atoms: C25_30  and  N1_32 
REMARK    9  A    between atoms: N1_32  and  C26_33 
REMARK   10  A    between atoms: C26_33  and  C27_34 
REMARK   11  A    between atoms: C27_34  and  C28_35 
REMARK   12  A    between atoms: C27_34  and  C30_39 
REMARK   13  A    between atoms: C28_35  and  C29_36 
REMARK   14  A    between atoms: C29_36  and  O8_38 
ROOT
HETATM    1  C20 UNL     1      -1.985  50.732 -18.248  1.00  0.00     0.185 C 
HETATM    2  O3  UNL     1      -2.750  51.670 -18.006  1.00  0.00    -0.292 OA
ENDROOT
BRANCH   1   3
HETATM    3  C19 UNL     1      -2.030  49.990 -19.601  1.00  0.00     0.128 C 
HETATM    4  C14 UNL     1      -3.397  49.328 -19.999  1.00  0.00    -0.002 C 
HETATM    5  C13 UNL     1      -4.445  50.304 -20.575  1.00  0.00     0.013 C 
HETATM    6  C15 UNL     1      -4.042  48.630 -18.769  1.00  0.00     0.019 C 
HETATM    7  C16 UNL     1      -3.012  48.196 -21.015  1.00  0.00     0.002 C 
HETATM    8  C12 UNL     1      -4.281  50.758 -22.030  1.00  0.00     0.007 C 
HETATM    9  C11 UNL     1      -3.415  49.853 -22.929  1.00  0.00     0.002 C 
HETATM   10  C2  UNL     1      -3.684  49.969 -24.486  1.00  0.00    -0.016 C 
HETATM   11  C10 UNL     1      -3.507  48.383 -22.467  1.00  0.00    -0.004 C 
HETATM   12  C1  UNL     1      -4.257  51.352 -24.875  1.00  0.00     0.020 C 
HETATM   13  C3  UNL     1      -2.325  49.772 -25.221  1.00  0.00     0.022 C 
HETATM   14  C7  UNL     1      -4.639  48.868 -24.952  1.00  0.00    -0.068 C 
HETATM   15  C4  UNL     1      -2.458  49.677 -26.738  1.00  0.00     0.084 C 
HETATM   16  C5  UNL     1      -3.523  48.688 -27.150  1.00  0.00     0.149 C 
HETATM   17  O1  UNL     1      -3.573  48.227 -28.289  1.00  0.00    -0.293 OA
HETATM   18  C6  UNL     1      -4.557  48.292 -26.165  1.00  0.00     0.053 C 
HETATM   19  C8  UNL     1      -5.636  48.383 -23.930  1.00  0.00     0.035 C 
HETATM   20  C9  UNL     1      -4.931  47.821 -22.685  1.00  0.00     0.010 C 
HETATM   21  C17 UNL     1      -1.476  48.091 -20.961  1.00  0.00     0.009 C 
HETATM   22  C18 UNL     1      -1.046  48.823 -19.701  1.00  0.00     0.047 C 
BRANCH   3  23
HETATM   23  O2  UNL     1      -1.616  50.976 -20.558  1.00  0.00    -0.381 OA
HETATM   24  H27 UNL     1      -2.254  51.712 -20.497  1.00  0.00     0.211 HD
ENDBRANCH   3  23
ENDBRANCH   1   3
BRANCH   1  25
HETATM   25  C21 UNL     1      -0.804  50.428 -17.314  1.00  0.00     0.260 C 
BRANCH  25  26
HETATM   26  O4  UNL     1       0.472  50.774 -17.845  1.00  0.00    -0.314 OA
BRANCH  26  27
HETATM   27  C22 UNL     1       0.764  52.102 -17.760  1.00  0.00     0.259 C 
HETATM   28  O5  UNL     1       0.686  52.884 -18.698  1.00  0.00    -0.265 OA
BRANCH  27  29
HETATM   29  C23 UNL     1       1.097  52.516 -16.349  1.00  0.00     0.120 C 
BRANCH  29  30
HETATM   30  C24 UNL     1       2.434  51.977 -15.851  1.00  0.00     0.112 C 
BRANCH  30  31
HETATM   31  C25 UNL     1       2.294  51.317 -14.496  1.00  0.00     0.218 C 
HETATM   32  O6  UNL     1       2.215  50.102 -14.339  1.00  0.00    -0.274 OA
HETATM   33  N1  UNL     1       2.275  52.222 -13.455  1.00  0.00    -0.360 N 
HETATM   34  H34 UNL     1       2.583  53.170 -13.633  1.00  0.00     0.162 HD
BRANCH  33  35
HETATM   35  C26 UNL     1       2.256  51.777 -12.069  1.00  0.00     0.132 C 
BRANCH  35  36
HETATM   36  C27 UNL     1       1.647  52.830 -11.113  1.00  0.00     0.046 C 
BRANCH  36  37
HETATM   37  C28 UNL     1       0.444  53.538 -11.751  1.00  0.00     0.120 C 
BRANCH  37  38
HETATM   38  C29 UNL     1      -0.798  53.336 -10.937  1.00  0.00     0.140 C 
HETATM   39  O7  UNL     1      -0.840  53.189  -9.728  1.00  0.00    -0.650 OA
BRANCH  38  40
HETATM   40  O8  UNL     1      -1.918  53.350 -11.678  1.00  0.00    -0.776 OA
HETATM   41  H40 UNL     1      -2.645  53.258 -11.026  1.00  0.00     0.167 HD
ENDBRANCH  38  40
ENDBRANCH  37  38
ENDBRANCH  36  37
BRANCH  36  42
HETATM   42  C30 UNL     1       2.682  53.862 -10.673  1.00  0.00    -0.052 A 
HETATM   43  C31 UNL     1       3.953  53.484 -10.211  1.00  0.00     0.007 A 
HETATM   44  C32 UNL     1       4.882  54.449  -9.818  1.00  0.00     0.001 A 
HETATM   45  C33 UNL     1       4.553  55.801  -9.881  1.00  0.00     0.000 A 
HETATM   46  C34 UNL     1       3.298  56.190 -10.343  1.00  0.00     0.001 A 
HETATM   47  C35 UNL     1       2.367  55.227 -10.735  1.00  0.00     0.007 A 
ENDBRANCH  36  42
ENDBRANCH  35  36
ENDBRANCH  33  35
ENDBRANCH  30  31
ENDBRANCH  29  30
ENDBRANCH  27  29
ENDBRANCH  26  27
ENDBRANCH  25  26
ENDBRANCH   1  25
TORSDOF 14
ENDMDL
MODEL 2
REMARK minimizedAffinity -9.16888523
REMARK CNNscore 0.646402001
REMARK CNNaffinity 7.33023119
REMARK  14 active torsions:
REMARK  status: ('A' for Active; 'I' for Inactive)
REMARK    1  A    between atoms: C19_20  and  O2_21 
REMARK    2  A    between atoms: C19_20  and  C20_22 
REMARK    3  A    between atoms: C20_22  and  C21_24 
REMARK    4  A    between atoms: C21_24  and  O4_25 
REMARK    5  A    between atoms: O4_25  and  C22_26 
REMARK    6  A    between atoms: C22_26  and  C23_28 
REMARK    7  A    between atoms: C23_28  and  C24_29 
REMARK    8  A    between atoms: C24_29  and  C25_30 
REMARK       I    between atoms: C25_30  and  N1_32 
REMARK    9  A    between atoms: N1_32  and  C26_33 
REMARK   10  A    between atoms: C26_33  and  C27_34 
REMARK   11  A    between atoms: C27_34  and  C28_35 
REMARK   12  A    between atoms: C27_34  and  C30_39 
REMARK   13  A    between atoms: C28_35  and  C29_36 
REMARK   14  A    between atoms: C29_36  and  O8_38 
ROOT
HETATM    1  C20 UNL     1      -1.381  51.039 -18.497  1.00  0.00     0.185 C 
HETATM    2  O3  UNL     1      -2.263  51.814 -18.116  1.00  0.00    -0.292 OA
ENDROOT
BRANCH   1   3
HETATM    3  C19 UNL     1      -1.520  50.256 -19.820  1.00  0.00     0.128 C 
HETATM    4  C14 UNL     1      -2.907  49.573 -20.095  1.00  0.00    -0.002 C 
HETATM    5  C13 UNL     1      -4.004  50.523 -20.620  1.00  0.00     0.013 C 
HETATM    6  C15 UNL     1      -3.453  48.909 -18.800  1.00  0.00     0.019 C 
HETATM    7  C16 UNL     1      -2.589  48.413 -21.103  1.00  0.00     0.002 C 
HETATM    8  C12 UNL     1      -3.952  50.934 -22.097  1.00  0.00     0.007 C 
HETATM    9  C11 UNL     1      -3.148  50.007 -23.030  1.00  0.00     0.002 C 
HETATM   10  C2  UNL     1      -3.533  50.074 -24.565  1.00  0.00    -0.016 C 
HETATM   11  C10 UNL     1      -3.192  48.552 -22.519  1.00  0.00    -0.004 C 
HETATM   12  C1  UNL     1      -4.145  51.441 -24.952  1.00  0.00     0.020 C 
HETATM   13  C3  UNL     1      -2.230  49.864 -25.393  1.00  0.00     0.022 C 
HETATM   14  C7  UNL     1      -4.510  48.953 -24.925  1.00  0.00    -0.068 C 
HETATM   15  C4  UNL     1      -2.475  49.721 -26.893  1.00  0.00     0.084 C 
HETATM   16  C5  UNL     1      -3.559  48.713 -27.194  1.00  0.00     0.149 C 
HETATM   17  O1  UNL     1      -3.689  48.216 -28.312  1.00  0.00    -0.293 OA
HETATM   18  C6  UNL     1      -4.513  48.341 -26.124  1.00  0.00     0.053 C 
HETATM   19  C8  UNL     1      -5.423  48.493 -23.818  1.00  0.00     0.035 C 
HETATM   20  C9  UNL     1      -4.623  47.974 -22.613  1.00  0.00     0.010 C 
HETATM   21  C17 UNL     1      -1.052  48.319 -21.160  1.00  0.00     0.009 C 
HETATM   22  C18 UNL     1      -0.536  49.093 -19.958  1.00  0.00     0.047 C 
BRANCH   3  23
HETATM   23  O2  UNL     1      -1.188  51.214 -20.834  1.00  0.00    -0.381 OA
HETATM   24  H27 UNL     1      -1.825  51.948 -20.748  1.00  0.00     0.211 HD
ENDBRANCH   3  23
ENDBRANCH   1   3
BRANCH   1  25
HETATM   25  C21 UNL     1      -0.013  51.010 -17.799  1.00  0.00     0.260 C 
BRANCH  25  26
HETATM   26  O4  UNL     1       0.119  51.935 -16.722  1.00  0.00    -0.314 OA
BRANCH  26  27
HETATM   27  C22 UNL     1       1.372  51.991 -16.192  1.00  0.00     0.259 C 
HETATM   28  O5  UNL     1       2.351  52.423 -16.786  1.00  0.00    -0.265 OA
BRANCH  27  29
HETATM   29  C23 UNL     1       1.393  51.552 -14.750  1.00  0.00     0.120 C 
BRANCH  29  30
HETATM   30  C24 UNL     1       0.258  52.134 -13.915  1.00  0.00     0.112 C 
BRANCH  30  31
HETATM   31  C25 UNL     1       0.734  52.530 -12.534  1.00  0.00     0.218 C 
HETATM   32  O6  UNL     1       1.622  51.939 -11.926  1.00  0.00    -0.274 OA
HETATM   33  N1  UNL     1       0.074  53.633 -12.033  1.00  0.00    -0.360 N 
HETATM   34  H34 UNL     1      -0.463  54.207 -12.672  1.00  0.00     0.162 HD
BRANCH  33  35
HETATM   35  C26 UNL     1       0.463  54.235 -10.765  1.00  0.00     0.132 C 
BRANCH  35  36
HETATM   36  C27 UNL     1      -0.752  54.640  -9.898  1.00  0.00     0.046 C 
BRANCH  36  37
HETATM   37  C28 UNL     1      -0.368  54.759  -8.417  1.00  0.00     0.120 C 
BRANCH  37  38
HETATM   38  C29 UNL     1       0.078  56.151  -8.083  1.00  0.00     0.140 C 
HETATM   39  O7  UNL     1      -0.656  57.093  -7.839  1.00  0.00    -0.650 OA
BRANCH  38  40
HETATM   40  O8  UNL     1       1.415  56.280  -8.053  1.00  0.00    -0.776 OA
HETATM   41  H40 UNL     1       1.565  57.210  -7.780  1.00  0.00     0.167 HD
ENDBRANCH  38  40
ENDBRANCH  37  38
ENDBRANCH  36  37
BRANCH  36  42
HETATM   42  C30 UNL     1      -1.911  53.660 -10.055  1.00  0.00    -0.052 A 
HETATM   43  C31 UNL     1      -1.853  52.356  -9.537  1.00  0.00     0.007 A 
HETATM   44  C32 UNL     1      -2.930  51.482  -9.692  1.00  0.00     0.001 A 
HETATM   45  C33 UNL     1      -4.076  51.897 -10.367  1.00  0.00     0.000 A 
HETATM   46  C34 UNL     1      -4.149  53.190 -10.881  1.00  0.00     0.001 A 
HETATM   47  C35 UNL     1      -3.073  54.066 -10.728  1.00  0.00     0.007 A 
ENDBRANCH  36  42
ENDBRANCH  35  36
ENDBRANCH  33  35
ENDBRANCH  30  31
ENDBRANCH  29  30
ENDBRANCH  27  29
ENDBRANCH  26  27
ENDBRANCH  25  26
ENDBRANCH   1  25
TORSDOF 14
ENDMDL
MODEL 3
REMARK minimizedAffinity -8.72550392
REMARK CNNscore 0.527693033
REMARK CNNaffinity 6.62715483
REMARK  14 active torsions:
REMARK  status: ('A' for Active; 'I' for Inactive)
REMARK    1  A    between atoms: C19_20  and  O2_21 
REMARK    2  A    between atoms: C19_20  and  C20_22 
REMARK    3  A    between atoms: C20_22  and  C21_24 
REMARK    4  A    between atoms: C21_24  and  O4_25 
REMARK    5  A    between atoms: O4_25  and  C22_26 
REMARK    6  A    between atoms: C22_26  and  C23_28 
REMARK    7  A    between atoms: C23_28  and  C24_29 
REMARK    8  A    between atoms: C24_29  and  C25_30 
REMARK       I    between atoms: C25_30  and  N1_32 
REMARK    9  A    between atoms: N1_32  and  C26_33 
REMARK   10  A    between atoms: C26_33  and  C27_34 
REMARK   11  A    between atoms: C27_34  and  C28_35 
REMARK   12  A    between atoms: C27_34  and  C30_39 
REMARK   13  A    between atoms: C28_35  and  C29_36 
REMARK   14  A    between atoms: C29_36  and  O8_38 
ROOT
HETATM    1  C20 UNL     1      -1.901  50.651 -17.408  1.00  0.00     0.185 C 
HETATM    2  O3  UNL     1      -2.916  51.175 -16.940  1.00  0.00    -0.292 OA
ENDROOT
BRANCH   1   3
HETATM    3  C19 UNL     1      -1.658  50.596 -18.931  1.00  0.00     0.128 C 
HETATM    4  C14 UNL     1      -2.232  49.349 -19.694  1.00  0.00    -0.002 C 
HETATM    5  C13 UNL     1      -3.742  49.421 -20.006  1.00  0.00     0.013 C 
HETATM    6  C15 UNL     1      -1.991  48.051 -18.874  1.00  0.00     0.019 C 
HETATM    7  C16 UNL     1      -1.358  49.237 -20.992  1.00  0.00     0.002 C 
HETATM    8  C12 UNL     1      -4.193  50.303 -21.176  1.00  0.00     0.007 C 
HETATM    9  C11 UNL     1      -3.117  50.633 -22.230  1.00  0.00     0.002 C 
HETATM   10  C2  UNL     1      -3.657  51.030 -23.665  1.00  0.00    -0.016 C 
HETATM   11  C10 UNL     1      -2.088  49.487 -22.331  1.00  0.00    -0.004 C 
HETATM   12  C1  UNL     1      -5.080  51.632 -23.604  1.00  0.00     0.020 C 
HETATM   13  C3  UNL     1      -2.693  52.101 -24.258  1.00  0.00     0.022 C 
HETATM   14  C7  UNL     1      -3.651  49.818 -24.598  1.00  0.00    -0.068 C 
HETATM   15  C4  UNL     1      -2.985  52.446 -25.715  1.00  0.00     0.084 C 
HETATM   16  C5  UNL     1      -3.124  51.210 -26.571  1.00  0.00     0.149 C 
HETATM   17  O1  UNL     1      -3.040  51.258 -27.798  1.00  0.00    -0.293 OA
HETATM   18  C6  UNL     1      -3.408  49.911 -25.918  1.00  0.00     0.053 C 
HETATM   19  C8  UNL     1      -3.840  48.476 -23.938  1.00  0.00     0.035 C 
HETATM   20  C9  UNL     1      -2.740  48.205 -22.898  1.00  0.00     0.010 C 
HETATM   21  C17 UNL     1      -0.195  50.230 -20.800  1.00  0.00     0.009 C 
HETATM   22  C18 UNL     1      -0.179  50.580 -19.321  1.00  0.00     0.047 C 
BRANCH   3  23
HETATM   23  O2  UNL     1      -2.212  51.824 -19.422  1.00  0.00    -0.381 OA
HETATM   24  H27 UNL     1      -3.158  51.823 -19.179  1.00  0.00     0.211 HD
ENDBRANCH   3  23
ENDBRANCH   1   3
BRANCH   1  25
HETATM   25  C21 UNL     1      -0.734  50.256 -16.490  1.00  0.00     0.260 C 
BRANCH  25  26
HETATM   26  O4  UNL     1      -0.245  51.313 -15.669  1.00  0.00    -0.314 OA
BRANCH  26  27
HETATM   27  C22 UNL     1       0.772  50.946 -14.841  1.00  0.00     0.259 C 
HETATM   28  O5  UNL     1       1.506  49.987 -15.039  1.00  0.00    -0.265 OA
BRANCH  27  29
HETATM   29  C23 UNL     1       0.952  51.919 -13.704  1.00  0.00     0.120 C 
BRANCH  29  30
HETATM   30  C24 UNL     1      -0.355  52.516 -13.194  1.00  0.00     0.112 C 
BRANCH  30  31
HETATM   31  C25 UNL     1      -0.182  53.142 -11.827  1.00  0.00     0.218 C 
HETATM   32  O6  UNL     1      -1.083  53.219 -10.997  1.00  0.00    -0.274 OA
HETATM   33  N1  UNL     1       1.098  53.606 -11.606  1.00  0.00    -0.360 N 
HETATM   34  H34 UNL     1       1.838  53.297 -12.225  1.00  0.00     0.162 HD
BRANCH  33  35
HETATM   35  C26 UNL     1       1.493  54.143 -10.312  1.00  0.00     0.132 C 
BRANCH  35  36
HETATM   36  C27 UNL     1       2.647  55.168 -10.417  1.00  0.00     0.046 C 
BRANCH  36  37
HETATM   37  C28 UNL     1       4.000  54.470 -10.620  1.00  0.00     0.120 C 
BRANCH  37  38
HETATM   38  C29 UNL     1       4.049  53.161  -9.892  1.00  0.00     0.140 C 
HETATM   39  O7  UNL     1       3.542  52.118 -10.269  1.00  0.00    -0.650 OA
BRANCH  38  40
HETATM   40  O8  UNL     1       4.745  53.225  -8.745  1.00  0.00    -0.776 OA
HETATM   41  H40 UNL     1       4.738  52.305  -8.402  1.00  0.00     0.167 HD
ENDBRANCH  38  40
ENDBRANCH  37  38
ENDBRANCH  36  37
BRANCH  36  42
HETATM   42  C30 UNL     1       2.711  56.076  -9.193  1.00  0.00    -0.052 A 
HETATM   43  C31 UNL     1       3.766  56.982  -8.999  1.00  0.00     0.007 A 
HETATM   44  C32 UNL     1       3.798  57.804  -7.871  1.00  0.00     0.001 A 
HETATM   45  C33 UNL     1       2.779  57.731  -6.924  1.00  0.00     0.000 A 
HETATM   46  C34 UNL     1       1.723  56.840  -7.107  1.00  0.00     0.001 A 
HETATM   47  C35 UNL     1       1.690  56.017  -8.233  1.00  0.00     0.007 A 
ENDBRANCH  36  42
ENDBRANCH  35  36
ENDBRANCH  33  35
ENDBRANCH  30  31
ENDBRANCH  29  30
ENDBRANCH  27  29
ENDBRANCH  26  27
ENDBRANCH  25  26
ENDBRANCH   1  25
TORSDOF 14
ENDMDL
MODEL 4
REMARK minimizedAffinity -8.86661339
REMARK CNNscore 0.467905253
REMARK CNNaffinity 7.51836014
REMARK  14 active torsions:
REMARK  status: ('A' for Active; 'I' for Inactive)
REMARK    1  A    between atoms: C19_20  and  O2_21 
REMARK    2  A    between atoms: C19_20  and  C20_22 
REMARK    3  A    between atoms: C20_22  and  C21_24 
REMARK    4  A    between atoms: C21_24  and  O4_25 
REMARK    5  A    between atoms: O4_25  and  C22_26 
REMARK    6  A    between atoms: C22_26  and  C23_28 
REMARK    7  A    between atoms: C23_28  and  C24_29 
REMARK    8  A    between atoms: C24_29  and  C25_30 
REMARK       I    between atoms: C25_30  and  N1_32 
REMARK    9  A    between atoms: N1_32  and  C26_33 
REMARK   10  A    between atoms: C26_33  and  C27_34 
REMARK   11  A    between atoms: C27_34  and  C28_35 
REMARK   12  A    between atoms: C27_34  and  C30_39 
REMARK   13  A    between atoms: C28_35  and  C29_36 
REMARK   14  A    between atoms: C29_36  and  O8_38 
ROOT
HETATM    1  C20 UNL     1      -1.715  49.717 -18.512  1.00  0.00     0.185 C 
HETATM    2  O3  UNL     1      -2.290  49.819 -17.424  1.00  0.00    -0.292 OA
ENDROOT
BRANCH   1   3
HETATM    3  C19 UNL     1      -2.331  48.904 -19.670  1.00  0.00     0.128 C 
HETATM    4  C14 UNL     1      -3.352  47.777 -19.277  1.00  0.00    -0.002 C 
HETATM    5  C13 UNL     1      -4.777  48.276 -18.958  1.00  0.00     0.013 C 
HETATM    6  C15 UNL     1      -2.847  46.996 -18.031  1.00  0.00     0.019 C 
HETATM    7  C16 UNL     1      -3.325  46.775 -20.485  1.00  0.00     0.002 C 
HETATM    8  C12 UNL     1      -5.689  48.645 -20.134  1.00  0.00     0.007 C 
HETATM    9  C11 UNL     1      -5.316  48.032 -21.499  1.00  0.00     0.002 C 
HETATM   10  C2  UNL     1      -6.495  47.925 -22.551  1.00  0.00    -0.016 C 
HETATM   11  C10 UNL     1      -4.628  46.664 -21.309  1.00  0.00    -0.004 C 
HETATM   12  C1  UNL     1      -7.593  48.986 -22.304  1.00  0.00     0.020 C 
HETATM   13  C3  UNL     1      -5.892  48.159 -23.969  1.00  0.00     0.022 C 
HETATM   14  C7  UNL     1      -7.117  46.527 -22.525  1.00  0.00    -0.068 C 
HETATM   15  C4  UNL     1      -6.880  47.905 -25.103  1.00  0.00     0.084 C 
HETATM   16  C5  UNL     1      -7.585  46.578 -24.952  1.00  0.00     0.149 C 
HETATM   17  O1  UNL     1      -8.166  46.040 -25.894  1.00  0.00    -0.293 OA
HETATM   18  C6  UNL     1      -7.609  45.924 -23.622  1.00  0.00     0.053 C 
HETATM   19  C8  UNL     1      -7.062  45.805 -21.203  1.00  0.00     0.035 C 
HETATM   20  C9  UNL     1      -5.612  45.624 -20.725  1.00  0.00     0.010 C 
HETATM   21  C17 UNL     1      -2.144  47.218 -21.369  1.00  0.00     0.009 C 
HETATM   22  C18 UNL     1      -1.302  48.150 -20.514  1.00  0.00     0.047 C 
BRANCH   3  23
HETATM   23  O2  UNL     1      -2.931  49.894 -20.517  1.00  0.00    -0.381 OA
HETATM   24  H27 UNL     1      -3.594  50.364 -19.976  1.00  0.00     0.211 HD
ENDBRANCH   3  23
ENDBRANCH   1   3
BRANCH   1  25
HETATM   25  C21 UNL     1      -0.493  50.591 -18.833  1.00  0.00     0.260 C 
BRANCH  25  26
HETATM   26  O4  UNL     1      -0.808  51.855 -19.412  1.00  0.00    -0.314 OA
BRANCH  26  27
HETATM   27  C22 UNL     1       0.282  52.620 -19.696  1.00  0.00     0.259 C 
HETATM   28  O5  UNL     1       1.145  52.916 -18.880  1.00  0.00    -0.265 OA
BRANCH  27  29
HETATM   29  C23 UNL     1       0.355  52.975 -21.160  1.00  0.00     0.120 C 
BRANCH  29  30
HETATM   30  C24 UNL     1       0.551  51.770 -22.074  1.00  0.00     0.112 C 
BRANCH  30  31
HETATM   31  C25 UNL     1      -0.664  51.535 -22.946  1.00  0.00     0.218 C 
HETATM   32  O6  UNL     1      -1.575  50.768 -22.647  1.00  0.00    -0.274 OA
HETATM   33  N1  UNL     1      -0.646  52.280 -24.106  1.00  0.00    -0.360 N 
HETATM   34  H34 UNL     1       0.001  53.056 -24.172  1.00  0.00     0.162 HD
BRANCH  33  35
HETATM   35  C26 UNL     1      -1.776  52.275 -25.024  1.00  0.00     0.132 C 
BRANCH  35  36
HETATM   36  C27 UNL     1      -1.508  51.439 -26.298  1.00  0.00     0.046 C 
BRANCH  36  37
HETATM   37  C28 UNL     1      -1.891  49.967 -26.092  1.00  0.00     0.120 C 
BRANCH  37  38
HETATM   38  C29 UNL     1      -2.943  49.538 -27.070  1.00  0.00     0.140 C 
HETATM   39  O7  UNL     1      -3.173  50.068 -28.143  1.00  0.00    -0.650 OA
BRANCH  38  40
HETATM   40  O8  UNL     1      -3.632  48.461 -26.660  1.00  0.00    -0.776 OA
HETATM   41  H40 UNL     1      -4.242  48.263 -27.403  1.00  0.00     0.167 HD
ENDBRANCH  38  40
ENDBRANCH  37  38
ENDBRANCH  36  37
BRANCH  36  42
HETATM   42  C30 UNL     1      -0.052  51.538 -26.745  1.00  0.00    -0.052 A 
HETATM   43  C31 UNL     1       0.306  52.104 -27.978  1.00  0.00     0.007 A 
HETATM   44  C32 UNL     1       1.646  52.185 -28.361  1.00  0.00     0.001 A 
HETATM   45  C33 UNL     1       2.644  51.702 -27.517  1.00  0.00     0.000 A 
HETATM   46  C34 UNL     1       2.303  51.142 -26.288  1.00  0.00     0.001 A 
HETATM   47  C35 UNL     1       0.964  51.060 -25.904  1.00  0.00     0.007 A 
ENDBRANCH  36  42
ENDBRANCH  35  36
ENDBRANCH  33  35
ENDBRANCH  30  31
ENDBRANCH  29  30
ENDBRANCH  27  29
ENDBRANCH  26  27
ENDBRANCH  25  26
ENDBRANCH   1  25
TORSDOF 14
ENDMDL
MODEL 5
REMARK minimizedAffinity -9.03372574
REMARK CNNscore 0.417073071
REMARK CNNaffinity 6.2174058
REMARK  14 active torsions:
REMARK  status: ('A' for Active; 'I' for Inactive)
REMARK    1  A    between atoms: C19_20  and  O2_21 
REMARK    2  A    between atoms: C19_20  and  C20_22 
REMARK    3  A    between atoms: C20_22  and  C21_24 
REMARK    4  A    between atoms: C21_24  and  O4_25 
REMARK    5  A    between atoms: O4_25  and  C22_26 
REMARK    6  A    between atoms: C22_26  and  C23_28 
REMARK    7  A    between atoms: C23_28  and  C24_29 
REMARK    8  A    between atoms: C24_29  and  C25_30 
REMARK       I    between atoms: C25_30  and  N1_32 
REMARK    9  A    between atoms: N1_32  and  C26_33 
REMARK   10  A    between atoms: C26_33  and  C27_34 
REMARK   11  A    between atoms: C27_34  and  C28_35 
REMARK   12  A    between atoms: C27_34  and  C30_39 
REMARK   13  A    between atoms: C28_35  and  C29_36 
REMARK   14  A    between atoms: C29_36  and  O8_38 
ROOT
HETATM    1  C20 UNL     1      -9.876  46.518 -25.701  1.00  0.00     0.185 C 
HETATM    2  O3  UNL     1      -9.512  45.581 -24.986  1.00  0.00    -0.292 OA
ENDROOT
BRANCH   1   3
HETATM    3  C19 UNL     1     -11.371  46.775 -25.987  1.00  0.00     0.128 C 
HETATM    4  C14 UNL     1     -12.135  45.668 -26.797  1.00  0.00    -0.002 C 
HETATM    5  C13 UNL     1     -12.573  44.444 -25.965  1.00  0.00     0.013 C 
HETATM    6  C15 UNL     1     -11.254  45.141 -27.964  1.00  0.00     0.019 C 
HETATM    7  C16 UNL     1     -13.353  46.416 -27.446  1.00  0.00     0.002 C 
HETATM    8  C12 UNL     1     -13.806  44.589 -25.066  1.00  0.00     0.007 C 
HETATM    9  C11 UNL     1     -14.778  45.730 -25.429  1.00  0.00     0.002 C 
HETATM   10  C2  UNL     1     -16.265  45.557 -24.912  1.00  0.00    -0.016 C 
HETATM   11  C10 UNL     1     -14.755  45.999 -26.948  1.00  0.00    -0.004 C 
HETATM   12  C1  UNL     1     -16.343  44.667 -23.650  1.00  0.00     0.020 C 
HETATM   13  C3  UNL     1     -16.814  46.971 -24.555  1.00  0.00     0.022 C 
HETATM   14  C7  UNL     1     -17.153  44.968 -26.011  1.00  0.00    -0.068 C 
HETATM   15  C4  UNL     1     -18.301  46.982 -24.215  1.00  0.00     0.084 C 
HETATM   16  C5  UNL     1     -19.123  46.254 -25.251  1.00  0.00     0.149 C 
HETATM   17  O1  UNL     1     -20.339  46.414 -25.345  1.00  0.00    -0.293 OA
HETATM   18  C6  UNL     1     -18.451  45.292 -26.156  1.00  0.00     0.053 C 
HETATM   19  C8  UNL     1     -16.465  44.063 -27.001  1.00  0.00     0.035 C 
HETATM   20  C9  UNL     1     -15.329  44.797 -27.733  1.00  0.00     0.010 C 
HETATM   21  C17 UNL     1     -13.099  47.916 -27.201  1.00  0.00     0.009 C 
HETATM   22  C18 UNL     1     -11.637  48.038 -26.806  1.00  0.00     0.047 C 
BRANCH   3  23
HETATM   23  O2  UNL     1     -11.948  46.981 -24.690  1.00  0.00    -0.381 OA
HETATM   24  H27 UNL     1     -11.784  46.167 -24.177  1.00  0.00     0.211 HD
ENDBRANCH   3  23
ENDBRANCH   1   3
BRANCH   1  25
HETATM   25  C21 UNL     1      -8.877  47.604 -26.131  1.00  0.00     0.260 C 
BRANCH  25  26
HETATM   26  O4  UNL     1      -7.510  47.206 -26.070  1.00  0.00    -0.314 OA
BRANCH  26  27
HETATM   27  C22 UNL     1      -6.797  47.504 -27.191  1.00  0.00     0.259 C 
HETATM   28  O5  UNL     1      -7.244  47.431 -28.329  1.00  0.00    -0.265 OA
BRANCH  27  29
HETATM   29  C23 UNL     1      -5.424  48.033 -26.862  1.00  0.00     0.120 C 
BRANCH  29  30
HETATM   30  C24 UNL     1      -4.558  48.298 -28.089  1.00  0.00     0.112 C 
BRANCH  30  31
HETATM   31  C25 UNL     1      -3.696  49.527 -27.902  1.00  0.00     0.218 C 
HETATM   32  O6  UNL     1      -3.347  50.258 -28.825  1.00  0.00    -0.274 OA
HETATM   33  N1  UNL     1      -3.351  49.748 -26.585  1.00  0.00    -0.360 N 
HETATM   34  H34 UNL     1      -3.863  49.258 -25.862  1.00  0.00     0.162 HD
BRANCH  33  35
HETATM   35  C26 UNL     1      -2.615  50.940 -26.186  1.00  0.00     0.132 C 
BRANCH  35  36
HETATM   36  C27 UNL     1      -1.280  50.610 -25.480  1.00  0.00     0.046 C 
BRANCH  36  37
HETATM   37  C28 UNL     1      -1.209  51.251 -24.087  1.00  0.00     0.120 C 
BRANCH  37  38
HETATM   38  C29 UNL     1      -2.002  52.521 -24.033  1.00  0.00     0.140 C 
HETATM   39  O7  UNL     1      -3.060  52.674 -23.448  1.00  0.00    -0.650 OA
BRANCH  38  40
HETATM   40  O8  UNL     1      -1.418  53.532 -24.697  1.00  0.00    -0.776 OA
HETATM   41  H40 UNL     1      -2.008  54.301 -24.542  1.00  0.00     0.167 HD
ENDBRANCH  38  40
ENDBRANCH  37  38
ENDBRANCH  36  37
BRANCH  36  42
HETATM   42  C30 UNL     1      -0.076  51.045 -26.312  1.00  0.00    -0.052 A 
HETATM   43  C31 UNL     1       1.222  51.067 -25.779  1.00  0.00     0.007 A 
HETATM   44  C32 UNL     1       2.305  51.466 -26.564  1.00  0.00     0.001 A 
HETATM   45  C33 UNL     1       2.105  51.848 -27.889  1.00  0.00     0.000 A 
HETATM   46  C34 UNL     1       0.823  51.825 -28.432  1.00  0.00     0.001 A 
HETATM   47  C35 UNL     1      -0.262  51.427 -27.649  1.00  0.00     0.007 A 
ENDBRANCH  36  42
ENDBRANCH  35  36
ENDBRANCH  33  35
ENDBRANCH  30  31
ENDBRANCH  29  30
ENDBRANCH  27  29
ENDBRANCH  26  27
ENDBRANCH  25  26
ENDBRANCH   1  25
TORSDOF 14
ENDMDL
MODEL 6
REMARK minimizedAffinity -8.08114719
REMARK CNNscore 0.382853925
REMARK CNNaffinity 6.85260344
REMARK  14 active torsions:
REMARK  status: ('A' for Active; 'I' for Inactive)
REMARK    1  A    between atoms: C19_20  and  O2_21 
REMARK    2  A    between atoms: C19_20  and  C20_22 
REMARK    3  A    between atoms: C20_22  and  C21_24 
REMARK    4  A    between atoms: C21_24  and  O4_25 
REMARK    5  A    between atoms: O4_25  and  C22_26 
REMARK    6  A    between atoms: C22_26  and  C23_28 
REMARK    7  A    between atoms: C23_28  and  C24_29 
REMARK    8  A    between atoms: C24_29  and  C25_30 
REMARK       I    between atoms: C25_30  and  N1_32 
REMARK    9  A    between atoms: N1_32  and  C26_33 
REMARK   10  A    between atoms: C26_33  and  C27_34 
REMARK   11  A    between atoms: C27_34  and  C28_35 
REMARK   12  A    between atoms: C27_34  and  C30_39 
REMARK   13  A    between atoms: C28_35  and  C29_36 
REMARK   14  A    between atoms: C29_36  and  O8_38 
ROOT
HETATM    1  C20 UNL     1      -2.160  50.347 -18.181  1.00  0.00     0.185 C 
HETATM    2  O3  UNL     1      -2.704  51.440 -17.997  1.00  0.00    -0.292 OA
ENDROOT
BRANCH   1   3
HETATM    3  C19 UNL     1      -2.220  49.643 -19.553  1.00  0.00     0.128 C 
HETATM    4  C14 UNL     1      -3.616  49.076 -19.995  1.00  0.00    -0.002 C 
HETATM    5  C13 UNL     1      -4.590  50.128 -20.567  1.00  0.00     0.013 C 
HETATM    6  C15 UNL     1      -4.330  48.390 -18.796  1.00  0.00     0.019 C 
HETATM    7  C16 UNL     1      -3.280  47.947 -21.031  1.00  0.00     0.002 C 
HETATM    8  C12 UNL     1      -4.367  50.606 -22.006  1.00  0.00     0.007 C 
HETATM    9  C11 UNL     1      -3.539  49.671 -22.911  1.00  0.00     0.002 C 
HETATM   10  C2  UNL     1      -3.766  49.841 -24.469  1.00  0.00    -0.016 C 
HETATM   11  C10 UNL     1      -3.730  48.199 -22.488  1.00  0.00    -0.004 C 
HETATM   12  C1  UNL     1      -4.244  51.265 -24.834  1.00  0.00     0.020 C 
HETATM   13  C3  UNL     1      -2.405  49.578 -25.181  1.00  0.00     0.022 C 
HETATM   14  C7  UNL     1      -4.777  48.812 -24.982  1.00  0.00    -0.068 C 
HETATM   15  C4  UNL     1      -2.511  49.527 -26.702  1.00  0.00     0.084 C 
HETATM   16  C5  UNL     1      -3.626  48.616 -27.161  1.00  0.00     0.149 C 
HETATM   17  O1  UNL     1      -3.679  48.186 -28.312  1.00  0.00    -0.293 OA
HETATM   18  C6  UNL     1      -4.703  48.261 -26.207  1.00  0.00     0.053 C 
HETATM   19  C8  UNL     1      -5.823  48.365 -23.993  1.00  0.00     0.035 C 
HETATM   20  C9  UNL     1      -5.181  47.731 -22.748  1.00  0.00     0.010 C 
HETATM   21  C17 UNL     1      -1.754  47.746 -20.949  1.00  0.00     0.009 C 
HETATM   22  C18 UNL     1      -1.308  48.420 -19.662  1.00  0.00     0.047 C 
BRANCH   3  23
HETATM   23  O2  UNL     1      -1.727  50.624 -20.475  1.00  0.00    -0.381 OA
HETATM   24  H27 UNL     1      -2.319  51.396 -20.409  1.00  0.00     0.211 HD
ENDBRANCH   3  23
ENDBRANCH   1   3
BRANCH   1  25
HETATM   25  C21 UNL     1      -1.201  49.767 -17.129  1.00  0.00     0.260 C 
BRANCH  25  26
HETATM   26  O4  UNL     1       0.181  49.952 -17.426  1.00  0.00    -0.314 OA
BRANCH  26  27
HETATM   27  C22 UNL     1       0.745  51.015 -16.789  1.00  0.00     0.259 C 
HETATM   28  O5  UNL     1       0.819  52.141 -17.264  1.00  0.00    -0.265 OA
BRANCH  27  29
HETATM   29  C23 UNL     1       1.177  50.667 -15.387  1.00  0.00     0.120 C 
BRANCH  29  30
HETATM   30  C24 UNL     1       1.894  51.803 -14.666  1.00  0.00     0.112 C 
BRANCH  30  31
HETATM   31  C25 UNL     1       1.961  51.558 -13.174  1.00  0.00     0.218 C 
HETATM   32  O6  UNL     1       2.896  50.985 -12.622  1.00  0.00    -0.274 OA
HETATM   33  N1  UNL     1       0.866  52.054 -12.498  1.00  0.00    -0.360 N 
HETATM   34  H34 UNL     1       0.263  52.715 -12.972  1.00  0.00     0.162 HD
BRANCH  33  35
HETATM   35  C26 UNL     1       0.794  52.013 -11.044  1.00  0.00     0.132 C 
BRANCH  35  36
HETATM   36  C27 UNL     1      -0.462  51.273 -10.528  1.00  0.00     0.046 C 
BRANCH  36  37
HETATM   37  C28 UNL     1      -0.713  49.979 -11.316  1.00  0.00     0.120 C 
BRANCH  37  38
HETATM   38  C29 UNL     1      -0.568  48.773 -10.437  1.00  0.00     0.140 C 
HETATM   39  O7  UNL     1      -1.401  47.894 -10.294  1.00  0.00    -0.650 OA
BRANCH  38  40
HETATM   40  O8  UNL     1       0.615  48.724  -9.804  1.00  0.00    -0.776 OA
HETATM   41  H40 UNL     1       0.595  47.876  -9.312  1.00  0.00     0.167 HD
ENDBRANCH  38  40
ENDBRANCH  37  38
ENDBRANCH  36  37
BRANCH  36  42
HETATM   42  C30 UNL     1      -1.703  52.160 -10.580  1.00  0.00    -0.052 A 
HETATM   43  C31 UNL     1      -1.631  53.545 -10.364  1.00  0.00     0.007 A 
HETATM   44  C32 UNL     1      -2.782  54.333 -10.421  1.00  0.00     0.001 A 
HETATM   45  C33 UNL     1      -4.018  53.748 -10.692  1.00  0.00     0.000 A 
HETATM   46  C34 UNL     1      -4.102  52.375 -10.913  1.00  0.00     0.001 A 
HETATM   47  C35 UNL     1      -2.952  51.585 -10.856  1.00  0.00     0.007 A 
ENDBRANCH  36  42
ENDBRANCH  35  36
ENDBRANCH  33  35
ENDBRANCH  30  31
ENDBRANCH  29  30
ENDBRANCH  27  29
ENDBRANCH  26  27
ENDBRANCH  25  26
ENDBRANCH   1  25
TORSDOF 14
ENDMDL
MODEL 7
REMARK minimizedAffinity -8.83695507
REMARK CNNscore 0.351154447
REMARK CNNaffinity 6.6270752
REMARK  14 active torsions:
REMARK  status: ('A' for Active; 'I' for Inactive)
REMARK    1  A    between atoms: C19_20  and  O2_21 
REMARK    2  A    between atoms: C19_20  and  C20_22 
REMARK    3  A    between atoms: C20_22  and  C21_24 
REMARK    4  A    between atoms: C21_24  and  O4_25 
REMARK    5  A    between atoms: O4_25  and  C22_26 
REMARK    6  A    between atoms: C22_26  and  C23_28 
REMARK    7  A    between atoms: C23_28  and  C24_29 
REMARK    8  A    between atoms: C24_29  and  C25_30 
REMARK       I    between atoms: C25_30  and  N1_32 
REMARK    9  A    between atoms: N1_32  and  C26_33 
REMARK   10  A    between atoms: C26_33  and  C27_34 
REMARK   11  A    between atoms: C27_34  and  C28_35 
REMARK   12  A    between atoms: C27_34  and  C30_39 
REMARK   13  A    between atoms: C28_35  and  C29_36 
REMARK   14  A    between atoms: C29_36  and  O8_38 
ROOT
HETATM    1  C20 UNL     1      -1.560  51.090 -16.718  1.00  0.00     0.185 C 
HETATM    2  O3  UNL     1      -0.587  51.100 -15.959  1.00  0.00    -0.292 OA
ENDROOT
BRANCH   1   3
HETATM    3  C19 UNL     1      -1.381  51.040 -18.250  1.00  0.00     0.128 C 
HETATM    4  C14 UNL     1      -1.695  49.672 -18.954  1.00  0.00    -0.002 C 
HETATM    5  C13 UNL     1      -3.195  49.395 -19.188  1.00  0.00     0.013 C 
HETATM    6  C15 UNL     1      -1.131  48.488 -18.120  1.00  0.00     0.019 C 
HETATM    7  C16 UNL     1      -0.879  49.715 -20.294  1.00  0.00     0.002 C 
HETATM    8  C12 UNL     1      -3.886  50.114 -20.353  1.00  0.00     0.007 C 
HETATM    9  C11 UNL     1      -2.961  50.641 -21.469  1.00  0.00     0.002 C 
HETATM   10  C2  UNL     1      -3.643  50.860 -22.881  1.00  0.00    -0.016 C 
HETATM   11  C10 UNL     1      -1.707  49.751 -21.598  1.00  0.00    -0.004 C 
HETATM   12  C1  UNL     1      -5.160  51.130 -22.759  1.00  0.00     0.020 C 
HETATM   13  C3  UNL     1      -2.972  52.098 -23.548  1.00  0.00     0.022 C 
HETATM   14  C7  UNL     1      -3.408  49.649 -23.787  1.00  0.00    -0.068 C 
HETATM   15  C4  UNL     1      -3.401  52.321 -24.995  1.00  0.00     0.084 C 
HETATM   16  C5  UNL     1      -3.298  51.057 -25.815  1.00  0.00     0.149 C 
HETATM   17  O1  UNL     1      -3.283  51.081 -27.045  1.00  0.00    -0.293 OA
HETATM   18  C6  UNL     1      -3.252  49.749 -25.120  1.00  0.00     0.053 C 
HETATM   19  C8  UNL     1      -3.259  48.321 -23.088  1.00  0.00     0.035 C 
HETATM   20  C9  UNL     1      -2.080  48.337 -22.102  1.00  0.00     0.010 C 
HETATM   21  C17 UNL     1       0.038  50.948 -20.185  1.00  0.00     0.009 C 
HETATM   22  C18 UNL     1       0.044  51.342 -18.717  1.00  0.00     0.047 C 
BRANCH   3  23
HETATM   23  O2  UNL     1      -2.219  52.096 -18.738  1.00  0.00    -0.381 OA
HETATM   24  H27 UNL     1      -3.128  51.892 -18.447  1.00  0.00     0.211 HD
ENDBRANCH   3  23
ENDBRANCH   1   3
BRANCH   1  25
HETATM   25  C21 UNL     1      -2.978  50.878 -16.165  1.00  0.00     0.260 C 
BRANCH  25  26
HETATM   26  O4  UNL     1      -3.031  50.602 -14.768  1.00  0.00    -0.314 OA
BRANCH  26  27
HETATM   27  C22 UNL     1      -3.185  51.710 -13.991  1.00  0.00     0.259 C 
HETATM   28  O5  UNL     1      -3.868  52.677 -14.302  1.00  0.00    -0.265 OA
BRANCH  27  29
HETATM   29  C23 UNL     1      -2.498  51.563 -12.657  1.00  0.00     0.120 C 
BRANCH  29  30
HETATM   30  C24 UNL     1      -3.368  51.966 -11.471  1.00  0.00     0.112 C 
BRANCH  30  31
HETATM   31  C25 UNL     1      -2.905  53.274 -10.865  1.00  0.00     0.218 C 
HETATM   32  O6  UNL     1      -3.631  54.009 -10.201  1.00  0.00    -0.274 OA
HETATM   33  N1  UNL     1      -1.579  53.549 -11.127  1.00  0.00    -0.360 N 
HETATM   34  H34 UNL     1      -0.987  52.800 -11.465  1.00  0.00     0.162 HD
BRANCH  33  35
HETATM   35  C26 UNL     1      -0.918  54.706 -10.540  1.00  0.00     0.132 C 
BRANCH  35  36
HETATM   36  C27 UNL     1       0.040  54.325  -9.387  1.00  0.00     0.046 C 
BRANCH  36  37
HETATM   37  C28 UNL     1      -0.644  54.467  -8.020  1.00  0.00     0.120 C 
BRANCH  37  38
HETATM   38  C29 UNL     1      -1.231  53.163  -7.570  1.00  0.00     0.140 C 
HETATM   39  O7  UNL     1      -1.196  52.115  -8.192  1.00  0.00    -0.650 OA
BRANCH  38  40
HETATM   40  O8  UNL     1      -1.809  53.238  -6.360  1.00  0.00    -0.776 OA
HETATM   41  H40 UNL     1      -2.102  52.321  -6.170  1.00  0.00     0.167 HD
ENDBRANCH  38  40
ENDBRANCH  37  38
ENDBRANCH  36  37
BRANCH  36  42
HETATM   42  C30 UNL     1       1.319  55.158  -9.415  1.00  0.00    -0.052 A 
HETATM   43  C31 UNL     1       1.848  55.738  -8.252  1.00  0.00     0.007 A 
HETATM   44  C32 UNL     1       3.022  56.492  -8.305  1.00  0.00     0.001 A 
HETATM   45  C33 UNL     1       3.679  56.677  -9.520  1.00  0.00     0.000 A 
HETATM   46  C34 UNL     1       3.167  56.102 -10.681  1.00  0.00     0.001 A 
HETATM   47  C35 UNL     1       1.994  55.348 -10.630  1.00  0.00     0.007 A 
ENDBRANCH  36  42
ENDBRANCH  35  36
ENDBRANCH  33  35
ENDBRANCH  30  31
ENDBRANCH  29  30
ENDBRANCH  27  29
ENDBRANCH  26  27
ENDBRANCH  25  26
ENDBRANCH   1  25
TORSDOF 14
ENDMDL
MODEL 8
REMARK minimizedAffinity -7.97189617
REMARK CNNscore 0.305388838
REMARK CNNaffinity 5.995749
REMARK  14 active torsions:
REMARK  status: ('A' for Active; 'I' for Inactive)
REMARK    1  A    between atoms: C19_20  and  O2_21 
REMARK    2  A    between atoms: C19_20  and  C20_22 
REMARK    3  A    between atoms: C20_22  and  C21_24 
REMARK    4  A    between atoms: C21_24  and  O4_25 
REMARK    5  A    between atoms: O4_25  and  C22_26 
REMARK    6  A    between atoms: C22_26  and  C23_28 
REMARK    7  A    between atoms: C23_28  and  C24_29 
REMARK    8  A    between atoms: C24_29  and  C25_30 
REMARK       I    between atoms: C25_30  and  N1_32 
REMARK    9  A    between atoms: N1_32  and  C26_33 
REMARK   10  A    between atoms: C26_33  and  C27_34 
REMARK   11  A    between atoms: C27_34  and  C28_35 
REMARK   12  A    between atoms: C27_34  and  C30_39 
REMARK   13  A    between atoms: C28_35  and  C29_36 
REMARK   14  A    between atoms: C29_36  and  O8_38 
ROOT
HETATM    1  C20 UNL     1      -9.593  46.435 -26.414  1.00  0.00     0.185 C 
HETATM    2  O3  UNL     1      -8.937  46.065 -27.392  1.00  0.00    -0.292 OA
ENDROOT
BRANCH   1   3
HETATM    3  C19 UNL     1     -11.098  46.757 -26.535  1.00  0.00     0.128 C 
HETATM    4  C14 UNL     1     -11.955  45.797 -27.435  1.00  0.00    -0.002 C 
HETATM    5  C13 UNL     1     -12.361  44.469 -26.762  1.00  0.00     0.013 C 
HETATM    6  C15 UNL     1     -11.185  45.438 -28.736  1.00  0.00     0.019 C 
HETATM    7  C16 UNL     1     -13.198  46.654 -27.863  1.00  0.00     0.002 C 
HETATM    8  C12 UNL     1     -13.515  44.498 -25.753  1.00  0.00     0.007 C 
HETATM    9  C11 UNL     1     -14.480  45.696 -25.860  1.00  0.00     0.002 C 
HETATM   10  C2  UNL     1     -15.926  45.472 -25.255  1.00  0.00    -0.016 C 
HETATM   11  C10 UNL     1     -14.569  46.191 -27.319  1.00  0.00    -0.004 C 
HETATM   12  C1  UNL     1     -15.929  44.403 -24.137  1.00  0.00     0.020 C 
HETATM   13  C3  UNL     1     -16.403  46.825 -24.647  1.00  0.00     0.022 C 
HETATM   14  C7  UNL     1     -16.914  45.070 -26.352  1.00  0.00    -0.068 C 
HETATM   15  C4  UNL     1     -17.858  46.809 -24.188  1.00  0.00     0.084 C 
HETATM   16  C5  UNL     1     -18.780  46.259 -25.250  1.00  0.00     0.149 C 
HETATM   17  O1  UNL     1     -19.995  46.451 -25.219  1.00  0.00    -0.293 OA
HETATM   18  C6  UNL     1     -18.209  45.434 -26.341  1.00  0.00     0.053 C 
HETATM   19  C8  UNL     1     -16.332  44.314 -27.519  1.00  0.00     0.035 C 
HETATM   20  C9  UNL     1     -15.237  45.131 -28.225  1.00  0.00     0.010 C 
HETATM   21  C17 UNL     1     -12.884  48.096 -27.419  1.00  0.00     0.009 C 
HETATM   22  C18 UNL     1     -11.392  48.134 -27.132  1.00  0.00     0.047 C 
BRANCH   3  23
HETATM   23  O2  UNL     1     -11.565  46.774 -25.179  1.00  0.00    -0.381 OA
HETATM   24  H27 UNL     1     -11.385  45.890 -24.807  1.00  0.00     0.211 HD
ENDBRANCH   3  23
ENDBRANCH   1   3
BRANCH   1  25
HETATM   25  C21 UNL     1      -8.998  46.354 -25.000  1.00  0.00     0.260 C 
BRANCH  25  26
HETATM   26  O4  UNL     1      -9.117  47.554 -24.241  1.00  0.00    -0.314 OA
BRANCH  26  27
HETATM   27  C22 UNL     1      -8.018  47.844 -23.490  1.00  0.00     0.259 C 
HETATM   28  O5  UNL     1      -7.439  47.034 -22.779  1.00  0.00    -0.265 OA
BRANCH  27  29
HETATM   29  C23 UNL     1      -7.538  49.256 -23.716  1.00  0.00     0.120 C 
BRANCH  29  30
HETATM   30  C24 UNL     1      -6.617  49.773 -22.616  1.00  0.00     0.112 C 
BRANCH  30  31
HETATM   31  C25 UNL     1      -5.170  49.765 -23.059  1.00  0.00     0.218 C 
HETATM   32  O6  UNL     1      -4.781  50.250 -24.118  1.00  0.00    -0.274 OA
HETATM   33  N1  UNL     1      -4.330  49.166 -22.143  1.00  0.00    -0.360 N 
HETATM   34  H34 UNL     1      -4.672  49.010 -21.203  1.00  0.00     0.162 HD
BRANCH  33  35
HETATM   35  C26 UNL     1      -2.886  49.156 -22.336  1.00  0.00     0.132 C 
BRANCH  35  36
HETATM   36  C27 UNL     1      -2.177  50.314 -21.598  1.00  0.00     0.046 C 
BRANCH  36  37
HETATM   37  C28 UNL     1      -3.189  51.297 -20.993  1.00  0.00     0.120 C 
BRANCH  37  38
HETATM   38  C29 UNL     1      -3.388  51.040 -19.530  1.00  0.00     0.140 C 
HETATM   39  O7  UNL     1      -4.079  50.158 -19.051  1.00  0.00    -0.650 OA
BRANCH  38  40
HETATM   40  O8  UNL     1      -2.696  51.887 -18.750  1.00  0.00    -0.776 OA
HETATM   41  H40 UNL     1      -2.876  51.580 -17.835  1.00  0.00     0.167 HD
ENDBRANCH  38  40
ENDBRANCH  37  38
ENDBRANCH  36  37
BRANCH  36  42
HETATM   42  C30 UNL     1      -1.211  51.063 -22.513  1.00  0.00    -0.052 A 
HETATM   43  C31 UNL     1      -1.252  50.917 -23.908  1.00  0.00     0.007 A 
HETATM   44  C32 UNL     1      -0.359  51.616 -24.722  1.00  0.00     0.001 A 
HETATM   45  C33 UNL     1       0.586  52.467 -24.152  1.00  0.00     0.000 A 
HETATM   46  C34 UNL     1       0.634  52.625 -22.769  1.00  0.00     0.001 A 
HETATM   47  C35 UNL     1      -0.258  51.926 -21.954  1.00  0.00     0.007 A 
ENDBRANCH  36  42
ENDBRANCH  35  36
ENDBRANCH  33  35
ENDBRANCH  30  31
ENDBRANCH  29  30
ENDBRANCH  27  29
ENDBRANCH  26  27
ENDBRANCH  25  26
ENDBRANCH   1  25
TORSDOF 14
ENDMDL
MODEL 9
REMARK minimizedAffinity -8.25865459
REMARK CNNscore 0.284474641
REMARK CNNaffinity 6.59464884
REMARK  14 active torsions:
REMARK  status: ('A' for Active; 'I' for Inactive)
REMARK    1  A    between atoms: C19_20  and  O2_21 
REMARK    2  A    between atoms: C19_20  and  C20_22 
REMARK    3  A    between atoms: C20_22  and  C21_24 
REMARK    4  A    between atoms: C21_24  and  O4_25 
REMARK    5  A    between atoms: O4_25  and  C22_26 
REMARK    6  A    between atoms: C22_26  and  C23_28 
REMARK    7  A    between atoms: C23_28  and  C24_29 
REMARK    8  A    between atoms: C24_29  and  C25_30 
REMARK       I    between atoms: C25_30  and  N1_32 
REMARK    9  A    between atoms: N1_32  and  C26_33 
REMARK   10  A    between atoms: C26_33  and  C27_34 
REMARK   11  A    between atoms: C27_34  and  C28_35 
REMARK   12  A    between atoms: C27_34  and  C30_39 
REMARK   13  A    between atoms: C28_35  and  C29_36 
REMARK   14  A    between atoms: C29_36  and  O8_38 
ROOT
HETATM    1  C20 UNL     1      -1.631  49.157 -17.989  1.00  0.00     0.185 C 
HETATM    2  O3  UNL     1      -1.434  48.518 -16.952  1.00  0.00    -0.292 OA
ENDROOT
BRANCH   1   3
HETATM    3  C19 UNL     1      -3.036  49.244 -18.621  1.00  0.00     0.128 C 
HETATM    4  C14 UNL     1      -3.403  48.145 -19.681  1.00  0.00    -0.002 C 
HETATM    5  C13 UNL     1      -3.829  46.787 -19.084  1.00  0.00     0.013 C 
HETATM    6  C15 UNL     1      -2.199  47.877 -20.627  1.00  0.00     0.019 C 
HETATM    7  C16 UNL     1      -4.533  48.795 -20.555  1.00  0.00     0.002 C 
HETATM    8  C12 UNL     1      -5.248  46.664 -18.517  1.00  0.00     0.007 C 
HETATM    9  C11 UNL     1      -6.272  47.700 -19.022  1.00  0.00     0.002 C 
HETATM   10  C2  UNL     1      -7.793  47.274 -18.912  1.00  0.00    -0.016 C 
HETATM   11  C10 UNL     1      -5.931  48.142 -20.461  1.00  0.00    -0.004 C 
HETATM   12  C1  UNL     1      -8.028  46.244 -17.783  1.00  0.00     0.020 C 
HETATM   13  C3  UNL     1      -8.625  48.553 -18.595  1.00  0.00     0.022 C 
HETATM   14  C7  UNL     1      -8.291  46.702 -20.241  1.00  0.00    -0.068 C 
HETATM   15  C4  UNL     1     -10.134  48.328 -18.641  1.00  0.00     0.084 C 
HETATM   16  C5  UNL     1     -10.561  47.620 -19.904  1.00  0.00     0.149 C 
HETATM   17  O1  UNL     1     -11.730  47.628 -20.288  1.00  0.00    -0.293 OA
HETATM   18  C6  UNL     1      -9.551  46.866 -20.683  1.00  0.00     0.053 C 
HETATM   19  C8  UNL     1      -7.254  46.016 -21.094  1.00  0.00     0.035 C 
HETATM   20  C9  UNL     1      -6.107  46.972 -21.457  1.00  0.00     0.010 C 
HETATM   21  C17 UNL     1      -4.584  50.277 -20.139  1.00  0.00     0.009 C 
HETATM   22  C18 UNL     1      -3.295  50.546 -19.380  1.00  0.00     0.047 C 
BRANCH   3  23
HETATM   23  O2  UNL     1      -3.930  49.222 -17.499  1.00  0.00    -0.381 OA
HETATM   24  H27 UNL     1      -3.768  48.384 -17.026  1.00  0.00     0.211 HD
ENDBRANCH   3  23
ENDBRANCH   1   3
BRANCH   1  25
HETATM   25  C21 UNL     1      -0.544  50.086 -18.551  1.00  0.00     0.260 C 
BRANCH  25  26
HETATM   26  O4  UNL     1       0.237  50.747 -17.560  1.00  0.00    -0.314 OA
BRANCH  26  27
HETATM   27  C22 UNL     1       0.520  52.047 -17.855  1.00  0.00     0.259 C 
HETATM   28  O5  UNL     1       1.307  52.739 -17.222  1.00  0.00    -0.265 OA
BRANCH  27  29
HETATM   29  C23 UNL     1      -0.174  52.502 -19.113  1.00  0.00     0.120 C 
BRANCH  29  30
HETATM   30  C24 UNL     1       0.314  53.852 -19.628  1.00  0.00     0.112 C 
BRANCH  30  31
HETATM   31  C25 UNL     1       0.878  53.739 -21.028  1.00  0.00     0.218 C 
HETATM   32  O6  UNL     1       1.790  54.445 -21.450  1.00  0.00    -0.274 OA
HETATM   33  N1  UNL     1       0.270  52.754 -21.776  1.00  0.00    -0.360 N 
HETATM   34  H34 UNL     1      -0.294  52.062 -21.298  1.00  0.00     0.162 HD
BRANCH  33  35
HETATM   35  C26 UNL     1       0.744  52.417 -23.111  1.00  0.00     0.132 C 
BRANCH  35  36
HETATM   36  C27 UNL     1      -0.142  53.014 -24.228  1.00  0.00     0.046 C 
BRANCH  36  37
HETATM   37  C28 UNL     1      -1.604  52.570 -24.082  1.00  0.00     0.120 C 
BRANCH  37  38
HETATM   38  C29 UNL     1      -1.700  51.099 -23.810  1.00  0.00     0.140 C 
HETATM   39  O7  UNL     1      -1.848  50.587 -22.714  1.00  0.00    -0.650 OA
BRANCH  38  40
HETATM   40  O8  UNL     1      -1.625  50.354 -24.925  1.00  0.00    -0.776 OA
HETATM   41  H40 UNL     1      -1.748  49.432 -24.613  1.00  0.00     0.167 HD
ENDBRANCH  38  40
ENDBRANCH  37  38
ENDBRANCH  36  37
BRANCH  36  42
HETATM   42  C30 UNL     1       0.374  52.647 -25.617  1.00  0.00    -0.052 A 
HETATM   43  C31 UNL     1      -0.265  53.094 -26.785  1.00  0.00     0.007 A 
HETATM   44  C32 UNL     1       0.230  52.746 -28.042  1.00  0.00     0.001 A 
HETATM   45  C33 UNL     1       1.367  51.947 -28.150  1.00  0.00     0.000 A 
HETATM   46  C34 UNL     1       2.014  51.502 -26.999  1.00  0.00     0.001 A 
HETATM   47  C35 UNL     1       1.520  51.848 -25.740  1.00  0.00     0.007 A 
ENDBRANCH  36  42
ENDBRANCH  35  36
ENDBRANCH  33  35
ENDBRANCH  30  31
ENDBRANCH  29  30
ENDBRANCH  27  29
ENDBRANCH  26  27
ENDBRANCH  25  26
ENDBRANCH   1  25
TORSDOF 14
ENDMDL
