MODEL 1
REMARK minimizedAffinity -9.38768291
REMARK  6 active torsions:
REMARK  status: ('A' for Active; 'I' for Inactive)
REMARK    1  A    between atoms: C2_2  and  C30_32 
REMARK    2  A    between atoms: C3_3  and  C4_4 
REMARK    3  A    between atoms: C4_4  and  C5_5 
REMARK    4  A    between atoms: C5_5  and  C6_6 
REMARK    5  A    between atoms: C6_6  and  C8_8 
REMARK    6  A    between atoms: C30_32  and  O3_33 
ROOT
HETATM    1  C8  UNL     1       0.234  52.007 -23.256  1.00  0.00    -0.002 C 
HETATM    2  C9  UNL     1       0.267  52.809 -21.925  1.00  0.00     0.007 C 
HETATM    3  C10 UNL     1      -0.981  52.396 -21.119  1.00  0.00     0.015 C 
HETATM    4  C11 UNL     1      -1.481  51.101 -21.792  1.00  0.00    -0.005 C 
HETATM    5  C12 UNL     1      -0.618  49.930 -21.228  1.00  0.00     0.021 C 
HETATM    6  C13 UNL     1      -2.918  50.636 -21.611  1.00  0.00    -0.000 C 
HETATM    7  C14 UNL     1      -3.550  49.898 -22.559  1.00  0.00    -0.060 C 
HETATM    8  C15 UNL     1      -2.853  49.596 -23.897  1.00  0.00     0.036 C 
HETATM    9  C16 UNL     1      -1.446  50.189 -24.131  1.00  0.00     0.015 C 
HETATM   10  C17 UNL     1      -1.224  51.464 -23.310  1.00  0.00    -0.028 C 
HETATM   11  C18 UNL     1      -2.193  52.558 -23.846  1.00  0.00     0.016 C 
HETATM   12  C19 UNL     1      -4.987  49.345 -22.399  1.00  0.00    -0.014 C 
HETATM   13  C20 UNL     1      -5.918  50.209 -23.295  1.00  0.00     0.020 C 
HETATM   14  C21 UNL     1      -5.063  47.873 -22.898  1.00  0.00     0.021 C 
HETATM   15  C22 UNL     1      -6.186  47.084 -22.249  1.00  0.00     0.080 C 
HETATM   16  C23 UNL     1      -5.882  46.931 -20.779  1.00  0.00     0.135 C 
HETATM   17  O1  UNL     1      -6.104  45.862 -20.212  1.00  0.00    -0.297 OA
HETATM   18  C24 UNL     1      -5.294  48.149 -20.042  1.00  0.00     0.018 C 
HETATM   19  C25 UNL     1      -3.822  47.837 -19.732  1.00  0.00     0.023 C 
HETATM   20  C26 UNL     1      -6.053  48.268 -18.700  1.00  0.00     0.023 C 
HETATM   21  C27 UNL     1      -5.529  49.434 -20.921  1.00  0.00     0.020 C 
HETATM   22  C28 UNL     1      -5.106  50.756 -20.275  1.00  0.00     0.090 C 
HETATM   23  C29 UNL     1      -3.619  50.970 -20.336  1.00  0.00     0.157 C 
HETATM   24  O2  UNL     1      -3.018  51.439 -19.375  1.00  0.00    -0.293 OA
ENDROOT
BRANCH   1  25
HETATM   25  C6  UNL     1       0.919  52.741 -24.449  1.00  0.00    -0.014 C 
HETATM   26  C7  UNL     1       0.168  53.942 -25.031  1.00  0.00     0.010 C 
BRANCH  25  27
HETATM   27  C5  UNL     1       1.343  51.743 -25.555  1.00  0.00     0.008 C 
BRANCH  27  28
HETATM   28  C4  UNL     1       0.691  51.979 -26.929  1.00  0.00     0.028 C 
BRANCH  28  29
HETATM   29  C3  UNL     1      -0.435  51.033 -27.240  1.00  0.00    -0.022 C 
HETATM   30  C2  UNL     1      -1.730  51.342 -27.478  1.00  0.00    -0.064 C 
HETATM   31  C1  UNL     1      -2.258  52.752 -27.498  1.00  0.00     0.045 C 
BRANCH  30  32
HETATM   32  C30 UNL     1      -2.802  50.300 -27.725  1.00  0.00     0.197 C 
BRANCH  32  33
HETATM   33  O3  UNL     1      -3.512  50.534 -28.933  1.00  0.00    -0.397 OA
HETATM   34  H46 UNL     1      -3.920  51.412 -28.839  1.00  0.00     0.209 HD
ENDBRANCH  32  33
ENDBRANCH  30  32
ENDBRANCH  28  29
ENDBRANCH  27  28
ENDBRANCH  25  27
ENDBRANCH   1  25
TORSDOF 6
ENDMDL
MODEL 2
REMARK minimizedAffinity -9.3137064
REMARK  6 active torsions:
REMARK  status: ('A' for Active; 'I' for Inactive)
REMARK    1  A    between atoms: C2_2  and  C30_32 
REMARK    2  A    between atoms: C3_3  and  C4_4 
REMARK    3  A    between atoms: C4_4  and  C5_5 
REMARK    4  A    between atoms: C5_5  and  C6_6 
REMARK    5  A    between atoms: C6_6  and  C8_8 
REMARK    6  A    between atoms: C30_32  and  O3_33 
ROOT
HETATM    1  C8  UNL     1      -0.016  51.011 -21.422  1.00  0.00    -0.002 C 
HETATM    2  C9  UNL     1      -0.112  51.010 -19.871  1.00  0.00     0.007 C 
HETATM    3  C10 UNL     1      -1.489  50.422 -19.505  1.00  0.00     0.015 C 
HETATM    4  C11 UNL     1      -1.985  49.733 -20.794  1.00  0.00    -0.005 C 
HETATM    5  C12 UNL     1      -1.302  48.331 -20.856  1.00  0.00     0.021 C 
HETATM    6  C13 UNL     1      -3.464  49.443 -21.002  1.00  0.00    -0.000 C 
HETATM    7  C14 UNL     1      -4.009  49.387 -22.243  1.00  0.00    -0.060 C 
HETATM    8  C15 UNL     1      -3.154  49.716 -23.480  1.00  0.00     0.036 C 
HETATM    9  C16 UNL     1      -1.687  50.144 -23.253  1.00  0.00     0.015 C 
HETATM   10  C17 UNL     1      -1.489  50.779 -21.872  1.00  0.00    -0.028 C 
HETATM   11  C18 UNL     1      -2.287  52.115 -21.835  1.00  0.00     0.016 C 
HETATM   12  C19 UNL     1      -5.491  49.034 -22.515  1.00  0.00    -0.014 C 
HETATM   13  C20 UNL     1      -6.218  50.352 -22.901  1.00  0.00     0.020 C 
HETATM   14  C21 UNL     1      -5.606  48.048 -23.713  1.00  0.00     0.021 C 
HETATM   15  C22 UNL     1      -6.867  47.202 -23.667  1.00  0.00     0.080 C 
HETATM   16  C23 UNL     1      -6.786  46.282 -22.474  1.00  0.00     0.135 C 
HETATM   17  O1  UNL     1      -7.167  45.115 -22.569  1.00  0.00    -0.297 OA
HETATM   18  C24 UNL     1      -6.219  46.860 -21.163  1.00  0.00     0.018 C 
HETATM   19  C25 UNL     1      -4.834  46.234 -20.942  1.00  0.00     0.023 C 
HETATM   20  C26 UNL     1      -7.149  46.382 -20.025  1.00  0.00     0.023 C 
HETATM   21  C27 UNL     1      -6.229  48.431 -21.258  1.00  0.00     0.020 C 
HETATM   22  C28 UNL     1      -5.805  49.167 -19.985  1.00  0.00     0.090 C 
HETATM   23  C29 UNL     1      -4.312  49.175 -19.803  1.00  0.00     0.157 C 
HETATM   24  O2  UNL     1      -3.819  49.000 -18.692  1.00  0.00    -0.293 OA
ENDROOT
BRANCH   1  25
HETATM   25  C6  UNL     1       0.885  52.148 -21.996  1.00  0.00    -0.014 C 
HETATM   26  C7  UNL     1       1.440  53.152 -20.982  1.00  0.00     0.010 C 
BRANCH  25  27
HETATM   27  C5  UNL     1       0.200  52.861 -23.188  1.00  0.00     0.008 C 
BRANCH  27  28
HETATM   28  C4  UNL     1       0.717  52.450 -24.577  1.00  0.00     0.028 C 
BRANCH  28  29
HETATM   29  C3  UNL     1       0.116  53.236 -25.709  1.00  0.00    -0.022 C 
HETATM   30  C2  UNL     1       0.151  52.942 -27.028  1.00  0.00    -0.064 C 
HETATM   31  C1  UNL     1       0.805  51.705 -27.586  1.00  0.00     0.045 C 
BRANCH  30  32
HETATM   32  C30 UNL     1      -0.439  53.838 -28.097  1.00  0.00     0.197 C 
BRANCH  32  33
HETATM   33  O3  UNL     1      -1.859  53.802 -28.106  1.00  0.00    -0.397 OA
HETATM   34  H46 UNL     1      -2.103  52.877 -28.280  1.00  0.00     0.209 HD
ENDBRANCH  32  33
ENDBRANCH  30  32
ENDBRANCH  28  29
ENDBRANCH  27  28
ENDBRANCH  25  27
ENDBRANCH   1  25
TORSDOF 6
ENDMDL
MODEL 3
REMARK minimizedAffinity -9.24616051
REMARK  6 active torsions:
REMARK  status: ('A' for Active; 'I' for Inactive)
REMARK    1  A    between atoms: C2_2  and  C30_32 
REMARK    2  A    between atoms: C3_3  and  C4_4 
REMARK    3  A    between atoms: C4_4  and  C5_5 
REMARK    4  A    between atoms: C5_5  and  C6_6 
REMARK    5  A    between atoms: C6_6  and  C8_8 
REMARK    6  A    between atoms: C30_32  and  O3_33 
ROOT
HETATM    1  C8  UNL     1      -0.858  49.866 -18.768  1.00  0.00    -0.002 C 
HETATM    2  C9  UNL     1      -1.707  48.606 -18.440  1.00  0.00     0.007 C 
HETATM    3  C10 UNL     1      -2.667  48.390 -19.627  1.00  0.00     0.015 C 
HETATM    4  C11 UNL     1      -2.094  49.255 -20.768  1.00  0.00    -0.005 C 
HETATM    5  C12 UNL     1      -0.945  48.434 -21.432  1.00  0.00     0.021 C 
HETATM    6  C13 UNL     1      -2.972  49.687 -21.933  1.00  0.00    -0.000 C 
HETATM    7  C14 UNL     1      -2.733  50.836 -22.614  1.00  0.00    -0.060 C 
HETATM    8  C15 UNL     1      -1.615  51.789 -22.156  1.00  0.00     0.036 C 
HETATM    9  C16 UNL     1      -0.816  51.413 -20.890  1.00  0.00     0.015 C 
HETATM   10  C17 UNL     1      -1.635  50.525 -19.946  1.00  0.00    -0.028 C 
HETATM   11  C18 UNL     1      -2.829  51.366 -19.408  1.00  0.00     0.016 C 
HETATM   12  C19 UNL     1      -3.554  51.292 -23.845  1.00  0.00    -0.014 C 
HETATM   13  C20 UNL     1      -4.476  52.455 -23.383  1.00  0.00     0.020 C 
HETATM   14  C21 UNL     1      -2.613  51.833 -24.959  1.00  0.00     0.021 C 
HETATM   15  C22 UNL     1      -3.214  51.723 -26.349  1.00  0.00     0.080 C 
HETATM   16  C23 UNL     1      -3.353  50.262 -26.701  1.00  0.00     0.135 C 
HETATM   17  O1  UNL     1      -3.085  49.873 -27.837  1.00  0.00    -0.297 OA
HETATM   18  C24 UNL     1      -3.836  49.305 -25.593  1.00  0.00     0.018 C 
HETATM   19  C25 UNL     1      -2.639  48.439 -25.175  1.00  0.00     0.023 C 
HETATM   20  C26 UNL     1      -4.897  48.382 -26.234  1.00  0.00     0.023 C 
HETATM   21  C27 UNL     1      -4.476  50.156 -24.434  1.00  0.00     0.020 C 
HETATM   22  C28 UNL     1      -5.116  49.346 -23.303  1.00  0.00     0.090 C 
HETATM   23  C29 UNL     1      -4.092  48.793 -22.351  1.00  0.00     0.157 C 
HETATM   24  O2  UNL     1      -4.205  47.654 -21.908  1.00  0.00    -0.293 OA
ENDROOT
BRANCH   1  25
HETATM   25  C6  UNL     1      -0.388  50.653 -17.506  1.00  0.00    -0.014 C 
HETATM   26  C7  UNL     1      -1.350  50.665 -16.315  1.00  0.00     0.010 C 
BRANCH  25  27
HETATM   27  C5  UNL     1       0.080  52.082 -17.876  1.00  0.00     0.008 C 
BRANCH  27  28
HETATM   28  C4  UNL     1       1.501  52.443 -17.408  1.00  0.00     0.028 C 
BRANCH  28  29
HETATM   29  C3  UNL     1       1.783  52.079 -15.977  1.00  0.00    -0.022 C 
HETATM   30  C2  UNL     1       2.987  52.000 -15.367  1.00  0.00    -0.064 C 
HETATM   31  C1  UNL     1       4.290  52.307 -16.058  1.00  0.00     0.045 C 
BRANCH  30  32
HETATM   32  C30 UNL     1       3.164  51.564 -13.927  1.00  0.00     0.197 C 
BRANCH  32  33
HETATM   33  O3  UNL     1       2.410  52.363 -13.027  1.00  0.00    -0.397 OA
HETATM   34  H46 UNL     1       2.735  53.273 -13.138  1.00  0.00     0.209 HD
ENDBRANCH  32  33
ENDBRANCH  30  32
ENDBRANCH  28  29
ENDBRANCH  27  28
ENDBRANCH  25  27
ENDBRANCH   1  25
TORSDOF 6
ENDMDL
MODEL 4
REMARK minimizedAffinity -9.24605751
REMARK  6 active torsions:
REMARK  status: ('A' for Active; 'I' for Inactive)
REMARK    1  A    between atoms: C2_2  and  C30_32 
REMARK    2  A    between atoms: C3_3  and  C4_4 
REMARK    3  A    between atoms: C4_4  and  C5_5 
REMARK    4  A    between atoms: C5_5  and  C6_6 
REMARK    5  A    between atoms: C6_6  and  C8_8 
REMARK    6  A    between atoms: C30_32  and  O3_33 
ROOT
HETATM    1  C8  UNL     1      -3.673  50.761 -25.449  1.00  0.00    -0.002 C 
HETATM    2  C9  UNL     1      -4.070  49.269 -25.626  1.00  0.00     0.007 C 
HETATM    3  C10 UNL     1      -3.759  48.559 -24.293  1.00  0.00     0.015 C 
HETATM    4  C11 UNL     1      -3.579  49.697 -23.267  1.00  0.00    -0.005 C 
HETATM    5  C12 UNL     1      -5.007  50.129 -22.808  1.00  0.00     0.021 C 
HETATM    6  C13 UNL     1      -2.819  49.461 -21.970  1.00  0.00    -0.000 C 
HETATM    7  C14 UNL     1      -2.161  50.467 -21.341  1.00  0.00    -0.060 C 
HETATM    8  C15 UNL     1      -2.084  51.864 -21.983  1.00  0.00     0.036 C 
HETATM    9  C16 UNL     1      -2.741  52.062 -23.367  1.00  0.00     0.015 C 
HETATM   10  C17 UNL     1      -2.804  50.750 -24.157  1.00  0.00    -0.028 C 
HETATM   11  C18 UNL     1      -1.347  50.313 -24.485  1.00  0.00     0.016 C 
HETATM   12  C19 UNL     1      -1.425  50.299 -19.989  1.00  0.00    -0.014 C 
HETATM   13  C20 UNL     1       0.099  50.285 -20.289  1.00  0.00     0.020 C 
HETATM   14  C21 UNL     1      -1.724  51.504 -19.052  1.00  0.00     0.021 C 
HETATM   15  C22 UNL     1      -1.579  51.161 -17.580  1.00  0.00     0.080 C 
HETATM   16  C23 UNL     1      -2.652  50.167 -17.208  1.00  0.00     0.135 C 
HETATM   17  O1  UNL     1      -3.242  50.270 -16.133  1.00  0.00    -0.297 OA
HETATM   18  C24 UNL     1      -2.963  49.043 -18.216  1.00  0.00     0.018 C 
HETATM   19  C25 UNL     1      -4.338  49.340 -18.831  1.00  0.00     0.023 C 
HETATM   20  C26 UNL     1      -3.072  47.733 -17.404  1.00  0.00     0.023 C 
HETATM   21  C27 UNL     1      -1.780  48.951 -19.251  1.00  0.00     0.020 C 
HETATM   22  C28 UNL     1      -1.876  47.800 -20.255  1.00  0.00     0.090 C 
HETATM   23  C29 UNL     1      -2.844  48.096 -21.368  1.00  0.00     0.157 C 
HETATM   24  O2  UNL     1      -3.601  47.223 -21.783  1.00  0.00    -0.293 OA
ENDROOT
BRANCH   1  25
HETATM   25  C6  UNL     1      -3.229  51.455 -26.774  1.00  0.00    -0.014 C 
HETATM   26  C7  UNL     1      -3.004  50.538 -27.979  1.00  0.00     0.010 C 
BRANCH  25  27
HETATM   27  C5  UNL     1      -2.022  52.396 -26.538  1.00  0.00     0.008 C 
BRANCH  27  28
HETATM   28  C4  UNL     1      -1.037  52.498 -27.716  1.00  0.00     0.028 C 
BRANCH  28  29
HETATM   29  C3  UNL     1       0.271  51.796 -27.478  1.00  0.00    -0.022 C 
HETATM   30  C2  UNL     1       1.139  51.989 -26.460  1.00  0.00    -0.064 C 
HETATM   31  C1  UNL     1       0.900  52.966 -25.339  1.00  0.00     0.045 C 
BRANCH  30  32
HETATM   32  C30 UNL     1       2.465  51.265 -26.347  1.00  0.00     0.197 C 
BRANCH  32  33
HETATM   33  O3  UNL     1       3.324  51.540 -27.444  1.00  0.00    -0.397 OA
HETATM   34  H46 UNL     1       2.850  51.238 -28.238  1.00  0.00     0.209 HD
ENDBRANCH  32  33
ENDBRANCH  30  32
ENDBRANCH  28  29
ENDBRANCH  27  28
ENDBRANCH  25  27
ENDBRANCH   1  25
TORSDOF 6
ENDMDL
MODEL 5
REMARK minimizedAffinity -9.12460327
REMARK  6 active torsions:
REMARK  status: ('A' for Active; 'I' for Inactive)
REMARK    1  A    between atoms: C2_2  and  C30_32 
REMARK    2  A    between atoms: C3_3  and  C4_4 
REMARK    3  A    between atoms: C4_4  and  C5_5 
REMARK    4  A    between atoms: C5_5  and  C6_6 
REMARK    5  A    between atoms: C6_6  and  C8_8 
REMARK    6  A    between atoms: C30_32  and  O3_33 
ROOT
HETATM    1  C8  UNL     1      -0.290  50.795 -21.701  1.00  0.00    -0.002 C 
HETATM    2  C9  UNL     1       0.015  50.687 -20.180  1.00  0.00     0.007 C 
HETATM    3  C10 UNL     1      -1.135  49.879 -19.547  1.00  0.00     0.015 C 
HETATM    4  C11 UNL     1      -1.851  49.203 -20.735  1.00  0.00    -0.005 C 
HETATM    5  C12 UNL     1      -1.032  47.925 -21.095  1.00  0.00     0.021 C 
HETATM    6  C13 UNL     1      -3.284  48.710 -20.600  1.00  0.00    -0.000 C 
HETATM    7  C14 UNL     1      -4.116  48.647 -21.670  1.00  0.00    -0.060 C 
HETATM    8  C15 UNL     1      -3.656  49.174 -23.041  1.00  0.00     0.036 C 
HETATM    9  C16 UNL     1      -2.248  49.801 -23.141  1.00  0.00     0.015 C 
HETATM   10  C17 UNL     1      -1.786  50.374 -21.796  1.00  0.00    -0.028 C 
HETATM   11  C18 UNL     1      -2.713  51.572 -21.438  1.00  0.00     0.016 C 
HETATM   12  C19 UNL     1      -5.561  48.095 -21.603  1.00  0.00    -0.014 C 
HETATM   13  C20 UNL     1      -6.526  49.311 -21.672  1.00  0.00     0.020 C 
HETATM   14  C21 UNL     1      -5.850  47.176 -22.825  1.00  0.00     0.021 C 
HETATM   15  C22 UNL     1      -6.937  46.151 -22.553  1.00  0.00     0.080 C 
HETATM   16  C23 UNL     1      -6.436  45.183 -21.510  1.00  0.00     0.135 C 
HETATM   17  O1  UNL     1      -6.675  43.981 -21.620  1.00  0.00    -0.297 OA
HETATM   18  C24 UNL     1      -5.632  45.760 -20.329  1.00  0.00     0.018 C 
HETATM   19  C25 UNL     1      -4.168  45.334 -20.514  1.00  0.00     0.023 C 
HETATM   20  C26 UNL     1      -6.171  45.081 -19.049  1.00  0.00     0.023 C 
HETATM   21  C27 UNL     1      -5.869  47.315 -20.268  1.00  0.00     0.020 C 
HETATM   22  C28 UNL     1      -5.231  48.028 -19.073  1.00  0.00     0.090 C 
HETATM   23  C29 UNL     1      -3.755  48.246 -19.262  1.00  0.00     0.157 C 
HETATM   24  O2  UNL     1      -2.976  48.081 -18.328  1.00  0.00    -0.293 OA
ENDROOT
BRANCH   1  25
HETATM   25  C6  UNL     1       0.280  52.086 -22.366  1.00  0.00    -0.014 C 
HETATM   26  C7  UNL     1       0.503  53.285 -21.441  1.00  0.00     0.010 C 
BRANCH  25  27
HETATM   27  C5  UNL     1      -0.536  52.478 -23.622  1.00  0.00     0.008 C 
BRANCH  27  28
HETATM   28  C4  UNL     1      -0.399  51.515 -24.814  1.00  0.00     0.028 C 
BRANCH  28  29
HETATM   29  C3  UNL     1       0.869  51.695 -25.601  1.00  0.00    -0.022 C 
HETATM   30  C2  UNL     1       1.000  51.796 -26.943  1.00  0.00    -0.064 C 
HETATM   31  C1  UNL     1      -0.166  51.771 -27.896  1.00  0.00     0.045 C 
BRANCH  30  32
HETATM   32  C30 UNL     1       2.339  51.918 -27.642  1.00  0.00     0.197 C 
BRANCH  32  33
HETATM   33  O3  UNL     1       3.370  51.225 -26.954  1.00  0.00    -0.397 OA
HETATM   34  H46 UNL     1       3.422  51.629 -26.071  1.00  0.00     0.209 HD
ENDBRANCH  32  33
ENDBRANCH  30  32
ENDBRANCH  28  29
ENDBRANCH  27  28
ENDBRANCH  25  27
ENDBRANCH   1  25
TORSDOF 6
ENDMDL
MODEL 6
REMARK minimizedAffinity -9.0571909
REMARK  6 active torsions:
REMARK  status: ('A' for Active; 'I' for Inactive)
REMARK    1  A    between atoms: C2_2  and  C30_32 
REMARK    2  A    between atoms: C3_3  and  C4_4 
REMARK    3  A    between atoms: C4_4  and  C5_5 
REMARK    4  A    between atoms: C5_5  and  C6_6 
REMARK    5  A    between atoms: C6_6  and  C8_8 
REMARK    6  A    between atoms: C30_32  and  O3_33 
ROOT
HETATM    1  C8  UNL     1      -2.448  49.822 -23.645  1.00  0.00    -0.002 C 
HETATM    2  C9  UNL     1      -2.129  51.323 -23.397  1.00  0.00     0.007 C 
HETATM    3  C10 UNL     1      -2.161  51.544 -21.871  1.00  0.00     0.015 C 
HETATM    4  C11 UNL     1      -2.092  50.128 -21.261  1.00  0.00    -0.005 C 
HETATM    5  C12 UNL     1      -0.591  49.703 -21.258  1.00  0.00     0.021 C 
HETATM    6  C13 UNL     1      -2.561  49.873 -19.836  1.00  0.00    -0.000 C 
HETATM    7  C14 UNL     1      -3.048  48.665 -19.455  1.00  0.00    -0.060 C 
HETATM    8  C15 UNL     1      -3.232  47.542 -20.492  1.00  0.00     0.036 C 
HETATM    9  C16 UNL     1      -2.884  47.852 -21.964  1.00  0.00     0.015 C 
HETATM   10  C17 UNL     1      -3.019  49.347 -22.276  1.00  0.00    -0.028 C 
HETATM   11  C18 UNL     1      -4.521  49.733 -22.150  1.00  0.00     0.016 C 
HETATM   12  C19 UNL     1      -3.478  48.331 -18.006  1.00  0.00    -0.014 C 
HETATM   13  C20 UNL     1      -5.032  48.303 -17.979  1.00  0.00     0.020 C 
HETATM   14  C21 UNL     1      -2.961  46.923 -17.594  1.00  0.00     0.021 C 
HETATM   15  C22 UNL     1      -2.793  46.768 -16.093  1.00  0.00     0.080 C 
HETATM   16  C23 UNL     1      -1.686  47.686 -15.634  1.00  0.00     0.135 C 
HETATM   17  O1  UNL     1      -0.876  47.301 -14.791  1.00  0.00    -0.297 OA
HETATM   18  C24 UNL     1      -1.622  49.093 -16.258  1.00  0.00     0.018 C 
HETATM   19  C25 UNL     1      -0.405  49.130 -17.194  1.00  0.00     0.023 C 
HETATM   20  C26 UNL     1      -1.367  50.083 -15.099  1.00  0.00     0.023 C 
HETATM   21  C27 UNL     1      -3.002  49.402 -16.951  1.00  0.00     0.020 C 
HETATM   22  C28 UNL     1      -3.146  50.815 -17.521  1.00  0.00     0.090 C 
HETATM   23  C29 UNL     1      -2.435  50.974 -18.836  1.00  0.00     0.157 C 
HETATM   24  O2  UNL     1      -1.803  51.997 -19.082  1.00  0.00    -0.293 OA
ENDROOT
BRANCH   1  25
HETATM   25  C6  UNL     1      -3.152  49.546 -25.009  1.00  0.00    -0.014 C 
HETATM   26  C7  UNL     1      -4.285  48.516 -24.993  1.00  0.00     0.010 C 
BRANCH  25  27
HETATM   27  C5  UNL     1      -2.120  49.242 -26.123  1.00  0.00     0.008 C 
BRANCH  27  28
HETATM   28  C4  UNL     1      -1.436  50.479 -26.732  1.00  0.00     0.028 C 
BRANCH  28  29
HETATM   29  C3  UNL     1      -0.014  50.671 -26.284  1.00  0.00    -0.022 C 
HETATM   30  C2  UNL     1       0.962  51.369 -26.910  1.00  0.00    -0.064 C 
HETATM   31  C1  UNL     1       0.749  52.119 -28.198  1.00  0.00     0.045 C 
BRANCH  30  32
HETATM   32  C30 UNL     1       2.385  51.450 -26.400  1.00  0.00     0.197 C 
BRANCH  32  33
HETATM   33  O3  UNL     1       3.334  51.486 -27.456  1.00  0.00    -0.397 OA
HETATM   34  H46 UNL     1       3.211  50.661 -27.956  1.00  0.00     0.209 HD
ENDBRANCH  32  33
ENDBRANCH  30  32
ENDBRANCH  28  29
ENDBRANCH  27  28
ENDBRANCH  25  27
ENDBRANCH   1  25
TORSDOF 6
ENDMDL
MODEL 7
REMARK minimizedAffinity -8.94214153
REMARK  6 active torsions:
REMARK  status: ('A' for Active; 'I' for Inactive)
REMARK    1  A    between atoms: C2_2  and  C30_32 
REMARK    2  A    between atoms: C3_3  and  C4_4 
REMARK    3  A    between atoms: C4_4  and  C5_5 
REMARK    4  A    between atoms: C5_5  and  C6_6 
REMARK    5  A    between atoms: C6_6  and  C8_8 
REMARK    6  A    between atoms: C30_32  and  O3_33 
ROOT
HETATM    1  C8  UNL     1      -1.276  51.366 -22.864  1.00  0.00    -0.002 C 
HETATM    2  C9  UNL     1      -1.510  50.714 -24.255  1.00  0.00     0.007 C 
HETATM    3  C10 UNL     1      -2.661  49.701 -24.090  1.00  0.00     0.015 C 
HETATM    4  C11 UNL     1      -3.327  50.069 -22.747  1.00  0.00    -0.005 C 
HETATM    5  C12 UNL     1      -4.295  51.260 -23.028  1.00  0.00     0.021 C 
HETATM    6  C13 UNL     1      -4.180  49.054 -21.999  1.00  0.00    -0.000 C 
HETATM    7  C14 UNL     1      -4.303  49.090 -20.649  1.00  0.00    -0.060 C 
HETATM    8  C15 UNL     1      -3.496  50.108 -19.824  1.00  0.00     0.036 C 
HETATM    9  C16 UNL     1      -2.526  51.044 -20.577  1.00  0.00     0.015 C 
HETATM   10  C17 UNL     1      -2.044  50.422 -21.893  1.00  0.00    -0.028 C 
HETATM   11  C18 UNL     1      -1.180  49.174 -21.548  1.00  0.00     0.016 C 
HETATM   12  C19 UNL     1      -5.206  48.125 -19.843  1.00  0.00    -0.014 C 
HETATM   13  C20 UNL     1      -4.276  47.099 -19.138  1.00  0.00     0.020 C 
HETATM   14  C21 UNL     1      -5.992  48.900 -18.747  1.00  0.00     0.021 C 
HETATM   15  C22 UNL     1      -7.286  48.212 -18.346  1.00  0.00     0.080 C 
HETATM   16  C23 UNL     1      -8.230  48.236 -19.523  1.00  0.00     0.135 C 
HETATM   17  O1  UNL     1      -9.426  48.463 -19.349  1.00  0.00    -0.297 OA
HETATM   18  C24 UNL     1      -7.635  47.968 -20.920  1.00  0.00     0.018 C 
HETATM   19  C25 UNL     1      -7.648  49.295 -21.691  1.00  0.00     0.023 C 
HETATM   20  C26 UNL     1      -8.596  46.989 -21.632  1.00  0.00     0.023 C 
HETATM   21  C27 UNL     1      -6.214  47.314 -20.746  1.00  0.00     0.020 C 
HETATM   22  C28 UNL     1      -5.533  46.874 -22.045  1.00  0.00     0.090 C 
HETATM   23  C29 UNL     1      -4.925  48.030 -22.789  1.00  0.00     0.157 C 
HETATM   24  O2  UNL     1      -5.015  48.100 -24.011  1.00  0.00    -0.293 OA
ENDROOT
BRANCH   1  25
HETATM   25  C6  UNL     1       0.195  51.826 -22.625  1.00  0.00    -0.014 C 
HETATM   26  C7  UNL     1       0.639  51.954 -21.166  1.00  0.00     0.010 C 
BRANCH  25  27
HETATM   27  C5  UNL     1       0.522  53.105 -23.435  1.00  0.00     0.008 C 
BRANCH  27  28
HETATM   28  C4  UNL     1       0.051  53.086 -24.900  1.00  0.00     0.028 C 
BRANCH  28  29
HETATM   29  C3  UNL     1       1.115  52.669 -25.877  1.00  0.00    -0.022 C 
HETATM   30  C2  UNL     1       0.946  52.060 -27.073  1.00  0.00    -0.064 C 
HETATM   31  C1  UNL     1      -0.405  51.719 -27.646  1.00  0.00     0.045 C 
BRANCH  30  32
HETATM   32  C30 UNL     1       2.096  51.628 -27.958  1.00  0.00     0.197 C 
BRANCH  32  33
HETATM   33  O3  UNL     1       3.307  51.474 -27.230  1.00  0.00    -0.397 OA
HETATM   34  H46 UNL     1       3.499  52.345 -26.842  1.00  0.00     0.209 HD
ENDBRANCH  32  33
ENDBRANCH  30  32
ENDBRANCH  28  29
ENDBRANCH  27  28
ENDBRANCH  25  27
ENDBRANCH   1  25
TORSDOF 6
ENDMDL
MODEL 8
REMARK minimizedAffinity -8.92578793
REMARK  6 active torsions:
REMARK  status: ('A' for Active; 'I' for Inactive)
REMARK    1  A    between atoms: C2_2  and  C30_32 
REMARK    2  A    between atoms: C3_3  and  C4_4 
REMARK    3  A    between atoms: C4_4  and  C5_5 
REMARK    4  A    between atoms: C5_5  and  C6_6 
REMARK    5  A    between atoms: C6_6  and  C8_8 
REMARK    6  A    between atoms: C30_32  and  O3_33 
ROOT
HETATM    1  C8  UNL     1      -0.822  50.174 -19.127  1.00  0.00    -0.002 C 
HETATM    2  C9  UNL     1      -2.376  50.163 -19.142  1.00  0.00     0.007 C 
HETATM    3  C10 UNL     1      -2.817  50.716 -20.512  1.00  0.00     0.015 C 
HETATM    4  C11 UNL     1      -1.553  50.653 -21.394  1.00  0.00    -0.005 C 
HETATM    5  C12 UNL     1      -1.436  49.189 -21.922  1.00  0.00     0.021 C 
HETATM    6  C13 UNL     1      -1.431  51.517 -22.641  1.00  0.00    -0.000 C 
HETATM    7  C14 UNL     1      -0.224  51.928 -23.105  1.00  0.00    -0.060 C 
HETATM    8  C15 UNL     1       1.058  51.610 -22.315  1.00  0.00     0.036 C 
HETATM    9  C16 UNL     1       0.915  50.852 -20.977  1.00  0.00     0.015 C 
HETATM   10  C17 UNL     1      -0.458  51.084 -20.337  1.00  0.00    -0.028 C 
HETATM   11  C18 UNL     1      -0.557  52.586 -19.938  1.00  0.00     0.016 C 
HETATM   12  C19 UNL     1      -0.037  52.753 -24.401  1.00  0.00    -0.014 C 
HETATM   13  C20 UNL     1       0.291  54.212 -23.979  1.00  0.00     0.020 C 
HETATM   14  C21 UNL     1       1.162  52.206 -25.228  1.00  0.00     0.021 C 
HETATM   15  C22 UNL     1       1.050  52.511 -26.711  1.00  0.00     0.080 C 
HETATM   16  C23 UNL     1      -0.126  51.751 -27.272  1.00  0.00     0.135 C 
HETATM   17  O1  UNL     1      -0.042  51.212 -28.375  1.00  0.00    -0.297 OA
HETATM   18  C24 UNL     1      -1.407  51.684 -26.418  1.00  0.00     0.018 C 
HETATM   19  C25 UNL     1      -1.538  50.248 -25.891  1.00  0.00     0.023 C 
HETATM   20  C26 UNL     1      -2.593  51.958 -27.370  1.00  0.00     0.023 C 
HETATM   21  C27 UNL     1      -1.329  52.795 -25.304  1.00  0.00     0.020 C 
HETATM   22  C28 UNL     1      -2.583  52.943 -24.438  1.00  0.00     0.090 C 
HETATM   23  C29 UNL     1      -2.675  51.874 -23.385  1.00  0.00     0.157 C 
HETATM   24  O2  UNL     1      -3.753  51.345 -23.127  1.00  0.00    -0.293 OA
ENDROOT
BRANCH   1  25
HETATM   25  C6  UNL     1      -0.207  50.354 -17.705  1.00  0.00    -0.014 C 
HETATM   26  C7  UNL     1      -0.896  49.597 -16.566  1.00  0.00     0.010 C 
BRANCH  25  27
HETATM   27  C5  UNL     1      -0.016  51.852 -17.361  1.00  0.00     0.008 C 
BRANCH  27  28
HETATM   28  C4  UNL     1       1.430  52.266 -17.035  1.00  0.00     0.028 C 
BRANCH  28  29
HETATM   29  C3  UNL     1       1.945  51.709 -15.737  1.00  0.00    -0.022 C 
HETATM   30  C2  UNL     1       3.220  51.705 -15.289  1.00  0.00    -0.064 C 
HETATM   31  C1  UNL     1       4.369  52.314 -16.049  1.00  0.00     0.045 C 
BRANCH  30  32
HETATM   32  C30 UNL     1       3.643  51.061 -13.984  1.00  0.00     0.197 C 
BRANCH  32  33
HETATM   33  O3  UNL     1       4.693  50.121 -14.163  1.00  0.00    -0.397 OA
HETATM   34  H46 UNL     1       4.346  49.443 -14.768  1.00  0.00     0.209 HD
ENDBRANCH  32  33
ENDBRANCH  30  32
ENDBRANCH  28  29
ENDBRANCH  27  28
ENDBRANCH  25  27
ENDBRANCH   1  25
TORSDOF 6
ENDMDL
MODEL 9
REMARK minimizedAffinity -8.8096323
REMARK  6 active torsions:
REMARK  status: ('A' for Active; 'I' for Inactive)
REMARK    1  A    between atoms: C2_2  and  C30_32 
REMARK    2  A    between atoms: C3_3  and  C4_4 
REMARK    3  A    between atoms: C4_4  and  C5_5 
REMARK    4  A    between atoms: C5_5  and  C6_6 
REMARK    5  A    between atoms: C6_6  and  C8_8 
REMARK    6  A    between atoms: C30_32  and  O3_33 
ROOT
HETATM    1  C8  UNL     1      -2.036  50.277 -24.388  1.00  0.00    -0.002 C 
HETATM    2  C9  UNL     1      -1.921  50.760 -22.915  1.00  0.00     0.007 C 
HETATM    3  C10 UNL     1      -3.180  50.262 -22.178  1.00  0.00     0.015 C 
HETATM    4  C11 UNL     1      -3.783  49.183 -23.102  1.00  0.00    -0.005 C 
HETATM    5  C12 UNL     1      -2.995  47.862 -22.837  1.00  0.00     0.021 C 
HETATM    6  C13 UNL     1      -5.246  48.783 -22.978  1.00  0.00    -0.000 C 
HETATM    7  C14 UNL     1      -5.946  48.317 -24.042  1.00  0.00    -0.060 C 
HETATM    8  C15 UNL     1      -5.298  48.274 -25.438  1.00  0.00     0.036 C 
HETATM    9  C16 UNL     1      -3.857  48.810 -25.584  1.00  0.00     0.015 C 
HETATM   10  C17 UNL     1      -3.530  49.855 -24.510  1.00  0.00    -0.028 C 
HETATM   11  C18 UNL     1      -4.429  51.101 -24.760  1.00  0.00     0.016 C 
HETATM   12  C19 UNL     1      -7.416  47.836 -23.959  1.00  0.00    -0.014 C 
HETATM   13  C20 UNL     1      -8.300  48.936 -24.612  1.00  0.00     0.020 C 
HETATM   14  C21 UNL     1      -7.605  46.520 -24.766  1.00  0.00     0.021 C 
HETATM   15  C22 UNL     1      -8.770  45.681 -24.268  1.00  0.00     0.080 C 
HETATM   16  C23 UNL     1      -8.449  45.187 -22.879  1.00  0.00     0.135 C 
HETATM   17  O1  UNL     1      -8.736  44.036 -22.553  1.00  0.00    -0.297 OA
HETATM   18  C24 UNL     1      -7.762  46.172 -21.912  1.00  0.00     0.018 C 
HETATM   19  C25 UNL     1      -6.311  45.704 -21.729  1.00  0.00     0.023 C 
HETATM   20  C26 UNL     1      -8.485  46.040 -20.553  1.00  0.00     0.023 C 
HETATM   21  C27 UNL     1      -7.922  47.631 -22.480  1.00  0.00     0.020 C 
HETATM   22  C28 UNL     1      -7.395  48.748 -21.575  1.00  0.00     0.090 C 
HETATM   23  C29 UNL     1      -5.898  48.872 -21.638  1.00  0.00     0.157 C 
HETATM   24  O2  UNL     1      -5.246  49.076 -20.618  1.00  0.00    -0.293 OA
ENDROOT
BRANCH   1  25
HETATM   25  C6  UNL     1      -1.323  51.211 -25.414  1.00  0.00    -0.014 C 
HETATM   26  C7  UNL     1      -0.160  50.596 -26.198  1.00  0.00     0.010 C 
BRANCH  25  27
HETATM   27  C5  UNL     1      -0.924  52.559 -24.765  1.00  0.00     0.008 C 
BRANCH  27  28
HETATM   28  C4  UNL     1       0.517  52.622 -24.228  1.00  0.00     0.028 C 
BRANCH  28  29
HETATM   29  C3  UNL     1       0.623  52.419 -22.742  1.00  0.00    -0.022 C 
HETATM   30  C2  UNL     1       1.061  53.303 -21.817  1.00  0.00    -0.064 C 
HETATM   31  C1  UNL     1       1.501  54.704 -22.151  1.00  0.00     0.045 C 
BRANCH  30  32
HETATM   32  C30 UNL     1       1.184  52.974 -20.344  1.00  0.00     0.197 C 
BRANCH  32  33
HETATM   33  O3  UNL     1       1.601  54.093 -19.575  1.00  0.00    -0.397 OA
HETATM   34  H46 UNL     1       2.470  54.353 -19.928  1.00  0.00     0.209 HD
ENDBRANCH  32  33
ENDBRANCH  30  32
ENDBRANCH  28  29
ENDBRANCH  27  28
ENDBRANCH  25  27
ENDBRANCH   1  25
TORSDOF 6
ENDMDL
