MODEL 1
REMARK minimizedAffinity -10.4913111
REMARK  5 active torsions:
REMARK  status: ('A' for Active; 'I' for Inactive)
REMARK    1  A    between atoms: N1_2  and  C2_3 
REMARK    2  A    between atoms: C4_5  and  N4_34 
REMARK    3  A    between atoms: C5_7  and  N2_12 
REMARK    4  A    between atoms: C7_9  and  O2_10 
REMARK    5  A    between atoms: C27_35  and  C28_36 
ROOT
HETATM    1  C2  UNL     1       9.364  -9.031  25.377  1.00  0.00     0.257 C 
HETATM    2  C3  UNL     1       8.365  -8.792  26.514  1.00  0.00     0.092 C 
HETATM    3  C4  UNL     1       8.963  -9.103  27.891  1.00  0.00     0.234 C 
HETATM    4  O1  UNL     1      10.244  -9.723  27.855  1.00  0.00    -0.333 OA
HETATM    5  C5  UNL     1      11.268  -9.114  27.030  1.00  0.00     0.168 C 
HETATM    6  C6  UNL     1      12.036 -10.382  26.587  1.00  0.00     0.074 C 
HETATM    7  C7  UNL     1      10.708  -8.376  25.767  1.00  0.00     0.209 C 
ENDROOT
BRANCH   1   8
HETATM    8  N1  UNL     1       8.901  -8.478  24.088  1.00  0.00     0.086 N 
HETATM    9  C1  UNL     1       9.625  -8.991  22.935  1.00  0.00     0.307 C 
HETATM   10  H4  UNL     1       7.902  -8.677  23.986  1.00  0.00     0.316 HD
ENDBRANCH   1   8
BRANCH   7  11
HETATM   11  O2  UNL     1      10.413  -6.983  26.027  1.00  0.00    -0.384 OA
HETATM   12  C8  UNL     1      11.564  -6.232  26.399  1.00  0.00     0.202 C 
ENDBRANCH   7  11
BRANCH   3  13
HETATM   13  N4  UNL     1       8.949  -8.005  28.852  1.00  0.00    -0.316 N 
HETATM   14  C26 UNL     1      10.067  -7.537  29.527  1.00  0.00     0.048 A 
HETATM   15  C21 UNL     1       9.679  -6.386  30.234  1.00  0.00     0.004 A 
HETATM   16  C25 UNL     1      11.387  -8.021  29.564  1.00  0.00     0.030 A 
HETATM   17  C20 UNL     1       8.291  -6.172  29.974  1.00  0.00     0.022 A 
HETATM   18  C22 UNL     1      10.655  -5.714  31.000  1.00  0.00     0.014 A 
HETATM   19  C19 UNL     1       7.281  -5.263  30.310  1.00  0.00     0.062 A 
HETATM   20  C27 UNL     1       7.887  -7.203  29.142  1.00  0.00     0.077 A 
HETATM   21  C16 UNL     1       5.938  -5.369  29.872  1.00  0.00     0.062 A 
HETATM   22  C18 UNL     1       7.362  -4.070  31.153  1.00  0.00     0.260 A 
HETATM   23  C15 UNL     1       5.453  -6.403  29.059  1.00  0.00     0.022 A 
HETATM   24  C17 UNL     1       5.213  -4.241  30.458  1.00  0.00     0.260 A 
HETATM   25  C14 UNL     1       4.217  -6.850  28.509  1.00  0.00     0.004 A 
HETATM   26  C28 UNL     1       6.403  -7.328  28.664  1.00  0.00     0.078 A 
HETATM   27  C9  UNL     1       4.459  -8.062  27.831  1.00  0.00     0.049 A 
HETATM   28  C13 UNL     1       2.893  -6.357  28.567  1.00  0.00     0.014 A 
HETATM   29  N2  UNL     1       5.831  -8.299  27.882  1.00  0.00    -0.308 N 
HETATM   30  C10 UNL     1       3.390  -8.793  27.275  1.00  0.00     0.030 A 
HETATM   31  C11 UNL     1       2.092  -8.279  27.354  1.00  0.00     0.002 A 
HETATM   32  C12 UNL     1       1.845  -7.070  27.983  1.00  0.00     0.001 A 
HETATM   33  O3  UNL     1       4.035  -3.971  30.330  1.00  0.00    -0.267 OA
HETATM   34  N3  UNL     1       6.115  -3.533  31.187  1.00  0.00    -0.289 N 
HETATM   35  H20 UNL     1       5.883  -2.698  31.700  1.00  0.00     0.172 HD
HETATM   36  O4  UNL     1       8.343  -3.631  31.720  1.00  0.00    -0.267 OA
HETATM   37  C23 UNL     1      11.969  -6.195  31.043  1.00  0.00     0.001 A 
HETATM   38  C24 UNL     1      12.327  -7.333  30.334  1.00  0.00     0.002 A 
ENDBRANCH   3  13
TORSDOF 5
ENDMDL
MODEL 2
REMARK minimizedAffinity -10.2943296
REMARK  5 active torsions:
REMARK  status: ('A' for Active; 'I' for Inactive)
REMARK    1  A    between atoms: N1_2  and  C2_3 
REMARK    2  A    between atoms: C4_5  and  N4_34 
REMARK    3  A    between atoms: C5_7  and  N2_12 
REMARK    4  A    between atoms: C7_9  and  O2_10 
REMARK    5  A    between atoms: C27_35  and  C28_36 
ROOT
HETATM    1  C2  UNL     1      11.061  -9.985  27.443  1.00  0.00     0.257 C 
HETATM    2  C3  UNL     1       9.881 -10.006  28.422  1.00  0.00     0.092 C 
HETATM    3  C4  UNL     1       9.542  -8.609  28.956  1.00  0.00     0.234 C 
HETATM    4  O1  UNL     1      10.478  -7.596  28.605  1.00  0.00    -0.333 OA
HETATM    5  C5  UNL     1      10.860  -7.481  27.211  1.00  0.00     0.168 C 
HETATM    6  C6  UNL     1      12.325  -7.014  27.379  1.00  0.00     0.074 C 
HETATM    7  C7  UNL     1      10.831  -8.839  26.432  1.00  0.00     0.209 C 
ENDROOT
BRANCH   1   8
HETATM    8  N1  UNL     1      11.219 -11.261  26.717  1.00  0.00     0.086 N 
HETATM    9  C1  UNL     1      11.250 -12.429  27.583  1.00  0.00     0.307 C 
HETATM   10  H4  UNL     1      10.455 -11.351  26.042  1.00  0.00     0.316 HD
ENDBRANCH   1   8
BRANCH   7  11
HETATM   11  O2  UNL     1       9.545  -9.098  25.820  1.00  0.00    -0.384 OA
HETATM   12  C8  UNL     1       9.399  -8.471  24.550  1.00  0.00     0.202 C 
ENDBRANCH   7  11
BRANCH   3  13
HETATM   13  N4  UNL     1       8.176  -8.153  28.719  1.00  0.00    -0.316 N 
HETATM   14  C26 UNL     1       7.219  -8.871  28.016  1.00  0.00     0.048 A 
HETATM   15  C21 UNL     1       6.003  -8.178  28.138  1.00  0.00     0.004 A 
HETATM   16  C25 UNL     1       7.319 -10.076  27.298  1.00  0.00     0.030 A 
HETATM   17  C20 UNL     1       6.249  -7.015  28.928  1.00  0.00     0.022 A 
HETATM   18  C22 UNL     1       4.861  -8.722  27.510  1.00  0.00     0.014 A 
HETATM   19  C19 UNL     1       5.547  -5.919  29.445  1.00  0.00     0.062 A 
HETATM   20  C27 UNL     1       7.599  -7.034  29.239  1.00  0.00     0.077 A 
HETATM   21  C16 UNL     1       6.140  -4.884  30.209  1.00  0.00     0.062 A 
HETATM   22  C18 UNL     1       4.127  -5.595  29.316  1.00  0.00     0.260 A 
HETATM   23  C15 UNL     1       7.503  -4.822  30.530  1.00  0.00     0.022 A 
HETATM   24  C17 UNL     1       5.073  -3.935  30.532  1.00  0.00     0.260 A 
HETATM   25  C14 UNL     1       8.416  -3.944  31.182  1.00  0.00     0.004 A 
HETATM   26  C28 UNL     1       8.258  -5.887  30.073  1.00  0.00     0.078 A 
HETATM   27  C9  UNL     1       9.709  -4.495  31.058  1.00  0.00     0.049 A 
HETATM   28  C13 UNL     1       8.270  -2.696  31.829  1.00  0.00     0.014 A 
HETATM   29  N2  UNL     1       9.574  -5.731  30.430  1.00  0.00    -0.308 N 
HETATM   30  C10 UNL     1      10.833  -3.782  31.520  1.00  0.00     0.030 A 
HETATM   31  C11 UNL     1      10.653  -2.548  32.151  1.00  0.00     0.002 A 
HETATM   32  C12 UNL     1       9.386  -2.014  32.315  1.00  0.00     0.001 A 
HETATM   33  O3  UNL     1       5.167  -2.906  31.171  1.00  0.00    -0.267 OA
HETATM   34  N3  UNL     1       3.933  -4.425  29.978  1.00  0.00    -0.289 N 
HETATM   35  H20 UNL     1       3.039  -3.968  30.048  1.00  0.00     0.172 HD
HETATM   36  O4  UNL     1       3.273  -6.235  28.735  1.00  0.00    -0.267 OA
HETATM   37  C23 UNL     1       4.956  -9.918  26.791  1.00  0.00     0.001 A 
HETATM   38  C24 UNL     1       6.170 -10.584  26.688  1.00  0.00     0.002 A 
ENDBRANCH   3  13
TORSDOF 5
ENDMDL
MODEL 3
REMARK minimizedAffinity -9.91362476
REMARK  5 active torsions:
REMARK  status: ('A' for Active; 'I' for Inactive)
REMARK    1  A    between atoms: N1_2  and  C2_3 
REMARK    2  A    between atoms: C4_5  and  N4_34 
REMARK    3  A    between atoms: C5_7  and  N2_12 
REMARK    4  A    between atoms: C7_9  and  O2_10 
REMARK    5  A    between atoms: C27_35  and  C28_36 
ROOT
HETATM    1  C2  UNL     1      11.130  -7.411  26.891  1.00  0.00     0.257 C 
HETATM    2  C3  UNL     1       9.726  -7.833  27.338  1.00  0.00     0.092 C 
HETATM    3  C4  UNL     1       9.609  -7.943  28.863  1.00  0.00     0.234 C 
HETATM    4  O1  UNL     1      10.842  -7.822  29.563  1.00  0.00    -0.333 OA
HETATM    5  C5  UNL     1      11.695  -6.695  29.243  1.00  0.00     0.168 C 
HETATM    6  C6  UNL     1      13.081  -7.344  29.464  1.00  0.00     0.074 C 
HETATM    7  C7  UNL     1      11.575  -6.212  27.758  1.00  0.00     0.209 C 
ENDROOT
BRANCH   1   8
HETATM    8  N1  UNL     1      11.183  -7.035  25.463  1.00  0.00     0.086 N 
HETATM    9  C1  UNL     1      10.171  -7.689  24.647  1.00  0.00     0.307 C 
HETATM   10  H4  UNL     1      11.085  -6.019  25.388  1.00  0.00     0.316 HD
ENDBRANCH   1   8
BRANCH   7  11
HETATM   11  O2  UNL     1      10.558  -5.196  27.588  1.00  0.00    -0.384 OA
HETATM   12  C8  UNL     1      11.100  -3.907  27.325  1.00  0.00     0.202 C 
ENDBRANCH   7  11
BRANCH   3  13
HETATM   13  N4  UNL     1       8.581  -7.113  29.482  1.00  0.00    -0.316 N 
HETATM   14  C26 UNL     1       8.830  -6.124  30.423  1.00  0.00     0.048 A 
HETATM   15  C21 UNL     1       7.619  -5.453  30.656  1.00  0.00     0.004 A 
HETATM   16  C25 UNL     1      10.021  -5.758  31.076  1.00  0.00     0.030 A 
HETATM   17  C20 UNL     1       6.624  -6.065  29.836  1.00  0.00     0.022 A 
HETATM   18  C22 UNL     1       7.617  -4.385  31.580  1.00  0.00     0.014 A 
HETATM   19  C19 UNL     1       5.261  -5.929  29.546  1.00  0.00     0.062 A 
HETATM   20  C27 UNL     1       7.259  -7.090  29.154  1.00  0.00     0.077 A 
HETATM   21  C16 UNL     1       4.550  -6.766  28.652  1.00  0.00     0.062 A 
HETATM   22  C18 UNL     1       4.302  -4.959  30.077  1.00  0.00     0.260 A 
HETATM   23  C15 UNL     1       5.121  -7.841  27.957  1.00  0.00     0.022 A 
HETATM   24  C17 UNL     1       3.162  -6.300  28.651  1.00  0.00     0.260 A 
HETATM   25  C14 UNL     1       4.720  -8.888  27.077  1.00  0.00     0.004 A 
HETATM   26  C28 UNL     1       6.475  -8.022  28.173  1.00  0.00     0.078 A 
HETATM   27  C9  UNL     1       5.847  -9.696  26.825  1.00  0.00     0.049 A 
HETATM   28  C13 UNL     1       3.480  -9.256  26.505  1.00  0.00     0.014 A 
HETATM   29  N2  UNL     1       6.935  -9.099  27.458  1.00  0.00    -0.308 N 
HETATM   30  C10 UNL     1       5.722 -10.877  26.066  1.00  0.00     0.030 A 
HETATM   31  C11 UNL     1       4.480 -11.213  25.519  1.00  0.00     0.002 A 
HETATM   32  C12 UNL     1       3.372 -10.408  25.726  1.00  0.00     0.001 A 
HETATM   33  O3  UNL     1       2.230  -6.755  28.018  1.00  0.00    -0.267 OA
HETATM   34  N3  UNL     1       3.104  -5.244  29.504  1.00  0.00    -0.289 N 
HETATM   35  H20 UNL     1       2.261  -4.728  29.694  1.00  0.00     0.172 HD
HETATM   36  O4  UNL     1       4.517  -4.067  30.873  1.00  0.00    -0.267 OA
HETATM   37  C23 UNL     1       8.798  -4.019  32.235  1.00  0.00     0.001 A 
HETATM   38  C24 UNL     1       9.983  -4.698  31.985  1.00  0.00     0.002 A 
ENDBRANCH   3  13
TORSDOF 5
ENDMDL
MODEL 4
REMARK minimizedAffinity -9.86474991
REMARK  5 active torsions:
REMARK  status: ('A' for Active; 'I' for Inactive)
REMARK    1  A    between atoms: N1_2  and  C2_3 
REMARK    2  A    between atoms: C4_5  and  N4_34 
REMARK    3  A    between atoms: C5_7  and  N2_12 
REMARK    4  A    between atoms: C7_9  and  O2_10 
REMARK    5  A    between atoms: C27_35  and  C28_36 
ROOT
HETATM    1  C2  UNL     1       8.060 -10.462  26.146  1.00  0.00     0.257 C 
HETATM    2  C3  UNL     1       7.081 -10.264  27.309  1.00  0.00     0.092 C 
HETATM    3  C4  UNL     1       7.589  -9.239  28.330  1.00  0.00     0.234 C 
HETATM    4  O1  UNL     1       8.929  -8.806  28.120  1.00  0.00    -0.333 OA
HETATM    5  C5  UNL     1       9.296  -8.359  26.791  1.00  0.00     0.168 C 
HETATM    6  C6  UNL     1      10.773  -8.820  26.759  1.00  0.00     0.074 C 
HETATM    7  C7  UNL     1       8.502  -9.070  25.643  1.00  0.00     0.209 C 
ENDROOT
BRANCH   1   8
HETATM    8  N1  UNL     1       7.468 -11.226  25.029  1.00  0.00     0.086 N 
HETATM    9  C1  UNL     1       6.125 -11.714  25.300  1.00  0.00     0.307 C 
HETATM   10  H4  UNL     1       7.460 -10.634  24.194  1.00  0.00     0.316 HD
ENDBRANCH   1   8
BRANCH   7  11
HETATM   11  O2  UNL     1       7.287  -8.366  25.293  1.00  0.00    -0.384 OA
HETATM   12  C8  UNL     1       7.372  -6.964  25.525  1.00  0.00     0.202 C 
ENDBRANCH   7  11
BRANCH   3  13
HETATM   13  N4  UNL     1       6.712  -8.099  28.574  1.00  0.00    -0.316 N 
HETATM   14  C26 UNL     1       5.379  -8.036  28.194  1.00  0.00     0.048 A 
HETATM   15  C21 UNL     1       4.842  -6.858  28.739  1.00  0.00     0.004 A 
HETATM   16  C25 UNL     1       4.600  -8.924  27.429  1.00  0.00     0.030 A 
HETATM   17  C20 UNL     1       5.888  -6.202  29.456  1.00  0.00     0.022 A 
HETATM   18  C22 UNL     1       3.481  -6.573  28.496  1.00  0.00     0.014 A 
HETATM   19  C19 UNL     1       6.081  -5.047  30.223  1.00  0.00     0.062 A 
HETATM   20  C27 UNL     1       7.017  -6.990  29.305  1.00  0.00     0.077 A 
HETATM   21  C16 UNL     1       7.321  -4.670  30.795  1.00  0.00     0.062 A 
HETATM   22  C18 UNL     1       5.113  -4.011  30.581  1.00  0.00     0.260 A 
HETATM   23  C15 UNL     1       8.509  -5.401  30.654  1.00  0.00     0.022 A 
HETATM   24  C17 UNL     1       7.096  -3.403  31.493  1.00  0.00     0.260 A 
HETATM   25  C14 UNL     1       9.885  -5.297  31.009  1.00  0.00     0.004 A 
HETATM   26  C28 UNL     1       8.389  -6.572  29.927  1.00  0.00     0.078 A 
HETATM   27  C9  UNL     1      10.562  -6.397  30.443  1.00  0.00     0.049 A 
HETATM   28  C13 UNL     1      10.634  -4.334  31.724  1.00  0.00     0.014 A 
HETATM   29  N2  UNL     1       9.602  -7.207  29.839  1.00  0.00    -0.308 N 
HETATM   30  C10 UNL     1      11.963  -6.498  30.542  1.00  0.00     0.030 A 
HETATM   31  C11 UNL     1      12.674  -5.525  31.252  1.00  0.00     0.002 A 
HETATM   32  C12 UNL     1      12.018  -4.461  31.846  1.00  0.00     0.001 A 
HETATM   33  O3  UNL     1       7.908  -2.745  32.111  1.00  0.00    -0.267 OA
HETATM   34  N3  UNL     1       5.784  -3.091  31.322  1.00  0.00    -0.289 N 
HETATM   35  H20 UNL     1       5.355  -2.263  31.702  1.00  0.00     0.172 HD
HETATM   36  O4  UNL     1       3.936  -3.965  30.284  1.00  0.00    -0.267 OA
HETATM   37  C23 UNL     1       2.703  -7.450  27.733  1.00  0.00     0.001 A 
HETATM   38  C24 UNL     1       3.258  -8.609  27.207  1.00  0.00     0.002 A 
ENDBRANCH   3  13
TORSDOF 5
ENDMDL
MODEL 5
REMARK minimizedAffinity -9.61969948
REMARK  5 active torsions:
REMARK  status: ('A' for Active; 'I' for Inactive)
REMARK    1  A    between atoms: N1_2  and  C2_3 
REMARK    2  A    between atoms: C4_5  and  N4_34 
REMARK    3  A    between atoms: C5_7  and  N2_12 
REMARK    4  A    between atoms: C7_9  and  O2_10 
REMARK    5  A    between atoms: C27_35  and  C28_36 
ROOT
HETATM    1  C2  UNL     1      11.320  -3.730  33.211  1.00  0.00     0.257 C 
HETATM    2  C3  UNL     1      11.508  -4.829  32.159  1.00  0.00     0.092 C 
HETATM    3  C4  UNL     1      10.352  -5.836  32.156  1.00  0.00     0.234 C 
HETATM    4  O1  UNL     1       9.429  -5.684  33.229  1.00  0.00    -0.333 OA
HETATM    5  C5  UNL     1       8.892  -4.361  33.478  1.00  0.00     0.168 C 
HETATM    6  C6  UNL     1       8.734  -4.428  35.015  1.00  0.00     0.074 C 
HETATM    7  C7  UNL     1       9.873  -3.199  33.104  1.00  0.00     0.209 C 
ENDROOT
BRANCH   1   8
HETATM    8  N1  UNL     1      12.271  -2.612  33.041  1.00  0.00     0.086 N 
HETATM    9  C1  UNL     1      11.721  -1.480  32.311  1.00  0.00     0.307 C 
HETATM   10  H4  UNL     1      12.587  -2.307  33.965  1.00  0.00     0.316 HD
ENDBRANCH   1   8
BRANCH   7  11
HETATM   11  O2  UNL     1       9.709  -2.756  31.736  1.00  0.00    -0.384 OA
HETATM   12  C8  UNL     1       8.589  -1.895  31.561  1.00  0.00     0.202 C 
ENDBRANCH   7  11
BRANCH   3  13
HETATM   13  N4  UNL     1       9.646  -5.988  30.887  1.00  0.00    -0.316 N 
HETATM   14  C26 UNL     1       8.325  -5.624  30.674  1.00  0.00     0.048 A 
HETATM   15  C21 UNL     1       8.063  -5.779  29.303  1.00  0.00     0.004 A 
HETATM   16  C25 UNL     1       7.344  -5.160  31.570  1.00  0.00     0.030 A 
HETATM   17  C20 UNL     1       9.261  -6.255  28.688  1.00  0.00     0.022 A 
HETATM   18  C22 UNL     1       6.772  -5.459  28.831  1.00  0.00     0.014 A 
HETATM   19  C19 UNL     1       9.730  -6.607  27.417  1.00  0.00     0.062 A 
HETATM   20  C27 UNL     1      10.193  -6.387  29.705  1.00  0.00     0.077 A 
HETATM   21  C16 UNL     1      11.037  -7.086  27.157  1.00  0.00     0.062 A 
HETATM   22  C18 UNL     1       9.022  -6.581  26.138  1.00  0.00     0.260 A 
HETATM   23  C15 UNL     1      12.018  -7.278  28.140  1.00  0.00     0.022 A 
HETATM   24  C17 UNL     1      11.110  -7.352  25.719  1.00  0.00     0.260 A 
HETATM   25  C14 UNL     1      13.345  -7.782  28.253  1.00  0.00     0.004 A 
HETATM   26  C28 UNL     1      11.634  -6.925  29.422  1.00  0.00     0.078 A 
HETATM   27  C9  UNL     1      13.704  -7.756  29.616  1.00  0.00     0.049 A 
HETATM   28  C13 UNL     1      14.266  -8.311  27.319  1.00  0.00     0.014 A 
HETATM   29  N2  UNL     1      12.655  -7.156  30.309  1.00  0.00    -0.308 N 
HETATM   30  C10 UNL     1      14.933  -8.301  30.040  1.00  0.00     0.030 A 
HETATM   31  C11 UNL     1      15.818  -8.819  29.090  1.00  0.00     0.002 A 
HETATM   32  C12 UNL     1      15.495  -8.816  27.743  1.00  0.00     0.001 A 
HETATM   33  O3  UNL     1      12.060  -7.778  25.093  1.00  0.00    -0.267 OA
HETATM   34  N3  UNL     1       9.896  -7.029  25.200  1.00  0.00    -0.289 N 
HETATM   35  H20 UNL     1       9.668  -7.115  24.223  1.00  0.00     0.172 HD
HETATM   36  O4  UNL     1       7.877  -6.230  25.934  1.00  0.00    -0.267 OA
HETATM   37  C23 UNL     1       5.792  -5.000  29.718  1.00  0.00     0.001 A 
HETATM   38  C24 UNL     1       6.077  -4.854  31.069  1.00  0.00     0.002 A 
ENDBRANCH   3  13
TORSDOF 5
ENDMDL
MODEL 6
REMARK minimizedAffinity -9.25537586
REMARK  5 active torsions:
REMARK  status: ('A' for Active; 'I' for Inactive)
REMARK    1  A    between atoms: N1_2  and  C2_3 
REMARK    2  A    between atoms: C4_5  and  N4_34 
REMARK    3  A    between atoms: C5_7  and  N2_12 
REMARK    4  A    between atoms: C7_9  and  O2_10 
REMARK    5  A    between atoms: C27_35  and  C28_36 
ROOT
HETATM    1  C2  UNL     1      11.320  -6.700  28.427  1.00  0.00     0.257 C 
HETATM    2  C3  UNL     1      10.265  -7.431  29.265  1.00  0.00     0.092 C 
HETATM    3  C4  UNL     1       9.318  -6.463  29.983  1.00  0.00     0.234 C 
HETATM    4  O1  UNL     1       9.695  -5.093  29.899  1.00  0.00    -0.333 OA
HETATM    5  C5  UNL     1      10.003  -4.555  28.589  1.00  0.00     0.168 C 
HETATM    6  C6  UNL     1      11.092  -3.526  28.978  1.00  0.00     0.074 C 
HETATM    7  C7  UNL     1      10.609  -5.607  27.599  1.00  0.00     0.209 C 
ENDROOT
BRANCH   1   8
HETATM    8  N1  UNL     1      12.053  -7.607  27.520  1.00  0.00     0.086 N 
HETATM    9  C1  UNL     1      13.444  -7.811  27.894  1.00  0.00     0.307 C 
HETATM   10  H4  UNL     1      11.567  -8.507  27.492  1.00  0.00     0.316 HD
ENDBRANCH   1   8
BRANCH   7  11
HETATM   11  O2  UNL     1       9.592  -6.287  26.826  1.00  0.00    -0.384 OA
HETATM   12  C8  UNL     1      10.021  -6.613  25.509  1.00  0.00     0.202 C 
ENDBRANCH   7  11
BRANCH   3  13
HETATM   13  N4  UNL     1       7.899  -6.626  29.687  1.00  0.00    -0.316 N 
HETATM   14  C26 UNL     1       6.910  -5.723  30.052  1.00  0.00     0.048 A 
HETATM   15  C21 UNL     1       5.712  -6.151  29.458  1.00  0.00     0.004 A 
HETATM   16  C25 UNL     1       6.975  -4.561  30.842  1.00  0.00     0.030 A 
HETATM   17  C20 UNL     1       5.997  -7.344  28.727  1.00  0.00     0.022 A 
HETATM   18  C22 UNL     1       4.548  -5.381  29.677  1.00  0.00     0.014 A 
HETATM   19  C19 UNL     1       5.332  -8.274  27.919  1.00  0.00     0.062 A 
HETATM   20  C27 UNL     1       7.344  -7.605  28.919  1.00  0.00     0.077 A 
HETATM   21  C16 UNL     1       5.948  -9.413  27.345  1.00  0.00     0.062 A 
HETATM   22  C18 UNL     1       3.927  -8.297  27.513  1.00  0.00     0.260 A 
HETATM   23  C15 UNL     1       7.295  -9.755  27.526  1.00  0.00     0.022 A 
HETATM   24  C17 UNL     1       4.908 -10.123  26.598  1.00  0.00     0.260 A 
HETATM   25  C14 UNL     1       8.194 -10.806  27.180  1.00  0.00     0.004 A 
HETATM   26  C28 UNL     1       8.024  -8.866  28.294  1.00  0.00     0.078 A 
HETATM   27  C9  UNL     1       9.434 -10.533  27.793  1.00  0.00     0.049 A 
HETATM   28  C13 UNL     1       8.053 -12.000  26.437  1.00  0.00     0.014 A 
HETATM   29  N2  UNL     1       9.323  -9.292  28.418  1.00  0.00    -0.308 N 
HETATM   30  C10 UNL     1      10.488 -11.464  27.712  1.00  0.00     0.030 A 
HETATM   31  C11 UNL     1      10.313 -12.637  26.973  1.00  0.00     0.002 A 
HETATM   32  C12 UNL     1       9.114 -12.900  26.333  1.00  0.00     0.001 A 
HETATM   33  O3  UNL     1       5.026 -11.152  25.964  1.00  0.00    -0.267 OA
HETATM   34  N3  UNL     1       3.763  -9.405  26.745  1.00  0.00    -0.289 N 
HETATM   35  H20 UNL     1       2.885  -9.669  26.329  1.00  0.00     0.172 HD
HETATM   36  O4  UNL     1       3.062  -7.493  27.796  1.00  0.00    -0.267 OA
HETATM   37  C23 UNL     1       4.607  -4.226  30.465  1.00  0.00     0.001 A 
HETATM   38  C24 UNL     1       5.805  -3.824  31.039  1.00  0.00     0.002 A 
ENDBRANCH   3  13
TORSDOF 5
ENDMDL
MODEL 7
REMARK minimizedAffinity -9.17493057
REMARK  5 active torsions:
REMARK  status: ('A' for Active; 'I' for Inactive)
REMARK    1  A    between atoms: N1_2  and  C2_3 
REMARK    2  A    between atoms: C4_5  and  N4_34 
REMARK    3  A    between atoms: C5_7  and  N2_12 
REMARK    4  A    between atoms: C7_9  and  O2_10 
REMARK    5  A    between atoms: C27_35  and  C28_36 
ROOT
HETATM    1  C2  UNL     1       8.058  -8.811  25.780  1.00  0.00     0.257 C 
HETATM    2  C3  UNL     1       8.038  -8.864  27.312  1.00  0.00     0.092 C 
HETATM    3  C4  UNL     1       9.288  -9.538  27.888  1.00  0.00     0.234 C 
HETATM    4  O1  UNL     1      10.133 -10.148  26.919  1.00  0.00    -0.333 OA
HETATM    5  C5  UNL     1      10.520  -9.359  25.765  1.00  0.00     0.168 C 
HETATM    6  C6  UNL     1      10.604 -10.478  24.700  1.00  0.00     0.074 C 
HETATM    7  C7  UNL     1       9.446  -8.305  25.332  1.00  0.00     0.209 C 
ENDROOT
BRANCH   1   8
HETATM    8  N1  UNL     1       7.008  -7.929  25.229  1.00  0.00     0.086 N 
HETATM    9  C1  UNL     1       5.657  -8.335  25.581  1.00  0.00     0.307 C 
HETATM   10  H4  UNL     1       7.179  -6.974  25.553  1.00  0.00     0.316 HD
ENDBRANCH   1   8
BRANCH   7  11
HETATM   11  O2  UNL     1       9.636  -7.025  25.981  1.00  0.00    -0.384 OA
HETATM   12  C8  UNL     1      11.006  -6.657  26.094  1.00  0.00     0.202 C 
ENDBRANCH   7  11
BRANCH   3  13
HETATM   13  N4  UNL     1      10.071  -8.733  28.820  1.00  0.00    -0.316 N 
HETATM   14  C26 UNL     1      11.406  -8.957  29.124  1.00  0.00     0.048 A 
HETATM   15  C21 UNL     1      11.837  -7.890  29.930  1.00  0.00     0.004 A 
HETATM   16  C25 UNL     1      12.271 -10.000  28.747  1.00  0.00     0.030 A 
HETATM   17  C20 UNL     1      10.724  -7.014  30.114  1.00  0.00     0.022 A 
HETATM   18  C22 UNL     1      13.179  -7.886  30.367  1.00  0.00     0.014 A 
HETATM   19  C19 UNL     1      10.423  -5.807  30.756  1.00  0.00     0.062 A 
HETATM   20  C27 UNL     1       9.662  -7.587  29.433  1.00  0.00     0.077 A 
HETATM   21  C16 UNL     1       9.143  -5.202  30.752  1.00  0.00     0.062 A 
HETATM   22  C18 UNL     1      11.301  -4.945  31.548  1.00  0.00     0.260 A 
HETATM   23  C15 UNL     1       8.017  -5.743  30.114  1.00  0.00     0.022 A 
HETATM   24  C17 UNL     1       9.252  -3.978  31.547  1.00  0.00     0.260 A 
HETATM   25  C14 UNL     1       6.628  -5.465  29.966  1.00  0.00     0.004 A 
HETATM   26  C28 UNL     1       8.245  -6.926  29.434  1.00  0.00     0.078 A 
HETATM   27  C9  UNL     1       6.052  -6.522  29.231  1.00  0.00     0.049 A 
HETATM   28  C13 UNL     1       5.788  -4.429  30.435  1.00  0.00     0.014 A 
HETATM   29  N2  UNL     1       7.086  -7.377  28.855  1.00  0.00    -0.308 N 
HETATM   30  C10 UNL     1       4.659  -6.568  29.023  1.00  0.00     0.030 A 
HETATM   31  C11 UNL     1       3.857  -5.529  29.504  1.00  0.00     0.002 A 
HETATM   32  C12 UNL     1       4.415  -4.465  30.194  1.00  0.00     0.001 A 
HETATM   33  O3  UNL     1       8.375  -3.174  31.791  1.00  0.00    -0.267 OA
HETATM   34  N3  UNL     1      10.541  -3.902  31.971  1.00  0.00    -0.289 N 
HETATM   35  H20 UNL     1      10.896  -3.151  32.541  1.00  0.00     0.172 HD
HETATM   36  O4  UNL     1      12.479  -5.113  31.790  1.00  0.00    -0.267 OA
HETATM   37  C23 UNL     1      14.043  -8.923  29.997  1.00  0.00     0.001 A 
HETATM   38  C24 UNL     1      13.592  -9.965  29.198  1.00  0.00     0.002 A 
ENDBRANCH   3  13
TORSDOF 5
ENDMDL
MODEL 8
REMARK minimizedAffinity -9.10442257
REMARK  5 active torsions:
REMARK  status: ('A' for Active; 'I' for Inactive)
REMARK    1  A    between atoms: N1_2  and  C2_3 
REMARK    2  A    between atoms: C4_5  and  N4_34 
REMARK    3  A    between atoms: C5_7  and  N2_12 
REMARK    4  A    between atoms: C7_9  and  O2_10 
REMARK    5  A    between atoms: C27_35  and  C28_36 
ROOT
HETATM    1  C2  UNL     1      10.941  -3.877  32.808  1.00  0.00     0.257 C 
HETATM    2  C3  UNL     1      10.923  -5.390  32.562  1.00  0.00     0.092 C 
HETATM    3  C4  UNL     1       9.723  -5.828  31.715  1.00  0.00     0.234 C 
HETATM    4  O1  UNL     1       8.762  -4.806  31.473  1.00  0.00    -0.333 OA
HETATM    5  C5  UNL     1       9.240  -3.531  30.978  1.00  0.00     0.168 C 
HETATM    6  C6  UNL     1       8.215  -2.588  31.652  1.00  0.00     0.074 C 
HETATM    7  C7  UNL     1      10.683  -3.164  31.462  1.00  0.00     0.209 C 
ENDROOT
BRANCH   1   8
HETATM    8  N1  UNL     1      12.221  -3.409  33.378  1.00  0.00     0.086 N 
HETATM    9  C1  UNL     1      12.095  -2.832  34.707  1.00  0.00     0.307 C 
HETATM   10  H4  UNL     1      12.876  -4.195  33.402  1.00  0.00     0.316 HD
ENDBRANCH   1   8
BRANCH   7  11
HETATM   11  O2  UNL     1      11.707  -3.639  30.555  1.00  0.00    -0.384 OA
HETATM   12  C8  UNL     1      11.353  -3.478  29.186  1.00  0.00     0.202 C 
ENDBRANCH   7  11
BRANCH   3  13
HETATM   13  N4  UNL     1      10.043  -6.536  30.479  1.00  0.00    -0.316 N 
HETATM   14  C26 UNL     1      11.319  -6.941  30.113  1.00  0.00     0.048 A 
HETATM   15  C21 UNL     1      11.194  -7.717  28.949  1.00  0.00     0.004 A 
HETATM   16  C25 UNL     1      12.567  -6.700  30.716  1.00  0.00     0.030 A 
HETATM   17  C20 UNL     1       9.807  -7.767  28.613  1.00  0.00     0.022 A 
HETATM   18  C22 UNL     1      12.368  -8.258  28.381  1.00  0.00     0.014 A 
HETATM   19  C19 UNL     1       8.975  -8.334  27.641  1.00  0.00     0.062 A 
HETATM   20  C27 UNL     1       9.148  -7.009  29.568  1.00  0.00     0.077 A 
HETATM   21  C16 UNL     1       7.571  -8.151  27.592  1.00  0.00     0.062 A 
HETATM   22  C18 UNL     1       9.335  -9.184  26.507  1.00  0.00     0.260 A 
HETATM   23  C15 UNL     1       6.845  -7.371  28.503  1.00  0.00     0.022 A 
HETATM   24  C17 UNL     1       7.090  -8.889  26.423  1.00  0.00     0.260 A 
HETATM   25  C14 UNL     1       5.508  -6.925  28.712  1.00  0.00     0.004 A 
HETATM   26  C28 UNL     1       7.600  -6.798  29.511  1.00  0.00     0.078 A 
HETATM   27  C9  UNL     1       5.510  -6.057  29.823  1.00  0.00     0.049 A 
HETATM   28  C13 UNL     1       4.293  -7.142  28.023  1.00  0.00     0.014 A 
HETATM   29  N2  UNL     1       6.804  -6.051  30.341  1.00  0.00    -0.308 N 
HETATM   30  C10 UNL     1       4.334  -5.377  30.198  1.00  0.00     0.030 A 
HETATM   31  C11 UNL     1       3.150  -5.611  29.492  1.00  0.00     0.002 A 
HETATM   32  C12 UNL     1       3.125  -6.491  28.422  1.00  0.00     0.001 A 
HETATM   33  O3  UNL     1       5.946  -8.983  26.026  1.00  0.00    -0.267 OA
HETATM   34  N3  UNL     1       8.180  -9.463  25.849  1.00  0.00    -0.289 N 
HETATM   35  H20 UNL     1       8.136 -10.035  25.021  1.00  0.00     0.172 HD
HETATM   36  O4  UNL     1      10.443  -9.574  26.198  1.00  0.00    -0.267 OA
HETATM   37  C23 UNL     1      13.612  -8.019  28.975  1.00  0.00     0.001 A 
HETATM   38  C24 UNL     1      13.707  -7.249  30.127  1.00  0.00     0.002 A 
ENDBRANCH   3  13
TORSDOF 5
ENDMDL
MODEL 9
REMARK minimizedAffinity -9.02838516
REMARK  5 active torsions:
REMARK  status: ('A' for Active; 'I' for Inactive)
REMARK    1  A    between atoms: N1_2  and  C2_3 
REMARK    2  A    between atoms: C4_5  and  N4_34 
REMARK    3  A    between atoms: C5_7  and  N2_12 
REMARK    4  A    between atoms: C7_9  and  O2_10 
REMARK    5  A    between atoms: C27_35  and  C28_36 
ROOT
HETATM    1  C2  UNL     1       6.153  -9.717  26.031  1.00  0.00     0.257 C 
HETATM    2  C3  UNL     1       5.920  -9.304  27.489  1.00  0.00     0.092 C 
HETATM    3  C4  UNL     1       7.233  -9.119  28.259  1.00  0.00     0.234 C 
HETATM    4  O1  UNL     1       8.398  -9.537  27.555  1.00  0.00    -0.333 OA
HETATM    5  C5  UNL     1       8.581  -9.054  26.201  1.00  0.00     0.168 C 
HETATM    6  C6  UNL     1       9.302 -10.274  25.583  1.00  0.00     0.074 C 
HETATM    7  C7  UNL     1       7.240  -8.796  25.434  1.00  0.00     0.209 C 
ENDROOT
BRANCH   1   8
HETATM    8  N1  UNL     1       4.926  -9.630  25.213  1.00  0.00     0.086 N 
HETATM    9  C1  UNL     1       3.714  -9.435  25.993  1.00  0.00     0.307 C 
HETATM   10  H4  UNL     1       5.033  -8.864  24.543  1.00  0.00     0.316 HD
ENDBRANCH   1   8
BRANCH   7  11
HETATM   11  O2  UNL     1       6.756  -7.443  25.606  1.00  0.00    -0.384 OA
HETATM   12  C8  UNL     1       7.804  -6.498  25.795  1.00  0.00     0.202 C 
ENDBRANCH   7  11
BRANCH   3  13
HETATM   13  N4  UNL     1       7.437  -7.804  28.858  1.00  0.00    -0.316 N 
HETATM   14  C26 UNL     1       6.435  -6.864  29.052  1.00  0.00     0.048 A 
HETATM   15  C21 UNL     1       6.991  -5.804  29.788  1.00  0.00     0.004 A 
HETATM   16  C25 UNL     1       5.086  -6.865  28.654  1.00  0.00     0.030 A 
HETATM   17  C20 UNL     1       8.362  -6.123  30.029  1.00  0.00     0.022 A 
HETATM   18  C22 UNL     1       6.156  -4.717  30.123  1.00  0.00     0.014 A 
HETATM   19  C19 UNL     1       9.478  -5.573  30.672  1.00  0.00     0.062 A 
HETATM   20  C27 UNL     1       8.591  -7.346  29.420  1.00  0.00     0.077 A 
HETATM   21  C16 UNL     1      10.758  -6.178  30.698  1.00  0.00     0.062 A 
HETATM   22  C18 UNL     1       9.585  -4.315  31.410  1.00  0.00     0.260 A 
HETATM   23  C15 UNL     1      11.068  -7.395  30.074  1.00  0.00     0.022 A 
HETATM   24  C17 UNL     1      11.635  -5.278  31.449  1.00  0.00     0.260 A 
HETATM   25  C14 UNL     1      12.201  -8.227  29.843  1.00  0.00     0.004 A 
HETATM   26  C28 UNL     1      10.005  -8.012  29.439  1.00  0.00     0.078 A 
HETATM   27  C9  UNL     1      11.788  -9.305  29.032  1.00  0.00     0.049 A 
HETATM   28  C13 UNL     1      13.564  -8.137  30.208  1.00  0.00     0.014 A 
HETATM   29  N2  UNL     1      10.411  -9.185  28.856  1.00  0.00    -0.308 N 
HETATM   30  C10 UNL     1      12.729 -10.236  28.552  1.00  0.00     0.030 A 
HETATM   31  C11 UNL     1      14.070 -10.116  28.929  1.00  0.00     0.002 A 
HETATM   32  C12 UNL     1      14.483  -9.085  29.756  1.00  0.00     0.001 A 
HETATM   33  O3  UNL     1      12.814  -5.429  31.695  1.00  0.00    -0.267 OA
HETATM   34  N3  UNL     1      10.873  -4.219  31.830  1.00  0.00    -0.289 N 
HETATM   35  H20 UNL     1      11.227  -3.443  32.366  1.00  0.00     0.172 HD
HETATM   36  O4  UNL     1       8.706  -3.503  31.617  1.00  0.00    -0.267 OA
HETATM   37  C23 UNL     1       4.814  -4.711  29.727  1.00  0.00     0.001 A 
HETATM   38  C24 UNL     1       4.289  -5.773  29.001  1.00  0.00     0.002 A 
ENDBRANCH   3  13
TORSDOF 5
ENDMDL
