MODEL 1
REMARK minimizedAffinity -8.25842857
REMARK CNNscore 0.780817091
REMARK CNNaffinity 6.86489868
REMARK  6 active torsions:
REMARK  status: ('A' for Active; 'I' for Inactive)
REMARK    1  A    between atoms: C2_2  and  C30_31 
REMARK    2  A    between atoms: C3_3  and  C4_4 
REMARK    3  A    between atoms: C4_4  and  C5_5 
REMARK    4  A    between atoms: C5_5  and  C6_6 
REMARK    5  A    between atoms: C6_6  and  C8_8 
REMARK    6  A    between atoms: C30_31  and  O3_33 
ROOT
HETATM    1  C8  UNL     1      -1.357  12.116  18.184  1.00  0.00    -0.002 C 
HETATM    2  C9  UNL     1      -2.462  11.393  18.966  1.00  0.00     0.007 C 
HETATM    3  C10 UNL     1      -2.673  10.116  18.180  1.00  0.00     0.015 C 
HETATM    4  C11 UNL     1      -2.705  10.555  16.689  1.00  0.00    -0.013 C 
HETATM    5  C12 UNL     1      -4.193  10.777  16.286  1.00  0.00     0.021 C 
HETATM    6  C13 UNL     1      -2.190   9.394  15.802  1.00  0.00    -0.070 C 
HETATM    7  C14 UNL     1      -2.727   8.157  15.894  1.00  0.00    -0.022 C 
HETATM    8  C15 UNL     1      -2.380   6.991  15.022  1.00  0.00     0.034 C 
HETATM    9  C16 UNL     1      -1.126   7.203  14.153  1.00  0.00     0.013 C 
HETATM   10  C17 UNL     1      -0.820   6.038  13.136  1.00  0.00     0.018 C 
HETATM   11  C18 UNL     1       0.353   5.190  13.674  1.00  0.00     0.023 C 
HETATM   12  C19 UNL     1      -2.017   5.084  12.921  1.00  0.00     0.023 C 
HETATM   13  C20 UNL     1      -0.381   6.537  11.751  1.00  0.00     0.135 C 
HETATM   14  O1  UNL     1      -0.574   5.865  10.733  1.00  0.00    -0.297 OA
HETATM   15  C21 UNL     1       0.394   7.824  11.625  1.00  0.00     0.080 C 
HETATM   16  C22 UNL     1       0.247   8.776  12.796  1.00  0.00     0.017 C 
HETATM   17  C23 UNL     1      -1.093   8.649  13.561  1.00  0.00    -0.031 C 
HETATM   18  C24 UNL     1      -2.284   8.932  12.617  1.00  0.00     0.016 C 
HETATM   19  C25 UNL     1      -1.099   9.660  14.777  1.00  0.00     0.024 C 
HETATM   20  C26 UNL     1      -1.114  11.137  14.368  1.00  0.00     0.010 C 
HETATM   21  C27 UNL     1      -0.756  11.967  15.596  1.00  0.00     0.011 C 
HETATM   22  C28 UNL     1      -1.859  11.931  16.681  1.00  0.00    -0.029 C 
HETATM   23  C29 UNL     1      -2.748  13.182  16.380  1.00  0.00     0.016 C 
ENDROOT
BRANCH   1  24
HETATM   24  C6  UNL     1       0.099  11.624  18.501  1.00  0.00    -0.014 C 
HETATM   25  C7  UNL     1       1.105  12.442  17.667  1.00  0.00     0.010 C 
BRANCH  24  26
HETATM   26  C5  UNL     1       0.486  11.713  19.999  1.00  0.00     0.008 C 
BRANCH  26  27
HETATM   27  C4  UNL     1       1.049  10.410  20.582  1.00  0.00     0.028 C 
BRANCH  27  28
HETATM   28  C3  UNL     1       2.378  10.649  21.248  1.00  0.00    -0.013 C 
HETATM   29  C2  UNL     1       2.992   9.900  22.187  1.00  0.00     0.008 C 
HETATM   30  C1  UNL     1       4.341  10.284  22.728  1.00  0.00     0.055 C 
BRANCH  29  31
HETATM   31  C30 UNL     1       2.356   8.696  22.774  1.00  0.00     0.171 C 
HETATM   32  O2  UNL     1       1.865   7.751  22.186  1.00  0.00    -0.646 OA
BRANCH  31  33
HETATM   33  O3  UNL     1       2.353   8.743  24.117  1.00  0.00    -0.773 OA
HETATM   34  H46 UNL     1       1.913   7.906  24.374  1.00  0.00     0.167 HD
ENDBRANCH  31  33
ENDBRANCH  29  31
ENDBRANCH  27  28
ENDBRANCH  26  27
ENDBRANCH  24  26
ENDBRANCH   1  24
TORSDOF 6
ENDMDL
MODEL 2
REMARK minimizedAffinity -7.40061617
REMARK CNNscore 0.657158911
REMARK CNNaffinity 6.9805336
REMARK  6 active torsions:
REMARK  status: ('A' for Active; 'I' for Inactive)
REMARK    1  A    between atoms: C2_2  and  C30_31 
REMARK    2  A    between atoms: C3_3  and  C4_4 
REMARK    3  A    between atoms: C4_4  and  C5_5 
REMARK    4  A    between atoms: C5_5  and  C6_6 
REMARK    5  A    between atoms: C6_6  and  C8_8 
REMARK    6  A    between atoms: C30_31  and  O3_33 
ROOT
HETATM    1  C8  UNL     1     -13.267 -12.041  25.667  1.00  0.00    -0.002 C 
HETATM    2  C9  UNL     1     -13.692 -11.227  24.438  1.00  0.00     0.007 C 
HETATM    3  C10 UNL     1     -13.834  -9.819  24.977  1.00  0.00     0.015 C 
HETATM    4  C11 UNL     1     -14.603  -9.973  26.319  1.00  0.00    -0.013 C 
HETATM    5  C12 UNL     1     -16.120  -9.767  26.030  1.00  0.00     0.021 C 
HETATM    6  C13 UNL     1     -14.191  -8.828  27.280  1.00  0.00    -0.070 C 
HETATM    7  C14 UNL     1     -14.264  -7.535  26.892  1.00  0.00    -0.022 C 
HETATM    8  C15 UNL     1     -13.990  -6.349  27.764  1.00  0.00     0.034 C 
HETATM    9  C16 UNL     1     -13.325  -6.694  29.109  1.00  0.00     0.013 C 
HETATM   10  C17 UNL     1     -13.147  -5.475  30.092  1.00  0.00     0.018 C 
HETATM   11  C18 UNL     1     -11.668  -5.032  30.088  1.00  0.00     0.023 C 
HETATM   12  C19 UNL     1     -13.997  -4.245  29.701  1.00  0.00     0.023 C 
HETATM   13  C20 UNL     1     -13.482  -5.814  31.553  1.00  0.00     0.135 C 
HETATM   14  O1  UNL     1     -13.877  -4.949  32.341  1.00  0.00    -0.297 OA
HETATM   15  C21 UNL     1     -13.233  -7.205  32.079  1.00  0.00     0.080 C 
HETATM   16  C22 UNL     1     -13.149  -8.285  31.018  1.00  0.00     0.017 C 
HETATM   17  C23 UNL     1     -13.955  -7.983  29.731  1.00  0.00    -0.031 C 
HETATM   18  C24 UNL     1     -15.456  -7.811  30.060  1.00  0.00     0.016 C 
HETATM   19  C25 UNL     1     -13.748  -9.159  28.696  1.00  0.00     0.024 C 
HETATM   20  C26 UNL     1     -14.353 -10.498  29.133  1.00  0.00     0.010 C 
HETATM   21  C27 UNL     1     -13.774 -11.589  28.240  1.00  0.00     0.011 C 
HETATM   22  C28 UNL     1     -14.269 -11.486  26.777  1.00  0.00    -0.029 C 
HETATM   23  C29 UNL     1     -15.520 -12.422  26.718  1.00  0.00     0.016 C 
ENDROOT
BRANCH   1  24
HETATM   24  C6  UNL     1     -11.737 -11.966  26.004  1.00  0.00    -0.014 C 
HETATM   25  C7  UNL     1     -11.535 -12.227  27.511  1.00  0.00     0.010 C 
BRANCH  24  26
HETATM   26  C5  UNL     1     -10.859 -12.952  25.193  1.00  0.00     0.008 C 
BRANCH  26  27
HETATM   27  C4  UNL     1     -10.264 -12.357  23.911  1.00  0.00     0.028 C 
BRANCH  27  28
HETATM   28  C3  UNL     1      -8.800 -12.051  24.088  1.00  0.00    -0.013 C 
HETATM   29  C2  UNL     1      -8.029 -11.202  23.378  1.00  0.00     0.008 C 
HETATM   30  C1  UNL     1      -6.577 -11.006  23.714  1.00  0.00     0.055 C 
BRANCH  29  31
HETATM   31  C30 UNL     1      -8.549 -10.461  22.204  1.00  0.00     0.171 C 
HETATM   32  O2  UNL     1      -9.494  -9.695  22.165  1.00  0.00    -0.646 OA
BRANCH  31  33
HETATM   33  O3  UNL     1      -7.843 -10.735  21.094  1.00  0.00    -0.773 OA
HETATM   34  H46 UNL     1      -8.281 -10.193  20.405  1.00  0.00     0.167 HD
ENDBRANCH  31  33
ENDBRANCH  29  31
ENDBRANCH  27  28
ENDBRANCH  26  27
ENDBRANCH  24  26
ENDBRANCH   1  24
TORSDOF 6
ENDMDL
MODEL 3
REMARK minimizedAffinity -7.70210075
REMARK CNNscore 0.566670239
REMARK CNNaffinity 7.07294226
REMARK  6 active torsions:
REMARK  status: ('A' for Active; 'I' for Inactive)
REMARK    1  A    between atoms: C2_2  and  C30_31 
REMARK    2  A    between atoms: C3_3  and  C4_4 
REMARK    3  A    between atoms: C4_4  and  C5_5 
REMARK    4  A    between atoms: C5_5  and  C6_6 
REMARK    5  A    between atoms: C6_6  and  C8_8 
REMARK    6  A    between atoms: C30_31  and  O3_33 
ROOT
HETATM    1  C8  UNL     1      -3.417   7.646  15.245  1.00  0.00    -0.002 C 
HETATM    2  C9  UNL     1      -4.301   8.498  14.324  1.00  0.00     0.007 C 
HETATM    3  C10 UNL     1      -3.438   8.708  13.098  1.00  0.00     0.015 C 
HETATM    4  C11 UNL     1      -2.028   9.064  13.648  1.00  0.00    -0.013 C 
HETATM    5  C12 UNL     1      -1.916  10.617  13.709  1.00  0.00     0.021 C 
HETATM    6  C13 UNL     1      -0.951   8.595  12.638  1.00  0.00    -0.070 C 
HETATM    7  C14 UNL     1      -1.008   8.965  11.339  1.00  0.00    -0.022 C 
HETATM    8  C15 UNL     1       0.027   8.656  10.301  1.00  0.00     0.034 C 
HETATM    9  C16 UNL     1       1.074   7.616  10.742  1.00  0.00     0.013 C 
HETATM   10  C17 UNL     1       2.242   7.376   9.712  1.00  0.00     0.018 C 
HETATM   11  C18 UNL     1       2.007   6.036   8.982  1.00  0.00     0.023 C 
HETATM   12  C19 UNL     1       2.342   8.477   8.632  1.00  0.00     0.023 C 
HETATM   13  C20 UNL     1       3.624   7.259  10.373  1.00  0.00     0.135 C 
HETATM   14  O1  UNL     1       4.657   7.561   9.765  1.00  0.00    -0.297 OA
HETATM   15  C21 UNL     1       3.751   6.670  11.755  1.00  0.00     0.080 C 
HETATM   16  C22 UNL     1       2.481   6.704  12.583  1.00  0.00     0.017 C 
HETATM   17  C23 UNL     1       1.511   7.856  12.223  1.00  0.00    -0.031 C 
HETATM   18  C24 UNL     1       2.199   9.226  12.426  1.00  0.00     0.016 C 
HETATM   19  C25 UNL     1       0.216   7.750  13.123  1.00  0.00     0.024 C 
HETATM   20  C26 UNL     1       0.462   8.006  14.615  1.00  0.00     0.010 C 
HETATM   21  C27 UNL     1      -0.763   7.522  15.382  1.00  0.00     0.011 C 
HETATM   22  C28 UNL     1      -2.014   8.394  15.118  1.00  0.00    -0.029 C 
HETATM   23  C29 UNL     1      -2.002   9.458  16.264  1.00  0.00     0.016 C 
ENDROOT
BRANCH   1  24
HETATM   24  C6  UNL     1      -3.424   6.111  14.919  1.00  0.00    -0.014 C 
HETATM   25  C7  UNL     1      -4.176   5.359  16.037  1.00  0.00     0.010 C 
BRANCH  24  26
HETATM   26  C5  UNL     1      -4.057   5.755  13.550  1.00  0.00     0.008 C 
BRANCH  26  27
HETATM   27  C4  UNL     1      -3.135   4.957  12.620  1.00  0.00     0.028 C 
BRANCH  27  28
HETATM   28  C3  UNL     1      -3.599   3.529  12.498  1.00  0.00    -0.013 C 
HETATM   29  C2  UNL     1      -3.029   2.518  11.811  1.00  0.00     0.008 C 
HETATM   30  C1  UNL     1      -3.626   1.139  11.820  1.00  0.00     0.055 C 
BRANCH  29  31
HETATM   31  C30 UNL     1      -1.822   2.717  10.972  1.00  0.00     0.171 C 
HETATM   32  O2  UNL     1      -0.664   2.785  11.338  1.00  0.00    -0.646 OA
BRANCH  31  33
HETATM   33  O3  UNL     1      -2.139   2.839   9.672  1.00  0.00    -0.773 OA
HETATM   34  H46 UNL     1      -1.269   2.963   9.237  1.00  0.00     0.167 HD
ENDBRANCH  31  33
ENDBRANCH  29  31
ENDBRANCH  27  28
ENDBRANCH  26  27
ENDBRANCH  24  26
ENDBRANCH   1  24
TORSDOF 6
ENDMDL
MODEL 4
REMARK minimizedAffinity -7.14000463
REMARK CNNscore 0.565033078
REMARK CNNaffinity 6.90345049
REMARK  6 active torsions:
REMARK  status: ('A' for Active; 'I' for Inactive)
REMARK    1  A    between atoms: C2_2  and  C30_31 
REMARK    2  A    between atoms: C3_3  and  C4_4 
REMARK    3  A    between atoms: C4_4  and  C5_5 
REMARK    4  A    between atoms: C5_5  and  C6_6 
REMARK    5  A    between atoms: C6_6  and  C8_8 
REMARK    6  A    between atoms: C30_31  and  O3_33 
ROOT
HETATM    1  C8  UNL     1     -12.762 -13.511  27.372  1.00  0.00    -0.002 C 
HETATM    2  C9  UNL     1     -12.995 -12.929  25.971  1.00  0.00     0.007 C 
HETATM    3  C10 UNL     1     -13.190 -11.450  26.230  1.00  0.00     0.015 C 
HETATM    4  C11 UNL     1     -14.145 -11.373  27.454  1.00  0.00    -0.013 C 
HETATM    5  C12 UNL     1     -15.601 -11.236  26.919  1.00  0.00     0.021 C 
HETATM    6  C13 UNL     1     -13.856 -10.073  28.247  1.00  0.00    -0.070 C 
HETATM    7  C14 UNL     1     -13.852  -8.869  27.632  1.00  0.00    -0.022 C 
HETATM    8  C15 UNL     1     -13.687  -7.546  28.312  1.00  0.00     0.034 C 
HETATM    9  C16 UNL     1     -13.225  -7.642  29.779  1.00  0.00     0.013 C 
HETATM   10  C17 UNL     1     -13.170  -6.267  30.547  1.00  0.00     0.018 C 
HETATM   11  C18 UNL     1     -11.699  -5.818  30.676  1.00  0.00     0.023 C 
HETATM   12  C19 UNL     1     -13.936  -5.134  29.829  1.00  0.00     0.023 C 
HETATM   13  C20 UNL     1     -13.715  -6.348  31.982  1.00  0.00     0.135 C 
HETATM   14  O1  UNL     1     -14.204  -5.361  32.541  1.00  0.00    -0.297 OA
HETATM   15  C21 UNL     1     -13.565  -7.621  32.774  1.00  0.00     0.080 C 
HETATM   16  C22 UNL     1     -13.348  -8.870  31.942  1.00  0.00     0.017 C 
HETATM   17  C23 UNL     1     -13.958  -8.807  30.520  1.00  0.00    -0.031 C 
HETATM   18  C24 UNL     1     -15.487  -8.595  30.596  1.00  0.00     0.016 C 
HETATM   19  C25 UNL     1     -13.624 -10.145  29.748  1.00  0.00     0.024 C 
HETATM   20  C26 UNL     1     -14.306 -11.392  30.323  1.00  0.00     0.010 C 
HETATM   21  C27 UNL     1     -13.623 -12.617  29.726  1.00  0.00     0.011 C 
HETATM   22  C28 UNL     1     -13.903 -12.778  28.213  1.00  0.00    -0.029 C 
HETATM   23  C29 UNL     1     -15.148 -13.722  28.141  1.00  0.00     0.016 C 
ENDROOT
BRANCH   1  24
HETATM   24  C6  UNL     1     -11.294 -13.362  27.906  1.00  0.00    -0.014 C 
HETATM   25  C7  UNL     1     -10.652 -14.759  28.019  1.00  0.00     0.010 C 
BRANCH  24  26
HETATM   26  C5  UNL     1     -10.391 -12.453  27.034  1.00  0.00     0.008 C 
BRANCH  26  27
HETATM   27  C4  UNL     1      -9.368 -13.215  26.182  1.00  0.00     0.028 C 
BRANCH  27  28
HETATM   28  C3  UNL     1      -8.534 -12.264  25.364  1.00  0.00    -0.013 C 
HETATM   29  C2  UNL     1      -7.844 -12.514  24.233  1.00  0.00     0.008 C 
HETATM   30  C1  UNL     1      -7.077 -11.426  23.534  1.00  0.00     0.055 C 
BRANCH  29  31
HETATM   31  C30 UNL     1      -7.758 -13.873  23.646  1.00  0.00     0.171 C 
HETATM   32  O2  UNL     1      -8.438 -14.344  22.754  1.00  0.00    -0.646 OA
BRANCH  31  33
HETATM   33  O3  UNL     1      -6.800 -14.607  24.238  1.00  0.00    -0.773 OA
HETATM   34  H46 UNL     1      -6.848 -15.465  23.767  1.00  0.00     0.167 HD
ENDBRANCH  31  33
ENDBRANCH  29  31
ENDBRANCH  27  28
ENDBRANCH  26  27
ENDBRANCH  24  26
ENDBRANCH   1  24
TORSDOF 6
ENDMDL
MODEL 5
REMARK minimizedAffinity -10.0190334
REMARK CNNscore 0.533014953
REMARK CNNaffinity 7.36937284
REMARK  6 active torsions:
REMARK  status: ('A' for Active; 'I' for Inactive)
REMARK    1  A    between atoms: C2_2  and  C30_31 
REMARK    2  A    between atoms: C3_3  and  C4_4 
REMARK    3  A    between atoms: C4_4  and  C5_5 
REMARK    4  A    between atoms: C5_5  and  C6_6 
REMARK    5  A    between atoms: C6_6  and  C8_8 
REMARK    6  A    between atoms: C30_31  and  O3_33 
ROOT
HETATM    1  C8  UNL     1       0.510   6.947  11.208  1.00  0.00    -0.002 C 
HETATM    2  C9  UNL     1       0.754   5.442  11.031  1.00  0.00     0.007 C 
HETATM    3  C10 UNL     1      -0.551   4.817  11.478  1.00  0.00     0.015 C 
HETATM    4  C11 UNL     1      -0.934   5.564  12.786  1.00  0.00    -0.013 C 
HETATM    5  C12 UNL     1      -0.392   4.735  13.989  1.00  0.00     0.021 C 
HETATM    6  C13 UNL     1      -2.476   5.578  12.936  1.00  0.00    -0.070 C 
HETATM    7  C14 UNL     1      -3.191   4.432  12.874  1.00  0.00    -0.022 C 
HETATM    8  C15 UNL     1      -4.665   4.313  13.104  1.00  0.00     0.034 C 
HETATM    9  C16 UNL     1      -5.409   5.661  13.147  1.00  0.00     0.013 C 
HETATM   10  C17 UNL     1      -6.938   5.563  13.516  1.00  0.00     0.018 C 
HETATM   11  C18 UNL     1      -7.781   5.750  12.237  1.00  0.00     0.023 C 
HETATM   12  C19 UNL     1      -7.333   4.202  14.131  1.00  0.00     0.023 C 
HETATM   13  C20 UNL     1      -7.402   6.656  14.491  1.00  0.00     0.135 C 
HETATM   14  O1  UNL     1      -8.357   6.475  15.254  1.00  0.00    -0.297 OA
HETATM   15  C21 UNL     1      -6.756   8.017  14.460  1.00  0.00     0.080 C 
HETATM   16  C22 UNL     1      -5.377   8.056  13.830  1.00  0.00     0.017 C 
HETATM   17  C23 UNL     1      -4.585   6.730  13.937  1.00  0.00    -0.031 C 
HETATM   18  C24 UNL     1      -4.377   6.342  15.419  1.00  0.00     0.016 C 
HETATM   19  C25 UNL     1      -3.193   6.891  13.208  1.00  0.00     0.024 C 
HETATM   20  C26 UNL     1      -2.236   7.878  13.886  1.00  0.00     0.010 C 
HETATM   21  C27 UNL     1      -1.117   8.198  12.901  1.00  0.00     0.011 C 
HETATM   22  C28 UNL     1      -0.187   6.989  12.642  1.00  0.00    -0.029 C 
HETATM   23  C29 UNL     1       0.980   7.163  13.669  1.00  0.00     0.016 C 
ENDROOT
BRANCH   1  24
HETATM   24  C6  UNL     1      -0.273   7.625  10.029  1.00  0.00    -0.014 C 
HETATM   25  C7  UNL     1      -0.999   8.880  10.556  1.00  0.00     0.010 C 
BRANCH  24  26
HETATM   26  C5  UNL     1       0.615   8.018   8.821  1.00  0.00     0.008 C 
BRANCH  26  27
HETATM   27  C4  UNL     1       2.062   7.522   8.916  1.00  0.00     0.028 C 
BRANCH  27  28
HETATM   28  C3  UNL     1       2.371   6.546   7.811  1.00  0.00    -0.013 C 
HETATM   29  C2  UNL     1       3.034   5.374   7.889  1.00  0.00     0.008 C 
HETATM   30  C1  UNL     1       3.232   4.512   6.674  1.00  0.00     0.055 C 
BRANCH  29  31
HETATM   31  C30 UNL     1       3.648   4.898   9.152  1.00  0.00     0.171 C 
HETATM   32  O2  UNL     1       4.396   5.509   9.893  1.00  0.00    -0.646 OA
BRANCH  31  33
HETATM   33  O3  UNL     1       3.294   3.631   9.427  1.00  0.00    -0.773 OA
HETATM   34  H46 UNL     1       3.759   3.443  10.269  1.00  0.00     0.167 HD
ENDBRANCH  31  33
ENDBRANCH  29  31
ENDBRANCH  27  28
ENDBRANCH  26  27
ENDBRANCH  24  26
ENDBRANCH   1  24
TORSDOF 6
ENDMDL
MODEL 6
REMARK minimizedAffinity -7.5969882
REMARK CNNscore 0.492193967
REMARK CNNaffinity 6.74524689
REMARK  6 active torsions:
REMARK  status: ('A' for Active; 'I' for Inactive)
REMARK    1  A    between atoms: C2_2  and  C30_31 
REMARK    2  A    between atoms: C3_3  and  C4_4 
REMARK    3  A    between atoms: C4_4  and  C5_5 
REMARK    4  A    between atoms: C5_5  and  C6_6 
REMARK    5  A    between atoms: C6_6  and  C8_8 
REMARK    6  A    between atoms: C30_31  and  O3_33 
ROOT
HETATM    1  C8  UNL     1      -1.164   6.717  13.080  1.00  0.00    -0.002 C 
HETATM    2  C9  UNL     1      -2.491   6.848  12.321  1.00  0.00     0.007 C 
HETATM    3  C10 UNL     1      -3.141   8.061  12.951  1.00  0.00     0.015 C 
HETATM    4  C11 UNL     1      -2.944   7.881  14.482  1.00  0.00    -0.013 C 
HETATM    5  C12 UNL     1      -4.218   7.189  15.052  1.00  0.00     0.021 C 
HETATM    6  C13 UNL     1      -2.874   9.274  15.158  1.00  0.00    -0.070 C 
HETATM    7  C14 UNL     1      -3.845  10.193  14.958  1.00  0.00    -0.022 C 
HETATM    8  C15 UNL     1      -3.933  11.526  15.635  1.00  0.00     0.034 C 
HETATM    9  C16 UNL     1      -2.659  11.932  16.398  1.00  0.00     0.013 C 
HETATM   10  C17 UNL     1      -2.779  13.271  17.221  1.00  0.00     0.018 C 
HETATM   11  C18 UNL     1      -2.040  14.397  16.468  1.00  0.00     0.023 C 
HETATM   12  C19 UNL     1      -4.239  13.735  17.425  1.00  0.00     0.023 C 
HETATM   13  C20 UNL     1      -2.127  13.194  18.611  1.00  0.00     0.135 C 
HETATM   14  O1  UNL     1      -2.521  13.897  19.547  1.00  0.00    -0.297 OA
HETATM   15  C21 UNL     1      -0.917  12.322  18.827  1.00  0.00     0.080 C 
HETATM   16  C22 UNL     1      -0.737  11.213  17.809  1.00  0.00     0.017 C 
HETATM   17  C23 UNL     1      -2.054  10.713  17.167  1.00  0.00    -0.031 C 
HETATM   18  C24 UNL     1      -3.009  10.160  18.250  1.00  0.00     0.016 C 
HETATM   19  C25 UNL     1      -1.724   9.595  16.099  1.00  0.00     0.024 C 
HETATM   20  C26 UNL     1      -1.159   8.301  16.695  1.00  0.00     0.010 C 
HETATM   21  C27 UNL     1      -0.562   7.482  15.557  1.00  0.00     0.011 C 
HETATM   22  C28 UNL     1      -1.638   6.936  14.588  1.00  0.00    -0.029 C 
HETATM   23  C29 UNL     1      -1.971   5.508  15.132  1.00  0.00     0.016 C 
ENDROOT
BRANCH   1  24
HETATM   24  C6  UNL     1      -0.019   7.658  12.562  1.00  0.00    -0.014 C 
HETATM   25  C7  UNL     1       1.347   7.046  12.933  1.00  0.00     0.010 C 
BRANCH  24  26
HETATM   26  C5  UNL     1      -0.061   7.928  11.037  1.00  0.00     0.008 C 
BRANCH  26  27
HETATM   27  C4  UNL     1       1.319   8.097  10.390  1.00  0.00     0.028 C 
BRANCH  27  28
HETATM   28  C3  UNL     1       1.233   7.954   8.893  1.00  0.00    -0.013 C 
HETATM   29  C2  UNL     1       1.967   7.163   8.083  1.00  0.00     0.008 C 
HETATM   30  C1  UNL     1       1.726   7.133   6.600  1.00  0.00     0.055 C 
BRANCH  29  31
HETATM   31  C30 UNL     1       3.079   6.326   8.595  1.00  0.00     0.171 C 
HETATM   32  O2  UNL     1       3.895   6.615   9.451  1.00  0.00    -0.646 OA
BRANCH  31  33
HETATM   33  O3  UNL     1       3.125   5.133   7.979  1.00  0.00    -0.773 OA
HETATM   34  H46 UNL     1       3.889   4.688   8.401  1.00  0.00     0.167 HD
ENDBRANCH  31  33
ENDBRANCH  29  31
ENDBRANCH  27  28
ENDBRANCH  26  27
ENDBRANCH  24  26
ENDBRANCH   1  24
TORSDOF 6
ENDMDL
MODEL 7
REMARK minimizedAffinity -8.0147419
REMARK CNNscore 0.450621337
REMARK CNNaffinity 6.88324881
REMARK  6 active torsions:
REMARK  status: ('A' for Active; 'I' for Inactive)
REMARK    1  A    between atoms: C2_2  and  C30_31 
REMARK    2  A    between atoms: C3_3  and  C4_4 
REMARK    3  A    between atoms: C4_4  and  C5_5 
REMARK    4  A    between atoms: C5_5  and  C6_6 
REMARK    5  A    between atoms: C6_6  and  C8_8 
REMARK    6  A    between atoms: C30_31  and  O3_33 
ROOT
HETATM    1  C8  UNL     1      -3.226   7.683  15.381  1.00  0.00    -0.002 C 
HETATM    2  C9  UNL     1      -4.144   8.517  14.476  1.00  0.00     0.007 C 
HETATM    3  C10 UNL     1      -3.319   8.713  13.221  1.00  0.00     0.015 C 
HETATM    4  C11 UNL     1      -1.896   9.086  13.723  1.00  0.00    -0.013 C 
HETATM    5  C12 UNL     1      -1.791  10.640  13.758  1.00  0.00     0.021 C 
HETATM    6  C13 UNL     1      -0.847   8.609  12.687  1.00  0.00    -0.070 C 
HETATM    7  C14 UNL     1      -0.946   8.959  11.385  1.00  0.00    -0.022 C 
HETATM    8  C15 UNL     1       0.058   8.642  10.320  1.00  0.00     0.034 C 
HETATM    9  C16 UNL     1       1.125   7.614  10.743  1.00  0.00     0.013 C 
HETATM   10  C17 UNL     1       2.263   7.366   9.682  1.00  0.00     0.018 C 
HETATM   11  C18 UNL     1       2.013   6.014   8.978  1.00  0.00     0.023 C 
HETATM   12  C19 UNL     1       2.323   8.451   8.584  1.00  0.00     0.023 C 
HETATM   13  C20 UNL     1       3.665   7.267  10.302  1.00  0.00     0.135 C 
HETATM   14  O1  UNL     1       4.676   7.566   9.659  1.00  0.00    -0.297 OA
HETATM   15  C21 UNL     1       3.837   6.699  11.687  1.00  0.00     0.080 C 
HETATM   16  C22 UNL     1       2.593   6.737  12.553  1.00  0.00     0.017 C 
HETATM   17  C23 UNL     1       1.606   7.878  12.208  1.00  0.00    -0.031 C 
HETATM   18  C24 UNL     1       2.291   9.254  12.369  1.00  0.00     0.016 C 
HETATM   19  C25 UNL     1       0.340   7.778  13.148  1.00  0.00     0.024 C 
HETATM   20  C26 UNL     1       0.629   8.056  14.628  1.00  0.00     0.010 C 
HETATM   21  C27 UNL     1      -0.568   7.577  15.439  1.00  0.00     0.011 C 
HETATM   22  C28 UNL     1      -1.832   8.437  15.201  1.00  0.00    -0.029 C 
HETATM   23  C29 UNL     1      -1.792   9.517  16.330  1.00  0.00     0.016 C 
ENDROOT
BRANCH   1  24
HETATM   24  C6  UNL     1      -3.234   6.143  15.078  1.00  0.00    -0.014 C 
HETATM   25  C7  UNL     1      -4.391   5.479  15.852  1.00  0.00     0.010 C 
BRANCH  24  26
HETATM   26  C5  UNL     1      -3.359   5.793  13.573  1.00  0.00     0.008 C 
BRANCH  26  27
HETATM   27  C4  UNL     1      -4.793   5.510  13.110  1.00  0.00     0.028 C 
BRANCH  27  28
HETATM   28  C3  UNL     1      -4.873   4.195  12.379  1.00  0.00    -0.013 C 
HETATM   29  C2  UNL     1      -5.916   3.345  12.293  1.00  0.00     0.008 C 
HETATM   30  C1  UNL     1      -5.822   2.076  11.494  1.00  0.00     0.055 C 
BRANCH  29  31
HETATM   31  C30 UNL     1      -7.188   3.583  13.019  1.00  0.00     0.171 C 
HETATM   32  O2  UNL     1      -7.516   3.150  14.108  1.00  0.00    -0.646 OA
BRANCH  31  33
HETATM   33  O3  UNL     1      -8.020   4.368  12.315  1.00  0.00    -0.773 OA
HETATM   34  H46 UNL     1      -8.806   4.444  12.894  1.00  0.00     0.167 HD
ENDBRANCH  31  33
ENDBRANCH  29  31
ENDBRANCH  27  28
ENDBRANCH  26  27
ENDBRANCH  24  26
ENDBRANCH   1  24
TORSDOF 6
ENDMDL
MODEL 8
REMARK minimizedAffinity -8.65384197
REMARK CNNscore 0.415359259
REMARK CNNaffinity 7.22709417
REMARK  6 active torsions:
REMARK  status: ('A' for Active; 'I' for Inactive)
REMARK    1  A    between atoms: C2_2  and  C30_31 
REMARK    2  A    between atoms: C3_3  and  C4_4 
REMARK    3  A    between atoms: C4_4  and  C5_5 
REMARK    4  A    between atoms: C5_5  and  C6_6 
REMARK    5  A    between atoms: C6_6  and  C8_8 
REMARK    6  A    between atoms: C30_31  and  O3_33 
ROOT
HETATM    1  C8  UNL     1      -0.331   7.354  13.126  1.00  0.00    -0.002 C 
HETATM    2  C9  UNL     1      -0.007   5.916  12.696  1.00  0.00     0.007 C 
HETATM    3  C10 UNL     1      -1.362   5.241  12.671  1.00  0.00     0.015 C 
HETATM    4  C11 UNL     1      -2.071   5.699  13.976  1.00  0.00    -0.013 C 
HETATM    5  C12 UNL     1      -1.810   4.619  15.068  1.00  0.00     0.021 C 
HETATM    6  C13 UNL     1      -3.604   5.716  13.748  1.00  0.00    -0.070 C 
HETATM    7  C14 UNL     1      -4.248   4.627  13.273  1.00  0.00    -0.022 C 
HETATM    8  C15 UNL     1      -5.731   4.497  13.109  1.00  0.00     0.034 C 
HETATM    9  C16 UNL     1      -6.502   5.822  13.258  1.00  0.00     0.013 C 
HETATM   10  C17 UNL     1      -8.071   5.683  13.217  1.00  0.00     0.018 C 
HETATM   11  C18 UNL     1      -8.587   6.160  11.843  1.00  0.00     0.023 C 
HETATM   12  C19 UNL     1      -8.562   4.231  13.414  1.00  0.00     0.023 C 
HETATM   13  C20 UNL     1      -8.788   6.552  14.262  1.00  0.00     0.135 C 
HETATM   14  O1  UNL     1      -9.893   6.235  14.715  1.00  0.00    -0.297 OA
HETATM   15  C21 UNL     1      -8.194   7.873  14.679  1.00  0.00     0.080 C 
HETATM   16  C22 UNL     1      -6.705   8.013  14.424  1.00  0.00     0.017 C 
HETATM   17  C23 UNL     1      -5.925   6.676  14.434  1.00  0.00    -0.031 C 
HETATM   18  C24 UNL     1      -6.068   5.975  15.804  1.00  0.00     0.016 C 
HETATM   19  C25 UNL     1      -4.403   6.957  14.113  1.00  0.00     0.024 C 
HETATM   20  C26 UNL     1      -3.666   7.753  15.197  1.00  0.00     0.010 C 
HETATM   21  C27 UNL     1      -2.354   8.251  14.603  1.00  0.00     0.011 C 
HETATM   22  C28 UNL     1      -1.353   7.104  14.325  1.00  0.00    -0.029 C 
HETATM   23  C29 UNL     1      -0.474   7.026  15.615  1.00  0.00     0.016 C 
ENDROOT
BRANCH   1  24
HETATM   24  C6  UNL     1      -0.827   8.286  11.965  1.00  0.00    -0.014 C 
HETATM   25  C7  UNL     1      -1.428   9.572  12.569  1.00  0.00     0.010 C 
BRANCH  24  26
HETATM   26  C5  UNL     1       0.275   8.669  10.944  1.00  0.00     0.008 C 
BRANCH  26  27
HETATM   27  C4  UNL     1       0.159   7.948   9.595  1.00  0.00     0.028 C 
BRANCH  27  28
HETATM   28  C3  UNL     1       1.195   6.862   9.474  1.00  0.00    -0.013 C 
HETATM   29  C2  UNL     1       2.193   6.752   8.573  1.00  0.00     0.008 C 
HETATM   30  C1  UNL     1       3.155   5.598   8.617  1.00  0.00     0.055 C 
BRANCH  29  31
HETATM   31  C30 UNL     1       2.365   7.722   7.465  1.00  0.00     0.171 C 
HETATM   32  O2  UNL     1       2.905   8.812   7.507  1.00  0.00    -0.646 OA
BRANCH  31  33
HETATM   33  O3  UNL     1       1.821   7.270   6.323  1.00  0.00    -0.773 OA
HETATM   34  H46 UNL     1       2.000   7.992   5.684  1.00  0.00     0.167 HD
ENDBRANCH  31  33
ENDBRANCH  29  31
ENDBRANCH  27  28
ENDBRANCH  26  27
ENDBRANCH  24  26
ENDBRANCH   1  24
TORSDOF 6
ENDMDL
MODEL 9
REMARK minimizedAffinity -7.43206215
REMARK CNNscore 0.372514635
REMARK CNNaffinity 6.53354836
REMARK  6 active torsions:
REMARK  status: ('A' for Active; 'I' for Inactive)
REMARK    1  A    between atoms: C2_2  and  C30_31 
REMARK    2  A    between atoms: C3_3  and  C4_4 
REMARK    3  A    between atoms: C4_4  and  C5_5 
REMARK    4  A    between atoms: C5_5  and  C6_6 
REMARK    5  A    between atoms: C6_6  and  C8_8 
REMARK    6  A    between atoms: C30_31  and  O3_33 
ROOT
HETATM    1  C8  UNL     1     -14.692  -9.611  27.872  1.00  0.00    -0.002 C 
HETATM    2  C9  UNL     1     -14.058  -9.948  29.229  1.00  0.00     0.007 C 
HETATM    3  C10 UNL     1     -12.812 -10.721  28.855  1.00  0.00     0.015 C 
HETATM    4  C11 UNL     1     -13.266 -11.718  27.752  1.00  0.00    -0.013 C 
HETATM    5  C12 UNL     1     -13.618 -13.069  28.443  1.00  0.00     0.021 C 
HETATM    6  C13 UNL     1     -12.073 -12.017  26.809  1.00  0.00    -0.070 C 
HETATM    7  C14 UNL     1     -10.886 -12.437  27.300  1.00  0.00    -0.022 C 
HETATM    8  C15 UNL     1      -9.703 -12.850  26.481  1.00  0.00     0.034 C 
HETATM    9  C16 UNL     1      -9.815 -12.497  24.986  1.00  0.00     0.013 C 
HETATM   10  C17 UNL     1      -8.638 -13.038  24.088  1.00  0.00     0.018 C 
HETATM   11  C18 UNL     1      -7.689 -11.872  23.740  1.00  0.00     0.023 C 
HETATM   12  C19 UNL     1      -7.791 -14.129  24.781  1.00  0.00     0.023 C 
HETATM   13  C20 UNL     1      -9.111 -13.613  22.744  1.00  0.00     0.135 C 
HETATM   14  O1  UNL     1      -8.467 -14.487  22.155  1.00  0.00    -0.297 OA
HETATM   15  C21 UNL     1     -10.328 -13.038  22.065  1.00  0.00     0.080 C 
HETATM   16  C22 UNL     1     -11.278 -12.291  22.982  1.00  0.00     0.017 C 
HETATM   17  C23 UNL     1     -11.259 -12.771  24.453  1.00  0.00    -0.031 C 
HETATM   18  C24 UNL     1     -11.651 -14.264  24.542  1.00  0.00     0.016 C 
HETATM   19  C25 UNL     1     -12.255 -11.887  25.305  1.00  0.00     0.024 C 
HETATM   20  C26 UNL     1     -13.732 -12.070  24.939  1.00  0.00     0.010 C 
HETATM   21  C27 UNL     1     -14.516 -10.923  25.564  1.00  0.00     0.011 C 
HETATM   22  C28 UNL     1     -14.565 -11.006  27.108  1.00  0.00    -0.029 C 
HETATM   23  C29 UNL     1     -15.890 -11.776  27.420  1.00  0.00     0.016 C 
ENDROOT
BRANCH   1  24
HETATM   24  C6  UNL     1     -14.074  -8.360  27.154  1.00  0.00    -0.014 C 
HETATM   25  C7  UNL     1     -14.269  -8.502  25.631  1.00  0.00     0.010 C 
BRANCH  24  26
HETATM   26  C5  UNL     1     -14.664  -7.005  27.621  1.00  0.00     0.008 C 
BRANCH  26  27
HETATM   27  C4  UNL     1     -13.620  -6.012  28.146  1.00  0.00     0.028 C 
BRANCH  27  28
HETATM   28  C3  UNL     1     -12.902  -6.570  29.347  1.00  0.00    -0.013 C 
HETATM   29  C2  UNL     1     -12.708  -5.993  30.551  1.00  0.00     0.008 C 
HETATM   30  C1  UNL     1     -11.980  -6.715  31.649  1.00  0.00     0.055 C 
BRANCH  29  31
HETATM   31  C30 UNL     1     -13.150  -4.608  30.841  1.00  0.00     0.171 C 
HETATM   32  O2  UNL     1     -13.940  -3.930  30.210  1.00  0.00    -0.646 OA
BRANCH  31  33
HETATM   33  O3  UNL     1     -12.549  -4.117  31.938  1.00  0.00    -0.773 OA
HETATM   34  H46 UNL     1     -12.921  -3.213  32.016  1.00  0.00     0.167 HD
ENDBRANCH  31  33
ENDBRANCH  29  31
ENDBRANCH  27  28
ENDBRANCH  26  27
ENDBRANCH  24  26
ENDBRANCH   1  24
TORSDOF 6
ENDMDL
