MODEL 1
REMARK minimizedAffinity -10.0251722
REMARK  11 active torsions:
REMARK  status: ('A' for Active; 'I' for Inactive)
REMARK    1  A    between atoms: C6_6  and  C8_8 
REMARK    2  A    between atoms: C8_8  and  O1_9 
REMARK    3  A    between atoms: O1_9  and  C9_10 
REMARK    4  A    between atoms: C10_12  and  C11_13 
REMARK    5  A    between atoms: C11_13  and  O3_14 
REMARK    6  A    between atoms: C12_15  and  O4_16 
REMARK    7  A    between atoms: C13_17  and  O5_18 
REMARK    8  A    between atoms: C14_19  and  O6_20 
REMARK    9  A    between atoms: C20_26  and  C21_27 
REMARK   10  A    between atoms: C21_27  and  C22_28 
REMARK   11  A    between atoms: C26_34  and  O9_35 
ROOT
HETATM    1  C1  UNL     1      -3.888   7.633  14.946  1.00  0.00     0.015 C 
HETATM    2  C2  UNL     1      -3.259   7.569  13.760  1.00  0.00    -0.084 C 
HETATM    3  C3  UNL     1      -2.644   8.823  13.192  1.00  0.00     0.034 C 
HETATM    4  C4  UNL     1      -1.590   8.527  12.126  1.00  0.00     0.010 C 
HETATM    5  C5  UNL     1      -0.665   7.357  12.529  1.00  0.00     0.005 C 
HETATM    6  C6  UNL     1       0.571   7.230  11.547  1.00  0.00    -0.018 C 
HETATM    7  C7  UNL     1       0.193   7.444  10.059  1.00  0.00     0.018 C 
HETATM    8  C15 UNL     1       1.212   5.841  11.709  1.00  0.00     0.012 C 
HETATM    9  C16 UNL     1       0.269   4.687  11.410  1.00  0.00     0.002 C 
HETATM   10  C17 UNL     1      -1.203   4.966  11.709  1.00  0.00     0.010 C 
HETATM   11  C18 UNL     1      -1.484   6.009  12.815  1.00  0.00    -0.032 C 
HETATM   12  C19 UNL     1      -0.995   5.417  14.167  1.00  0.00     0.016 C 
HETATM   13  C20 UNL     1      -3.052   6.306  12.913  1.00  0.00     0.025 C 
ENDROOT
BRANCH   6  14
HETATM   14  C8  UNL     1       1.652   8.313  11.873  1.00  0.00     0.180 C 
BRANCH  14  15
HETATM   15  O1  UNL     1       2.693   7.792  12.694  1.00  0.00    -0.358 OA
BRANCH  15  16
HETATM   16  C9  UNL     1       3.973   8.374  12.447  1.00  0.00     0.291 C 
HETATM   17  O2  UNL     1       4.764   8.401  13.639  1.00  0.00    -0.348 OA
HETATM   18  C10 UNL     1       6.137   8.787  13.473  1.00  0.00     0.179 C 
HETATM   19  C12 UNL     1       6.528   9.195  12.037  1.00  0.00     0.180 C 
HETATM   20  C13 UNL     1       5.980   8.266  10.938  1.00  0.00     0.183 C 
HETATM   21  C14 UNL     1       4.678   7.566  11.340  1.00  0.00     0.204 C 
BRANCH  18  22
HETATM   22  C11 UNL     1       7.038   7.724  14.126  1.00  0.00     0.198 C 
BRANCH  22  23
HETATM   23  O3  UNL     1       6.362   6.503  14.381  1.00  0.00    -0.398 OA
HETATM   24  H17 UNL     1       5.530   6.730  14.855  1.00  0.00     0.209 HD
ENDBRANCH  22  23
ENDBRANCH  18  22
BRANCH  19  25
HETATM   25  O4  UNL     1       7.933   9.372  11.845  1.00  0.00    -0.390 OA
HETATM   26  H19 UNL     1       8.243  10.089  12.433  1.00  0.00     0.210 HD
ENDBRANCH  19  25
BRANCH  20  27
HETATM   27  O5  UNL     1       6.945   7.288  10.524  1.00  0.00    -0.390 OA
HETATM   28  H21 UNL     1       7.815   7.654  10.797  1.00  0.00     0.210 HD
ENDBRANCH  20  27
BRANCH  21  29
HETATM   29  O6  UNL     1       4.985   6.228  11.787  1.00  0.00    -0.388 OA
HETATM   30  H23 UNL     1       5.754   5.961  11.231  1.00  0.00     0.210 HD
ENDBRANCH  21  29
ENDBRANCH  15  16
ENDBRANCH  14  15
ENDBRANCH   6  14
BRANCH  13  31
HETATM   31  C21 UNL     1      -3.984   5.137  13.355  1.00  0.00     0.037 C 
BRANCH  31  32
HETATM   32  C22 UNL     1      -5.466   5.387  13.265  1.00  0.00    -0.010 C 
HETATM   33  C23 UNL     1      -6.388   4.476  12.907  1.00  0.00     0.044 C 
HETATM   34  C24 UNL     1      -7.828   4.806  12.832  1.00  0.00     0.291 C 
HETATM   35  C26 UNL     1      -6.237   3.039  12.600  1.00  0.00     0.181 C 
HETATM   36  O7  UNL     1      -8.320   5.918  12.918  1.00  0.00    -0.260 OA
HETATM   37  O8  UNL     1      -8.525   3.646  12.697  1.00  0.00    -0.315 OA
HETATM   38  C25 UNL     1      -7.641   2.530  12.864  1.00  0.00     0.215 C 
BRANCH  35  39
HETATM   39  O9  UNL     1      -5.883   2.901  11.230  1.00  0.00    -0.389 OA
HETATM   40  H40 UNL     1      -5.726   1.957  11.058  1.00  0.00     0.210 HD
ENDBRANCH  35  39
ENDBRANCH  31  32
ENDBRANCH  13  31
TORSDOF 11
ENDMDL
MODEL 2
REMARK minimizedAffinity -9.99373817
REMARK  11 active torsions:
REMARK  status: ('A' for Active; 'I' for Inactive)
REMARK    1  A    between atoms: C6_6  and  C8_8 
REMARK    2  A    between atoms: C8_8  and  O1_9 
REMARK    3  A    between atoms: O1_9  and  C9_10 
REMARK    4  A    between atoms: C10_12  and  C11_13 
REMARK    5  A    between atoms: C11_13  and  O3_14 
REMARK    6  A    between atoms: C12_15  and  O4_16 
REMARK    7  A    between atoms: C13_17  and  O5_18 
REMARK    8  A    between atoms: C14_19  and  O6_20 
REMARK    9  A    between atoms: C20_26  and  C21_27 
REMARK   10  A    between atoms: C21_27  and  C22_28 
REMARK   11  A    between atoms: C26_34  and  O9_35 
ROOT
HETATM    1  C1  UNL     1      -4.552   4.444  12.712  1.00  0.00     0.015 C 
HETATM    2  C2  UNL     1      -3.660   5.143  13.435  1.00  0.00    -0.084 C 
HETATM    3  C3  UNL     1      -2.189   4.930  13.182  1.00  0.00     0.034 C 
HETATM    4  C4  UNL     1      -1.332   6.083  13.702  1.00  0.00     0.010 C 
HETATM    5  C5  UNL     1      -1.953   7.462  13.384  1.00  0.00     0.005 C 
HETATM    6  C6  UNL     1      -0.941   8.640  13.695  1.00  0.00    -0.018 C 
HETATM    7  C7  UNL     1      -0.147   8.431  15.009  1.00  0.00     0.018 C 
HETATM    8  C15 UNL     1      -1.714   9.968  13.778  1.00  0.00     0.012 C 
HETATM    9  C16 UNL     1      -2.788   9.991  14.854  1.00  0.00     0.002 C 
HETATM   10  C17 UNL     1      -3.426   8.636  15.155  1.00  0.00     0.010 C 
HETATM   11  C18 UNL     1      -3.429   7.616  13.993  1.00  0.00    -0.032 C 
HETATM   12  C19 UNL     1      -4.363   8.162  12.878  1.00  0.00     0.016 C 
HETATM   13  C20 UNL     1      -3.986   6.204  14.495  1.00  0.00     0.025 C 
ENDROOT
BRANCH   6  14
HETATM   14  C8  UNL     1       0.131   8.764  12.563  1.00  0.00     0.180 C 
BRANCH  14  15
HETATM   15  O1  UNL     1       1.111   7.733  12.647  1.00  0.00    -0.358 OA
BRANCH  15  16
HETATM   16  C9  UNL     1       1.425   7.127  11.393  1.00  0.00     0.291 C 
HETATM   17  O2  UNL     1       1.664   8.119  10.389  1.00  0.00    -0.348 OA
HETATM   18  C10 UNL     1       2.176   7.635   9.138  1.00  0.00     0.179 C 
HETATM   19  C12 UNL     1       2.310   6.101   9.040  1.00  0.00     0.180 C 
HETATM   20  C13 UNL     1       2.917   5.433  10.288  1.00  0.00     0.183 C 
HETATM   21  C14 UNL     1       2.660   6.224  11.575  1.00  0.00     0.204 C 
BRANCH  18  22
HETATM   22  C11 UNL     1       3.439   8.434   8.771  1.00  0.00     0.198 C 
BRANCH  22  23
HETATM   23  O3  UNL     1       3.282   9.217   7.600  1.00  0.00    -0.398 OA
HETATM   24  H17 UNL     1       2.916   8.624   6.905  1.00  0.00     0.209 HD
ENDBRANCH  22  23
ENDBRANCH  18  22
BRANCH  19  25
HETATM   25  O4  UNL     1       3.011   5.652   7.879  1.00  0.00    -0.390 OA
HETATM   26  H19 UNL     1       2.520   5.939   7.084  1.00  0.00     0.210 HD
ENDBRANCH  19  25
BRANCH  20  27
HETATM   27  O5  UNL     1       4.324   5.193  10.144  1.00  0.00    -0.390 OA
HETATM   28  H21 UNL     1       4.489   5.205   9.175  1.00  0.00     0.210 HD
ENDBRANCH  20  27
BRANCH  21  29
HETATM   29  O6  UNL     1       3.834   7.002  11.888  1.00  0.00    -0.388 OA
HETATM   30  H23 UNL     1       4.582   6.442  11.576  1.00  0.00     0.210 HD
ENDBRANCH  21  29
ENDBRANCH  15  16
ENDBRANCH  14  15
ENDBRANCH   6  14
BRANCH  13  31
HETATM   31  C21 UNL     1      -5.474   6.138  14.961  1.00  0.00     0.037 C 
BRANCH  31  32
HETATM   32  C22 UNL     1      -6.509   5.973  13.881  1.00  0.00    -0.010 C 
HETATM   33  C23 UNL     1      -7.832   6.161  14.037  1.00  0.00     0.044 C 
HETATM   34  C24 UNL     1      -8.787   5.966  12.924  1.00  0.00     0.291 C 
HETATM   35  C26 UNL     1      -8.594   6.635  15.209  1.00  0.00     0.181 C 
HETATM   36  O7  UNL     1      -8.538   5.481  11.834  1.00  0.00    -0.260 OA
HETATM   37  O8  UNL     1      -9.992   6.469  13.305  1.00  0.00    -0.315 OA
HETATM   38  C25 UNL     1      -9.854   7.162  14.552  1.00  0.00     0.215 C 
BRANCH  35  39
HETATM   39  O9  UNL     1      -8.873   5.523  16.051  1.00  0.00    -0.389 OA
HETATM   40  H40 UNL     1      -9.319   5.858  16.847  1.00  0.00     0.210 HD
ENDBRANCH  35  39
ENDBRANCH  31  32
ENDBRANCH  13  31
TORSDOF 11
ENDMDL
MODEL 3
REMARK minimizedAffinity -9.98797321
REMARK  11 active torsions:
REMARK  status: ('A' for Active; 'I' for Inactive)
REMARK    1  A    between atoms: C6_6  and  C8_8 
REMARK    2  A    between atoms: C8_8  and  O1_9 
REMARK    3  A    between atoms: O1_9  and  C9_10 
REMARK    4  A    between atoms: C10_12  and  C11_13 
REMARK    5  A    between atoms: C11_13  and  O3_14 
REMARK    6  A    between atoms: C12_15  and  O4_16 
REMARK    7  A    between atoms: C13_17  and  O5_18 
REMARK    8  A    between atoms: C14_19  and  O6_20 
REMARK    9  A    between atoms: C20_26  and  C21_27 
REMARK   10  A    between atoms: C21_27  and  C22_28 
REMARK   11  A    between atoms: C26_34  and  O9_35 
ROOT
HETATM    1  C1  UNL     1       0.575   4.198  11.581  1.00  0.00     0.015 C 
HETATM    2  C2  UNL     1      -0.344   5.179  11.618  1.00  0.00    -0.084 C 
HETATM    3  C3  UNL     1      -1.795   4.812  11.801  1.00  0.00     0.034 C 
HETATM    4  C4  UNL     1      -2.639   5.987  12.291  1.00  0.00     0.010 C 
HETATM    5  C5  UNL     1      -1.928   6.794  13.400  1.00  0.00     0.005 C 
HETATM    6  C6  UNL     1      -2.907   7.841  14.075  1.00  0.00    -0.018 C 
HETATM    7  C7  UNL     1      -3.824   8.563  13.056  1.00  0.00     0.018 C 
HETATM    8  C15 UNL     1      -2.083   8.888  14.844  1.00  0.00     0.012 C 
HETATM    9  C16 UNL     1      -1.109   9.667  13.974  1.00  0.00     0.002 C 
HETATM   10  C17 UNL     1      -0.565   8.899  12.771  1.00  0.00     0.010 C 
HETATM   11  C18 UNL     1      -0.507   7.361  12.919  1.00  0.00    -0.032 C 
HETATM   12  C19 UNL     1       0.548   7.024  14.011  1.00  0.00     0.016 C 
HETATM   13  C20 UNL     1      -0.063   6.686  11.539  1.00  0.00     0.025 C 
ENDROOT
BRANCH   6  14
HETATM   14  C8  UNL     1      -3.867   7.131  15.085  1.00  0.00     0.180 C 
BRANCH  14  15
HETATM   15  O1  UNL     1      -4.989   7.946  15.412  1.00  0.00    -0.358 OA
BRANCH  15  16
HETATM   16  C9  UNL     1      -6.211   7.519  14.810  1.00  0.00     0.291 C 
HETATM   17  O2  UNL     1      -6.038   6.275  14.124  1.00  0.00    -0.348 OA
HETATM   18  C10 UNL     1      -7.239   5.651  13.643  1.00  0.00     0.179 C 
HETATM   19  C12 UNL     1      -8.530   6.465  13.870  1.00  0.00     0.180 C 
HETATM   20  C13 UNL     1      -8.646   7.100  15.268  1.00  0.00     0.183 C 
HETATM   21  C14 UNL     1      -7.286   7.394  15.907  1.00  0.00     0.204 C 
BRANCH  18  22
HETATM   22  C11 UNL     1      -7.280   4.195  14.140  1.00  0.00     0.198 C 
BRANCH  22  23
HETATM   23  O3  UNL     1      -8.263   3.411  13.485  1.00  0.00    -0.398 OA
HETATM   24  H17 UNL     1      -9.107   3.917  13.525  1.00  0.00     0.209 HD
ENDBRANCH  22  23
ENDBRANCH  18  22
BRANCH  19  25
HETATM   25  O4  UNL     1      -9.730   5.745  13.579  1.00  0.00    -0.390 OA
HETATM   26  H19 UNL     1      -9.724   5.491  12.635  1.00  0.00     0.210 HD
ENDBRANCH  19  25
BRANCH  20  27
HETATM   27  O5  UNL     1      -9.436   6.301  16.162  1.00  0.00    -0.390 OA
HETATM   28  H21 UNL     1      -9.978   5.724  15.580  1.00  0.00     0.210 HD
ENDBRANCH  20  27
BRANCH  21  29
HETATM   29  O6  UNL     1      -6.964   6.333  16.833  1.00  0.00    -0.388 OA
HETATM   30  H23 UNL     1      -7.839   6.061  17.197  1.00  0.00     0.210 HD
ENDBRANCH  21  29
ENDBRANCH  15  16
ENDBRANCH  14  15
ENDBRANCH   6  14
BRANCH  13  31
HETATM   31  C21 UNL     1       1.372   6.994  11.012  1.00  0.00     0.037 C 
BRANCH  31  32
HETATM   32  C22 UNL     1       1.631   6.703   9.558  1.00  0.00    -0.010 C 
HETATM   33  C23 UNL     1       2.588   5.883   9.088  1.00  0.00     0.044 C 
HETATM   34  C24 UNL     1       2.785   5.659   7.639  1.00  0.00     0.291 C 
HETATM   35  C26 UNL     1       3.545   5.023   9.812  1.00  0.00     0.181 C 
HETATM   36  O7  UNL     1       2.249   6.274   6.733  1.00  0.00    -0.260 OA
HETATM   37  O8  UNL     1       3.635   4.609   7.482  1.00  0.00    -0.315 OA
HETATM   38  C25 UNL     1       3.879   3.992   8.752  1.00  0.00     0.215 C 
BRANCH  35  39
HETATM   39  O9  UNL     1       4.684   5.799  10.160  1.00  0.00    -0.389 OA
HETATM   40  H40 UNL     1       5.275   5.238  10.689  1.00  0.00     0.210 HD
ENDBRANCH  35  39
ENDBRANCH  31  32
ENDBRANCH  13  31
TORSDOF 11
ENDMDL
MODEL 4
REMARK minimizedAffinity -9.86350727
REMARK  11 active torsions:
REMARK  status: ('A' for Active; 'I' for Inactive)
REMARK    1  A    between atoms: C6_6  and  C8_8 
REMARK    2  A    between atoms: C8_8  and  O1_9 
REMARK    3  A    between atoms: O1_9  and  C9_10 
REMARK    4  A    between atoms: C10_12  and  C11_13 
REMARK    5  A    between atoms: C11_13  and  O3_14 
REMARK    6  A    between atoms: C12_15  and  O4_16 
REMARK    7  A    between atoms: C13_17  and  O5_18 
REMARK    8  A    between atoms: C14_19  and  O6_20 
REMARK    9  A    between atoms: C20_26  and  C21_27 
REMARK   10  A    between atoms: C21_27  and  C22_28 
REMARK   11  A    between atoms: C26_34  and  O9_35 
ROOT
HETATM    1  C1  UNL     1      -7.479   4.864  12.684  1.00  0.00     0.015 C 
HETATM    2  C2  UNL     1      -6.284   4.851  13.299  1.00  0.00    -0.084 C 
HETATM    3  C3  UNL     1      -5.162   4.042  12.697  1.00  0.00     0.034 C 
HETATM    4  C4  UNL     1      -3.788   4.480  13.201  1.00  0.00     0.010 C 
HETATM    5  C5  UNL     1      -3.652   6.019  13.260  1.00  0.00     0.005 C 
HETATM    6  C6  UNL     1      -2.154   6.458  13.532  1.00  0.00    -0.018 C 
HETATM    7  C7  UNL     1      -1.441   5.574  14.586  1.00  0.00     0.018 C 
HETATM    8  C15 UNL     1      -2.130   7.923  14.002  1.00  0.00     0.012 C 
HETATM    9  C16 UNL     1      -2.920   8.176  15.276  1.00  0.00     0.002 C 
HETATM   10  C17 UNL     1      -4.122   7.256  15.480  1.00  0.00     0.010 C 
HETATM   11  C18 UNL     1      -4.769   6.690  14.195  1.00  0.00    -0.032 C 
HETATM   12  C19 UNL     1      -5.409   7.874  13.418  1.00  0.00     0.016 C 
HETATM   13  C20 UNL     1      -5.909   5.632  14.566  1.00  0.00     0.025 C 
ENDROOT
BRANCH   6  14
HETATM   14  C8  UNL     1      -1.297   6.344  12.228  1.00  0.00     0.180 C 
BRANCH  14  15
HETATM   15  O1  UNL     1       0.089   6.192  12.518  1.00  0.00    -0.358 OA
BRANCH  15  16
HETATM   16  C9  UNL     1       0.951   6.851  11.589  1.00  0.00     0.291 C 
HETATM   17  O2  UNL     1       2.247   7.066  12.155  1.00  0.00    -0.348 OA
HETATM   18  C10 UNL     1       3.255   7.546  11.251  1.00  0.00     0.179 C 
HETATM   19  C12 UNL     1       2.759   7.836   9.819  1.00  0.00     0.180 C 
HETATM   20  C13 UNL     1       1.828   6.756   9.236  1.00  0.00     0.183 C 
HETATM   21  C14 UNL     1       1.046   5.995  10.311  1.00  0.00     0.204 C 
BRANCH  18  22
HETATM   22  C11 UNL     1       4.491   6.634  11.350  1.00  0.00     0.198 C 
BRANCH  22  23
HETATM   23  O3  UNL     1       4.547   5.660  10.322  1.00  0.00    -0.398 OA
HETATM   24  H17 UNL     1       3.669   5.214  10.300  1.00  0.00     0.209 HD
ENDBRANCH  22  23
ENDBRANCH  18  22
BRANCH  19  25
HETATM   25  O4  UNL     1       3.805   8.108   8.885  1.00  0.00    -0.390 OA
HETATM   26  H19 UNL     1       4.289   8.905   9.178  1.00  0.00     0.210 HD
ENDBRANCH  19  25
BRANCH  20  27
HETATM   27  O5  UNL     1       2.534   5.824   8.403  1.00  0.00    -0.390 OA
HETATM   28  H21 UNL     1       3.360   6.287   8.142  1.00  0.00     0.210 HD
ENDBRANCH  20  27
BRANCH  21  29
HETATM   29  O6  UNL     1       1.711   4.740  10.573  1.00  0.00    -0.388 OA
HETATM   30  H23 UNL     1       2.087   4.482   9.699  1.00  0.00     0.210 HD
ENDBRANCH  21  29
ENDBRANCH  15  16
ENDBRANCH  14  15
ENDBRANCH   6  14
BRANCH  13  31
HETATM   31  C21 UNL     1      -7.163   6.159  15.329  1.00  0.00     0.037 C 
BRANCH  31  32
HETATM   32  C22 UNL     1      -8.370   6.488  14.492  1.00  0.00    -0.010 C 
HETATM   33  C23 UNL     1      -9.234   7.490  14.732  1.00  0.00     0.044 C 
HETATM   34  C24 UNL     1     -10.406   7.740  13.865  1.00  0.00     0.291 C 
HETATM   35  C26 UNL     1      -9.205   8.543  15.767  1.00  0.00     0.181 C 
HETATM   36  O7  UNL     1     -10.811   7.016  12.972  1.00  0.00    -0.260 OA
HETATM   37  O8  UNL     1     -10.935   8.947  14.200  1.00  0.00    -0.315 OA
HETATM   38  C25 UNL     1     -10.067   9.613  15.127  1.00  0.00     0.215 C 
BRANCH  35  39
HETATM   39  O9  UNL     1      -9.804   8.034  16.953  1.00  0.00    -0.389 OA
HETATM   40  H40 UNL     1      -9.722   8.714  17.642  1.00  0.00     0.210 HD
ENDBRANCH  35  39
ENDBRANCH  31  32
ENDBRANCH  13  31
TORSDOF 11
ENDMDL
MODEL 5
REMARK minimizedAffinity -9.73929882
REMARK  11 active torsions:
REMARK  status: ('A' for Active; 'I' for Inactive)
REMARK    1  A    between atoms: C6_6  and  C8_8 
REMARK    2  A    between atoms: C8_8  and  O1_9 
REMARK    3  A    between atoms: O1_9  and  C9_10 
REMARK    4  A    between atoms: C10_12  and  C11_13 
REMARK    5  A    between atoms: C11_13  and  O3_14 
REMARK    6  A    between atoms: C12_15  and  O4_16 
REMARK    7  A    between atoms: C13_17  and  O5_18 
REMARK    8  A    between atoms: C14_19  and  O6_20 
REMARK    9  A    between atoms: C20_26  and  C21_27 
REMARK   10  A    between atoms: C21_27  and  C22_28 
REMARK   11  A    between atoms: C26_34  and  O9_35 
ROOT
HETATM    1  C1  UNL     1      -4.716   4.500  12.239  1.00  0.00     0.015 C 
HETATM    2  C2  UNL     1      -3.740   5.133  12.914  1.00  0.00    -0.084 C 
HETATM    3  C3  UNL     1      -2.318   5.002  12.431  1.00  0.00     0.034 C 
HETATM    4  C4  UNL     1      -1.413   6.108  12.969  1.00  0.00     0.010 C 
HETATM    5  C5  UNL     1      -2.094   7.495  12.921  1.00  0.00     0.005 C 
HETATM    6  C6  UNL     1      -1.065   8.658  13.236  1.00  0.00    -0.018 C 
HETATM    7  C7  UNL     1      -0.087   8.313  14.387  1.00  0.00     0.018 C 
HETATM    8  C15 UNL     1      -1.837   9.939  13.596  1.00  0.00     0.012 C 
HETATM    9  C16 UNL     1      -2.746   9.792  14.806  1.00  0.00     0.002 C 
HETATM   10  C17 UNL     1      -3.314   8.390  15.017  1.00  0.00     0.010 C 
HETATM   11  C18 UNL     1      -3.468   7.523  13.746  1.00  0.00    -0.032 C 
HETATM   12  C19 UNL     1      -4.561   8.173  12.852  1.00  0.00     0.016 C 
HETATM   13  C20 UNL     1      -3.927   6.041  14.136  1.00  0.00     0.025 C 
ENDROOT
BRANCH   6  14
HETATM   14  C8  UNL     1      -0.168   8.957  11.989  1.00  0.00     0.180 C 
BRANCH  14  15
HETATM   15  O1  UNL     1       1.189   8.583  12.211  1.00  0.00    -0.358 OA
BRANCH  15  16
HETATM   16  C9  UNL     1       1.767   7.837  11.141  1.00  0.00     0.291 C 
HETATM   17  O2  UNL     1       3.179   8.054  11.067  1.00  0.00    -0.348 OA
HETATM   18  C10 UNL     1       3.898   7.210  10.154  1.00  0.00     0.179 C 
HETATM   19  C12 UNL     1       3.017   6.250   9.326  1.00  0.00     0.180 C 
HETATM   20  C13 UNL     1       1.916   5.539  10.134  1.00  0.00     0.183 C 
HETATM   21  C14 UNL     1       1.453   6.343  11.353  1.00  0.00     0.204 C 
BRANCH  18  22
HETATM   22  C11 UNL     1       5.073   6.553  10.899  1.00  0.00     0.198 C 
BRANCH  22  23
HETATM   23  O3  UNL     1       4.911   6.560  12.308  1.00  0.00    -0.398 OA
HETATM   24  H17 UNL     1       4.684   7.482  12.566  1.00  0.00     0.209 HD
ENDBRANCH  22  23
ENDBRANCH  18  22
BRANCH  19  25
HETATM   25  O4  UNL     1       3.756   5.279   8.583  1.00  0.00    -0.390 OA
HETATM   26  H19 UNL     1       4.334   5.743   7.946  1.00  0.00     0.210 HD
ENDBRANCH  19  25
BRANCH  20  27
HETATM   27  O5  UNL     1       2.312   4.222  10.549  1.00  0.00    -0.390 OA
HETATM   28  H21 UNL     1       3.044   3.972   9.943  1.00  0.00     0.210 HD
ENDBRANCH  20  27
BRANCH  21  29
HETATM   29  O6  UNL     1       2.116   5.833  12.530  1.00  0.00    -0.388 OA
HETATM   30  H23 UNL     1       2.211   4.869  12.351  1.00  0.00     0.210 HD
ENDBRANCH  21  29
ENDBRANCH  15  16
ENDBRANCH  14  15
ENDBRANCH   6  14
BRANCH  13  31
HETATM   31  C21 UNL     1      -5.331   5.868  14.793  1.00  0.00     0.037 C 
BRANCH  31  32
HETATM   32  C22 UNL     1      -6.518   5.936  13.871  1.00  0.00    -0.010 C 
HETATM   33  C23 UNL     1      -7.793   6.119  14.256  1.00  0.00     0.044 C 
HETATM   34  C24 UNL     1      -8.908   6.162  13.284  1.00  0.00     0.291 C 
HETATM   35  C26 UNL     1      -8.354   6.374  15.598  1.00  0.00     0.181 C 
HETATM   36  O7  UNL     1      -8.842   5.890  12.098  1.00  0.00    -0.260 OA
HETATM   37  O8  UNL     1     -10.019   6.607  13.929  1.00  0.00    -0.315 OA
HETATM   38  C25 UNL     1      -9.669   7.044  15.249  1.00  0.00     0.215 C 
BRANCH  35  39
HETATM   39  O9  UNL     1      -8.564   5.127  16.250  1.00  0.00    -0.389 OA
HETATM   40  H40 UNL     1      -8.873   5.312  17.152  1.00  0.00     0.210 HD
ENDBRANCH  35  39
ENDBRANCH  31  32
ENDBRANCH  13  31
TORSDOF 11
ENDMDL
MODEL 6
REMARK minimizedAffinity -9.64607334
REMARK  11 active torsions:
REMARK  status: ('A' for Active; 'I' for Inactive)
REMARK    1  A    between atoms: C6_6  and  C8_8 
REMARK    2  A    between atoms: C8_8  and  O1_9 
REMARK    3  A    between atoms: O1_9  and  C9_10 
REMARK    4  A    between atoms: C10_12  and  C11_13 
REMARK    5  A    between atoms: C11_13  and  O3_14 
REMARK    6  A    between atoms: C12_15  and  O4_16 
REMARK    7  A    between atoms: C13_17  and  O5_18 
REMARK    8  A    between atoms: C14_19  and  O6_20 
REMARK    9  A    between atoms: C20_26  and  C21_27 
REMARK   10  A    between atoms: C21_27  and  C22_28 
REMARK   11  A    between atoms: C26_34  and  O9_35 
ROOT
HETATM    1  C1  UNL     1       0.972   7.577   9.191  1.00  0.00     0.015 C 
HETATM    2  C2  UNL     1       0.496   8.004  10.374  1.00  0.00    -0.084 C 
HETATM    3  C3  UNL     1      -0.749   8.855  10.395  1.00  0.00     0.034 C 
HETATM    4  C4  UNL     1      -1.427   8.867  11.763  1.00  0.00     0.010 C 
HETATM    5  C5  UNL     1      -1.473   7.461  12.404  1.00  0.00     0.005 C 
HETATM    6  C6  UNL     1      -2.398   7.439  13.690  1.00  0.00    -0.018 C 
HETATM    7  C7  UNL     1      -2.231   8.695  14.583  1.00  0.00     0.018 C 
HETATM    8  C15 UNL     1      -2.087   6.183  14.522  1.00  0.00     0.012 C 
HETATM    9  C16 UNL     1      -0.644   6.098  14.994  1.00  0.00     0.002 C 
HETATM   10  C17 UNL     1       0.376   6.758  14.068  1.00  0.00     0.010 C 
HETATM   11  C18 UNL     1      -0.010   6.825  12.573  1.00  0.00    -0.032 C 
HETATM   12  C19 UNL     1      -0.042   5.373  12.020  1.00  0.00     0.016 C 
HETATM   13  C20 UNL     1       1.074   7.670  11.756  1.00  0.00     0.025 C 
ENDROOT
BRANCH   6  14
HETATM   14  C8  UNL     1      -3.909   7.401  13.285  1.00  0.00     0.180 C 
BRANCH  14  15
HETATM   15  O1  UNL     1      -4.764   7.503  14.420  1.00  0.00    -0.358 OA
BRANCH  15  16
HETATM   16  C9  UNL     1      -6.133   7.212  14.142  1.00  0.00     0.291 C 
HETATM   17  O2  UNL     1      -6.260   5.989  13.411  1.00  0.00    -0.348 OA
HETATM   18  C10 UNL     1      -7.598   5.495  13.240  1.00  0.00     0.179 C 
HETATM   19  C12 UNL     1      -8.705   6.410  13.805  1.00  0.00     0.180 C 
HETATM   20  C13 UNL     1      -8.403   6.990  15.199  1.00  0.00     0.183 C 
HETATM   21  C14 UNL     1      -6.903   7.135  15.475  1.00  0.00     0.204 C 
BRANCH  18  22
HETATM   22  C11 UNL     1      -7.652   4.028  13.703  1.00  0.00     0.198 C 
BRANCH  22  23
HETATM   23  O3  UNL     1      -8.708   3.295  13.104  1.00  0.00    -0.398 OA
HETATM   24  H17 UNL     1      -9.528   3.827  13.220  1.00  0.00     0.209 HD
ENDBRANCH  22  23
ENDBRANCH  18  22
BRANCH  19  25
HETATM   25  O4  UNL     1     -10.003   5.812  13.817  1.00  0.00    -0.390 OA
HETATM   26  H19 UNL     1     -10.260   5.600  12.898  1.00  0.00     0.210 HD
ENDBRANCH  19  25
BRANCH  20  27
HETATM   27  O5  UNL     1      -9.014   6.226  16.249  1.00  0.00    -0.390 OA
HETATM   28  H21 UNL     1      -9.739   5.725  15.814  1.00  0.00     0.210 HD
ENDBRANCH  20  27
BRANCH  21  29
HETATM   29  O6  UNL     1      -6.462   6.010  16.267  1.00  0.00    -0.388 OA
HETATM   30  H23 UNL     1      -7.239   5.801  16.837  1.00  0.00     0.210 HD
ENDBRANCH  21  29
ENDBRANCH  15  16
ENDBRANCH  14  15
ENDBRANCH   6  14
BRANCH  13  31
HETATM   31  C21 UNL     1       2.522   7.097  11.669  1.00  0.00     0.037 C 
BRANCH  31  32
HETATM   32  C22 UNL     1       3.592   8.043  11.196  1.00  0.00    -0.010 C 
HETATM   33  C23 UNL     1       4.916   7.815  11.261  1.00  0.00     0.044 C 
HETATM   34  C24 UNL     1       5.906   8.805  10.782  1.00  0.00     0.291 C 
HETATM   35  C26 UNL     1       5.655   6.616  11.707  1.00  0.00     0.181 C 
HETATM   36  O7  UNL     1       5.674   9.951  10.441  1.00  0.00    -0.260 OA
HETATM   37  O8  UNL     1       7.125   8.202  10.740  1.00  0.00    -0.315 OA
HETATM   38  C25 UNL     1       6.978   6.798  10.990  1.00  0.00     0.215 C 
BRANCH  35  39
HETATM   39  O9  UNL     1       5.815   6.679  13.118  1.00  0.00    -0.389 OA
HETATM   40  H40 UNL     1       6.246   5.857  13.405  1.00  0.00     0.210 HD
ENDBRANCH  35  39
ENDBRANCH  31  32
ENDBRANCH  13  31
TORSDOF 11
ENDMDL
MODEL 7
REMARK minimizedAffinity -9.33781338
REMARK  11 active torsions:
REMARK  status: ('A' for Active; 'I' for Inactive)
REMARK    1  A    between atoms: C6_6  and  C8_8 
REMARK    2  A    between atoms: C8_8  and  O1_9 
REMARK    3  A    between atoms: O1_9  and  C9_10 
REMARK    4  A    between atoms: C10_12  and  C11_13 
REMARK    5  A    between atoms: C11_13  and  O3_14 
REMARK    6  A    between atoms: C12_15  and  O4_16 
REMARK    7  A    between atoms: C13_17  and  O5_18 
REMARK    8  A    between atoms: C14_19  and  O6_20 
REMARK    9  A    between atoms: C20_26  and  C21_27 
REMARK   10  A    between atoms: C21_27  and  C22_28 
REMARK   11  A    between atoms: C26_34  and  O9_35 
ROOT
HETATM    1  C1  UNL     1      -3.172   4.618  11.976  1.00  0.00     0.015 C 
HETATM    2  C2  UNL     1      -2.435   5.143  12.971  1.00  0.00    -0.084 C 
HETATM    3  C3  UNL     1      -0.962   4.830  13.031  1.00  0.00     0.034 C 
HETATM    4  C4  UNL     1      -0.185   5.830  13.885  1.00  0.00     0.010 C 
HETATM    5  C5  UNL     1      -0.628   7.288  13.624  1.00  0.00     0.005 C 
HETATM    6  C6  UNL     1       0.351   8.324  14.314  1.00  0.00    -0.018 C 
HETATM    7  C7  UNL     1       0.797   7.891  15.733  1.00  0.00     0.018 C 
HETATM    8  C15 UNL     1      -0.337   9.698  14.400  1.00  0.00     0.012 C 
HETATM    9  C16 UNL     1      -1.632   9.690  15.197  1.00  0.00     0.002 C 
HETATM   10  C17 UNL     1      -2.404   8.373  15.158  1.00  0.00     0.010 C 
HETATM   11  C18 UNL     1      -2.194   7.501  13.898  1.00  0.00    -0.032 C 
HETATM   12  C19 UNL     1      -2.803   8.258  12.684  1.00  0.00     0.016 C 
HETATM   13  C20 UNL     1      -2.939   6.096  14.063  1.00  0.00     0.025 C 
ENDROOT
BRANCH   6  14
HETATM   14  C8  UNL     1       1.666   8.483  13.482  1.00  0.00     0.180 C 
BRANCH  14  15
HETATM   15  O1  UNL     1       1.395   8.724  12.105  1.00  0.00    -0.358 OA
BRANCH  15  16
HETATM   16  C9  UNL     1       1.781   7.654  11.242  1.00  0.00     0.291 C 
HETATM   17  O2  UNL     1       1.441   7.942   9.883  1.00  0.00    -0.348 OA
HETATM   18  C10 UNL     1       1.951   7.027   8.900  1.00  0.00     0.179 C 
HETATM   19  C12 UNL     1       2.723   5.820   9.475  1.00  0.00     0.180 C 
HETATM   20  C13 UNL     1       3.709   6.173  10.604  1.00  0.00     0.183 C 
HETATM   21  C14 UNL     1       3.298   7.422  11.390  1.00  0.00     0.204 C 
BRANCH  18  22
HETATM   22  C11 UNL     1       2.689   7.824   7.809  1.00  0.00     0.198 C 
BRANCH  22  23
HETATM   23  O3  UNL     1       2.388   9.209   7.834  1.00  0.00    -0.398 OA
HETATM   24  H17 UNL     1       1.407   9.290   7.854  1.00  0.00     0.209 HD
ENDBRANCH  22  23
ENDBRANCH  18  22
BRANCH  19  25
HETATM   25  O4  UNL     1       3.399   5.039   8.488  1.00  0.00    -0.390 OA
HETATM   26  H19 UNL     1       2.738   4.676   7.867  1.00  0.00     0.210 HD
ENDBRANCH  19  25
BRANCH  20  27
HETATM   27  O5  UNL     1       5.052   6.328  10.122  1.00  0.00    -0.390 OA
HETATM   28  H21 UNL     1       5.073   5.852   9.263  1.00  0.00     0.210 HD
ENDBRANCH  20  27
BRANCH  21  29
HETATM   29  O6  UNL     1       4.048   8.553  10.898  1.00  0.00    -0.388 OA
HETATM   30  H23 UNL     1       4.920   8.169  10.645  1.00  0.00     0.210 HD
ENDBRANCH  21  29
ENDBRANCH  15  16
ENDBRANCH  14  15
ENDBRANCH   6  14
BRANCH  13  31
HETATM   31  C21 UNL     1      -4.495   6.110  14.166  1.00  0.00     0.037 C 
BRANCH  31  32
HETATM   32  C22 UNL     1      -5.225   4.994  13.470  1.00  0.00    -0.010 C 
HETATM   33  C23 UNL     1      -6.561   4.849  13.420  1.00  0.00     0.044 C 
HETATM   34  C24 UNL     1      -7.201   3.712  12.723  1.00  0.00     0.291 C 
HETATM   35  C26 UNL     1      -7.633   5.729  13.927  1.00  0.00     0.181 C 
HETATM   36  O7  UNL     1      -6.636   2.731  12.271  1.00  0.00    -0.260 OA
HETATM   37  O8  UNL     1      -8.533   3.969  12.624  1.00  0.00    -0.315 OA
HETATM   38  C25 UNL     1      -8.800   5.309  13.056  1.00  0.00     0.215 C 
BRANCH  35  39
HETATM   39  O9  UNL     1      -7.867   5.421  15.295  1.00  0.00    -0.389 OA
HETATM   40  H40 UNL     1      -8.529   6.048  15.632  1.00  0.00     0.210 HD
ENDBRANCH  35  39
ENDBRANCH  31  32
ENDBRANCH  13  31
TORSDOF 11
ENDMDL
MODEL 8
REMARK minimizedAffinity -9.28144741
REMARK  11 active torsions:
REMARK  status: ('A' for Active; 'I' for Inactive)
REMARK    1  A    between atoms: C6_6  and  C8_8 
REMARK    2  A    between atoms: C8_8  and  O1_9 
REMARK    3  A    between atoms: O1_9  and  C9_10 
REMARK    4  A    between atoms: C10_12  and  C11_13 
REMARK    5  A    between atoms: C11_13  and  O3_14 
REMARK    6  A    between atoms: C12_15  and  O4_16 
REMARK    7  A    between atoms: C13_17  and  O5_18 
REMARK    8  A    between atoms: C14_19  and  O6_20 
REMARK    9  A    between atoms: C20_26  and  C21_27 
REMARK   10  A    between atoms: C21_27  and  C22_28 
REMARK   11  A    between atoms: C26_34  and  O9_35 
ROOT
HETATM    1  C1  UNL     1       1.584   7.357   9.301  1.00  0.00     0.015 C 
HETATM    2  C2  UNL     1       0.988   7.959  10.345  1.00  0.00    -0.084 C 
HETATM    3  C3  UNL     1      -0.363   8.598  10.144  1.00  0.00     0.034 C 
HETATM    4  C4  UNL     1      -1.111   8.810  11.459  1.00  0.00     0.010 C 
HETATM    5  C5  UNL     1      -0.995   7.590  12.401  1.00  0.00     0.005 C 
HETATM    6  C6  UNL     1      -1.978   7.716  13.637  1.00  0.00    -0.018 C 
HETATM    7  C7  UNL     1      -2.038   9.147  14.225  1.00  0.00     0.018 C 
HETATM    8  C15 UNL     1      -1.540   6.735  14.738  1.00  0.00     0.012 C 
HETATM    9  C16 UNL     1      -0.127   6.972  15.250  1.00  0.00     0.002 C 
HETATM   10  C17 UNL     1       0.840   7.556  14.222  1.00  0.00     0.010 C 
HETATM   11  C18 UNL     1       0.531   7.233  12.742  1.00  0.00    -0.032 C 
HETATM   12  C19 UNL     1       0.733   5.706  12.532  1.00  0.00     0.016 C 
HETATM   13  C20 UNL     1       1.530   8.029  11.779  1.00  0.00     0.025 C 
ENDROOT
BRANCH   6  14
HETATM   14  C8  UNL     1      -3.443   7.363  13.218  1.00  0.00     0.180 C 
BRANCH  14  15
HETATM   15  O1  UNL     1      -4.309   7.272  14.346  1.00  0.00    -0.358 OA
BRANCH  15  16
HETATM   16  C9  UNL     1      -5.666   6.983  14.012  1.00  0.00     0.291 C 
HETATM   17  O2  UNL     1      -5.778   5.710  13.369  1.00  0.00    -0.348 OA
HETATM   18  C10 UNL     1      -7.114   5.227  13.160  1.00  0.00     0.179 C 
HETATM   19  C12 UNL     1      -8.232   6.200  13.590  1.00  0.00     0.180 C 
HETATM   20  C13 UNL     1      -7.996   6.881  14.950  1.00  0.00     0.183 C 
HETATM   21  C14 UNL     1      -6.511   7.021  15.301  1.00  0.00     0.204 C 
BRANCH  18  22
HETATM   22  C11 UNL     1      -7.225   3.801  13.729  1.00  0.00     0.198 C 
BRANCH  22  23
HETATM   23  O3  UNL     1      -8.390   3.119  13.296  1.00  0.00    -0.398 OA
HETATM   24  H17 UNL     1      -9.152   3.721  13.460  1.00  0.00     0.209 HD
ENDBRANCH  22  23
ENDBRANCH  18  22
BRANCH  19  25
HETATM   25  O4  UNL     1      -9.540   5.627  13.572  1.00  0.00    -0.390 OA
HETATM   26  H19 UNL     1      -9.750   5.349  12.659  1.00  0.00     0.210 HD
ENDBRANCH  19  25
BRANCH  20  27
HETATM   27  O5  UNL     1      -8.681   6.210  16.019  1.00  0.00    -0.390 OA
HETATM   28  H21 UNL     1      -9.390   5.690  15.581  1.00  0.00     0.210 HD
ENDBRANCH  20  27
BRANCH  21  29
HETATM   29  O6  UNL     1      -6.139   5.954  16.199  1.00  0.00    -0.388 OA
HETATM   30  H23 UNL     1      -6.951   5.802  16.738  1.00  0.00     0.210 HD
ENDBRANCH  21  29
ENDBRANCH  15  16
ENDBRANCH  14  15
ENDBRANCH   6  14
BRANCH  13  31
HETATM   31  C21 UNL     1       3.046   7.673  11.857  1.00  0.00     0.037 C 
BRANCH  31  32
HETATM   32  C22 UNL     1       3.735   7.948  13.167  1.00  0.00    -0.010 C 
HETATM   33  C23 UNL     1       5.042   7.751  13.415  1.00  0.00     0.044 C 
HETATM   34  C24 UNL     1       5.640   8.037  14.737  1.00  0.00     0.291 C 
HETATM   35  C26 UNL     1       6.127   7.316  12.513  1.00  0.00     0.181 C 
HETATM   36  O7  UNL     1       5.036   8.314  15.759  1.00  0.00    -0.260 OA
HETATM   37  O8  UNL     1       6.993   7.986  14.613  1.00  0.00    -0.315 OA
HETATM   38  C25 UNL     1       7.346   7.862  13.229  1.00  0.00     0.215 C 
BRANCH  35  39
HETATM   39  O9  UNL     1       6.142   5.894  12.470  1.00  0.00    -0.389 OA
HETATM   40  H40 UNL     1       6.818   5.624  11.826  1.00  0.00     0.210 HD
ENDBRANCH  35  39
ENDBRANCH  31  32
ENDBRANCH  13  31
TORSDOF 11
ENDMDL
MODEL 9
REMARK minimizedAffinity -9.269907
REMARK  11 active torsions:
REMARK  status: ('A' for Active; 'I' for Inactive)
REMARK    1  A    between atoms: C6_6  and  C8_8 
REMARK    2  A    between atoms: C8_8  and  O1_9 
REMARK    3  A    between atoms: O1_9  and  C9_10 
REMARK    4  A    between atoms: C10_12  and  C11_13 
REMARK    5  A    between atoms: C11_13  and  O3_14 
REMARK    6  A    between atoms: C12_15  and  O4_16 
REMARK    7  A    between atoms: C13_17  and  O5_18 
REMARK    8  A    between atoms: C14_19  and  O6_20 
REMARK    9  A    between atoms: C20_26  and  C21_27 
REMARK   10  A    between atoms: C21_27  and  C22_28 
REMARK   11  A    between atoms: C26_34  and  O9_35 
ROOT
HETATM    1  C1  UNL     1      -4.142   4.394  12.116  1.00  0.00     0.015 C 
HETATM    2  C2  UNL     1      -3.075   4.805  12.825  1.00  0.00    -0.084 C 
HETATM    3  C3  UNL     1      -1.696   4.401  12.367  1.00  0.00     0.034 C 
HETATM    4  C4  UNL     1      -0.602   5.293  12.950  1.00  0.00     0.010 C 
HETATM    5  C5  UNL     1      -0.991   6.789  12.921  1.00  0.00     0.005 C 
HETATM    6  C6  UNL     1       0.242   7.715  13.284  1.00  0.00    -0.018 C 
HETATM    7  C7  UNL     1       1.103   7.159  14.446  1.00  0.00     0.018 C 
HETATM    8  C15 UNL     1      -0.267   9.118  13.659  1.00  0.00     0.012 C 
HETATM    9  C16 UNL     1      -1.216   9.132  14.847  1.00  0.00     0.002 C 
HETATM   10  C17 UNL     1      -2.058   7.869  15.013  1.00  0.00     0.010 C 
HETATM   11  C18 UNL     1      -2.352   7.075  13.719  1.00  0.00    -0.032 C 
HETATM   12  C19 UNL     1      -3.270   7.948  12.820  1.00  0.00     0.016 C 
HETATM   13  C20 UNL     1      -3.106   5.708  14.065  1.00  0.00     0.025 C 
ENDROOT
BRANCH   6  14
HETATM   14  C8  UNL     1       1.211   7.853  12.063  1.00  0.00     0.180 C 
BRANCH  14  15
HETATM   15  O1  UNL     1       2.395   7.080  12.237  1.00  0.00    -0.358 OA
BRANCH  15  16
HETATM   16  C9  UNL     1       3.602   7.827  12.083  1.00  0.00     0.291 C 
HETATM   17  O2  UNL     1       4.297   7.942  13.328  1.00  0.00    -0.348 OA
HETATM   18  C10 UNL     1       5.616   8.505  13.261  1.00  0.00     0.179 C 
HETATM   19  C12 UNL     1       6.050   8.978  11.858  1.00  0.00     0.180 C 
HETATM   20  C13 UNL     1       5.707   7.999  10.720  1.00  0.00     0.183 C 
HETATM   21  C14 UNL     1       4.483   7.131  11.027  1.00  0.00     0.204 C 
BRANCH  18  22
HETATM   22  C11 UNL     1       6.600   7.560  13.974  1.00  0.00     0.198 C 
BRANCH  22  23
HETATM   23  O3  UNL     1       5.998   6.816  15.020  1.00  0.00    -0.398 OA
HETATM   24  H17 UNL     1       5.512   7.459  15.586  1.00  0.00     0.209 HD
ENDBRANCH  22  23
ENDBRANCH  18  22
BRANCH  19  25
HETATM   25  O4  UNL     1       7.430   9.338  11.767  1.00  0.00    -0.390 OA
HETATM   26  H19 UNL     1       7.602  10.083  12.377  1.00  0.00     0.210 HD
ENDBRANCH  19  25
BRANCH  20  27
HETATM   27  O5  UNL     1       6.818   7.160  10.373  1.00  0.00    -0.390 OA
HETATM   28  H21 UNL     1       7.611   7.632  10.709  1.00  0.00     0.210 HD
ENDBRANCH  20  27
BRANCH  21  29
HETATM   29  O6  UNL     1       4.930   5.838  11.491  1.00  0.00    -0.388 OA
HETATM   30  H23 UNL     1       5.764   5.681  10.990  1.00  0.00     0.210 HD
ENDBRANCH  21  29
ENDBRANCH  15  16
ENDBRANCH  14  15
ENDBRANCH   6  14
BRANCH  13  31
HETATM   31  C21 UNL     1      -4.532   5.808  14.690  1.00  0.00     0.037 C 
BRANCH  31  32
HETATM   32  C22 UNL     1      -5.692   5.714  13.736  1.00  0.00    -0.010 C 
HETATM   33  C23 UNL     1      -6.988   5.845  14.071  1.00  0.00     0.044 C 
HETATM   34  C24 UNL     1      -8.072   5.727  13.072  1.00  0.00     0.291 C 
HETATM   35  C26 UNL     1      -7.605   6.179  15.371  1.00  0.00     0.181 C 
HETATM   36  O7  UNL     1      -7.953   5.356  11.917  1.00  0.00    -0.260 OA
HETATM   37  O8  UNL     1      -9.229   6.152  13.647  1.00  0.00    -0.315 OA
HETATM   38  C25 UNL     1      -8.948   6.727  14.930  1.00  0.00     0.215 C 
BRANCH  35  39
HETATM   39  O9  UNL     1      -7.754   4.984  16.126  1.00  0.00    -0.389 OA
HETATM   40  H40 UNL     1      -8.102   5.226  17.000  1.00  0.00     0.210 HD
ENDBRANCH  35  39
ENDBRANCH  31  32
ENDBRANCH  13  31
TORSDOF 11
ENDMDL
