MODEL 1
REMARK minimizedAffinity -6.48101473
REMARK CNNscore 0.636348486
REMARK CNNaffinity 6.25107145
REMARK  6 active torsions:
REMARK  status: ('A' for Active; 'I' for Inactive)
REMARK    1  A    between atoms: C6_8  and  C7_9 
REMARK    2  A    between atoms: C10_12  and  O1_13 
REMARK    3  A    between atoms: O1_13  and  C11_14 
REMARK    4  A    between atoms: C18_22  and  C19_23 
REMARK    5  A    between atoms: C22_26  and  O2_27 
REMARK    6  A    between atoms: O2_27  and  C23_28 
ROOT
HETATM    1  C1  UNL     1     -10.246 -15.775  26.583  1.00  0.00     0.049 C 
HETATM    2  C2  UNL     1     -10.935 -14.770  27.464  1.00  0.00    -0.046 A 
HETATM    3  C3  UNL     1     -11.470 -15.133  28.651  1.00  0.00     0.056 A 
HETATM    4  C4  UNL     1     -12.122 -14.175  29.475  1.00  0.00     0.112 A 
HETATM    5  N1  UNL     1     -12.723 -14.310  30.636  1.00  0.00    -0.350 N 
ATOM      6  H1  UNL     1     -12.832 -15.165  31.183  1.00  0.00     0.166 HD
HETATM    7  C5  UNL     1     -13.172 -13.056  30.952  1.00  0.00     0.120 A 
HETATM    8  C6  UNL     1     -12.836 -12.128  29.984  1.00  0.00     0.066 A 
HETATM    9  N2  UNL     1     -12.170 -12.864  29.016  1.00  0.00    -0.305 N 
HETATM   10  C17 UNL     1     -11.635 -12.469  27.789  1.00  0.00     0.112 A 
HETATM   11  C18 UNL     1     -11.019 -13.372  26.998  1.00  0.00    -0.004 A 
ENDROOT
BRANCH   8  12
HETATM   12  C7  UNL     1     -13.112 -10.698  29.929  1.00  0.00    -0.007 A 
HETATM   13  C8  UNL     1     -12.594  -9.907  28.895  1.00  0.00     0.016 A 
HETATM   14  C9  UNL     1     -12.856  -8.535  28.855  1.00  0.00     0.037 A 
HETATM   15  C10 UNL     1     -13.608  -7.944  29.867  1.00  0.00     0.069 A 
HETATM   16  C15 UNL     1     -14.159  -8.726  30.879  1.00  0.00     0.037 A 
HETATM   17  C16 UNL     1     -13.897 -10.097  30.920  1.00  0.00     0.016 A 
BRANCH  15  18
HETATM   18  O1  UNL     1     -13.917  -6.616  29.802  1.00  0.00    -0.341 OA
BRANCH  18  19
HETATM   19  C11 UNL     1     -13.006  -5.703  30.456  1.00  0.00     0.057 C 
HETATM   20  C12 UNL     1     -12.316  -4.759  29.462  1.00  0.00     0.045 C 
HETATM   21  C13 UNL     1     -13.908  -4.857  31.372  1.00  0.00     0.045 C 
HETATM   22  C14 UNL     1     -11.968  -6.416  31.336  1.00  0.00     0.045 C 
ENDBRANCH  18  19
ENDBRANCH  15  18
ENDBRANCH   8  12
BRANCH  11  23
HETATM   23  C19 UNL     1     -10.480 -12.882  25.719  1.00  0.00    -0.024 A 
HETATM   24  C20 UNL     1     -11.310 -12.763  24.601  1.00  0.00     0.015 A 
HETATM   25  C21 UNL     1     -10.793 -12.290  23.392  1.00  0.00     0.037 A 
HETATM   26  C22 UNL     1      -9.446 -11.935  23.280  1.00  0.00     0.069 A 
HETATM   27  C26 UNL     1      -8.618 -12.047  24.397  1.00  0.00     0.037 A 
HETATM   28  C27 UNL     1      -9.133 -12.519  25.610  1.00  0.00     0.015 A 
BRANCH  26  29
HETATM   29  O2  UNL     1      -9.084 -11.485  22.042  1.00  0.00    -0.347 OA
BRANCH  29  30
HETATM   30  C23 UNL     1      -9.923 -10.545  21.364  1.00  0.00     0.120 C 
HETATM   31  C24 UNL     1      -8.995  -9.534  20.692  1.00  0.00     0.040 C 
HETATM   32  C25 UNL     1     -10.760 -11.262  20.309  1.00  0.00     0.040 C 
ENDBRANCH  29  30
ENDBRANCH  26  29
ENDBRANCH  11  23
TORSDOF 6
ENDMDL
MODEL 2
REMARK minimizedAffinity -8.58847809
REMARK CNNscore 0.617596269
REMARK CNNaffinity 7.35171938
REMARK  6 active torsions:
REMARK  status: ('A' for Active; 'I' for Inactive)
REMARK    1  A    between atoms: C6_8  and  C7_9 
REMARK    2  A    between atoms: C10_12  and  O1_13 
REMARK    3  A    between atoms: O1_13  and  C11_14 
REMARK    4  A    between atoms: C18_22  and  C19_23 
REMARK    5  A    between atoms: C22_26  and  O2_27 
REMARK    6  A    between atoms: O2_27  and  C23_28 
ROOT
HETATM    1  C1  UNL     1      -1.440   1.909  11.156  1.00  0.00     0.049 C 
HETATM    2  C2  UNL     1      -2.859   2.252  11.513  1.00  0.00    -0.046 A 
HETATM    3  C3  UNL     1      -3.850   1.342  11.388  1.00  0.00     0.056 A 
HETATM    4  C4  UNL     1      -5.190   1.678  11.724  1.00  0.00     0.112 A 
HETATM    5  N1  UNL     1      -6.294   0.968  11.659  1.00  0.00    -0.350 N 
ATOM      6  H1  UNL     1      -6.394   0.003  11.344  1.00  0.00     0.166 HD
HETATM    7  C5  UNL     1      -7.282   1.806  12.103  1.00  0.00     0.120 A 
HETATM    8  C6  UNL     1      -6.785   3.046  12.461  1.00  0.00     0.066 A 
HETATM    9  N2  UNL     1      -5.427   2.965  12.194  1.00  0.00    -0.305 N 
HETATM   10  C17 UNL     1      -4.422   3.924  12.321  1.00  0.00     0.112 A 
HETATM   11  C18 UNL     1      -3.149   3.616  11.998  1.00  0.00    -0.004 A 
ENDROOT
BRANCH   8  12
HETATM   12  C7  UNL     1      -7.484   4.214  12.982  1.00  0.00    -0.007 A 
HETATM   13  C8  UNL     1      -8.266   5.016  12.140  1.00  0.00     0.016 A 
HETATM   14  C9  UNL     1      -8.924   6.140  12.646  1.00  0.00     0.037 A 
HETATM   15  C10 UNL     1      -8.775   6.486  13.986  1.00  0.00     0.069 A 
HETATM   16  C15 UNL     1      -8.030   5.676  14.840  1.00  0.00     0.037 A 
HETATM   17  C16 UNL     1      -7.371   4.553  14.336  1.00  0.00     0.016 A 
BRANCH  15  18
HETATM   18  O1  UNL     1      -9.462   7.548  14.499  1.00  0.00    -0.341 OA
BRANCH  18  19
HETATM   19  C11 UNL     1      -8.767   8.367  15.467  1.00  0.00     0.057 C 
HETATM   20  C12 UNL     1      -7.301   8.606  15.080  1.00  0.00     0.045 C 
HETATM   21  C13 UNL     1      -9.501   9.718  15.419  1.00  0.00     0.045 C 
HETATM   22  C14 UNL     1      -8.867   7.821  16.900  1.00  0.00     0.045 C 
ENDBRANCH  18  19
ENDBRANCH  15  18
ENDBRANCH   8  12
BRANCH  11  23
HETATM   23  C19 UNL     1      -2.143   4.679  12.157  1.00  0.00    -0.024 A 
HETATM   24  C20 UNL     1      -0.973   4.664  11.392  1.00  0.00     0.015 A 
HETATM   25  C21 UNL     1      -0.026   5.680  11.542  1.00  0.00     0.037 A 
HETATM   26  C22 UNL     1      -0.229   6.719  12.455  1.00  0.00     0.069 A 
HETATM   27  C26 UNL     1      -1.399   6.738  13.214  1.00  0.00     0.037 A 
HETATM   28  C27 UNL     1      -2.351   5.722  13.065  1.00  0.00     0.015 A 
BRANCH  26  29
HETATM   29  O2  UNL     1       0.777   7.642  12.489  1.00  0.00    -0.347 OA
BRANCH  29  30
HETATM   30  C23 UNL     1       0.845   8.644  11.469  1.00  0.00     0.120 C 
HETATM   31  C24 UNL     1       1.922   8.193  10.483  1.00  0.00     0.040 C 
HETATM   32  C25 UNL     1      -0.499   8.752  10.756  1.00  0.00     0.040 C 
ENDBRANCH  29  30
ENDBRANCH  26  29
ENDBRANCH  11  23
TORSDOF 6
ENDMDL
MODEL 3
REMARK minimizedAffinity -7.91552591
REMARK CNNscore 0.414216608
REMARK CNNaffinity 7.38579559
REMARK  6 active torsions:
REMARK  status: ('A' for Active; 'I' for Inactive)
REMARK    1  A    between atoms: C6_8  and  C7_9 
REMARK    2  A    between atoms: C10_12  and  O1_13 
REMARK    3  A    between atoms: O1_13  and  C11_14 
REMARK    4  A    between atoms: C18_22  and  C19_23 
REMARK    5  A    between atoms: C22_26  and  O2_27 
REMARK    6  A    between atoms: O2_27  and  C23_28 
ROOT
HETATM    1  C1  UNL     1      -1.234   4.821  12.290  1.00  0.00     0.049 C 
HETATM    2  C2  UNL     1      -2.722   4.762  12.496  1.00  0.00    -0.046 A 
HETATM    3  C3  UNL     1      -3.433   3.667  12.146  1.00  0.00     0.056 A 
HETATM    4  C4  UNL     1      -4.840   3.623  12.340  1.00  0.00     0.112 A 
HETATM    5  N1  UNL     1      -5.716   2.686  12.056  1.00  0.00    -0.350 N 
ATOM      6  H1  UNL     1      -5.537   1.777  11.629  1.00  0.00     0.166 HD
HETATM    7  C5  UNL     1      -6.923   3.193  12.458  1.00  0.00     0.120 A 
HETATM    8  C6  UNL     1      -6.795   4.455  13.010  1.00  0.00     0.066 A 
HETATM    9  N2  UNL     1      -5.441   4.738  12.913  1.00  0.00    -0.305 N 
HETATM   10  C17 UNL     1      -4.730   5.884  13.271  1.00  0.00     0.112 A 
HETATM   11  C18 UNL     1      -3.395   5.937  13.084  1.00  0.00    -0.004 A 
ENDROOT
BRANCH   8  12
HETATM   12  C7  UNL     1      -7.814   5.339  13.559  1.00  0.00    -0.007 A 
HETATM   13  C8  UNL     1      -7.846   5.634  14.928  1.00  0.00     0.016 A 
HETATM   14  C9  UNL     1      -8.833   6.475  15.447  1.00  0.00     0.037 A 
HETATM   15  C10 UNL     1      -9.812   6.998  14.605  1.00  0.00     0.069 A 
HETATM   16  C15 UNL     1      -9.769   6.741  13.237  1.00  0.00     0.037 A 
HETATM   17  C16 UNL     1      -8.783   5.899  12.717  1.00  0.00     0.016 A 
BRANCH  15  18
HETATM   18  O1  UNL     1     -10.743   7.867  15.096  1.00  0.00    -0.341 OA
BRANCH  18  19
HETATM   19  C11 UNL     1     -12.033   7.876  14.442  1.00  0.00     0.057 C 
HETATM   20  C12 UNL     1     -11.943   8.364  12.989  1.00  0.00     0.045 C 
HETATM   21  C13 UNL     1     -12.462   6.399  14.425  1.00  0.00     0.045 C 
HETATM   22  C14 UNL     1     -13.095   8.672  15.216  1.00  0.00     0.045 C 
ENDBRANCH  18  19
ENDBRANCH  15  18
ENDBRANCH   8  12
BRANCH  11  23
HETATM   23  C19 UNL     1      -2.712   7.177  13.486  1.00  0.00    -0.024 A 
HETATM   24  C20 UNL     1      -2.557   8.225  12.574  1.00  0.00     0.015 A 
HETATM   25  C21 UNL     1      -1.915   9.403  12.965  1.00  0.00     0.037 A 
HETATM   26  C22 UNL     1      -1.417   9.551  14.262  1.00  0.00     0.069 A 
HETATM   27  C26 UNL     1      -1.577   8.509  15.174  1.00  0.00     0.037 A 
HETATM   28  C27 UNL     1      -2.221   7.327  14.787  1.00  0.00     0.015 A 
BRANCH  26  29
HETATM   29  O2  UNL     1      -0.820  10.757  14.501  1.00  0.00    -0.347 OA
BRANCH  29  30
HETATM   30  C23 UNL     1      -1.295  11.574  15.576  1.00  0.00     0.120 C 
HETATM   31  C24 UNL     1      -0.340  12.762  15.676  1.00  0.00     0.040 C 
HETATM   32  C25 UNL     1      -2.706  12.067  15.270  1.00  0.00     0.040 C 
ENDBRANCH  29  30
ENDBRANCH  26  29
ENDBRANCH  11  23
TORSDOF 6
ENDMDL
MODEL 4
REMARK minimizedAffinity -7.94387054
REMARK CNNscore 0.353681266
REMARK CNNaffinity 7.23424006
REMARK  6 active torsions:
REMARK  status: ('A' for Active; 'I' for Inactive)
REMARK    1  A    between atoms: C6_8  and  C7_9 
REMARK    2  A    between atoms: C10_12  and  O1_13 
REMARK    3  A    between atoms: O1_13  and  C11_14 
REMARK    4  A    between atoms: C18_22  and  C19_23 
REMARK    5  A    between atoms: C22_26  and  O2_27 
REMARK    6  A    between atoms: O2_27  and  C23_28 
ROOT
HETATM    1  C1  UNL     1      -1.274   4.819  12.470  1.00  0.00     0.049 C 
HETATM    2  C2  UNL     1      -2.765   4.767  12.653  1.00  0.00    -0.046 A 
HETATM    3  C3  UNL     1      -3.482   3.696  12.244  1.00  0.00     0.056 A 
HETATM    4  C4  UNL     1      -4.892   3.658  12.417  1.00  0.00     0.112 A 
HETATM    5  N1  UNL     1      -5.774   2.745  12.079  1.00  0.00    -0.350 N 
ATOM      6  H1  UNL     1      -5.597   1.855  11.612  1.00  0.00     0.166 HD
HETATM    7  C5  UNL     1      -6.981   3.246  12.487  1.00  0.00     0.120 A 
HETATM    8  C6  UNL     1      -6.848   4.479  13.098  1.00  0.00     0.066 A 
HETATM    9  N2  UNL     1      -5.490   4.753  13.033  1.00  0.00    -0.305 N 
HETATM   10  C17 UNL     1      -4.772   5.872  13.453  1.00  0.00     0.112 A 
HETATM   11  C18 UNL     1      -3.434   5.920  13.287  1.00  0.00    -0.004 A 
ENDROOT
BRANCH   8  12
HETATM   12  C7  UNL     1      -7.865   5.348  13.674  1.00  0.00    -0.007 A 
HETATM   13  C8  UNL     1      -7.827   5.697  15.031  1.00  0.00     0.016 A 
HETATM   14  C9  UNL     1      -8.813   6.523  15.576  1.00  0.00     0.037 A 
HETATM   15  C10 UNL     1      -9.859   6.975  14.777  1.00  0.00     0.069 A 
HETATM   16  C15 UNL     1      -9.888   6.665  13.419  1.00  0.00     0.037 A 
HETATM   17  C16 UNL     1      -8.903   5.838  12.873  1.00  0.00     0.016 A 
BRANCH  15  18
HETATM   18  O1  UNL     1     -10.792   7.830  15.289  1.00  0.00    -0.341 OA
BRANCH  18  19
HETATM   19  C11 UNL     1     -10.402   9.216  15.421  1.00  0.00     0.057 C 
HETATM   20  C12 UNL     1      -8.908   9.428  15.138  1.00  0.00     0.045 C 
HETATM   21  C13 UNL     1     -11.205   9.942  14.328  1.00  0.00     0.045 C 
HETATM   22  C14 UNL     1     -10.787   9.823  16.779  1.00  0.00     0.045 C 
ENDBRANCH  18  19
ENDBRANCH  15  18
ENDBRANCH   8  12
BRANCH  11  23
HETATM   23  C19 UNL     1      -2.744   7.133  13.755  1.00  0.00    -0.024 A 
HETATM   24  C20 UNL     1      -2.273   7.217  15.068  1.00  0.00     0.015 A 
HETATM   25  C21 UNL     1      -1.612   8.368  15.502  1.00  0.00     0.037 A 
HETATM   26  C22 UNL     1      -1.416   9.450  14.640  1.00  0.00     0.069 A 
HETATM   27  C26 UNL     1      -1.880   9.366  13.328  1.00  0.00     0.037 A 
HETATM   28  C27 UNL     1      -2.542   8.212  12.887  1.00  0.00     0.015 A 
BRANCH  26  29
HETATM   29  O2  UNL     1      -0.751  10.504  15.200  1.00  0.00    -0.347 OA
BRANCH  29  30
HETATM   30  C23 UNL     1       0.645  10.674  14.935  1.00  0.00     0.120 C 
HETATM   31  C24 UNL     1       1.311  10.980  16.275  1.00  0.00     0.040 C 
HETATM   32  C25 UNL     1       1.223   9.389  14.350  1.00  0.00     0.040 C 
ENDBRANCH  29  30
ENDBRANCH  26  29
ENDBRANCH  11  23
TORSDOF 6
ENDMDL
MODEL 5
REMARK minimizedAffinity -6.81156731
REMARK CNNscore 0.326158166
REMARK CNNaffinity 5.97827673
REMARK  6 active torsions:
REMARK  status: ('A' for Active; 'I' for Inactive)
REMARK    1  A    between atoms: C6_8  and  C7_9 
REMARK    2  A    between atoms: C10_12  and  O1_13 
REMARK    3  A    between atoms: O1_13  and  C11_14 
REMARK    4  A    between atoms: C18_22  and  C19_23 
REMARK    5  A    between atoms: C22_26  and  O2_27 
REMARK    6  A    between atoms: O2_27  and  C23_28 
ROOT
HETATM    1  C1  UNL     1      -4.442   8.497  13.184  1.00  0.00     0.049 C 
HETATM    2  C2  UNL     1      -3.744   9.078  14.382  1.00  0.00    -0.046 A 
HETATM    3  C3  UNL     1      -4.426   9.780  15.315  1.00  0.00     0.056 A 
HETATM    4  C4  UNL     1      -3.756  10.328  16.442  1.00  0.00     0.112 A 
HETATM    5  N1  UNL     1      -4.209  11.052  17.441  1.00  0.00    -0.350 N 
ATOM      6  H1  UNL     1      -5.169  11.362  17.597  1.00  0.00     0.166 HD
HETATM    7  C5  UNL     1      -3.115  11.301  18.226  1.00  0.00     0.120 A 
HETATM    8  C6  UNL     1      -1.970  10.715  17.717  1.00  0.00     0.066 A 
HETATM    9  N2  UNL     1      -2.388  10.100  16.546  1.00  0.00    -0.305 N 
HETATM   10  C17 UNL     1      -1.663   9.389  15.590  1.00  0.00     0.112 A 
HETATM   11  C18 UNL     1      -2.289   8.869  14.514  1.00  0.00    -0.004 A 
ENDROOT
BRANCH   8  12
HETATM   12  C7  UNL     1      -0.608  10.728  18.234  1.00  0.00    -0.007 A 
HETATM   13  C8  UNL     1      -0.339  11.174  19.535  1.00  0.00     0.016 A 
HETATM   14  C9  UNL     1       0.971  11.191  20.019  1.00  0.00     0.037 A 
HETATM   15  C10 UNL     1       2.021  10.796  19.194  1.00  0.00     0.069 A 
HETATM   16  C15 UNL     1       1.761  10.316  17.912  1.00  0.00     0.037 A 
HETATM   17  C16 UNL     1       0.452  10.299  17.426  1.00  0.00     0.016 A 
BRANCH  15  18
HETATM   18  O1  UNL     1       3.295  10.755  19.680  1.00  0.00    -0.341 OA
BRANCH  18  19
HETATM   19  C11 UNL     1       3.442  10.542  21.103  1.00  0.00     0.057 C 
HETATM   20  C12 UNL     1       4.913  10.416  21.522  1.00  0.00     0.045 C 
HETATM   21  C13 UNL     1       2.871  11.821  21.740  1.00  0.00     0.045 C 
HETATM   22  C14 UNL     1       2.627   9.348  21.621  1.00  0.00     0.045 C 
ENDBRANCH  18  19
ENDBRANCH  15  18
ENDBRANCH   8  12
BRANCH  11  23
HETATM   23  C19 UNL     1      -1.459   8.132  13.548  1.00  0.00    -0.024 A 
HETATM   24  C20 UNL     1      -1.266   6.755  13.688  1.00  0.00     0.015 A 
HETATM   25  C21 UNL     1      -0.483   6.060  12.763  1.00  0.00     0.037 A 
HETATM   26  C22 UNL     1       0.120   6.724  11.692  1.00  0.00     0.069 A 
HETATM   27  C26 UNL     1      -0.077   8.098  11.548  1.00  0.00     0.037 A 
HETATM   28  C27 UNL     1      -0.862   8.798  12.472  1.00  0.00     0.015 A 
BRANCH  26  29
HETATM   29  O2  UNL     1       0.850   5.917  10.867  1.00  0.00    -0.347 OA
BRANCH  29  30
HETATM   30  C23 UNL     1       2.250   5.748  11.109  1.00  0.00     0.120 C 
HETATM   31  C24 UNL     1       2.930   5.720   9.741  1.00  0.00     0.040 C 
HETATM   32  C25 UNL     1       2.781   6.921  11.928  1.00  0.00     0.040 C 
ENDBRANCH  29  30
ENDBRANCH  26  29
ENDBRANCH  11  23
TORSDOF 6
ENDMDL
MODEL 6
REMARK minimizedAffinity -6.37075281
REMARK CNNscore 0.29853487
REMARK CNNaffinity 5.8902812
REMARK  6 active torsions:
REMARK  status: ('A' for Active; 'I' for Inactive)
REMARK    1  A    between atoms: C6_8  and  C7_9 
REMARK    2  A    between atoms: C10_12  and  O1_13 
REMARK    3  A    between atoms: O1_13  and  C11_14 
REMARK    4  A    between atoms: C18_22  and  C19_23 
REMARK    5  A    between atoms: C22_26  and  O2_27 
REMARK    6  A    between atoms: O2_27  and  C23_28 
ROOT
HETATM    1  C1  UNL     1      -3.119  15.504  20.440  1.00  0.00     0.049 C 
HETATM    2  C2  UNL     1      -2.897  14.365  19.483  1.00  0.00    -0.046 A 
HETATM    3  C3  UNL     1      -1.743  14.251  18.789  1.00  0.00     0.056 A 
HETATM    4  C4  UNL     1      -1.545  13.174  17.884  1.00  0.00     0.112 A 
HETATM    5  N1  UNL     1      -0.528  12.886  17.102  1.00  0.00    -0.350 N 
ATOM      6  H1  UNL     1       0.344  13.405  17.002  1.00  0.00     0.166 HD
HETATM    7  C5  UNL     1      -0.893  11.738  16.452  1.00  0.00     0.120 A 
HETATM    8  C6  UNL     1      -2.145  11.299  16.842  1.00  0.00     0.066 A 
HETATM    9  N2  UNL     1      -2.574  12.246  17.759  1.00  0.00    -0.305 N 
HETATM   10  C17 UNL     1      -3.777  12.350  18.456  1.00  0.00     0.112 A 
HETATM   11  C18 UNL     1      -3.977  13.374  19.313  1.00  0.00    -0.004 A 
ENDROOT
BRANCH   8  12
HETATM   12  C7  UNL     1      -2.901  10.132  16.406  1.00  0.00    -0.007 A 
HETATM   13  C8  UNL     1      -2.302   8.866  16.358  1.00  0.00     0.016 A 
HETATM   14  C9  UNL     1      -3.032   7.755  15.930  1.00  0.00     0.037 A 
HETATM   15  C10 UNL     1      -4.352   7.910  15.515  1.00  0.00     0.069 A 
HETATM   16  C15 UNL     1      -4.969   9.156  15.592  1.00  0.00     0.037 A 
HETATM   17  C16 UNL     1      -4.240  10.268  16.020  1.00  0.00     0.016 A 
BRANCH  15  18
HETATM   18  O1  UNL     1      -5.087   6.819  15.151  1.00  0.00    -0.341 OA
BRANCH  18  19
HETATM   19  C11 UNL     1      -5.204   6.555  13.734  1.00  0.00     0.057 C 
HETATM   20  C12 UNL     1      -6.636   6.175  13.331  1.00  0.00     0.045 C 
HETATM   21  C13 UNL     1      -4.860   7.898  13.068  1.00  0.00     0.045 C 
HETATM   22  C14 UNL     1      -4.203   5.504  13.233  1.00  0.00     0.045 C 
ENDBRANCH  18  19
ENDBRANCH  15  18
ENDBRANCH   8  12
BRANCH  11  23
HETATM   23  C19 UNL     1      -5.271  13.417  20.012  1.00  0.00    -0.024 A 
HETATM   24  C20 UNL     1      -5.349  13.116  21.375  1.00  0.00     0.015 A 
HETATM   25  C21 UNL     1      -6.579  13.167  22.034  1.00  0.00     0.037 A 
HETATM   26  C22 UNL     1      -7.746  13.515  21.348  1.00  0.00     0.069 A 
HETATM   27  C26 UNL     1      -7.668  13.822  19.989  1.00  0.00     0.037 A 
HETATM   28  C27 UNL     1      -6.437  13.773  19.325  1.00  0.00     0.015 A 
BRANCH  26  29
HETATM   29  O2  UNL     1      -8.871  13.529  22.122  1.00  0.00    -0.347 OA
BRANCH  29  30
HETATM   30  C23 UNL     1      -9.097  12.465  23.052  1.00  0.00     0.120 C 
HETATM   31  C24 UNL     1      -9.461  13.118  24.384  1.00  0.00     0.040 C 
HETATM   32  C25 UNL     1     -10.249  11.589  22.571  1.00  0.00     0.040 C 
ENDBRANCH  29  30
ENDBRANCH  26  29
ENDBRANCH  11  23
TORSDOF 6
ENDMDL
MODEL 7
REMARK minimizedAffinity -8.80802345
REMARK CNNscore 0.281864971
REMARK CNNaffinity 6.73621035
REMARK  6 active torsions:
REMARK  status: ('A' for Active; 'I' for Inactive)
REMARK    1  A    between atoms: C6_8  and  C7_9 
REMARK    2  A    between atoms: C10_12  and  O1_13 
REMARK    3  A    between atoms: O1_13  and  C11_14 
REMARK    4  A    between atoms: C18_22  and  C19_23 
REMARK    5  A    between atoms: C22_26  and  O2_27 
REMARK    6  A    between atoms: O2_27  and  C23_28 
ROOT
HETATM    1  C1  UNL     1      -7.436   1.815  12.321  1.00  0.00     0.049 C 
HETATM    2  C2  UNL     1      -6.057   2.393  12.169  1.00  0.00    -0.046 A 
HETATM    3  C3  UNL     1      -5.028   1.636  11.725  1.00  0.00     0.056 A 
HETATM    4  C4  UNL     1      -3.727   2.190  11.589  1.00  0.00     0.112 A 
HETATM    5  N1  UNL     1      -2.596   1.641  11.205  1.00  0.00    -0.350 N 
ATOM      6  H1  UNL     1      -2.442   0.674  10.918  1.00  0.00     0.166 HD
HETATM    7  C5  UNL     1      -1.670   2.647  11.274  1.00  0.00     0.120 A 
HETATM    8  C6  UNL     1      -2.232   3.839  11.694  1.00  0.00     0.066 A 
HETATM    9  N2  UNL     1      -3.566   3.532  11.916  1.00  0.00    -0.305 N 
HETATM   10  C17 UNL     1      -4.610   4.329  12.387  1.00  0.00     0.112 A 
HETATM   11  C18 UNL     1      -5.848   3.809  12.525  1.00  0.00    -0.004 A 
ENDROOT
BRANCH   8  12
HETATM   12  C7  UNL     1      -1.611   5.141  11.897  1.00  0.00    -0.007 A 
HETATM   13  C8  UNL     1      -2.049   5.994  12.919  1.00  0.00     0.016 A 
HETATM   14  C9  UNL     1      -1.454   7.244  13.100  1.00  0.00     0.037 A 
HETATM   15  C10 UNL     1      -0.443   7.662  12.239  1.00  0.00     0.069 A 
HETATM   16  C15 UNL     1       0.026   6.809  11.242  1.00  0.00     0.037 A 
HETATM   17  C16 UNL     1      -0.569   5.558  11.060  1.00  0.00     0.016 A 
BRANCH  15  18
HETATM   18  O1  UNL     1       0.182   8.857  12.447  1.00  0.00    -0.341 OA
BRANCH  18  19
HETATM   19  C11 UNL     1       1.323   8.849  13.335  1.00  0.00     0.057 C 
HETATM   20  C12 UNL     1       1.079   9.682  14.602  1.00  0.00     0.045 C 
HETATM   21  C13 UNL     1       1.470   7.376  13.752  1.00  0.00     0.045 C 
HETATM   22  C14 UNL     1       2.626   9.282  12.646  1.00  0.00     0.045 C 
ENDBRANCH  18  19
ENDBRANCH  15  18
ENDBRANCH   8  12
BRANCH  11  23
HETATM   23  C19 UNL     1      -6.898   4.710  13.028  1.00  0.00    -0.024 A 
HETATM   24  C20 UNL     1      -7.948   5.106  12.194  1.00  0.00     0.015 A 
HETATM   25  C21 UNL     1      -8.946   5.953  12.680  1.00  0.00     0.037 A 
HETATM   26  C22 UNL     1      -8.911   6.420  13.997  1.00  0.00     0.069 A 
HETATM   27  C26 UNL     1      -7.867   6.021  14.832  1.00  0.00     0.037 A 
HETATM   28  C27 UNL     1      -6.866   5.169  14.349  1.00  0.00     0.015 A 
BRANCH  26  29
HETATM   29  O2  UNL     1      -9.954   7.236  14.333  1.00  0.00    -0.347 OA
BRANCH  29  30
HETATM   30  C23 UNL     1     -11.127   7.248  13.514  1.00  0.00     0.120 C 
HETATM   31  C24 UNL     1     -12.238   6.589  14.330  1.00  0.00     0.040 C 
HETATM   32  C25 UNL     1     -11.513   8.686  13.180  1.00  0.00     0.040 C 
ENDBRANCH  29  30
ENDBRANCH  26  29
ENDBRANCH  11  23
TORSDOF 6
ENDMDL
MODEL 8
REMARK minimizedAffinity -8.37958717
REMARK CNNscore 0.276729882
REMARK CNNaffinity 6.79753542
REMARK  6 active torsions:
REMARK  status: ('A' for Active; 'I' for Inactive)
REMARK    1  A    between atoms: C6_8  and  C7_9 
REMARK    2  A    between atoms: C10_12  and  O1_13 
REMARK    3  A    between atoms: O1_13  and  C11_14 
REMARK    4  A    between atoms: C18_22  and  C19_23 
REMARK    5  A    between atoms: C22_26  and  O2_27 
REMARK    6  A    between atoms: O2_27  and  C23_28 
ROOT
HETATM    1  C1  UNL     1      -0.569   2.751  11.489  1.00  0.00     0.049 C 
HETATM    2  C2  UNL     1      -2.048   2.904  11.711  1.00  0.00    -0.046 A 
HETATM    3  C3  UNL     1      -2.914   1.939  11.330  1.00  0.00     0.056 A 
HETATM    4  C4  UNL     1      -4.311   2.095  11.540  1.00  0.00     0.112 A 
HETATM    5  N1  UNL     1      -5.318   1.308  11.233  1.00  0.00    -0.350 N 
ATOM      6  H1  UNL     1      -5.277   0.400  10.770  1.00  0.00     0.166 HD
HETATM    7  C5  UNL     1      -6.434   1.972  11.668  1.00  0.00     0.120 A 
HETATM    8  C6  UNL     1      -6.118   3.179  12.264  1.00  0.00     0.066 A 
HETATM    9  N2  UNL     1      -4.738   3.264  12.161  1.00  0.00    -0.305 N 
HETATM   10  C17 UNL     1      -3.863   4.278  12.553  1.00  0.00     0.112 A 
HETATM   11  C18 UNL     1      -2.536   4.141  12.351  1.00  0.00    -0.004 A 
ENDROOT
BRANCH   8  12
HETATM   12  C7  UNL     1      -6.992   4.181  12.859  1.00  0.00    -0.007 A 
HETATM   13  C8  UNL     1      -7.097   4.308  14.250  1.00  0.00     0.016 A 
HETATM   14  C9  UNL     1      -7.945   5.266  14.811  1.00  0.00     0.037 A 
HETATM   15  C10 UNL     1      -8.717   6.078  13.983  1.00  0.00     0.069 A 
HETATM   16  C15 UNL     1      -8.593   5.986  12.599  1.00  0.00     0.037 A 
HETATM   17  C16 UNL     1      -7.746   5.028  12.037  1.00  0.00     0.016 A 
BRANCH  15  18
HETATM   18  O1  UNL     1      -9.502   7.055  14.524  1.00  0.00    -0.341 OA
BRANCH  18  19
HETATM   19  C11 UNL     1      -8.824   8.117  15.232  1.00  0.00     0.057 C 
HETATM   20  C12 UNL     1      -9.535   9.468  15.071  1.00  0.00     0.045 C 
HETATM   21  C13 UNL     1      -8.911   7.704  16.712  1.00  0.00     0.045 C 
HETATM   22  C14 UNL     1      -7.339   8.239  14.858  1.00  0.00     0.045 C 
ENDBRANCH  18  19
ENDBRANCH  15  18
ENDBRANCH   8  12
BRANCH  11  23
HETATM   23  C19 UNL     1      -1.675   5.252  12.790  1.00  0.00    -0.024 A 
HETATM   24  C20 UNL     1      -0.461   4.994  13.433  1.00  0.00     0.015 A 
HETATM   25  C21 UNL     1       0.355   6.053  13.839  1.00  0.00     0.037 A 
HETATM   26  C22 UNL     1      -0.028   7.378  13.615  1.00  0.00     0.069 A 
HETATM   27  C26 UNL     1      -1.235   7.636  12.967  1.00  0.00     0.037 A 
HETATM   28  C27 UNL     1      -2.055   6.578  12.557  1.00  0.00     0.015 A 
BRANCH  26  29
HETATM   29  O2  UNL     1       0.871   8.306  14.060  1.00  0.00    -0.347 OA
BRANCH  29  30
HETATM   30  C23 UNL     1       2.209   8.286  13.554  1.00  0.00     0.120 C 
HETATM   31  C24 UNL     1       2.153   8.874  12.145  1.00  0.00     0.040 C 
HETATM   32  C25 UNL     1       3.111   9.142  14.438  1.00  0.00     0.040 C 
ENDBRANCH  29  30
ENDBRANCH  26  29
ENDBRANCH  11  23
TORSDOF 6
ENDMDL
MODEL 9
REMARK minimizedAffinity -6.72225666
REMARK CNNscore 0.235570148
REMARK CNNaffinity 6.05955362
REMARK  6 active torsions:
REMARK  status: ('A' for Active; 'I' for Inactive)
REMARK    1  A    between atoms: C6_8  and  C7_9 
REMARK    2  A    between atoms: C10_12  and  O1_13 
REMARK    3  A    between atoms: O1_13  and  C11_14 
REMARK    4  A    between atoms: C18_22  and  C19_23 
REMARK    5  A    between atoms: C22_26  and  O2_27 
REMARK    6  A    between atoms: O2_27  and  C23_28 
ROOT
HETATM    1  C1  UNL     1     -11.630   9.112  12.184  1.00  0.00     0.049 C 
HETATM    2  C2  UNL     1     -11.887   9.561  13.595  1.00  0.00    -0.046 A 
HETATM    3  C3  UNL     1     -12.815  10.506  13.869  1.00  0.00     0.056 A 
HETATM    4  C4  UNL     1     -13.047  10.927  15.206  1.00  0.00     0.112 A 
HETATM    5  N1  UNL     1     -13.869  11.831  15.690  1.00  0.00    -0.350 N 
ATOM      6  H1  UNL     1     -14.522  12.418  15.170  1.00  0.00     0.166 HD
HETATM    7  C5  UNL     1     -13.660  11.815  17.043  1.00  0.00     0.120 A 
HETATM    8  C6  UNL     1     -12.706  10.882  17.407  1.00  0.00     0.066 A 
HETATM    9  N2  UNL     1     -12.296  10.320  16.207  1.00  0.00    -0.305 N 
HETATM   10  C17 UNL     1     -11.326   9.353  15.947  1.00  0.00     0.112 A 
HETATM   11  C18 UNL     1     -11.094   8.951  14.680  1.00  0.00    -0.004 A 
ENDROOT
BRANCH   8  12
HETATM   12  C7  UNL     1     -12.193  10.541  18.727  1.00  0.00    -0.007 A 
HETATM   13  C8  UNL     1     -12.612   9.375  19.381  1.00  0.00     0.016 A 
HETATM   14  C9  UNL     1     -12.121   9.061  20.651  1.00  0.00     0.037 A 
HETATM   15  C10 UNL     1     -11.237   9.928  21.286  1.00  0.00     0.069 A 
HETATM   16  C15 UNL     1     -10.785  11.072  20.631  1.00  0.00     0.037 A 
HETATM   17  C16 UNL     1     -11.275  11.387  19.362  1.00  0.00     0.016 A 
BRANCH  15  18
HETATM   18  O1  UNL     1     -10.709   9.598  22.501  1.00  0.00    -0.341 OA
BRANCH  18  19
HETATM   19  C11 UNL     1     -11.422  10.066  23.669  1.00  0.00     0.057 C 
HETATM   20  C12 UNL     1     -11.366   9.058  24.825  1.00  0.00     0.045 C 
HETATM   21  C13 UNL     1     -10.658  11.330  24.100  1.00  0.00     0.045 C 
HETATM   22  C14 UNL     1     -12.874  10.465  23.368  1.00  0.00     0.045 C 
ENDBRANCH  18  19
ENDBRANCH  15  18
ENDBRANCH   8  12
BRANCH  11  23
HETATM   23  C19 UNL     1     -10.055   7.927  14.482  1.00  0.00    -0.024 A 
HETATM   24  C20 UNL     1      -8.821   8.038  15.130  1.00  0.00     0.015 A 
HETATM   25  C21 UNL     1      -7.843   7.058  14.945  1.00  0.00     0.037 A 
HETATM   26  C22 UNL     1      -8.077   5.961  14.111  1.00  0.00     0.069 A 
HETATM   27  C26 UNL     1      -9.309   5.846  13.469  1.00  0.00     0.037 A 
HETATM   28  C27 UNL     1     -10.294   6.826  13.654  1.00  0.00     0.015 A 
BRANCH  26  29
HETATM   29  O2  UNL     1      -7.033   5.083  14.030  1.00  0.00    -0.347 OA
BRANCH  29  30
HETATM   30  C23 UNL     1      -6.952   4.190  12.915  1.00  0.00     0.120 C 
HETATM   31  C24 UNL     1      -5.481   4.132  12.508  1.00  0.00     0.040 C 
HETATM   32  C25 UNL     1      -7.433   2.801  13.324  1.00  0.00     0.040 C 
ENDBRANCH  29  30
ENDBRANCH  26  29
ENDBRANCH  11  23
TORSDOF 6
ENDMDL
