MODEL 1
REMARK minimizedAffinity -7.26365852
REMARK CNNscore 0.770057142
REMARK CNNaffinity 6.33642006
REMARK  7 active torsions:
REMARK  status: ('A' for Active; 'I' for Inactive)
REMARK    1  A    between atoms: C2_2  and  C30_33 
REMARK    2  A    between atoms: C3_3  and  C4_4 
REMARK    3  A    between atoms: C4_4  and  C5_5 
REMARK    4  A    between atoms: C5_5  and  C6_6 
REMARK    5  A    between atoms: C6_6  and  C8_8 
REMARK    6  A    between atoms: C10_10  and  O1_11 
REMARK    7  A    between atoms: C30_33  and  O5_35 
ROOT
HETATM    1  C8  UNL     1     -17.507   2.099  14.165  1.00  0.00     0.001 C 
HETATM    2  C9  UNL     1     -17.458   2.163  12.617  1.00  0.00     0.038 C 
HETATM    3  C10 UNL     1     -16.923   0.791  12.139  1.00  0.00     0.131 C 
HETATM    4  C11 UNL     1     -17.050  -0.140  13.377  1.00  0.00     0.014 C 
HETATM    5  C12 UNL     1     -18.523  -0.659  13.454  1.00  0.00     0.023 C 
HETATM    6  C13 UNL     1     -16.192  -1.399  13.491  1.00  0.00    -0.058 C 
HETATM    7  C14 UNL     1     -15.879  -1.928  14.704  1.00  0.00    -0.000 C 
HETATM    8  C15 UNL     1     -16.292  -1.171  15.965  1.00  0.00     0.157 C 
HETATM    9  O2  UNL     1     -16.135  -1.664  17.081  1.00  0.00    -0.293 OA
HETATM   10  C16 UNL     1     -16.916   0.217  15.860  1.00  0.00     0.094 C 
HETATM   11  C17 UNL     1     -16.626   0.860  14.506  1.00  0.00    -0.019 C 
HETATM   12  C18 UNL     1     -15.113   1.236  14.475  1.00  0.00     0.017 C 
HETATM   13  C19 UNL     1     -15.109  -3.263  14.873  1.00  0.00    -0.008 C 
HETATM   14  C20 UNL     1     -13.687  -2.885  15.356  1.00  0.00     0.021 C 
HETATM   15  C21 UNL     1     -15.775  -4.189  15.942  1.00  0.00     0.022 C 
HETATM   16  C22 UNL     1     -15.600  -5.692  15.732  1.00  0.00     0.080 C 
HETATM   17  C23 UNL     1     -14.361  -6.015  14.937  1.00  0.00     0.135 C 
HETATM   18  O3  UNL     1     -13.514  -6.795  15.372  1.00  0.00    -0.297 OA
HETATM   19  C24 UNL     1     -14.268  -5.396  13.539  1.00  0.00     0.018 C 
HETATM   20  C25 UNL     1     -12.790  -5.229  13.138  1.00  0.00     0.023 C 
HETATM   21  C26 UNL     1     -14.896  -6.416  12.565  1.00  0.00     0.023 C 
HETATM   22  C27 UNL     1     -15.098  -4.065  13.516  1.00  0.00     0.014 C 
HETATM   23  C28 UNL     1     -14.750  -3.151  12.336  1.00  0.00     0.011 C 
HETATM   24  C29 UNL     1     -15.787  -2.044  12.189  1.00  0.00     0.036 C 
ENDROOT
BRANCH   1  25
HETATM   25  C6  UNL     1     -17.249   3.427  14.936  1.00  0.00    -0.013 C 
HETATM   26  C7  UNL     1     -17.108   3.285  16.457  1.00  0.00     0.010 C 
BRANCH  25  27
HETATM   27  C5  UNL     1     -15.986   4.118  14.354  1.00  0.00     0.008 C 
BRANCH  27  28
HETATM   28  C4  UNL     1     -15.835   5.587  14.764  1.00  0.00     0.028 C 
BRANCH  28  29
HETATM   29  C3  UNL     1     -14.483   6.122  14.376  1.00  0.00    -0.013 C 
HETATM   30  C2  UNL     1     -14.153   6.870  13.303  1.00  0.00     0.008 C 
HETATM   31  C1  UNL     1     -12.728   7.245  13.012  1.00  0.00     0.055 C 
BRANCH  30  32
HETATM   32  C30 UNL     1     -15.116   7.381  12.299  1.00  0.00     0.171 C 
HETATM   33  O4  UNL     1     -15.933   6.704  11.701  1.00  0.00    -0.646 OA
BRANCH  32  34
HETATM   34  O5  UNL     1     -14.953   8.682  12.013  1.00  0.00    -0.773 OA
HETATM   35  H44 UNL     1     -15.622   8.844  11.317  1.00  0.00     0.167 HD
ENDBRANCH  32  34
ENDBRANCH  30  32
ENDBRANCH  28  29
ENDBRANCH  27  28
ENDBRANCH  25  27
ENDBRANCH   1  25
BRANCH   3  36
HETATM   36  O1  UNL     1     -17.654   0.331  11.012  1.00  0.00    -0.394 OA
HETATM   37  H17 UNL     1     -17.582   1.009  10.318  1.00  0.00     0.210 HD
ENDBRANCH   3  36
TORSDOF 7
ENDMDL
MODEL 2
REMARK minimizedAffinity -7.49733019
REMARK CNNscore 0.750283003
REMARK CNNaffinity 6.68853617
REMARK  7 active torsions:
REMARK  status: ('A' for Active; 'I' for Inactive)
REMARK    1  A    between atoms: C2_2  and  C30_33 
REMARK    2  A    between atoms: C3_3  and  C4_4 
REMARK    3  A    between atoms: C4_4  and  C5_5 
REMARK    4  A    between atoms: C5_5  and  C6_6 
REMARK    5  A    between atoms: C6_6  and  C8_8 
REMARK    6  A    between atoms: C10_10  and  O1_11 
REMARK    7  A    between atoms: C30_33  and  O5_35 
ROOT
HETATM    1  C8  UNL     1      -0.945   7.841  13.905  1.00  0.00     0.001 C 
HETATM    2  C9  UNL     1      -1.273   6.843  15.046  1.00  0.00     0.038 C 
HETATM    3  C10 UNL     1      -1.952   7.667  16.166  1.00  0.00     0.131 C 
HETATM    4  C11 UNL     1      -2.345   9.011  15.490  1.00  0.00     0.014 C 
HETATM    5  C12 UNL     1      -3.692   8.804  14.726  1.00  0.00     0.023 C 
HETATM    6  C13 UNL     1      -2.570  10.266  16.333  1.00  0.00    -0.058 C 
HETATM    7  C14 UNL     1      -2.394  11.507  15.807  1.00  0.00    -0.000 C 
HETATM    8  C15 UNL     1      -1.841  11.632  14.389  1.00  0.00     0.157 C 
HETATM    9  O2  UNL     1      -1.773  12.724  13.828  1.00  0.00    -0.293 OA
HETATM   10  C16 UNL     1      -1.364  10.393  13.636  1.00  0.00     0.094 C 
HETATM   11  C17 UNL     1      -1.083   9.234  14.588  1.00  0.00    -0.019 C 
HETATM   12  C18 UNL     1       0.208   9.582  15.391  1.00  0.00     0.017 C 
HETATM   13  C19 UNL     1      -2.718  12.810  16.581  1.00  0.00    -0.008 C 
HETATM   14  C20 UNL     1      -1.354  13.444  16.953  1.00  0.00     0.021 C 
HETATM   15  C21 UNL     1      -3.524  13.825  15.707  1.00  0.00     0.022 C 
HETATM   16  C22 UNL     1      -4.470  14.757  16.459  1.00  0.00     0.080 C 
HETATM   17  C23 UNL     1      -4.038  14.975  17.887  1.00  0.00     0.135 C 
HETATM   18  O3  UNL     1      -3.865  16.110  18.330  1.00  0.00    -0.297 OA
HETATM   19  C24 UNL     1      -3.922  13.723  18.762  1.00  0.00     0.018 C 
HETATM   20  C25 UNL     1      -2.892  13.963  19.882  1.00  0.00     0.023 C 
HETATM   21  C26 UNL     1      -5.297  13.530  19.435  1.00  0.00     0.023 C 
HETATM   22  C27 UNL     1      -3.604  12.491  17.845  1.00  0.00     0.014 C 
HETATM   23  C28 UNL     1      -3.056  11.285  18.616  1.00  0.00     0.011 C 
HETATM   24  C29 UNL     1      -3.065  10.037  17.740  1.00  0.00     0.036 C 
ENDROOT
BRANCH   1  25
HETATM   25  C6  UNL     1       0.329   7.553  13.057  1.00  0.00    -0.013 C 
HETATM   26  C7  UNL     1       1.020   6.215  13.349  1.00  0.00     0.010 C 
BRANCH  25  27
HETATM   27  C5  UNL     1      -0.029   7.642  11.549  1.00  0.00     0.008 C 
BRANCH  27  28
HETATM   28  C4  UNL     1       0.736   6.651  10.667  1.00  0.00     0.028 C 
BRANCH  28  29
HETATM   29  C3  UNL     1       1.257   7.319   9.424  1.00  0.00    -0.013 C 
HETATM   30  C2  UNL     1       2.513   7.731   9.157  1.00  0.00     0.008 C 
HETATM   31  C1  UNL     1       2.847   8.472   7.893  1.00  0.00     0.055 C 
BRANCH  30  32
HETATM   32  C30 UNL     1       3.677   7.532  10.051  1.00  0.00     0.171 C 
HETATM   33  O4  UNL     1       4.499   6.639   9.946  1.00  0.00    -0.646 OA
BRANCH  32  34
HETATM   34  O5  UNL     1       3.711   8.386  11.087  1.00  0.00    -0.773 OA
HETATM   35  H44 UNL     1       4.498   8.096  11.591  1.00  0.00     0.167 HD
ENDBRANCH  32  34
ENDBRANCH  30  32
ENDBRANCH  28  29
ENDBRANCH  27  28
ENDBRANCH  25  27
ENDBRANCH   1  25
BRANCH   3  36
HETATM   36  O1  UNL     1      -3.062   6.965  16.706  1.00  0.00    -0.394 OA
HETATM   37  H17 UNL     1      -2.736   6.109  17.034  1.00  0.00     0.210 HD
ENDBRANCH   3  36
TORSDOF 7
ENDMDL
MODEL 3
REMARK minimizedAffinity -6.64608955
REMARK CNNscore 0.663570404
REMARK CNNaffinity 6.47264481
REMARK  7 active torsions:
REMARK  status: ('A' for Active; 'I' for Inactive)
REMARK    1  A    between atoms: C2_2  and  C30_33 
REMARK    2  A    between atoms: C3_3  and  C4_4 
REMARK    3  A    between atoms: C4_4  and  C5_5 
REMARK    4  A    between atoms: C5_5  and  C6_6 
REMARK    5  A    between atoms: C6_6  and  C8_8 
REMARK    6  A    between atoms: C10_10  and  O1_11 
REMARK    7  A    between atoms: C30_33  and  O5_35 
ROOT
HETATM    1  C8  UNL     1       2.413  12.822  18.312  1.00  0.00     0.001 C 
HETATM    2  C9  UNL     1       1.273  13.857  18.130  1.00  0.00     0.038 C 
HETATM    3  C10 UNL     1       0.253  13.218  17.158  1.00  0.00     0.131 C 
HETATM    4  C11 UNL     1       0.629  11.710  17.119  1.00  0.00     0.014 C 
HETATM    5  C12 UNL     1      -0.008  11.011  18.363  1.00  0.00     0.023 C 
HETATM    6  C13 UNL     1       0.217  10.838  15.934  1.00  0.00    -0.058 C 
HETATM    7  C14 UNL     1       0.925   9.727  15.598  1.00  0.00    -0.000 C 
HETATM    8  C15 UNL     1       2.223   9.430  16.347  1.00  0.00     0.157 C 
HETATM    9  O2  UNL     1       2.837   8.380  16.160  1.00  0.00    -0.293 OA
HETATM   10  C16 UNL     1       2.781  10.434  17.350  1.00  0.00     0.094 C 
HETATM   11  C17 UNL     1       2.192  11.826  17.135  1.00  0.00    -0.019 C 
HETATM   12  C18 UNL     1       2.792  12.395  15.813  1.00  0.00     0.017 C 
HETATM   13  C19 UNL     1       0.487   8.748  14.479  1.00  0.00    -0.008 C 
HETATM   14  C20 UNL     1       1.458   8.978  13.296  1.00  0.00     0.021 C 
HETATM   15  C21 UNL     1       0.591   7.256  14.936  1.00  0.00     0.022 C 
HETATM   16  C22 UNL     1      -0.396   6.286  14.291  1.00  0.00     0.080 C 
HETATM   17  C23 UNL     1      -0.862   6.762  12.939  1.00  0.00     0.135 C 
HETATM   18  O3  UNL     1      -0.753   6.047  11.943  1.00  0.00    -0.297 OA
HETATM   19  C24 UNL     1      -1.552   8.129  12.899  1.00  0.00     0.018 C 
HETATM   20  C25 UNL     1      -1.367   8.768  11.509  1.00  0.00     0.023 C 
HETATM   21  C26 UNL     1      -3.061   7.863  13.085  1.00  0.00     0.023 C 
HETATM   22  C27 UNL     1      -1.019   9.002  14.088  1.00  0.00     0.014 C 
HETATM   23  C28 UNL     1      -1.302  10.499  13.918  1.00  0.00     0.011 C 
HETATM   24  C29 UNL     1      -1.051  11.245  15.223  1.00  0.00     0.036 C 
ENDROOT
BRANCH   1  25
HETATM   25  C6  UNL     1       3.847  13.383  18.550  1.00  0.00    -0.013 C 
HETATM   26  C7  UNL     1       4.003  14.894  18.332  1.00  0.00     0.010 C 
BRANCH  25  27
HETATM   27  C5  UNL     1       4.310  13.007  19.984  1.00  0.00     0.008 C 
BRANCH  27  28
HETATM   28  C4  UNL     1       3.169  12.591  20.918  1.00  0.00     0.028 C 
BRANCH  28  29
HETATM   29  C3  UNL     1       3.684  11.782  22.077  1.00  0.00    -0.013 C 
HETATM   30  C2  UNL     1       3.500  10.471  22.333  1.00  0.00     0.008 C 
HETATM   31  C1  UNL     1       4.008   9.835  23.595  1.00  0.00     0.055 C 
BRANCH  30  32
HETATM   32  C30 UNL     1       2.780   9.529  21.444  1.00  0.00     0.171 C 
HETATM   33  O4  UNL     1       2.824   9.538  20.227  1.00  0.00    -0.646 OA
BRANCH  32  34
HETATM   34  O5  UNL     1       1.965   8.688  22.101  1.00  0.00    -0.773 OA
HETATM   35  H44 UNL     1       1.542   8.177  21.380  1.00  0.00     0.167 HD
ENDBRANCH  32  34
ENDBRANCH  30  32
ENDBRANCH  28  29
ENDBRANCH  27  28
ENDBRANCH  25  27
ENDBRANCH   1  25
BRANCH   3  36
HETATM   36  O1  UNL     1      -1.077  13.454  17.596  1.00  0.00    -0.394 OA
HETATM   37  H17 UNL     1      -1.197  14.417  17.664  1.00  0.00     0.210 HD
ENDBRANCH   3  36
TORSDOF 7
ENDMDL
MODEL 4
REMARK minimizedAffinity -6.66544247
REMARK CNNscore 0.617763281
REMARK CNNaffinity 6.67422342
REMARK  7 active torsions:
REMARK  status: ('A' for Active; 'I' for Inactive)
REMARK    1  A    between atoms: C2_2  and  C30_33 
REMARK    2  A    between atoms: C3_3  and  C4_4 
REMARK    3  A    between atoms: C4_4  and  C5_5 
REMARK    4  A    between atoms: C5_5  and  C6_6 
REMARK    5  A    between atoms: C6_6  and  C8_8 
REMARK    6  A    between atoms: C10_10  and  O1_11 
REMARK    7  A    between atoms: C30_33  and  O5_35 
ROOT
HETATM    1  C8  UNL     1     -13.049  13.748   0.732  1.00  0.00     0.001 C 
HETATM    2  C9  UNL     1     -14.414  13.376   1.367  1.00  0.00     0.038 C 
HETATM    3  C10 UNL     1     -15.179  12.548   0.306  1.00  0.00     0.131 C 
HETATM    4  C11 UNL     1     -14.100  12.140  -0.735  1.00  0.00     0.014 C 
HETATM    5  C12 UNL     1     -13.342  10.884  -0.194  1.00  0.00     0.023 C 
HETATM    6  C13 UNL     1     -14.501  11.762  -2.161  1.00  0.00    -0.058 C 
HETATM    7  C14 UNL     1     -13.634  11.911  -3.198  1.00  0.00    -0.000 C 
HETATM    8  C15 UNL     1     -12.288  12.585  -2.939  1.00  0.00     0.157 C 
HETATM    9  O2  UNL     1     -11.427  12.639  -3.816  1.00  0.00    -0.293 OA
HETATM   10  C16 UNL     1     -11.985  13.203  -1.578  1.00  0.00     0.094 C 
HETATM   11  C17 UNL     1     -13.263  13.464  -0.785  1.00  0.00    -0.019 C 
HETATM   12  C18 UNL     1     -14.010  14.652  -1.466  1.00  0.00     0.017 C 
HETATM   13  C19 UNL     1     -13.949  11.439  -4.640  1.00  0.00    -0.008 C 
HETATM   14  C20 UNL     1     -14.205  12.721  -5.470  1.00  0.00     0.021 C 
HETATM   15  C21 UNL     1     -12.752  10.658  -5.274  1.00  0.00     0.022 C 
HETATM   16  C22 UNL     1     -13.116   9.592  -6.304  1.00  0.00     0.080 C 
HETATM   17  C23 UNL     1     -14.435   9.875  -6.976  1.00  0.00     0.135 C 
HETATM   18  O3  UNL     1     -14.522   9.938  -8.202  1.00  0.00    -0.297 OA
HETATM   19  C24 UNL     1     -15.656   9.985  -6.057  1.00  0.00     0.018 C 
HETATM   20  C25 UNL     1     -16.720  10.889  -6.708  1.00  0.00     0.023 C 
HETATM   21  C26 UNL     1     -16.258   8.567  -5.958  1.00  0.00     0.023 C 
HETATM   22  C27 UNL     1     -15.184  10.460  -4.639  1.00  0.00     0.014 C 
HETATM   23  C28 UNL     1     -16.323  11.006  -3.770  1.00  0.00     0.011 C 
HETATM   24  C29 UNL     1     -15.872  11.153  -2.322  1.00  0.00     0.036 C 
ENDROOT
BRANCH   1  25
HETATM   25  C6  UNL     1     -12.422  15.111   1.150  1.00  0.00    -0.013 C 
HETATM   26  C7  UNL     1     -13.138  15.835   2.298  1.00  0.00     0.010 C 
BRANCH  25  27
HETATM   27  C5  UNL     1     -10.928  14.895   1.514  1.00  0.00     0.008 C 
BRANCH  27  28
HETATM   28  C4  UNL     1     -10.697  13.832   2.593  1.00  0.00     0.028 C 
BRANCH  28  29
HETATM   29  C3  UNL     1      -9.672  14.289   3.595  1.00  0.00    -0.013 C 
HETATM   30  C2  UNL     1      -9.870  14.925   4.768  1.00  0.00     0.008 C 
HETATM   31  C1  UNL     1      -8.720  15.398   5.612  1.00  0.00     0.055 C 
BRANCH  30  32
HETATM   32  C30 UNL     1     -11.197  15.244   5.344  1.00  0.00     0.171 C 
HETATM   33  O4  UNL     1     -11.630  16.367   5.531  1.00  0.00    -0.646 OA
BRANCH  32  34
HETATM   34  O5  UNL     1     -11.880  14.163   5.750  1.00  0.00    -0.773 OA
HETATM   35  H44 UNL     1     -12.695  14.544   6.137  1.00  0.00     0.167 HD
ENDBRANCH  32  34
ENDBRANCH  30  32
ENDBRANCH  28  29
ENDBRANCH  27  28
ENDBRANCH  25  27
ENDBRANCH   1  25
BRANCH   3  36
HETATM   36  O1  UNL     1     -15.829  11.437   0.907  1.00  0.00    -0.394 OA
HETATM   37  H17 UNL     1     -16.424  11.782   1.594  1.00  0.00     0.210 HD
ENDBRANCH   3  36
TORSDOF 7
ENDMDL
MODEL 5
REMARK minimizedAffinity -6.68751526
REMARK CNNscore 0.550374269
REMARK CNNaffinity 5.9691205
REMARK  7 active torsions:
REMARK  status: ('A' for Active; 'I' for Inactive)
REMARK    1  A    between atoms: C2_2  and  C30_33 
REMARK    2  A    between atoms: C3_3  and  C4_4 
REMARK    3  A    between atoms: C4_4  and  C5_5 
REMARK    4  A    between atoms: C5_5  and  C6_6 
REMARK    5  A    between atoms: C6_6  and  C8_8 
REMARK    6  A    between atoms: C10_10  and  O1_11 
REMARK    7  A    between atoms: C30_33  and  O5_35 
ROOT
HETATM    1  C8  UNL     1     -14.727   7.682  21.249  1.00  0.00     0.001 C 
HETATM    2  C9  UNL     1     -14.863   8.958  22.120  1.00  0.00     0.038 C 
HETATM    3  C10 UNL     1     -14.665   8.510  23.588  1.00  0.00     0.131 C 
HETATM    4  C11 UNL     1     -14.043   7.088  23.490  1.00  0.00     0.014 C 
HETATM    5  C12 UNL     1     -12.505   7.239  23.253  1.00  0.00     0.023 C 
HETATM    6  C13 UNL     1     -14.159   6.110  24.658  1.00  0.00    -0.058 C 
HETATM    7  C14 UNL     1     -14.118   4.766  24.456  1.00  0.00    -0.000 C 
HETATM    8  C15 UNL     1     -14.085   4.240  23.022  1.00  0.00     0.157 C 
HETATM    9  O2  UNL     1     -13.932   3.041  22.789  1.00  0.00    -0.293 OA
HETATM   10  C16 UNL     1     -14.236   5.199  21.846  1.00  0.00     0.094 C 
HETATM   11  C17 UNL     1     -14.862   6.522  22.280  1.00  0.00    -0.019 C 
HETATM   12  C18 UNL     1     -16.362   6.252  22.610  1.00  0.00     0.017 C 
HETATM   13  C19 UNL     1     -14.116   3.733  25.612  1.00  0.00    -0.008 C 
HETATM   14  C20 UNL     1     -15.518   3.075  25.608  1.00  0.00     0.021 C 
HETATM   15  C21 UNL     1     -13.036   2.624  25.403  1.00  0.00     0.022 C 
HETATM   16  C22 UNL     1     -12.451   2.007  26.671  1.00  0.00     0.080 C 
HETATM   17  C23 UNL     1     -13.397   2.104  27.840  1.00  0.00     0.135 C 
HETATM   18  O3  UNL     1     -13.727   1.101  28.473  1.00  0.00    -0.297 OA
HETATM   19  C24 UNL     1     -13.841   3.514  28.242  1.00  0.00     0.018 C 
HETATM   20  C25 UNL     1     -15.222   3.453  28.922  1.00  0.00     0.023 C 
HETATM   21  C26 UNL     1     -12.830   4.007  29.298  1.00  0.00     0.023 C 
HETATM   22  C27 UNL     1     -13.783   4.443  26.980  1.00  0.00     0.014 C 
HETATM   23  C28 UNL     1     -14.586   5.739  27.141  1.00  0.00     0.011 C 
HETATM   24  C29 UNL     1     -14.241   6.727  26.033  1.00  0.00     0.036 C 
ENDROOT
BRANCH   1  25
HETATM   25  C6  UNL     1     -15.579   7.621  19.947  1.00  0.00    -0.013 C 
HETATM   26  C7  UNL     1     -16.736   8.625  19.874  1.00  0.00     0.010 C 
BRANCH  25  27
HETATM   27  C5  UNL     1     -14.646   7.801  18.719  1.00  0.00     0.008 C 
BRANCH  27  28
HETATM   28  C4  UNL     1     -15.391   7.998  17.394  1.00  0.00     0.028 C 
BRANCH  28  29
HETATM   29  C3  UNL     1     -15.119   6.865  16.443  1.00  0.00    -0.013 C 
HETATM   30  C2  UNL     1     -14.289   6.843  15.381  1.00  0.00     0.008 C 
HETATM   31  C1  UNL     1     -14.203   5.650  14.472  1.00  0.00     0.055 C 
BRANCH  30  32
HETATM   32  C30 UNL     1     -13.402   7.959  14.976  1.00  0.00     0.171 C 
HETATM   33  O4  UNL     1     -13.554   8.655  13.988  1.00  0.00    -0.646 OA
BRANCH  32  34
HETATM   34  O5  UNL     1     -12.318   8.094  15.757  1.00  0.00    -0.773 OA
HETATM   35  H44 UNL     1     -11.828   8.829  15.335  1.00  0.00     0.167 HD
ENDBRANCH  32  34
ENDBRANCH  30  32
ENDBRANCH  28  29
ENDBRANCH  27  28
ENDBRANCH  25  27
ENDBRANCH   1  25
BRANCH   3  36
HETATM   36  O1  UNL     1     -13.849   9.433  24.292  1.00  0.00    -0.394 OA
HETATM   37  H17 UNL     1     -14.276  10.306  24.235  1.00  0.00     0.210 HD
ENDBRANCH   3  36
TORSDOF 7
ENDMDL
MODEL 6
REMARK minimizedAffinity -9.73358917
REMARK CNNscore 0.484649003
REMARK CNNaffinity 7.07130194
REMARK  7 active torsions:
REMARK  status: ('A' for Active; 'I' for Inactive)
REMARK    1  A    between atoms: C2_2  and  C30_33 
REMARK    2  A    between atoms: C3_3  and  C4_4 
REMARK    3  A    between atoms: C4_4  and  C5_5 
REMARK    4  A    between atoms: C5_5  and  C6_6 
REMARK    5  A    between atoms: C6_6  and  C8_8 
REMARK    6  A    between atoms: C10_10  and  O1_11 
REMARK    7  A    between atoms: C30_33  and  O5_35 
ROOT
HETATM    1  C8  UNL     1      -5.719   7.083  14.656  1.00  0.00     0.001 C 
HETATM    2  C9  UNL     1      -5.628   8.427  15.425  1.00  0.00     0.038 C 
HETATM    3  C10 UNL     1      -4.190   8.958  15.209  1.00  0.00     0.131 C 
HETATM    4  C11 UNL     1      -3.629   8.121  14.025  1.00  0.00     0.014 C 
HETATM    5  C12 UNL     1      -4.140   8.753  12.690  1.00  0.00     0.023 C 
HETATM    6  C13 UNL     1      -2.121   7.971  13.828  1.00  0.00    -0.058 C 
HETATM    7  C14 UNL     1      -1.600   6.890  13.187  1.00  0.00    -0.000 C 
HETATM    8  C15 UNL     1      -2.539   5.758  12.776  1.00  0.00     0.157 C 
HETATM    9  O2  UNL     1      -2.137   4.816  12.094  1.00  0.00    -0.293 OA
HETATM   10  C16 UNL     1      -4.003   5.777  13.203  1.00  0.00     0.094 C 
HETATM   11  C17 UNL     1      -4.229   6.718  14.383  1.00  0.00    -0.019 C 
HETATM   12  C18 UNL     1      -3.584   6.063  15.642  1.00  0.00     0.017 C 
HETATM   13  C19 UNL     1      -0.092   6.744  12.860  1.00  0.00    -0.008 C 
HETATM   14  C20 UNL     1       0.458   5.667  13.827  1.00  0.00     0.021 C 
HETATM   15  C21 UNL     1       0.143   6.269  11.389  1.00  0.00     0.022 C 
HETATM   16  C22 UNL     1       1.442   6.733  10.733  1.00  0.00     0.080 C 
HETATM   17  C23 UNL     1       2.519   7.026  11.747  1.00  0.00     0.135 C 
HETATM   18  O3  UNL     1       3.621   6.485  11.673  1.00  0.00    -0.297 OA
HETATM   19  C24 UNL     1       2.192   8.091  12.799  1.00  0.00     0.018 C 
HETATM   20  C25 UNL     1       3.006   7.826  14.080  1.00  0.00     0.023 C 
HETATM   21  C26 UNL     1       2.672   9.439  12.220  1.00  0.00     0.023 C 
HETATM   22  C27 UNL     1       0.639   8.131  13.016  1.00  0.00     0.014 C 
HETATM   23  C28 UNL     1       0.225   8.834  14.313  1.00  0.00     0.011 C 
HETATM   24  C29 UNL     1      -1.272   9.119  14.317  1.00  0.00     0.036 C 
ENDROOT
BRANCH   1  25
HETATM   25  C6  UNL     1      -6.653   5.990  15.253  1.00  0.00    -0.013 C 
HETATM   26  C7  UNL     1      -7.361   6.374  16.559  1.00  0.00     0.010 C 
BRANCH  25  27
HETATM   27  C5  UNL     1      -7.704   5.579  14.186  1.00  0.00     0.008 C 
BRANCH  27  28
HETATM   28  C4  UNL     1      -7.511   4.163  13.634  1.00  0.00     0.028 C 
BRANCH  28  29
HETATM   29  C3  UNL     1      -6.532   4.154  12.492  1.00  0.00    -0.013 C 
HETATM   30  C2  UNL     1      -6.128   3.109  11.741  1.00  0.00     0.008 C 
HETATM   31  C1  UNL     1      -5.064   3.258  10.691  1.00  0.00     0.055 C 
BRANCH  30  32
HETATM   32  C30 UNL     1      -6.649   1.728  11.863  1.00  0.00     0.171 C 
HETATM   33  O4  UNL     1      -6.204   0.755  11.281  1.00  0.00    -0.646 OA
BRANCH  32  34
HETATM   34  O5  UNL     1      -7.753   1.636  12.621  1.00  0.00    -0.773 OA
HETATM   35  H44 UNL     1      -7.987   0.687  12.563  1.00  0.00     0.167 HD
ENDBRANCH  32  34
ENDBRANCH  30  32
ENDBRANCH  28  29
ENDBRANCH  27  28
ENDBRANCH  25  27
ENDBRANCH   1  25
BRANCH   3  36
HETATM   36  O1  UNL     1      -4.200  10.355  14.955  1.00  0.00    -0.394 OA
HETATM   37  H17 UNL     1      -4.636  10.787  15.710  1.00  0.00     0.210 HD
ENDBRANCH   3  36
TORSDOF 7
ENDMDL
MODEL 7
REMARK minimizedAffinity -8.03641891
REMARK CNNscore 0.471989512
REMARK CNNaffinity 6.02536345
REMARK  7 active torsions:
REMARK  status: ('A' for Active; 'I' for Inactive)
REMARK    1  A    between atoms: C2_2  and  C30_33 
REMARK    2  A    between atoms: C3_3  and  C4_4 
REMARK    3  A    between atoms: C4_4  and  C5_5 
REMARK    4  A    between atoms: C5_5  and  C6_6 
REMARK    5  A    between atoms: C6_6  and  C8_8 
REMARK    6  A    between atoms: C10_10  and  O1_11 
REMARK    7  A    between atoms: C30_33  and  O5_35 
ROOT
HETATM    1  C8  UNL     1       0.783  10.801  17.417  1.00  0.00     0.001 C 
HETATM    2  C9  UNL     1      -0.560  10.578  16.674  1.00  0.00     0.038 C 
HETATM    3  C10 UNL     1      -0.211   9.871  15.342  1.00  0.00     0.131 C 
HETATM    4  C11 UNL     1       1.246   9.364  15.529  1.00  0.00     0.014 C 
HETATM    5  C12 UNL     1       1.201   8.014  16.317  1.00  0.00     0.023 C 
HETATM    6  C13 UNL     1       2.127   9.071  14.316  1.00  0.00    -0.058 C 
HETATM    7  C14 UNL     1       3.483   9.142  14.398  1.00  0.00    -0.000 C 
HETATM    8  C15 UNL     1       4.115   9.646  15.694  1.00  0.00     0.157 C 
HETATM    9  O2  UNL     1       5.334   9.619  15.858  1.00  0.00    -0.293 OA
HETATM   10  C16 UNL     1       3.239  10.191  16.817  1.00  0.00     0.094 C 
HETATM   11  C17 UNL     1       1.854  10.581  16.307  1.00  0.00    -0.019 C 
HETATM   12  C18 UNL     1       2.014  11.865  15.436  1.00  0.00     0.017 C 
HETATM   13  C19 UNL     1       4.425   8.746  13.232  1.00  0.00    -0.008 C 
HETATM   14  C20 UNL     1       5.002  10.069  12.672  1.00  0.00     0.021 C 
HETATM   15  C21 UNL     1       5.607   7.845  13.717  1.00  0.00     0.022 C 
HETATM   16  C22 UNL     1       6.159   6.854  12.694  1.00  0.00     0.080 C 
HETATM   17  C23 UNL     1       5.922   7.307  11.276  1.00  0.00     0.135 C 
HETATM   18  O3  UNL     1       6.855   7.409  10.480  1.00  0.00    -0.297 OA
HETATM   19  C24 UNL     1       4.464   7.538  10.870  1.00  0.00     0.018 C 
HETATM   20  C25 UNL     1       4.396   8.578   9.735  1.00  0.00     0.023 C 
HETATM   21  C26 UNL     1       3.951   6.199  10.298  1.00  0.00     0.023 C 
HETATM   22  C27 UNL     1       3.635   7.920  12.146  1.00  0.00     0.014 C 
HETATM   23  C28 UNL     1       2.288   8.574  11.823  1.00  0.00     0.011 C 
HETATM   24  C29 UNL     1       1.406   8.632  13.065  1.00  0.00     0.036 C 
ENDROOT
BRANCH   1  25
HETATM   25  C6  UNL     1       0.893  12.069  18.314  1.00  0.00    -0.013 C 
HETATM   26  C7  UNL     1      -0.055  13.217  17.943  1.00  0.00     0.010 C 
BRANCH  25  27
HETATM   27  C5  UNL     1       0.676  11.666  19.797  1.00  0.00     0.008 C 
BRANCH  27  28
HETATM   28  C4  UNL     1       1.388  10.370  20.201  1.00  0.00     0.028 C 
BRANCH  28  29
HETATM   29  C3  UNL     1       2.614  10.658  21.024  1.00  0.00    -0.013 C 
HETATM   30  C2  UNL     1       3.062  10.008  22.118  1.00  0.00     0.008 C 
HETATM   31  C1  UNL     1       4.263  10.486  22.882  1.00  0.00     0.055 C 
BRANCH  30  32
HETATM   32  C30 UNL     1       2.437   8.794  22.695  1.00  0.00     0.171 C 
HETATM   33  O4  UNL     1       1.882   7.918  22.057  1.00  0.00    -0.646 OA
BRANCH  32  34
HETATM   34  O5  UNL     1       2.443   8.775  24.038  1.00  0.00    -0.773 OA
HETATM   35  H44 UNL     1       1.964   7.948  24.252  1.00  0.00     0.167 HD
ENDBRANCH  32  34
ENDBRANCH  30  32
ENDBRANCH  28  29
ENDBRANCH  27  28
ENDBRANCH  25  27
ENDBRANCH   1  25
BRANCH   3  36
HETATM   36  O1  UNL     1      -1.137   8.831  15.066  1.00  0.00    -0.394 OA
HETATM   37  H17 UNL     1      -2.025   9.227  15.043  1.00  0.00     0.210 HD
ENDBRANCH   3  36
TORSDOF 7
ENDMDL
MODEL 8
REMARK minimizedAffinity -6.85908365
REMARK CNNscore 0.470524251
REMARK CNNaffinity 6.2083602
REMARK  7 active torsions:
REMARK  status: ('A' for Active; 'I' for Inactive)
REMARK    1  A    between atoms: C2_2  and  C30_33 
REMARK    2  A    between atoms: C3_3  and  C4_4 
REMARK    3  A    between atoms: C4_4  and  C5_5 
REMARK    4  A    between atoms: C5_5  and  C6_6 
REMARK    5  A    between atoms: C6_6  and  C8_8 
REMARK    6  A    between atoms: C10_10  and  O1_11 
REMARK    7  A    between atoms: C30_33  and  O5_35 
ROOT
HETATM    1  C8  UNL     1      -5.858 -10.799   4.624  1.00  0.00     0.001 C 
HETATM    2  C9  UNL     1      -6.834  -9.640   4.954  1.00  0.00     0.038 C 
HETATM    3  C10 UNL     1      -7.485  -9.220   3.614  1.00  0.00     0.131 C 
HETATM    4  C11 UNL     1      -7.166 -10.385   2.634  1.00  0.00     0.014 C 
HETATM    5  C12 UNL     1      -8.211 -11.524   2.868  1.00  0.00     0.023 C 
HETATM    6  C13 UNL     1      -7.181 -10.153   1.124  1.00  0.00    -0.058 C 
HETATM    7  C14 UNL     1      -6.437 -10.925   0.287  1.00  0.00    -0.000 C 
HETATM    8  C15 UNL     1      -5.481 -11.951   0.891  1.00  0.00     0.157 C 
HETATM    9  O2  UNL     1      -4.875 -12.750   0.178  1.00  0.00    -0.293 OA
HETATM   10  C16 UNL     1      -5.264 -12.008   2.400  1.00  0.00     0.094 C 
HETATM   11  C17 UNL     1      -5.699 -10.711   3.077  1.00  0.00    -0.019 C 
HETATM   12  C18 UNL     1      -4.668  -9.606   2.692  1.00  0.00     0.017 C 
HETATM   13  C19 UNL     1      -6.502 -10.807  -1.257  1.00  0.00    -0.008 C 
HETATM   14  C20 UNL     1      -5.180 -10.132  -1.696  1.00  0.00     0.021 C 
HETATM   15  C21 UNL     1      -6.608 -12.207  -1.945  1.00  0.00     0.022 C 
HETATM   16  C22 UNL     1      -7.348 -12.245  -3.280  1.00  0.00     0.080 C 
HETATM   17  C23 UNL     1      -7.313 -10.916  -3.990  1.00  0.00     0.135 C 
HETATM   18  O3  UNL     1      -6.896 -10.825  -5.144  1.00  0.00    -0.297 OA
HETATM   19  C24 UNL     1      -7.903  -9.723  -3.232  1.00  0.00     0.018 C 
HETATM   20  C25 UNL     1      -7.237  -8.419  -3.709  1.00  0.00     0.023 C 
HETATM   21  C26 UNL     1      -9.394  -9.648  -3.626  1.00  0.00     0.023 C 
HETATM   22  C27 UNL     1      -7.776  -9.987  -1.691  1.00  0.00     0.014 C 
HETATM   23  C28 UNL     1      -7.937  -8.721  -0.842  1.00  0.00     0.011 C 
HETATM   24  C29 UNL     1      -8.118  -9.079   0.629  1.00  0.00     0.036 C 
ENDROOT
BRANCH   1  25
HETATM   25  C6  UNL     1      -4.572 -10.911   5.496  1.00  0.00    -0.013 C 
HETATM   26  C7  UNL     1      -3.249 -10.761   4.735  1.00  0.00     0.010 C 
BRANCH  25  27
HETATM   27  C5  UNL     1      -4.641  -9.866   6.643  1.00  0.00     0.008 C 
BRANCH  27  28
HETATM   28  C4  UNL     1      -4.911 -10.473   8.024  1.00  0.00     0.028 C 
BRANCH  28  29
HETATM   29  C3  UNL     1      -3.867 -10.045   9.019  1.00  0.00    -0.013 C 
HETATM   30  C2  UNL     1      -4.044  -9.575  10.270  1.00  0.00     0.008 C 
HETATM   31  C1  UNL     1      -2.888  -9.100  11.105  1.00  0.00     0.055 C 
BRANCH  30  32
HETATM   32  C30 UNL     1      -5.354  -9.452  10.951  1.00  0.00     0.171 C 
HETATM   33  O4  UNL     1      -5.891  -8.403  11.259  1.00  0.00    -0.646 OA
BRANCH  32  34
HETATM   34  O5  UNL     1      -5.888 -10.632  11.305  1.00  0.00    -0.773 OA
HETATM   35  H44 UNL     1      -6.710 -10.376  11.772  1.00  0.00     0.167 HD
ENDBRANCH  32  34
ENDBRANCH  30  32
ENDBRANCH  28  29
ENDBRANCH  27  28
ENDBRANCH  25  27
ENDBRANCH   1  25
BRANCH   3  36
HETATM   36  O1  UNL     1      -8.876  -8.989   3.779  1.00  0.00    -0.394 OA
HETATM   37  H17 UNL     1      -8.980  -8.304   4.462  1.00  0.00     0.210 HD
ENDBRANCH   3  36
TORSDOF 7
ENDMDL
MODEL 9
REMARK minimizedAffinity -8.93458652
REMARK CNNscore 0.444187582
REMARK CNNaffinity 6.80259943
REMARK  7 active torsions:
REMARK  status: ('A' for Active; 'I' for Inactive)
REMARK    1  A    between atoms: C2_2  and  C30_33 
REMARK    2  A    between atoms: C3_3  and  C4_4 
REMARK    3  A    between atoms: C4_4  and  C5_5 
REMARK    4  A    between atoms: C5_5  and  C6_6 
REMARK    5  A    between atoms: C6_6  and  C8_8 
REMARK    6  A    between atoms: C10_10  and  O1_11 
REMARK    7  A    between atoms: C30_33  and  O5_35 
ROOT
HETATM    1  C8  UNL     1      -5.858   7.037  14.844  1.00  0.00     0.001 C 
HETATM    2  C9  UNL     1      -5.671   8.428  15.504  1.00  0.00     0.038 C 
HETATM    3  C10 UNL     1      -4.245   8.901  15.132  1.00  0.00     0.131 C 
HETATM    4  C11 UNL     1      -3.806   7.967  13.968  1.00  0.00     0.014 C 
HETATM    5  C12 UNL     1      -4.414   8.519  12.638  1.00  0.00     0.023 C 
HETATM    6  C13 UNL     1      -2.325   7.760  13.657  1.00  0.00    -0.058 C 
HETATM    7  C14 UNL     1      -1.885   6.624  13.054  1.00  0.00    -0.000 C 
HETATM    8  C15 UNL     1      -2.881   5.492  12.805  1.00  0.00     0.157 C 
HETATM    9  O2  UNL     1      -2.560   4.494  12.162  1.00  0.00    -0.293 OA
HETATM   10  C16 UNL     1      -4.303   5.583  13.351  1.00  0.00     0.094 C 
HETATM   11  C17 UNL     1      -4.406   6.611  14.475  1.00  0.00    -0.019 C 
HETATM   12  C18 UNL     1      -3.671   6.027  15.720  1.00  0.00     0.017 C 
HETATM   13  C19 UNL     1      -0.414   6.411  12.614  1.00  0.00    -0.008 C 
HETATM   14  C20 UNL     1       0.192   5.389  13.607  1.00  0.00     0.021 C 
HETATM   15  C21 UNL     1      -0.316   5.829  11.167  1.00  0.00     0.022 C 
HETATM   16  C22 UNL     1       0.932   6.208  10.373  1.00  0.00     0.080 C 
HETATM   17  C23 UNL     1       2.098   6.540  11.269  1.00  0.00     0.135 C 
HETATM   18  O3  UNL     1       3.178   5.963  11.143  1.00  0.00    -0.297 OA
HETATM   19  C24 UNL     1       1.887   7.684  12.265  1.00  0.00     0.018 C 
HETATM   20  C25 UNL     1       2.800   7.486  13.490  1.00  0.00     0.023 C 
HETATM   21  C26 UNL     1       2.346   8.975  11.553  1.00  0.00     0.023 C 
HETATM   22  C27 UNL     1       0.360   7.784  12.608  1.00  0.00     0.014 C 
HETATM   23  C28 UNL     1       0.074   8.587  13.881  1.00  0.00     0.011 C 
HETATM   24  C29 UNL     1      -1.411   8.915  13.989  1.00  0.00     0.036 C 
ENDROOT
BRANCH   1  25
HETATM   25  C6  UNL     1      -6.763   6.015  15.594  1.00  0.00    -0.013 C 
HETATM   26  C7  UNL     1      -7.491   6.567  16.827  1.00  0.00     0.010 C 
BRANCH  25  27
HETATM   27  C5  UNL     1      -7.793   5.419  14.597  1.00  0.00     0.008 C 
BRANCH  27  28
HETATM   28  C4  UNL     1      -8.543   6.471  13.773  1.00  0.00     0.028 C 
BRANCH  28  29
HETATM   29  C3  UNL     1      -9.306   7.415  14.663  1.00  0.00    -0.013 C 
HETATM   30  C2  UNL     1     -10.626   7.690  14.659  1.00  0.00     0.008 C 
HETATM   31  C1  UNL     1     -11.216   8.737  15.560  1.00  0.00     0.055 C 
BRANCH  30  32
HETATM   32  C30 UNL     1     -11.624   7.034  13.783  1.00  0.00     0.171 C 
HETATM   33  O4  UNL     1     -11.954   7.424  12.677  1.00  0.00    -0.646 OA
BRANCH  32  34
HETATM   34  O5  UNL     1     -12.236   5.986  14.357  1.00  0.00    -0.773 OA
HETATM   35  H44 UNL     1     -12.882   5.702  13.677  1.00  0.00     0.167 HD
ENDBRANCH  32  34
ENDBRANCH  30  32
ENDBRANCH  28  29
ENDBRANCH  27  28
ENDBRANCH  25  27
ENDBRANCH   1  25
BRANCH   3  36
HETATM   36  O1  UNL     1      -4.245  10.276  14.779  1.00  0.00    -0.394 OA
HETATM   37  H17 UNL     1      -4.605  10.772  15.534  1.00  0.00     0.210 HD
ENDBRANCH   3  36
TORSDOF 7
ENDMDL
