MODEL 1
REMARK minimizedAffinity -9.94082832
REMARK CNNscore 0.415438294
REMARK CNNaffinity 7.53156137
REMARK  13 active torsions:
REMARK  status: ('A' for Active; 'I' for Inactive)
REMARK    1  A    between atoms: C2_2  and  C3_3 
REMARK    2  A    between atoms: C2_2  and  C11_12 
REMARK    3  A    between atoms: C3_3  and  C4_4 
REMARK    4  A    between atoms: C4_4  and  C5_5 
REMARK    5  A    between atoms: C5_5  and  O1_7 
REMARK    6  A    between atoms: C5_5  and  C7_8 
REMARK    7  A    between atoms: C28_32  and  O5_33 
REMARK    8  A    between atoms: O5_33  and  C29_34 
REMARK    9  A    between atoms: C30_36  and  C31_37 
REMARK   10  A    between atoms: C31_37  and  O7_38 
REMARK   11  A    between atoms: C32_39  and  O8_40 
REMARK   12  A    between atoms: C33_41  and  O9_42 
REMARK   13  A    between atoms: C34_43  and  O10_44 
ROOT
HETATM    1  C11 UNL     1       0.475   7.428  12.947  1.00  0.00    -0.001 C 
HETATM    2  C12 UNL     1       0.257   6.767  11.559  1.00  0.00     0.007 C 
HETATM    3  C13 UNL     1      -1.210   6.302  11.499  1.00  0.00     0.024 C 
HETATM    4  C14 UNL     1      -1.836   6.801  12.788  1.00  0.00     0.092 C 
HETATM    5  C15 UNL     1      -2.472   8.219  12.625  1.00  0.00     0.272 C 
HETATM    6  O2  UNL     1      -2.125   9.109  11.870  1.00  0.00    -0.264 OA
HETATM    7  O3  UNL     1      -3.527   8.335  13.518  1.00  0.00    -0.305 OA
HETATM    8  C16 UNL     1      -3.589   7.135  14.314  1.00  0.00     0.113 C 
HETATM    9  C17 UNL     1      -2.540   7.337  15.471  1.00  0.00     0.043 C 
HETATM   10  C18 UNL     1      -1.113   7.684  15.016  1.00  0.00     0.014 C 
HETATM   11  C19 UNL     1      -0.665   6.818  13.818  1.00  0.00    -0.020 C 
HETATM   12  C20 UNL     1      -0.337   5.388  14.296  1.00  0.00     0.017 C 
HETATM   13  C21 UNL     1      -3.046   6.110  13.340  1.00  0.00     0.137 A 
HETATM   14  O4  UNL     1      -3.849   5.816  12.155  1.00  0.00    -0.364 OA
HETATM   15  C22 UNL     1      -3.778   4.791  13.114  1.00  0.00     0.162 A 
HETATM   16  C23 UNL     1      -5.151   4.559  13.685  1.00  0.00     0.041 C 
HETATM   17  C24 UNL     1      -5.891   5.912  13.901  1.00  0.00     0.009 C 
HETATM   18  C25 UNL     1      -7.441   5.763  14.158  1.00  0.00    -0.017 C 
HETATM   19  C26 UNL     1      -8.142   5.316  12.834  1.00  0.00     0.018 C 
HETATM   20  C27 UNL     1      -7.800   4.661  15.178  1.00  0.00     0.018 C 
HETATM   21  C28 UNL     1      -8.074   7.159  14.514  1.00  0.00     0.133 C 
HETATM   22  C35 UNL     1      -7.266   7.969  15.525  1.00  0.00     0.034 C 
HETATM   23  C36 UNL     1      -5.825   8.151  15.079  1.00  0.00     0.015 C 
HETATM   24  C37 UNL     1      -5.059   6.822  14.897  1.00  0.00    -0.004 C 
HETATM   25  C38 UNL     1      -4.940   6.155  16.302  1.00  0.00     0.019 C 
ENDROOT
BRANCH  21  26
HETATM   26  O5  UNL     1      -9.411   6.972  14.996  1.00  0.00    -0.352 OA
BRANCH  26  27
HETATM   27  C29 UNL     1     -10.425   7.610  14.208  1.00  0.00     0.292 C 
HETATM   28  O6  UNL     1     -10.271   9.031  14.147  1.00  0.00    -0.348 OA
HETATM   29  C30 UNL     1     -10.979   9.798  15.142  1.00  0.00     0.179 C 
HETATM   30  C32 UNL     1     -12.488   9.481  15.207  1.00  0.00     0.180 C 
HETATM   31  C33 UNL     1     -12.842   8.208  14.435  1.00  0.00     0.183 C 
HETATM   32  C34 UNL     1     -11.799   7.143  14.739  1.00  0.00     0.204 C 
BRANCH  29  33
HETATM   33  C31 UNL     1     -10.243   9.748  16.494  1.00  0.00     0.198 C 
BRANCH  33  34
HETATM   34  O7  UNL     1     -10.447   8.473  17.115  1.00  0.00    -0.398 OA
HETATM   35  H49 UNL     1     -11.316   8.155  16.810  1.00  0.00     0.209 HD
ENDBRANCH  33  34
ENDBRANCH  29  33
BRANCH  30  36
HETATM   36  O8  UNL     1     -12.939   9.339  16.560  1.00  0.00    -0.390 OA
HETATM   37  H51 UNL     1     -13.797   8.874  16.486  1.00  0.00     0.210 HD
ENDBRANCH  30  36
BRANCH  31  38
HETATM   38  O9  UNL     1     -14.135   7.751  14.862  1.00  0.00    -0.390 OA
HETATM   39  H53 UNL     1     -14.186   6.834  14.505  1.00  0.00     0.210 HD
ENDBRANCH  31  38
BRANCH  32  40
HETATM   40  O10 UNL     1     -12.213   5.903  14.133  1.00  0.00    -0.388 OA
HETATM   41  H55 UNL     1     -11.549   5.235  14.399  1.00  0.00     0.210 HD
ENDBRANCH  32  40
ENDBRANCH  26  27
ENDBRANCH  21  26
BRANCH   1  42
HETATM   42  C2  UNL     1       1.970   7.469  13.386  1.00  0.00    -0.014 C 
HETATM   43  C1  UNL     1       2.404   8.590  14.338  1.00  0.00     0.010 C 
BRANCH  42  44
HETATM   44  C3  UNL     1       2.975   7.250  12.215  1.00  0.00     0.007 C 
BRANCH  44  45
HETATM   45  C4  UNL     1       2.370   6.838  10.859  1.00  0.00     0.038 C 
BRANCH  45  46
HETATM   46  C5  UNL     1       3.276   7.055   9.608  1.00  0.00     0.061 C 
HETATM   47  C6  UNL     1       4.496   7.904  10.021  1.00  0.00     0.046 C 
BRANCH  46  48
HETATM   48  O1  UNL     1       3.770   5.774   9.202  1.00  0.00    -0.389 OA
HETATM   49  H12 UNL     1       4.503   5.918   8.576  1.00  0.00     0.210 HD
ENDBRANCH  46  48
BRANCH  46  50
HETATM   50  C7  UNL     1       2.472   7.685   8.388  1.00  0.00    -0.021 C 
HETATM   51  C8  UNL     1       1.045   8.119   8.809  1.00  0.00     0.017 C 
HETATM   52  C9  UNL     1       2.288   6.665   7.236  1.00  0.00     0.017 C 
HETATM   53  C10 UNL     1       3.183   8.923   7.805  1.00  0.00     0.017 C 
ENDBRANCH  46  50
ENDBRANCH  45  46
ENDBRANCH  44  45
ENDBRANCH  42  44
ENDBRANCH   1  42
TORSDOF 13
ENDMDL
MODEL 2
REMARK minimizedAffinity -7.88674641
REMARK CNNscore 0.284466028
REMARK CNNaffinity 7.21052551
REMARK  13 active torsions:
REMARK  status: ('A' for Active; 'I' for Inactive)
REMARK    1  A    between atoms: C2_2  and  C3_3 
REMARK    2  A    between atoms: C2_2  and  C11_12 
REMARK    3  A    between atoms: C3_3  and  C4_4 
REMARK    4  A    between atoms: C4_4  and  C5_5 
REMARK    5  A    between atoms: C5_5  and  O1_7 
REMARK    6  A    between atoms: C5_5  and  C7_8 
REMARK    7  A    between atoms: C28_32  and  O5_33 
REMARK    8  A    between atoms: O5_33  and  C29_34 
REMARK    9  A    between atoms: C30_36  and  C31_37 
REMARK   10  A    between atoms: C31_37  and  O7_38 
REMARK   11  A    between atoms: C32_39  and  O8_40 
REMARK   12  A    between atoms: C33_41  and  O9_42 
REMARK   13  A    between atoms: C34_43  and  O10_44 
ROOT
HETATM    1  C11 UNL     1      -7.328   6.633  14.531  1.00  0.00    -0.001 C 
HETATM    2  C12 UNL     1      -7.159   5.924  15.903  1.00  0.00     0.007 C 
HETATM    3  C13 UNL     1      -5.655   5.923  16.234  1.00  0.00     0.024 C 
HETATM    4  C14 UNL     1      -5.003   6.723  15.122  1.00  0.00     0.092 C 
HETATM    5  C15 UNL     1      -4.891   8.240  15.475  1.00  0.00     0.272 C 
HETATM    6  O2  UNL     1      -5.630   8.897  16.185  1.00  0.00    -0.264 OA
HETATM    7  O3  UNL     1      -3.788   8.766  14.819  1.00  0.00    -0.305 OA
HETATM    8  C16 UNL     1      -3.208   7.734  13.997  1.00  0.00     0.113 C 
HETATM    9  C17 UNL     1      -4.046   7.731  12.663  1.00  0.00     0.043 C 
HETATM   10  C18 UNL     1      -5.566   7.579  12.838  1.00  0.00     0.014 C 
HETATM   11  C19 UNL     1      -5.918   6.495  13.880  1.00  0.00    -0.020 C 
HETATM   12  C20 UNL     1      -5.685   5.092  13.280  1.00  0.00     0.017 C 
HETATM   13  C21 UNL     1      -3.559   6.494  14.792  1.00  0.00     0.137 A 
HETATM   14  O4  UNL     1      -2.927   6.332  16.100  1.00  0.00    -0.364 OA
HETATM   15  C22 UNL     1      -2.497   5.443  15.099  1.00  0.00     0.162 A 
HETATM   16  C23 UNL     1      -1.045   5.700  14.806  1.00  0.00     0.041 C 
HETATM   17  C24 UNL     1      -0.747   7.230  14.806  1.00  0.00     0.009 C 
HETATM   18  C25 UNL     1       0.790   7.586  14.859  1.00  0.00    -0.017 C 
HETATM   19  C26 UNL     1       1.352   7.232  16.275  1.00  0.00     0.018 C 
HETATM   20  C27 UNL     1       1.654   6.761  13.883  1.00  0.00     0.018 C 
HETATM   21  C28 UNL     1       0.998   9.137  14.703  1.00  0.00     0.133 C 
HETATM   22  C35 UNL     1       0.166   9.768  13.590  1.00  0.00     0.034 C 
HETATM   23  C36 UNL     1      -1.314   9.456  13.745  1.00  0.00     0.015 C 
HETATM   24  C37 UNL     1      -1.636   7.945  13.707  1.00  0.00    -0.004 C 
HETATM   25  C38 UNL     1      -1.287   7.429  12.278  1.00  0.00     0.019 C 
ENDROOT
BRANCH  21  26
HETATM   26  O5  UNL     1       2.388   9.417  14.492  1.00  0.00    -0.352 OA
BRANCH  26  27
HETATM   27  C29 UNL     1       2.665  10.239  13.350  1.00  0.00     0.292 C 
HETATM   28  O6  UNL     1       3.454   9.572  12.361  1.00  0.00    -0.348 OA
HETATM   29  C30 UNL     1       4.883   9.739  12.458  1.00  0.00     0.179 C 
HETATM   30  C32 UNL     1       5.328  11.217  12.510  1.00  0.00     0.180 C 
HETATM   31  C33 UNL     1       4.154  12.162  12.771  1.00  0.00     0.183 C 
HETATM   32  C34 UNL     1       3.274  11.565  13.859  1.00  0.00     0.204 C 
BRANCH  29  33
HETATM   33  C31 UNL     1       5.463   8.843  13.567  1.00  0.00     0.198 C 
BRANCH  33  34
HETATM   34  O7  UNL     1       4.799   7.574  13.567  1.00  0.00    -0.398 OA
HETATM   35  H49 UNL     1       3.897   7.735  13.236  1.00  0.00     0.209 HD
ENDBRANCH  33  34
ENDBRANCH  29  33
BRANCH  30  36
HETATM   36  O8  UNL     1       6.324  11.431  13.519  1.00  0.00    -0.390 OA
HETATM   37  H51 UNL     1       6.324  12.399  13.663  1.00  0.00     0.210 HD
ENDBRANCH  30  36
BRANCH  31  38
HETATM   38  O9  UNL     1       4.667  13.430  13.211  1.00  0.00    -0.390 OA
HETATM   39  H53 UNL     1       3.874  13.889  13.570  1.00  0.00     0.210 HD
ENDBRANCH  31  38
BRANCH  32  40
HETATM   40  O10 UNL     1       2.255  12.522  14.209  1.00  0.00    -0.388 OA
HETATM   41  H55 UNL     1       1.750  12.124  14.946  1.00  0.00     0.210 HD
ENDBRANCH  32  40
ENDBRANCH  26  27
ENDBRANCH  21  26
BRANCH   1  42
HETATM   42  C2  UNL     1      -8.656   6.266  13.803  1.00  0.00    -0.014 C 
HETATM   43  C1  UNL     1      -8.586   5.952  12.304  1.00  0.00     0.010 C 
BRANCH  42  44
HETATM   44  C3  UNL     1      -9.851   7.197  14.168  1.00  0.00     0.007 C 
BRANCH  44  45
HETATM   45  C4  UNL     1     -11.119   7.056  13.305  1.00  0.00     0.038 C 
BRANCH  45  46
HETATM   46  C5  UNL     1     -12.197   8.170  13.480  1.00  0.00     0.061 C 
HETATM   47  C6  UNL     1     -11.695   9.185  14.528  1.00  0.00     0.046 C 
BRANCH  46  48
HETATM   48  O1  UNL     1     -12.309   8.867  12.234  1.00  0.00    -0.389 OA
HETATM   49  H12 UNL     1     -12.801   9.693  12.394  1.00  0.00     0.210 HD
ENDBRANCH  46  48
BRANCH  46  50
HETATM   50  C7  UNL     1     -13.627   7.570  13.840  1.00  0.00    -0.021 C 
HETATM   51  C8  UNL     1     -14.556   7.529  12.601  1.00  0.00     0.017 C 
HETATM   52  C9  UNL     1     -14.359   8.432  14.899  1.00  0.00     0.017 C 
HETATM   53  C10 UNL     1     -13.527   6.135  14.396  1.00  0.00     0.017 C 
ENDBRANCH  46  50
ENDBRANCH  45  46
ENDBRANCH  44  45
ENDBRANCH  42  44
ENDBRANCH   1  42
TORSDOF 13
ENDMDL
MODEL 3
REMARK minimizedAffinity -7.83631802
REMARK CNNscore 0.238043517
REMARK CNNaffinity 6.5636096
REMARK  13 active torsions:
REMARK  status: ('A' for Active; 'I' for Inactive)
REMARK    1  A    between atoms: C2_2  and  C3_3 
REMARK    2  A    between atoms: C2_2  and  C11_12 
REMARK    3  A    between atoms: C3_3  and  C4_4 
REMARK    4  A    between atoms: C4_4  and  C5_5 
REMARK    5  A    between atoms: C5_5  and  O1_7 
REMARK    6  A    between atoms: C5_5  and  C7_8 
REMARK    7  A    between atoms: C28_32  and  O5_33 
REMARK    8  A    between atoms: O5_33  and  C29_34 
REMARK    9  A    between atoms: C30_36  and  C31_37 
REMARK   10  A    between atoms: C31_37  and  O7_38 
REMARK   11  A    between atoms: C32_39  and  O8_40 
REMARK   12  A    between atoms: C33_41  and  O9_42 
REMARK   13  A    between atoms: C34_43  and  O10_44 
ROOT
HETATM    1  C11 UNL     1      -4.167  13.353  17.160  1.00  0.00    -0.001 C 
HETATM    2  C12 UNL     1      -2.929  14.262  17.391  1.00  0.00     0.007 C 
HETATM    3  C13 UNL     1      -1.697  13.494  16.876  1.00  0.00     0.024 C 
HETATM    4  C14 UNL     1      -2.251  12.225  16.258  1.00  0.00     0.092 C 
HETATM    5  C15 UNL     1      -2.552  12.394  14.734  1.00  0.00     0.272 C 
HETATM    6  O2  UNL     1      -2.877  13.410  14.147  1.00  0.00    -0.264 OA
HETATM    7  O3  UNL     1      -2.409  11.161  14.116  1.00  0.00    -0.305 OA
HETATM    8  C16 UNL     1      -2.115  10.174  15.124  1.00  0.00     0.113 C 
HETATM    9  C17 UNL     1      -3.507   9.751  15.726  1.00  0.00     0.043 C 
HETATM   10  C18 UNL     1      -4.378  10.905  16.250  1.00  0.00     0.014 C 
HETATM   11  C19 UNL     1      -3.552  11.924  17.064  1.00  0.00    -0.020 C 
HETATM   12  C20 UNL     1      -3.211  11.339  18.451  1.00  0.00     0.017 C 
HETATM   13  C21 UNL     1      -1.378  11.011  16.148  1.00  0.00     0.137 A 
HETATM   14  O4  UNL     1      -0.077  11.554  15.763  1.00  0.00    -0.364 OA
HETATM   15  C22 UNL     1      -0.051  10.535  16.730  1.00  0.00     0.162 A 
HETATM   16  C23 UNL     1       0.660   9.337  16.162  1.00  0.00     0.041 C 
HETATM   17  C24 UNL     1       0.263   9.120  14.671  1.00  0.00     0.009 C 
HETATM   18  C25 UNL     1       1.205   8.121  13.893  1.00  0.00    -0.017 C 
HETATM   19  C26 UNL     1       2.600   8.794  13.674  1.00  0.00     0.018 C 
HETATM   20  C27 UNL     1       1.518   6.826  14.672  1.00  0.00     0.018 C 
HETATM   21  C28 UNL     1       0.643   7.849  12.450  1.00  0.00     0.133 C 
HETATM   22  C35 UNL     1      -0.859   7.580  12.407  1.00  0.00     0.034 C 
HETATM   23  C36 UNL     1      -1.651   8.693  13.072  1.00  0.00     0.015 C 
HETATM   24  C37 UNL     1      -1.303   8.898  14.563  1.00  0.00    -0.004 C 
HETATM   25  C38 UNL     1      -1.742   7.612  15.327  1.00  0.00     0.019 C 
ENDROOT
BRANCH  21  26
HETATM   26  O5  UNL     1       1.352   6.754  11.855  1.00  0.00    -0.352 OA
BRANCH  26  27
HETATM   27  C29 UNL     1       1.145   6.603  10.444  1.00  0.00     0.292 C 
HETATM   28  O6  UNL     1       2.102   5.735   9.830  1.00  0.00    -0.348 OA
HETATM   29  C30 UNL     1       3.283   6.360   9.290  1.00  0.00     0.179 C 
HETATM   30  C32 UNL     1       2.978   7.510   8.306  1.00  0.00     0.180 C 
HETATM   31  C33 UNL     1       1.512   7.944   8.366  1.00  0.00     0.183 C 
HETATM   32  C34 UNL     1       1.080   8.017   9.823  1.00  0.00     0.204 C 
BRANCH  29  33
HETATM   33  C31 UNL     1       4.278   6.708  10.413  1.00  0.00     0.198 C 
BRANCH  33  34
HETATM   34  O7  UNL     1       4.190   5.737  11.462  1.00  0.00    -0.398 OA
HETATM   35  H49 UNL     1       3.274   5.406  11.454  1.00  0.00     0.209 HD
ENDBRANCH  33  34
ENDBRANCH  29  33
BRANCH  30  36
HETATM   36  O8  UNL     1       3.807   8.653   8.559  1.00  0.00    -0.390 OA
HETATM   37  H51 UNL     1       3.356   9.390   8.099  1.00  0.00     0.210 HD
ENDBRANCH  30  36
BRANCH  31  38
HETATM   38  O9  UNL     1       1.386   9.241   7.763  1.00  0.00    -0.390 OA
HETATM   39  H53 UNL     1       0.491   9.541   8.041  1.00  0.00     0.210 HD
ENDBRANCH  31  38
BRANCH  32  40
HETATM   40  O10 UNL     1      -0.251   8.567   9.885  1.00  0.00    -0.388 OA
HETATM   41  H55 UNL     1      -0.466   8.650  10.836  1.00  0.00     0.210 HD
ENDBRANCH  32  40
ENDBRANCH  26  27
ENDBRANCH  21  26
BRANCH   1  42
HETATM   42  C2  UNL     1      -5.379  13.713  18.071  1.00  0.00    -0.014 C 
HETATM   43  C1  UNL     1      -6.596  14.374  17.414  1.00  0.00     0.010 C 
BRANCH  42  44
HETATM   44  C3  UNL     1      -4.975  14.395  19.413  1.00  0.00     0.007 C 
BRANCH  44  45
HETATM   45  C4  UNL     1      -5.599  13.810  20.695  1.00  0.00     0.038 C 
BRANCH  45  46
HETATM   46  C5  UNL     1      -6.947  14.445  21.155  1.00  0.00     0.061 C 
HETATM   47  C6  UNL     1      -7.080  15.842  20.516  1.00  0.00     0.046 C 
BRANCH  46  48
HETATM   48  O1  UNL     1      -8.009  13.638  20.633  1.00  0.00    -0.389 OA
HETATM   49  H12 UNL     1      -8.840  14.140  20.718  1.00  0.00     0.210 HD
ENDBRANCH  46  48
BRANCH  46  50
HETATM   50  C7  UNL     1      -7.084  14.477  22.740  1.00  0.00    -0.021 C 
HETATM   51  C8  UNL     1      -7.480  13.090  23.306  1.00  0.00     0.017 C 
HETATM   52  C9  UNL     1      -8.192  15.460  23.199  1.00  0.00     0.017 C 
HETATM   53  C10 UNL     1      -5.770  14.903  23.425  1.00  0.00     0.017 C 
ENDBRANCH  46  50
ENDBRANCH  45  46
ENDBRANCH  44  45
ENDBRANCH  42  44
ENDBRANCH   1  42
TORSDOF 13
ENDMDL
MODEL 4
REMARK minimizedAffinity -9.645854
REMARK CNNscore 0.212653518
REMARK CNNaffinity 7.113873
REMARK  13 active torsions:
REMARK  status: ('A' for Active; 'I' for Inactive)
REMARK    1  A    between atoms: C2_2  and  C3_3 
REMARK    2  A    between atoms: C2_2  and  C11_12 
REMARK    3  A    between atoms: C3_3  and  C4_4 
REMARK    4  A    between atoms: C4_4  and  C5_5 
REMARK    5  A    between atoms: C5_5  and  O1_7 
REMARK    6  A    between atoms: C5_5  and  C7_8 
REMARK    7  A    between atoms: C28_32  and  O5_33 
REMARK    8  A    between atoms: O5_33  and  C29_34 
REMARK    9  A    between atoms: C30_36  and  C31_37 
REMARK   10  A    between atoms: C31_37  and  O7_38 
REMARK   11  A    between atoms: C32_39  and  O8_40 
REMARK   12  A    between atoms: C33_41  and  O9_42 
REMARK   13  A    between atoms: C34_43  and  O10_44 
ROOT
HETATM    1  C11 UNL     1       0.554   7.499  13.436  1.00  0.00    -0.001 C 
HETATM    2  C12 UNL     1       0.374   7.145  11.934  1.00  0.00     0.007 C 
HETATM    3  C13 UNL     1      -1.105   6.767  11.727  1.00  0.00     0.024 C 
HETATM    4  C14 UNL     1      -1.769   7.020  13.067  1.00  0.00     0.092 C 
HETATM    5  C15 UNL     1      -2.346   8.468  13.175  1.00  0.00     0.272 C 
HETATM    6  O2  UNL     1      -1.934   9.477  12.633  1.00  0.00    -0.264 OA
HETATM    7  O3  UNL     1      -3.435   8.447  14.033  1.00  0.00    -0.305 OA
HETATM    8  C16 UNL     1      -3.576   7.114  14.564  1.00  0.00     0.113 C 
HETATM    9  C17 UNL     1      -2.573   7.029  15.775  1.00  0.00     0.043 C 
HETATM   10  C18 UNL     1      -1.115   7.399  15.453  1.00  0.00     0.014 C 
HETATM   11  C19 UNL     1      -0.646   6.776  14.120  1.00  0.00    -0.020 C 
HETATM   12  C20 UNL     1      -0.391   5.265  14.306  1.00  0.00     0.017 C 
HETATM   13  C21 UNL     1      -3.026   6.285  13.421  1.00  0.00     0.137 A 
HETATM   14  O4  UNL     1      -3.786   6.274  12.172  1.00  0.00    -0.364 OA
HETATM   15  C22 UNL     1      -3.794   5.073  12.903  1.00  0.00     0.162 A 
HETATM   16  C23 UNL     1      -5.198   4.791  13.363  1.00  0.00     0.041 C 
HETATM   17  C24 UNL     1      -5.899   6.103  13.825  1.00  0.00     0.009 C 
HETATM   18  C25 UNL     1      -7.464   5.973  13.989  1.00  0.00    -0.017 C 
HETATM   19  C26 UNL     1      -8.120   5.836  12.577  1.00  0.00     0.018 C 
HETATM   20  C27 UNL     1      -7.907   4.703  14.747  1.00  0.00     0.018 C 
HETATM   21  C28 UNL     1      -8.061   7.293  14.600  1.00  0.00     0.133 C 
HETATM   22  C35 UNL     1      -7.272   7.844  15.784  1.00  0.00     0.034 C 
HETATM   23  C36 UNL     1      -5.806   8.050  15.439  1.00  0.00     0.015 C 
HETATM   24  C37 UNL     1      -5.081   6.753  15.016  1.00  0.00    -0.004 C 
HETATM   25  C38 UNL     1      -5.049   5.810  16.257  1.00  0.00     0.019 C 
ENDROOT
BRANCH  21  26
HETATM   26  O5  UNL     1      -9.425   7.071  14.985  1.00  0.00    -0.352 OA
BRANCH  26  27
HETATM   27  C29 UNL     1     -10.081   8.215  15.548  1.00  0.00     0.292 C 
HETATM   28  O6  UNL     1     -11.480   8.006  15.762  1.00  0.00    -0.348 OA
HETATM   29  C30 UNL     1     -12.360   8.400  14.691  1.00  0.00     0.179 C 
HETATM   30  C32 UNL     1     -12.157   9.860  14.231  1.00  0.00     0.180 C 
HETATM   31  C33 UNL     1     -10.864  10.463  14.784  1.00  0.00     0.183 C 
HETATM   32  C34 UNL     1      -9.750   9.435  14.659  1.00  0.00     0.204 C 
BRANCH  29  33
HETATM   33  C31 UNL     1     -12.347   7.353  13.562  1.00  0.00     0.198 C 
BRANCH  33  34
HETATM   34  O7  UNL     1     -11.177   7.520  12.752  1.00  0.00    -0.398 OA
HETATM   35  H49 UNL     1     -10.947   8.466  12.795  1.00  0.00     0.209 HD
ENDBRANCH  33  34
ENDBRANCH  29  33
BRANCH  30  36
HETATM   36  O8  UNL     1     -12.138   9.964  12.801  1.00  0.00    -0.390 OA
HETATM   37  H51 UNL     1     -11.731  10.836  12.623  1.00  0.00     0.210 HD
ENDBRANCH  30  36
BRANCH  31  38
HETATM   38  O9  UNL     1     -10.530  11.629  14.016  1.00  0.00    -0.390 OA
HETATM   39  H53 UNL     1      -9.598  11.817  14.272  1.00  0.00     0.210 HD
ENDBRANCH  31  38
BRANCH  32  40
HETATM   40  O10 UNL     1      -8.504  10.052  15.041  1.00  0.00    -0.388 OA
HETATM   41  H55 UNL     1      -7.810   9.379  14.892  1.00  0.00     0.210 HD
ENDBRANCH  32  40
ENDBRANCH  26  27
ENDBRANCH  21  26
BRANCH   1  42
HETATM   42  C2  UNL     1       2.027   7.384  13.928  1.00  0.00    -0.014 C 
HETATM   43  C1  UNL     1       2.427   8.177  15.177  1.00  0.00     0.010 C 
BRANCH  42  44
HETATM   44  C3  UNL     1       3.082   7.489  12.785  1.00  0.00     0.007 C 
BRANCH  44  45
HETATM   45  C4  UNL     1       2.580   8.043  11.438  1.00  0.00     0.038 C 
BRANCH  45  46
HETATM   46  C5  UNL     1       3.411   7.644  10.179  1.00  0.00     0.061 C 
HETATM   47  C6  UNL     1       4.699   8.492  10.147  1.00  0.00     0.046 C 
BRANCH  46  48
HETATM   48  O1  UNL     1       3.808   6.277  10.334  1.00  0.00    -0.389 OA
HETATM   49  H12 UNL     1       4.504   6.089   9.678  1.00  0.00     0.210 HD
ENDBRANCH  46  48
BRANCH  46  50
HETATM   50  C7  UNL     1       2.562   7.764   8.838  1.00  0.00    -0.021 C 
HETATM   51  C8  UNL     1       3.177   8.802   7.865  1.00  0.00     0.017 C 
HETATM   52  C9  UNL     1       1.115   8.243   9.118  1.00  0.00     0.017 C 
HETATM   53  C10 UNL     1       2.472   6.419   8.089  1.00  0.00     0.017 C 
ENDBRANCH  46  50
ENDBRANCH  45  46
ENDBRANCH  44  45
ENDBRANCH  42  44
ENDBRANCH   1  42
TORSDOF 13
ENDMDL
MODEL 5
REMARK minimizedAffinity -10.4518805
REMARK CNNscore 0.197222888
REMARK CNNaffinity 6.99367142
REMARK  13 active torsions:
REMARK  status: ('A' for Active; 'I' for Inactive)
REMARK    1  A    between atoms: C2_2  and  C3_3 
REMARK    2  A    between atoms: C2_2  and  C11_12 
REMARK    3  A    between atoms: C3_3  and  C4_4 
REMARK    4  A    between atoms: C4_4  and  C5_5 
REMARK    5  A    between atoms: C5_5  and  O1_7 
REMARK    6  A    between atoms: C5_5  and  C7_8 
REMARK    7  A    between atoms: C28_32  and  O5_33 
REMARK    8  A    between atoms: O5_33  and  C29_34 
REMARK    9  A    between atoms: C30_36  and  C31_37 
REMARK   10  A    between atoms: C31_37  and  O7_38 
REMARK   11  A    between atoms: C32_39  and  O8_40 
REMARK   12  A    between atoms: C33_41  and  O9_42 
REMARK   13  A    between atoms: C34_43  and  O10_44 
ROOT
HETATM    1  C11 UNL     1       4.251   8.411  11.249  1.00  0.00    -0.001 C 
HETATM    2  C12 UNL     1       4.336   7.055  10.496  1.00  0.00     0.007 C 
HETATM    3  C13 UNL     1       2.999   6.324  10.721  1.00  0.00     0.024 C 
HETATM    4  C14 UNL     1       2.134   7.306  11.488  1.00  0.00     0.092 C 
HETATM    5  C15 UNL     1       1.273   8.200  10.539  1.00  0.00     0.272 C 
HETATM    6  O2  UNL     1       1.542   8.561   9.408  1.00  0.00    -0.264 OA
HETATM    7  O3  UNL     1       0.111   8.559  11.205  1.00  0.00    -0.305 OA
HETATM    8  C16 UNL     1       0.171   8.038  12.547  1.00  0.00     0.113 C 
HETATM    9  C17 UNL     1       1.010   9.084  13.373  1.00  0.00     0.043 C 
HETATM   10  C18 UNL     1       2.395   9.424  12.796  1.00  0.00     0.014 C 
HETATM   11  C19 UNL     1       3.142   8.161  12.315  1.00  0.00    -0.020 C 
HETATM   12  C20 UNL     1       3.665   7.365  13.530  1.00  0.00     0.017 C 
HETATM   13  C21 UNL     1       1.013   6.796  12.342  1.00  0.00     0.137 A 
HETATM   14  O4  UNL     1       0.434   5.715  11.546  1.00  0.00    -0.364 OA
HETATM   15  C22 UNL     1       0.571   5.455  12.921  1.00  0.00     0.162 A 
HETATM   16  C23 UNL     1      -0.795   5.285  13.525  1.00  0.00     0.041 C 
HETATM   17  C24 UNL     1      -1.795   6.318  12.924  1.00  0.00     0.009 C 
HETATM   18  C25 UNL     1      -3.310   5.997  13.225  1.00  0.00    -0.017 C 
HETATM   19  C26 UNL     1      -3.744   4.738  12.404  1.00  0.00     0.018 C 
HETATM   20  C27 UNL     1      -3.585   5.613  14.694  1.00  0.00     0.018 C 
HETATM   21  C28 UNL     1      -4.230   7.166  12.713  1.00  0.00     0.133 C 
HETATM   22  C35 UNL     1      -3.720   8.559  13.068  1.00  0.00     0.034 C 
HETATM   23  C36 UNL     1      -2.293   8.776  12.594  1.00  0.00     0.015 C 
HETATM   24  C37 UNL     1      -1.277   7.788  13.210  1.00  0.00    -0.004 C 
HETATM   25  C38 UNL     1      -1.216   8.075  14.741  1.00  0.00     0.019 C 
ENDROOT
BRANCH  21  26
HETATM   26  O5  UNL     1      -5.560   6.989  13.219  1.00  0.00    -0.352 OA
BRANCH  26  27
HETATM   27  C29 UNL     1      -5.636   6.280  14.463  1.00  0.00     0.292 C 
HETATM   28  O6  UNL     1      -6.261   5.000  14.337  1.00  0.00    -0.348 OA
HETATM   29  C30 UNL     1      -7.684   4.953  14.563  1.00  0.00     0.179 C 
HETATM   30  C32 UNL     1      -8.115   5.567  15.913  1.00  0.00     0.180 C 
HETATM   31  C33 UNL     1      -6.988   6.372  16.564  1.00  0.00     0.183 C 
HETATM   32  C34 UNL     1      -6.305   7.214  15.497  1.00  0.00     0.204 C 
BRANCH  29  33
HETATM   33  C31 UNL     1      -8.449   5.479  13.334  1.00  0.00     0.198 C 
BRANCH  33  34
HETATM   34  O7  UNL     1      -7.799   5.047  12.133  1.00  0.00    -0.398 OA
HETATM   35  H49 UNL     1      -6.853   4.958  12.349  1.00  0.00     0.209 HD
ENDBRANCH  33  34
ENDBRANCH  29  33
BRANCH  30  36
HETATM   36  O8  UNL     1      -9.260   6.417  15.764  1.00  0.00    -0.390 OA
HETATM   37  H51 UNL     1      -9.272   6.959  16.578  1.00  0.00     0.210 HD
ENDBRANCH  30  36
BRANCH  31  38
HETATM   38  O9  UNL     1      -7.551   7.231  17.567  1.00  0.00    -0.390 OA
HETATM   39  H53 UNL     1      -6.822   7.862  17.769  1.00  0.00     0.210 HD
ENDBRANCH  31  38
BRANCH  32  40
HETATM   40  O10 UNL     1      -5.345   8.080  16.134  1.00  0.00    -0.388 OA
HETATM   41  H55 UNL     1      -4.972   8.641  15.425  1.00  0.00     0.210 HD
ENDBRANCH  32  40
ENDBRANCH  26  27
ENDBRANCH  21  26
BRANCH   1  42
HETATM   42  C2  UNL     1       5.644   9.025  11.578  1.00  0.00    -0.014 C 
HETATM   43  C1  UNL     1       6.275   9.963  10.542  1.00  0.00     0.010 C 
BRANCH  42  44
HETATM   44  C3  UNL     1       6.662   7.999  12.159  1.00  0.00     0.007 C 
BRANCH  44  45
HETATM   45  C4  UNL     1       7.877   8.583  12.906  1.00  0.00     0.038 C 
BRANCH  45  46
HETATM   46  C5  UNL     1       7.790   8.585  14.463  1.00  0.00     0.061 C 
HETATM   47  C6  UNL     1       6.905   9.768  14.909  1.00  0.00     0.046 C 
BRANCH  46  48
HETATM   48  O1  UNL     1       7.122   7.383  14.864  1.00  0.00    -0.389 OA
HETATM   49  H12 UNL     1       6.863   7.479  15.799  1.00  0.00     0.210 HD
ENDBRANCH  46  48
BRANCH  46  50
HETATM   50  C7  UNL     1       9.229   8.602  15.144  1.00  0.00    -0.021 C 
HETATM   51  C8  UNL     1       9.269   7.713  16.413  1.00  0.00     0.017 C 
HETATM   52  C9  UNL     1       9.627  10.027  15.604  1.00  0.00     0.017 C 
HETATM   53  C10 UNL     1      10.326   8.097  14.186  1.00  0.00     0.017 C 
ENDBRANCH  46  50
ENDBRANCH  45  46
ENDBRANCH  44  45
ENDBRANCH  42  44
ENDBRANCH   1  42
TORSDOF 13
ENDMDL
MODEL 6
REMARK minimizedAffinity -9.23719215
REMARK CNNscore 0.105966523
REMARK CNNaffinity 6.44588614
REMARK  13 active torsions:
REMARK  status: ('A' for Active; 'I' for Inactive)
REMARK    1  A    between atoms: C2_2  and  C3_3 
REMARK    2  A    between atoms: C2_2  and  C11_12 
REMARK    3  A    between atoms: C3_3  and  C4_4 
REMARK    4  A    between atoms: C4_4  and  C5_5 
REMARK    5  A    between atoms: C5_5  and  O1_7 
REMARK    6  A    between atoms: C5_5  and  C7_8 
REMARK    7  A    between atoms: C28_32  and  O5_33 
REMARK    8  A    between atoms: O5_33  and  C29_34 
REMARK    9  A    between atoms: C30_36  and  C31_37 
REMARK   10  A    between atoms: C31_37  and  O7_38 
REMARK   11  A    between atoms: C32_39  and  O8_40 
REMARK   12  A    between atoms: C33_41  and  O9_42 
REMARK   13  A    between atoms: C34_43  and  O10_44 
ROOT
HETATM    1  C11 UNL     1       0.708   9.169  14.617  1.00  0.00    -0.001 C 
HETATM    2  C12 UNL     1       0.798   7.659  14.971  1.00  0.00     0.007 C 
HETATM    3  C13 UNL     1       2.282   7.340  15.233  1.00  0.00     0.024 C 
HETATM    4  C14 UNL     1       2.997   8.675  15.144  1.00  0.00     0.092 C 
HETATM    5  C15 UNL     1       3.095   9.385  16.532  1.00  0.00     0.272 C 
HETATM    6  O2  UNL     1       2.321   9.303  17.468  1.00  0.00    -0.264 OA
HETATM    7  O3  UNL     1       4.235  10.176  16.544  1.00  0.00    -0.305 OA
HETATM    8  C16 UNL     1       4.855  10.106  15.244  1.00  0.00     0.113 C 
HETATM    9  C17 UNL     1       4.091  11.156  14.352  1.00  0.00     0.043 C 
HETATM   10  C18 UNL     1       2.564  10.991  14.299  1.00  0.00     0.014 C 
HETATM   11  C19 UNL     1       2.150   9.512  14.136  1.00  0.00    -0.020 C 
HETATM   12  C20 UNL     1       2.411   9.049  12.688  1.00  0.00     0.017 C 
HETATM   13  C21 UNL     1       4.456   8.713  14.803  1.00  0.00     0.137 A 
HETATM   14  O4  UNL     1       5.015   7.587  15.547  1.00  0.00    -0.364 OA
HETATM   15  C22 UNL     1       5.495   7.752  14.236  1.00  0.00     0.162 A 
HETATM   16  C23 UNL     1       6.963   8.078  14.289  1.00  0.00     0.041 C 
HETATM   17  C24 UNL     1       7.266   9.055  15.464  1.00  0.00     0.009 C 
HETATM   18  C25 UNL     1       8.799   9.178  15.819  1.00  0.00    -0.017 C 
HETATM   19  C26 UNL     1       9.281   7.848  16.485  1.00  0.00     0.018 C 
HETATM   20  C27 UNL     1       9.712   9.347  14.587  1.00  0.00     0.018 C 
HETATM   21  C28 UNL     1       9.021  10.293  16.907  1.00  0.00     0.133 C 
HETATM   22  C35 UNL     1       8.254  11.584  16.639  1.00  0.00     0.034 C 
HETATM   23  C36 UNL     1       6.767  11.330  16.454  1.00  0.00     0.015 C 
HETATM   24  C37 UNL     1       6.441  10.394  15.269  1.00  0.00    -0.004 C 
HETATM   25  C38 UNL     1       6.866  11.131  13.962  1.00  0.00     0.019 C 
ENDROOT
BRANCH  21  26
HETATM   26  O5  UNL     1      10.422  10.573  17.028  1.00  0.00    -0.352 OA
BRANCH  26  27
HETATM   27  C29 UNL     1      10.732  11.751  17.785  1.00  0.00     0.292 C 
HETATM   28  O6  UNL     1      11.389  12.756  17.008  1.00  0.00    -0.348 OA
HETATM   29  C30 UNL     1      12.831  12.733  17.014  1.00  0.00     0.179 C 
HETATM   30  C32 UNL     1      13.442  12.746  18.431  1.00  0.00     0.180 C 
HETATM   31  C33 UNL     1      12.397  12.457  19.511  1.00  0.00     0.183 C 
HETATM   32  C34 UNL     1      11.512  11.311  19.045  1.00  0.00     0.204 C 
BRANCH  29  33
HETATM   33  C31 UNL     1      13.362  11.626  16.084  1.00  0.00     0.198 C 
BRANCH  33  34
HETATM   34  O7  UNL     1      14.280  10.788  16.796  1.00  0.00    -0.398 OA
HETATM   35  H49 UNL     1      14.693  11.349  17.477  1.00  0.00     0.209 HD
ENDBRANCH  33  34
ENDBRANCH  29  33
BRANCH  30  36
HETATM   36  O8  UNL     1      14.506  11.792  18.555  1.00  0.00    -0.390 OA
HETATM   37  H51 UNL     1      14.623  11.677  19.519  1.00  0.00     0.210 HD
ENDBRANCH  30  36
BRANCH  31  38
HETATM   38  O9  UNL     1      13.071  12.081  20.722  1.00  0.00    -0.390 OA
HETATM   39  H53 UNL     1      12.355  11.698  21.278  1.00  0.00     0.210 HD
ENDBRANCH  31  38
BRANCH  32  40
HETATM   40  O10 UNL     1      10.626  10.942  20.120  1.00  0.00    -0.388 OA
HETATM   41  H55 UNL     1      10.118  10.170  19.801  1.00  0.00     0.210 HD
ENDBRANCH  32  40
ENDBRANCH  26  27
ENDBRANCH  21  26
BRANCH   1  42
HETATM   42  C2  UNL     1      -0.580   9.543  13.824  1.00  0.00    -0.014 C 
HETATM   43  C1  UNL     1      -1.353  10.792  14.264  1.00  0.00     0.010 C 
BRANCH  42  44
HETATM   44  C3  UNL     1      -1.513   8.330  13.531  1.00  0.00     0.007 C 
BRANCH  44  45
HETATM   45  C4  UNL     1      -2.859   8.647  12.853  1.00  0.00     0.038 C 
BRANCH  45  46
HETATM   46  C5  UNL     1      -4.140   8.209  13.629  1.00  0.00     0.061 C 
HETATM   47  C6  UNL     1      -4.269   9.072  14.900  1.00  0.00     0.046 C 
BRANCH  46  48
HETATM   48  O1  UNL     1      -5.271   8.501  12.801  1.00  0.00    -0.389 OA
HETATM   49  H12 UNL     1      -6.072   8.445  13.354  1.00  0.00     0.210 HD
ENDBRANCH  46  48
BRANCH  46  50
HETATM   50  C7  UNL     1      -4.145   6.648  13.941  1.00  0.00    -0.021 C 
HETATM   51  C8  UNL     1      -3.383   6.327  15.252  1.00  0.00     0.017 C 
HETATM   52  C9  UNL     1      -3.440   5.838  12.824  1.00  0.00     0.017 C 
HETATM   53  C10 UNL     1      -5.577   6.093  14.086  1.00  0.00     0.017 C 
ENDBRANCH  46  50
ENDBRANCH  45  46
ENDBRANCH  44  45
ENDBRANCH  42  44
ENDBRANCH   1  42
TORSDOF 13
ENDMDL
MODEL 7
REMARK minimizedAffinity -8.57629681
REMARK CNNscore 0.0990997106
REMARK CNNaffinity 5.32376051
REMARK  13 active torsions:
REMARK  status: ('A' for Active; 'I' for Inactive)
REMARK    1  A    between atoms: C2_2  and  C3_3 
REMARK    2  A    between atoms: C2_2  and  C11_12 
REMARK    3  A    between atoms: C3_3  and  C4_4 
REMARK    4  A    between atoms: C4_4  and  C5_5 
REMARK    5  A    between atoms: C5_5  and  O1_7 
REMARK    6  A    between atoms: C5_5  and  C7_8 
REMARK    7  A    between atoms: C28_32  and  O5_33 
REMARK    8  A    between atoms: O5_33  and  C29_34 
REMARK    9  A    between atoms: C30_36  and  C31_37 
REMARK   10  A    between atoms: C31_37  and  O7_38 
REMARK   11  A    between atoms: C32_39  and  O8_40 
REMARK   12  A    between atoms: C33_41  and  O9_42 
REMARK   13  A    between atoms: C34_43  and  O10_44 
ROOT
HETATM    1  C11 UNL     1       5.252  12.202  22.085  1.00  0.00    -0.001 C 
HETATM    2  C12 UNL     1       4.158  12.432  23.164  1.00  0.00     0.007 C 
HETATM    3  C13 UNL     1       2.792  12.254  22.474  1.00  0.00     0.024 C 
HETATM    4  C14 UNL     1       3.117  11.816  21.059  1.00  0.00     0.092 C 
HETATM    5  C15 UNL     1       3.180  10.261  20.923  1.00  0.00     0.272 C 
HETATM    6  O2  UNL     1       3.498   9.450  21.774  1.00  0.00    -0.264 OA
HETATM    7  O3  UNL     1       2.823   9.916  19.628  1.00  0.00    -0.305 OA
HETATM    8  C16 UNL     1       2.606  11.125  18.874  1.00  0.00     0.113 C 
HETATM    9  C17 UNL     1       4.033  11.591  18.396  1.00  0.00     0.043 C 
HETATM   10  C18 UNL     1       5.081  11.755  19.509  1.00  0.00     0.014 C 
HETATM   11  C19 UNL     1       4.498  12.470  20.747  1.00  0.00    -0.020 C 
HETATM   12  C20 UNL     1       4.335  13.977  20.457  1.00  0.00     0.017 C 
HETATM   13  C21 UNL     1       2.128  12.065  19.960  1.00  0.00     0.137 A 
HETATM   14  O4  UNL     1       0.838  11.774  20.582  1.00  0.00    -0.364 OA
HETATM   15  C22 UNL     1       0.876  12.912  19.757  1.00  0.00     0.162 A 
HETATM   16  C23 UNL     1      -0.027  12.689  18.575  1.00  0.00     0.041 C 
HETATM   17  C24 UNL     1       0.099  11.226  18.056  1.00  0.00     0.009 C 
HETATM   18  C25 UNL     1      -1.047  10.796  17.059  1.00  0.00    -0.017 C 
HETATM   19  C26 UNL     1      -2.390  10.655  17.848  1.00  0.00     0.018 C 
HETATM   20  C27 UNL     1      -1.348  11.844  15.967  1.00  0.00     0.018 C 
HETATM   21  C28 UNL     1      -0.755   9.365  16.474  1.00  0.00     0.133 C 
HETATM   22  C35 UNL     1       0.687   9.161  16.020  1.00  0.00     0.034 C 
HETATM   23  C36 UNL     1       1.678   9.480  17.127  1.00  0.00     0.015 C 
HETATM   24  C37 UNL     1       1.598  10.939  17.629  1.00  0.00    -0.004 C 
HETATM   25  C38 UNL     1       2.034  11.863  16.452  1.00  0.00     0.019 C 
ENDROOT
BRANCH  21  26
HETATM   26  O5  UNL     1      -1.651   9.098  15.387  1.00  0.00    -0.352 OA
BRANCH  26  27
HETATM   27  C29 UNL     1      -2.881   8.468  15.767  1.00  0.00     0.292 C 
HETATM   28  O6  UNL     1      -2.702   7.123  16.220  1.00  0.00    -0.348 OA
HETATM   29  C30 UNL     1      -2.823   6.087  15.225  1.00  0.00     0.179 C 
HETATM   30  C32 UNL     1      -4.142   6.152  14.424  1.00  0.00     0.180 C 
HETATM   31  C33 UNL     1      -4.879   7.476  14.638  1.00  0.00     0.183 C 
HETATM   32  C34 UNL     1      -3.870   8.614  14.589  1.00  0.00     0.204 C 
BRANCH  29  33
HETATM   33  C31 UNL     1      -1.545   6.000  14.370  1.00  0.00     0.198 C 
BRANCH  33  34
HETATM   34  O7  UNL     1      -0.404   5.808  15.214  1.00  0.00    -0.398 OA
HETATM   35  H49 UNL     1      -0.617   6.233  16.065  1.00  0.00     0.209 HD
ENDBRANCH  33  34
ENDBRANCH  29  33
BRANCH  30  36
HETATM   36  O8  UNL     1      -3.915   5.973  13.020  1.00  0.00    -0.390 OA
HETATM   37  H51 UNL     1      -4.731   6.307  12.595  1.00  0.00     0.210 HD
ENDBRANCH  30  36
BRANCH  31  38
HETATM   38  O9  UNL     1      -5.844   7.644  13.588  1.00  0.00    -0.390 OA
HETATM   39  H53 UNL     1      -6.103   8.592  13.659  1.00  0.00     0.210 HD
ENDBRANCH  31  38
BRANCH  32  40
HETATM   40  O10 UNL     1      -4.582   9.866  14.640  1.00  0.00    -0.388 OA
HETATM   41  H55 UNL     1      -3.905  10.567  14.549  1.00  0.00     0.210 HD
ENDBRANCH  32  40
ENDBRANCH  26  27
ENDBRANCH  21  26
BRANCH   1  42
HETATM   42  C2  UNL     1       6.624  12.846  22.447  1.00  0.00    -0.014 C 
HETATM   43  C1  UNL     1       7.700  11.938  23.054  1.00  0.00     0.010 C 
BRANCH  42  44
HETATM   44  C3  UNL     1       6.502  14.212  23.186  1.00  0.00     0.007 C 
BRANCH  44  45
HETATM   45  C4  UNL     1       7.810  15.000  23.394  1.00  0.00     0.038 C 
BRANCH  45  46
HETATM   46  C5  UNL     1       7.675  16.552  23.455  1.00  0.00     0.061 C 
HETATM   47  C6  UNL     1       7.851  17.121  22.032  1.00  0.00     0.046 C 
BRANCH  46  48
HETATM   48  O1  UNL     1       6.339  16.857  23.871  1.00  0.00    -0.389 OA
HETATM   49  H12 UNL     1       6.177  17.802  23.696  1.00  0.00     0.210 HD
ENDBRANCH  46  48
BRANCH  46  50
HETATM   50  C7  UNL     1       8.680  17.200  24.506  1.00  0.00    -0.021 C 
HETATM   51  C8  UNL     1      10.051  17.522  23.858  1.00  0.00     0.017 C 
HETATM   52  C9  UNL     1       8.977  16.236  25.682  1.00  0.00     0.017 C 
HETATM   53  C10 UNL     1       8.127  18.509  25.104  1.00  0.00     0.017 C 
ENDBRANCH  46  50
ENDBRANCH  45  46
ENDBRANCH  44  45
ENDBRANCH  42  44
ENDBRANCH   1  42
TORSDOF 13
ENDMDL
MODEL 8
REMARK minimizedAffinity -8.19930649
REMARK CNNscore 0.0986502171
REMARK CNNaffinity 5.95524549
REMARK  13 active torsions:
REMARK  status: ('A' for Active; 'I' for Inactive)
REMARK    1  A    between atoms: C2_2  and  C3_3 
REMARK    2  A    between atoms: C2_2  and  C11_12 
REMARK    3  A    between atoms: C3_3  and  C4_4 
REMARK    4  A    between atoms: C4_4  and  C5_5 
REMARK    5  A    between atoms: C5_5  and  O1_7 
REMARK    6  A    between atoms: C5_5  and  C7_8 
REMARK    7  A    between atoms: C28_32  and  O5_33 
REMARK    8  A    between atoms: O5_33  and  C29_34 
REMARK    9  A    between atoms: C30_36  and  C31_37 
REMARK   10  A    between atoms: C31_37  and  O7_38 
REMARK   11  A    between atoms: C32_39  and  O8_40 
REMARK   12  A    between atoms: C33_41  and  O9_42 
REMARK   13  A    between atoms: C34_43  and  O10_44 
ROOT
HETATM    1  C11 UNL     1      -2.240   9.298  14.729  1.00  0.00    -0.001 C 
HETATM    2  C12 UNL     1      -1.300   8.898  13.559  1.00  0.00     0.007 C 
HETATM    3  C13 UNL     1       0.096   9.465  13.880  1.00  0.00     0.024 C 
HETATM    4  C14 UNL     1      -0.032  10.071  15.265  1.00  0.00     0.092 C 
HETATM    5  C15 UNL     1       0.327   9.050  16.391  1.00  0.00     0.272 C 
HETATM    6  O2  UNL     1       0.195   7.840  16.370  1.00  0.00    -0.264 OA
HETATM    7  O3  UNL     1       0.825   9.750  17.480  1.00  0.00    -0.305 OA
HETATM    8  C16 UNL     1       0.749  11.160  17.192  1.00  0.00     0.113 C 
HETATM    9  C17 UNL     1      -0.725  11.588  17.545  1.00  0.00     0.043 C 
HETATM   10  C18 UNL     1      -1.832  10.773  16.856  1.00  0.00     0.014 C 
HETATM   11  C19 UNL     1      -1.520  10.527  15.364  1.00  0.00    -0.020 C 
HETATM   12  C20 UNL     1      -1.749  11.822  14.557  1.00  0.00     0.017 C 
HETATM   13  C21 UNL     1       0.907  11.161  15.686  1.00  0.00     0.137 A 
HETATM   14  O4  UNL     1       2.196  10.736  15.145  1.00  0.00    -0.364 OA
HETATM   15  C22 UNL     1       1.898  12.103  15.011  1.00  0.00     0.162 A 
HETATM   16  C23 UNL     1       2.884  12.901  15.820  1.00  0.00     0.041 C 
HETATM   17  C24 UNL     1       3.177  12.197  17.178  1.00  0.00     0.009 C 
HETATM   18  C25 UNL     1       4.443  12.759  17.935  1.00  0.00    -0.017 C 
HETATM   19  C26 UNL     1       5.735  12.335  17.162  1.00  0.00     0.018 C 
HETATM   20  C27 UNL     1       4.507  14.301  17.980  1.00  0.00     0.018 C 
HETATM   21  C28 UNL     1       4.570  12.097  19.356  1.00  0.00     0.133 C 
HETATM   22  C35 UNL     1       3.258  12.030  20.131  1.00  0.00     0.034 C 
HETATM   23  C36 UNL     1       2.165  11.338  19.333  1.00  0.00     0.015 C 
HETATM   24  C37 UNL     1       1.830  12.044  18.000  1.00  0.00    -0.004 C 
HETATM   25  C38 UNL     1       1.222  13.436  18.347  1.00  0.00     0.019 C 
ENDROOT
BRANCH  21  26
HETATM   26  O5  UNL     1       5.557  12.797  20.126  1.00  0.00    -0.352 OA
BRANCH  26  27
HETATM   27  C29 UNL     1       6.375  11.959  20.952  1.00  0.00     0.292 C 
HETATM   28  O6  UNL     1       6.084  12.096  22.346  1.00  0.00    -0.348 OA
HETATM   29  C30 UNL     1       6.863  13.068  23.073  1.00  0.00     0.179 C 
HETATM   30  C32 UNL     1       8.387  12.878  22.917  1.00  0.00     0.180 C 
HETATM   31  C33 UNL     1       8.733  11.912  21.781  1.00  0.00     0.183 C 
HETATM   32  C34 UNL     1       7.851  12.227  20.582  1.00  0.00     0.204 C 
BRANCH  29  33
HETATM   33  C31 UNL     1       6.352  14.493  22.796  1.00  0.00     0.198 C 
BRANCH  33  34
HETATM   34  O7  UNL     1       6.765  14.917  21.492  1.00  0.00    -0.398 OA
HETATM   35  H49 UNL     1       7.602  14.455  21.305  1.00  0.00     0.209 HD
ENDBRANCH  33  34
ENDBRANCH  29  33
BRANCH  30  36
HETATM   36  O8  UNL     1       9.052  14.126  22.678  1.00  0.00    -0.390 OA
HETATM   37  H51 UNL     1       9.927  13.874  22.319  1.00  0.00     0.210 HD
ENDBRANCH  30  36
BRANCH  31  38
HETATM   38  O9  UNL     1      10.112  12.091  21.423  1.00  0.00    -0.390 OA
HETATM   39  H53 UNL     1      10.192  11.621  20.561  1.00  0.00     0.210 HD
ENDBRANCH  31  38
BRANCH  32  40
HETATM   40  O10 UNL     1       8.278  11.420  19.467  1.00  0.00    -0.388 OA
HETATM   41  H55 UNL     1       7.727  11.693  18.707  1.00  0.00     0.210 HD
ENDBRANCH  32  40
ENDBRANCH  26  27
ENDBRANCH  21  26
BRANCH   1  42
HETATM   42  C2  UNL     1      -3.750   9.285  14.344  1.00  0.00    -0.014 C 
HETATM   43  C1  UNL     1      -4.778   9.346  15.480  1.00  0.00     0.010 C 
BRANCH  42  44
HETATM   44  C3  UNL     1      -4.112   8.226  13.260  1.00  0.00     0.007 C 
BRANCH  44  45
HETATM   45  C4  UNL     1      -5.450   7.484  13.446  1.00  0.00     0.038 C 
BRANCH  45  46
HETATM   46  C5  UNL     1      -5.351   5.984  13.862  1.00  0.00     0.061 C 
HETATM   47  C6  UNL     1      -4.332   5.281  12.942  1.00  0.00     0.046 C 
BRANCH  46  48
HETATM   48  O1  UNL     1      -4.824   5.935  15.193  1.00  0.00    -0.389 OA
HETATM   49  H12 UNL     1      -4.549   5.017  15.374  1.00  0.00     0.210 HD
ENDBRANCH  46  48
BRANCH  46  50
HETATM   50  C7  UNL     1      -6.773   5.268  13.866  1.00  0.00    -0.021 C 
HETATM   51  C8  UNL     1      -7.354   5.166  15.299  1.00  0.00     0.017 C 
HETATM   52  C9  UNL     1      -6.684   3.816  13.333  1.00  0.00     0.017 C 
HETATM   53  C10 UNL     1      -7.801   6.021  12.998  1.00  0.00     0.017 C 
ENDBRANCH  46  50
ENDBRANCH  45  46
ENDBRANCH  44  45
ENDBRANCH  42  44
ENDBRANCH   1  42
TORSDOF 13
ENDMDL
MODEL 9
REMARK minimizedAffinity -10.1305094
REMARK CNNscore 0.0927585512
REMARK CNNaffinity 6.90199709
REMARK  13 active torsions:
REMARK  status: ('A' for Active; 'I' for Inactive)
REMARK    1  A    between atoms: C2_2  and  C3_3 
REMARK    2  A    between atoms: C2_2  and  C11_12 
REMARK    3  A    between atoms: C3_3  and  C4_4 
REMARK    4  A    between atoms: C4_4  and  C5_5 
REMARK    5  A    between atoms: C5_5  and  O1_7 
REMARK    6  A    between atoms: C5_5  and  C7_8 
REMARK    7  A    between atoms: C28_32  and  O5_33 
REMARK    8  A    between atoms: O5_33  and  C29_34 
REMARK    9  A    between atoms: C30_36  and  C31_37 
REMARK   10  A    between atoms: C31_37  and  O7_38 
REMARK   11  A    between atoms: C32_39  and  O8_40 
REMARK   12  A    between atoms: C33_41  and  O9_42 
REMARK   13  A    between atoms: C34_43  and  O10_44 
ROOT
HETATM    1  C11 UNL     1       3.559   8.452  10.303  1.00  0.00    -0.001 C 
HETATM    2  C12 UNL     1       3.536   7.351   9.208  1.00  0.00     0.007 C 
HETATM    3  C13 UNL     1       2.281   6.491   9.451  1.00  0.00     0.024 C 
HETATM    4  C14 UNL     1       1.550   7.172  10.593  1.00  0.00     0.092 C 
HETATM    5  C15 UNL     1       0.508   8.219  10.084  1.00  0.00     0.272 C 
HETATM    6  O2  UNL     1       0.555   8.883   9.065  1.00  0.00    -0.264 OA
HETATM    7  O3  UNL     1      -0.520   8.306  11.011  1.00  0.00    -0.305 OA
HETATM    8  C16 UNL     1      -0.200   7.457  12.132  1.00  0.00     0.113 C 
HETATM    9  C17 UNL     1       0.752   8.308  13.053  1.00  0.00     0.043 C 
HETATM   10  C18 UNL     1       1.997   8.886  12.361  1.00  0.00     0.014 C 
HETATM   11  C19 UNL     1       2.673   7.851  11.435  1.00  0.00    -0.020 C 
HETATM   12  C20 UNL     1       3.430   6.804  12.279  1.00  0.00     0.017 C 
HETATM   13  C21 UNL     1       0.618   6.376  11.456  1.00  0.00     0.137 A 
HETATM   14  O4  UNL     1      -0.073   5.504  10.508  1.00  0.00    -0.364 OA
HETATM   15  C22 UNL     1       0.322   4.903  11.716  1.00  0.00     0.162 A 
HETATM   16  C23 UNL     1      -0.905   4.481  12.477  1.00  0.00     0.041 C 
HETATM   17  C24 UNL     1      -2.022   5.561  12.359  1.00  0.00     0.009 C 
HETATM   18  C25 UNL     1      -3.448   5.063  12.817  1.00  0.00    -0.017 C 
HETATM   19  C26 UNL     1      -3.996   4.037  11.772  1.00  0.00     0.018 C 
HETATM   20  C27 UNL     1      -3.438   4.289  14.152  1.00  0.00     0.018 C 
HETATM   21  C28 UNL     1      -4.473   6.256  12.807  1.00  0.00     0.133 C 
HETATM   22  C35 UNL     1      -3.940   7.541  13.434  1.00  0.00     0.034 C 
HETATM   23  C36 UNL     1      -2.630   7.977  12.799  1.00  0.00     0.015 C 
HETATM   24  C37 UNL     1      -1.496   6.938  12.940  1.00  0.00    -0.004 C 
HETATM   25  C38 UNL     1      -1.159   6.816  14.457  1.00  0.00     0.019 C 
ENDROOT
BRANCH  21  26
HETATM   26  O5  UNL     1      -5.682   5.857  13.466  1.00  0.00    -0.352 OA
BRANCH  26  27
HETATM   27  C29 UNL     1      -6.739   6.826  13.415  1.00  0.00     0.292 C 
HETATM   28  O6  UNL     1      -6.694   7.756  14.501  1.00  0.00    -0.348 OA
HETATM   29  C30 UNL     1      -7.463   7.416  15.671  1.00  0.00     0.179 C 
HETATM   30  C32 UNL     1      -8.944   7.104  15.367  1.00  0.00     0.180 C 
HETATM   31  C33 UNL     1      -9.195   6.910  13.870  1.00  0.00     0.183 C 
HETATM   32  C34 UNL     1      -8.075   6.060  13.290  1.00  0.00     0.204 C 
BRANCH  29  33
HETATM   33  C31 UNL     1      -6.733   6.355  16.514  1.00  0.00     0.198 C 
BRANCH  33  34
HETATM   34  O7  UNL     1      -5.325   6.407  16.253  1.00  0.00    -0.398 OA
HETATM   35  H49 UNL     1      -5.227   6.722  15.337  1.00  0.00     0.209 HD
ENDBRANCH  33  34
ENDBRANCH  29  33
BRANCH  30  36
HETATM   36  O8  UNL     1      -9.390   5.933  16.064  1.00  0.00    -0.390 OA
HETATM   37  H51 UNL     1     -10.208   5.666  15.599  1.00  0.00     0.210 HD
ENDBRANCH  30  36
BRANCH  31  38
HETATM   38  O9  UNL     1     -10.451   6.236  13.693  1.00  0.00    -0.390 OA
HETATM   39  H53 UNL     1     -10.430   5.949  12.752  1.00  0.00     0.210 HD
ENDBRANCH  31  38
BRANCH  32  40
HETATM   40  O10 UNL     1      -8.389   5.754  11.917  1.00  0.00    -0.388 OA
HETATM   41  H55 UNL     1      -7.677   5.162  11.601  1.00  0.00     0.210 HD
ENDBRANCH  32  40
ENDBRANCH  26  27
ENDBRANCH  21  26
BRANCH   1  42
HETATM   42  C2  UNL     1       4.975   9.057  10.542  1.00  0.00    -0.014 C 
HETATM   43  C1  UNL     1       6.181   8.116  10.442  1.00  0.00     0.010 C 
BRANCH  42  44
HETATM   44  C3  UNL     1       5.053  10.005  11.777  1.00  0.00     0.007 C 
BRANCH  44  45
HETATM   45  C4  UNL     1       6.426  10.126  12.464  1.00  0.00     0.038 C 
BRANCH  45  46
HETATM   46  C5  UNL     1       6.441   9.922  14.010  1.00  0.00     0.061 C 
HETATM   47  C6  UNL     1       6.960  11.213  14.675  1.00  0.00     0.046 C 
BRANCH  46  48
HETATM   48  O1  UNL     1       5.087   9.739  14.439  1.00  0.00    -0.389 OA
HETATM   49  H12 UNL     1       5.061   9.838  15.408  1.00  0.00     0.210 HD
ENDBRANCH  46  48
BRANCH  46  50
HETATM   50  C7  UNL     1       7.272   8.633  14.437  1.00  0.00    -0.021 C 
HETATM   51  C8  UNL     1       8.649   8.583  13.727  1.00  0.00     0.017 C 
HETATM   52  C9  UNL     1       6.540   7.324  14.046  1.00  0.00     0.017 C 
HETATM   53  C10 UNL     1       7.529   8.588  15.956  1.00  0.00     0.017 C 
ENDBRANCH  46  50
ENDBRANCH  45  46
ENDBRANCH  44  45
ENDBRANCH  42  44
ENDBRANCH   1  42
TORSDOF 13
ENDMDL
