MODEL 1
REMARK minimizedAffinity -9.07218456
REMARK  13 active torsions:
REMARK  status: ('A' for Active; 'I' for Inactive)
REMARK    1  A    between atoms: C4_4  and  C5_5 
REMARK    2  A    between atoms: C5_5  and  C6_6 
REMARK    3  A    between atoms: C6_6  and  C7_7 
REMARK    4  A    between atoms: C9_9  and  C10_10 
REMARK    5  A    between atoms: C11_11  and  C12_12 
REMARK    6  A    between atoms: C14_14  and  C15_15 
REMARK    7  A    between atoms: C18_18  and  O1_19 
REMARK    8  A    between atoms: C19_21  and  C20_22 
REMARK    9  A    between atoms: C20_22  and  C21_23 
REMARK   10  A    between atoms: C21_23  and  C22_24 
REMARK   11  A    between atoms: C22_24  and  O3_25 
REMARK   12  A    between atoms: C24_27  and  C26_29 
REMARK   13  A    between atoms: C29_33  and  O5_35 
ROOT
HETATM    1  C15 UNL     1      -0.724   5.414  12.951  1.00  0.00     0.149 C 
HETATM    2  C16 UNL     1       0.092   5.760  11.696  1.00  0.00     0.054 C 
HETATM    3  C17 UNL     1       0.974   6.984  12.077  1.00  0.00     0.050 C 
HETATM    4  C18 UNL     1       0.917   6.874  13.608  1.00  0.00     0.270 C 
HETATM    5  O2  UNL     1      -0.397   6.417  13.914  1.00  0.00    -0.351 OA
HETATM    6  C19 UNL     1       2.424   6.791  11.472  1.00  0.00     0.032 C 
HETATM    7  C23 UNL     1       2.341   6.884   9.934  1.00  0.00    -0.066 C 
HETATM    8  C24 UNL     1       2.727   5.918   9.061  1.00  0.00    -0.021 C 
HETATM    9  C25 UNL     1       2.544   6.027   7.569  1.00  0.00     0.052 C 
HETATM   10  C27 UNL     1       1.771   8.211   9.468  1.00  0.00     0.038 C 
HETATM   11  C28 UNL     1       0.378   8.456  10.036  1.00  0.00     0.042 C 
HETATM   12  C29 UNL     1       0.312   8.333  11.575  1.00  0.00     0.067 C 
HETATM   13  C30 UNL     1      -1.146   8.574  12.000  1.00  0.00     0.047 C 
ENDROOT
BRANCH   4  14
HETATM   14  O1  UNL     1       1.793   5.881  14.116  1.00  0.00    -0.370 OA
HETATM   15  H26 UNL     1       1.676   5.935  15.080  1.00  0.00     0.212 HD
ENDBRANCH   4  14
BRANCH   6  16
HETATM   16  C20 UNL     1       3.575   7.727  11.941  1.00  0.00     0.012 C 
BRANCH  16  17
HETATM   17  C21 UNL     1       4.912   7.657  11.192  1.00  0.00     0.027 C 
BRANCH  17  18
HETATM   18  C22 UNL     1       5.910   6.643  11.744  1.00  0.00     0.164 C 
BRANCH  18  19
HETATM   19  O3  UNL     1       6.656   6.062  10.684  1.00  0.00    -0.401 OA
HETATM   20  H34 UNL     1       7.319   5.477  11.091  1.00  0.00     0.209 HD
ENDBRANCH  18  19
ENDBRANCH  17  18
ENDBRANCH  16  17
ENDBRANCH   6  16
BRANCH  12  21
HETATM   21  O5  UNL     1       1.052   9.431  12.134  1.00  0.00    -0.389 OA
HETATM   22  H46 UNL     1       0.656  10.264  11.819  1.00  0.00     0.210 HD
ENDBRANCH  12  21
BRANCH   1  23
HETATM   23  C14 UNL     1      -2.206   5.306  12.691  1.00  0.00     0.011 C 
HETATM   24  C12 UNL     1      -2.938   4.281  12.201  1.00  0.00    -0.063 C 
HETATM   25  C13 UNL     1      -2.346   2.991  11.694  1.00  0.00     0.048 C 
BRANCH  24  26
HETATM   26  C11 UNL     1      -4.393   4.447  12.114  1.00  0.00     0.006 C 
HETATM   27  C10 UNL     1      -5.233   4.692  13.134  1.00  0.00     0.001 C 
BRANCH  27  28
HETATM   28  C9  UNL     1      -6.663   4.834  12.952  1.00  0.00     0.002 C 
HETATM   29  C7  UNL     1      -7.441   5.846  13.387  1.00  0.00    -0.084 C 
HETATM   30  C8  UNL     1      -6.970   7.032  14.189  1.00  0.00     0.043 C 
BRANCH  29  31
HETATM   31  C6  UNL     1      -8.937   5.821  13.109  1.00  0.00     0.037 C 
BRANCH  31  32
HETATM   32  C5  UNL     1      -9.717   6.846  13.939  1.00  0.00     0.031 C 
BRANCH  32  33
HETATM   33  C4  UNL     1     -11.203   6.662  13.781  1.00  0.00    -0.024 C 
HETATM   34  C2  UNL     1     -12.069   7.478  13.148  1.00  0.00    -0.091 C 
HETATM   35  C1  UNL     1     -11.707   8.786  12.498  1.00  0.00     0.042 C 
HETATM   36  C3  UNL     1     -13.531   7.127  13.060  1.00  0.00     0.042 C 
ENDBRANCH  32  33
ENDBRANCH  31  32
ENDBRANCH  29  31
ENDBRANCH  27  28
ENDBRANCH  24  26
ENDBRANCH   1  23
BRANCH   8  37
HETATM   37  C26 UNL     1       3.389   4.656   9.515  1.00  0.00     0.265 C 
HETATM   38  O4  UNL     1       4.590   4.444   9.377  1.00  0.00    -0.302 OA
ENDBRANCH   8  37
TORSDOF 13
ENDMDL
MODEL 2
REMARK minimizedAffinity -8.13433743
REMARK  13 active torsions:
REMARK  status: ('A' for Active; 'I' for Inactive)
REMARK    1  A    between atoms: C4_4  and  C5_5 
REMARK    2  A    between atoms: C5_5  and  C6_6 
REMARK    3  A    between atoms: C6_6  and  C7_7 
REMARK    4  A    between atoms: C9_9  and  C10_10 
REMARK    5  A    between atoms: C11_11  and  C12_12 
REMARK    6  A    between atoms: C14_14  and  C15_15 
REMARK    7  A    between atoms: C18_18  and  O1_19 
REMARK    8  A    between atoms: C19_21  and  C20_22 
REMARK    9  A    between atoms: C20_22  and  C21_23 
REMARK   10  A    between atoms: C21_23  and  C22_24 
REMARK   11  A    between atoms: C22_24  and  O3_25 
REMARK   12  A    between atoms: C24_27  and  C26_29 
REMARK   13  A    between atoms: C29_33  and  O5_35 
ROOT
HETATM    1  C15 UNL     1      -0.193   5.838  13.709  1.00  0.00     0.149 C 
HETATM    2  C16 UNL     1       0.518   6.074  12.368  1.00  0.00     0.054 C 
HETATM    3  C17 UNL     1       1.489   7.268  12.595  1.00  0.00     0.050 C 
HETATM    4  C18 UNL     1       1.571   7.243  14.128  1.00  0.00     0.270 C 
HETATM    5  O2  UNL     1       0.271   6.873  14.579  1.00  0.00    -0.351 OA
HETATM    6  C19 UNL     1       2.865   6.967  11.873  1.00  0.00     0.032 C 
HETATM    7  C23 UNL     1       2.643   6.981  10.347  1.00  0.00    -0.066 C 
HETATM    8  C24 UNL     1       2.899   5.952   9.499  1.00  0.00    -0.021 C 
HETATM    9  C25 UNL     1       2.583   5.990   8.026  1.00  0.00     0.052 C 
HETATM   10  C27 UNL     1       2.095   8.310   9.858  1.00  0.00     0.038 C 
HETATM   11  C28 UNL     1       0.776   8.658  10.534  1.00  0.00     0.042 C 
HETATM   12  C29 UNL     1       0.849   8.622  12.078  1.00  0.00     0.067 C 
HETATM   13  C30 UNL     1      -0.550   8.961  12.619  1.00  0.00     0.047 C 
ENDROOT
BRANCH   4  14
HETATM   14  O1  UNL     1       2.442   6.233  14.612  1.00  0.00    -0.370 OA
HETATM   15  H26 UNL     1       2.420   6.346  15.578  1.00  0.00     0.212 HD
ENDBRANCH   4  14
BRANCH   6  16
HETATM   16  C20 UNL     1       4.098   7.864  12.180  1.00  0.00     0.012 C 
BRANCH  16  17
HETATM   17  C21 UNL     1       5.466   7.186  12.323  1.00  0.00     0.027 C 
BRANCH  17  18
HETATM   18  C22 UNL     1       6.185   7.451  13.643  1.00  0.00     0.164 C 
BRANCH  18  19
HETATM   19  O3  UNL     1       5.439   6.912  14.726  1.00  0.00    -0.401 OA
HETATM   20  H34 UNL     1       5.969   7.048  15.531  1.00  0.00     0.209 HD
ENDBRANCH  18  19
ENDBRANCH  17  18
ENDBRANCH  16  17
ENDBRANCH   6  16
BRANCH  12  21
HETATM   21  O5  UNL     1       1.689   9.707  12.503  1.00  0.00    -0.389 OA
HETATM   22  H46 UNL     1       1.305  10.541  12.177  1.00  0.00     0.210 HD
ENDBRANCH  12  21
BRANCH   1  23
HETATM   23  C14 UNL     1      -1.695   5.795  13.592  1.00  0.00     0.011 C 
HETATM   24  C12 UNL     1      -2.649   6.462  14.279  1.00  0.00    -0.063 C 
HETATM   25  C13 UNL     1      -2.363   7.371  15.448  1.00  0.00     0.048 C 
BRANCH  24  26
HETATM   26  C11 UNL     1      -4.051   6.258  13.899  1.00  0.00     0.006 C 
HETATM   27  C10 UNL     1      -4.787   5.156  14.122  1.00  0.00     0.001 C 
BRANCH  27  28
HETATM   28  C9  UNL     1      -6.169   5.042  13.703  1.00  0.00     0.002 C 
HETATM   29  C7  UNL     1      -6.657   4.264  12.715  1.00  0.00    -0.084 C 
HETATM   30  C8  UNL     1      -5.840   3.370  11.818  1.00  0.00     0.043 C 
BRANCH  29  31
HETATM   31  C6  UNL     1      -8.147   4.283  12.406  1.00  0.00     0.037 C 
BRANCH  31  32
HETATM   32  C5  UNL     1      -8.692   5.695  12.174  1.00  0.00     0.031 C 
BRANCH  32  33
HETATM   33  C4  UNL     1      -9.260   6.279  13.441  1.00  0.00    -0.024 C 
HETATM   34  C2  UNL     1     -10.377   7.020  13.575  1.00  0.00    -0.091 C 
HETATM   35  C1  UNL     1     -11.270   7.451  12.443  1.00  0.00     0.042 C 
HETATM   36  C3  UNL     1     -10.819   7.505  14.931  1.00  0.00     0.042 C 
ENDBRANCH  32  33
ENDBRANCH  31  32
ENDBRANCH  29  31
ENDBRANCH  27  28
ENDBRANCH  24  26
ENDBRANCH   1  23
BRANCH   8  37
HETATM   37  C26 UNL     1       3.540   4.682   9.964  1.00  0.00     0.265 C 
HETATM   38  O4  UNL     1       4.175   3.942   9.219  1.00  0.00    -0.302 OA
ENDBRANCH   8  37
TORSDOF 13
ENDMDL
MODEL 3
REMARK minimizedAffinity -8.079813
REMARK  13 active torsions:
REMARK  status: ('A' for Active; 'I' for Inactive)
REMARK    1  A    between atoms: C4_4  and  C5_5 
REMARK    2  A    between atoms: C5_5  and  C6_6 
REMARK    3  A    between atoms: C6_6  and  C7_7 
REMARK    4  A    between atoms: C9_9  and  C10_10 
REMARK    5  A    between atoms: C11_11  and  C12_12 
REMARK    6  A    between atoms: C14_14  and  C15_15 
REMARK    7  A    between atoms: C18_18  and  O1_19 
REMARK    8  A    between atoms: C19_21  and  C20_22 
REMARK    9  A    between atoms: C20_22  and  C21_23 
REMARK   10  A    between atoms: C21_23  and  C22_24 
REMARK   11  A    between atoms: C22_24  and  O3_25 
REMARK   12  A    between atoms: C24_27  and  C26_29 
REMARK   13  A    between atoms: C29_33  and  O5_35 
ROOT
HETATM    1  C15 UNL     1      -3.065   5.450  14.009  1.00  0.00     0.149 C 
HETATM    2  C16 UNL     1      -2.101   5.985  12.939  1.00  0.00     0.054 C 
HETATM    3  C17 UNL     1      -1.253   7.090  13.632  1.00  0.00     0.050 C 
HETATM    4  C18 UNL     1      -1.492   6.711  15.101  1.00  0.00     0.270 C 
HETATM    5  O2  UNL     1      -2.840   6.253  15.168  1.00  0.00    -0.351 OA
HETATM    6  C19 UNL     1       0.255   6.957  13.171  1.00  0.00     0.032 C 
HETATM    7  C23 UNL     1       0.356   7.324  11.677  1.00  0.00    -0.066 C 
HETATM    8  C24 UNL     1       0.829   6.517  10.692  1.00  0.00    -0.021 C 
HETATM    9  C25 UNL     1       0.825   6.895   9.234  1.00  0.00     0.052 C 
HETATM   10  C27 UNL     1      -0.137   8.733  11.397  1.00  0.00     0.038 C 
HETATM   11  C28 UNL     1      -1.582   8.921  11.837  1.00  0.00     0.042 C 
HETATM   12  C29 UNL     1      -1.831   8.529  13.311  1.00  0.00     0.067 C 
HETATM   13  C30 UNL     1      -3.326   8.741  13.604  1.00  0.00     0.047 C 
ENDROOT
BRANCH   4  14
HETATM   14  O1  UNL     1      -0.697   5.613  15.518  1.00  0.00    -0.370 OA
HETATM   15  H26 UNL     1      -0.925   5.499  16.456  1.00  0.00     0.212 HD
ENDBRANCH   4  14
BRANCH   6  16
HETATM   16  C20 UNL     1       1.356   7.753  13.930  1.00  0.00     0.012 C 
BRANCH  16  17
HETATM   17  C21 UNL     1       1.198   7.938  15.444  1.00  0.00     0.027 C 
BRANCH  17  18
HETATM   18  C22 UNL     1       2.503   8.133  16.212  1.00  0.00     0.164 C 
BRANCH  18  19
HETATM   19  O3  UNL     1       2.306   9.036  17.291  1.00  0.00    -0.401 OA
HETATM   20  H34 UNL     1       3.144   9.074  17.785  1.00  0.00     0.209 HD
ENDBRANCH  18  19
ENDBRANCH  17  18
ENDBRANCH  16  17
ENDBRANCH   6  16
BRANCH  12  21
HETATM   21  O5  UNL     1      -1.148   9.483  14.140  1.00  0.00    -0.389 OA
HETATM   22  H46 UNL     1      -1.492  10.372  13.937  1.00  0.00     0.210 HD
ENDBRANCH  12  21
BRANCH   1  23
HETATM   23  C14 UNL     1      -4.507   5.442  13.567  1.00  0.00     0.011 C 
HETATM   24  C12 UNL     1      -5.206   4.518  12.871  1.00  0.00    -0.063 C 
HETATM   25  C13 UNL     1      -4.598   3.273  12.279  1.00  0.00     0.048 C 
BRANCH  24  26
HETATM   26  C11 UNL     1      -6.634   4.760  12.637  1.00  0.00     0.006 C 
HETATM   27  C10 UNL     1      -7.397   5.688  13.239  1.00  0.00     0.001 C 
BRANCH  27  28
HETATM   28  C9  UNL     1      -8.807   5.849  12.946  1.00  0.00     0.002 C 
HETATM   29  C7  UNL     1      -9.686   6.643  13.591  1.00  0.00    -0.084 C 
HETATM   30  C8  UNL     1      -9.372   7.510  14.784  1.00  0.00     0.043 C 
BRANCH  29  31
HETATM   31  C6  UNL     1     -11.140   6.676  13.147  1.00  0.00     0.037 C 
BRANCH  31  32
HETATM   32  C5  UNL     1     -11.675   8.099  12.955  1.00  0.00     0.031 C 
BRANCH  32  33
HETATM   33  C4  UNL     1     -13.164   8.160  13.173  1.00  0.00    -0.024 C 
HETATM   34  C2  UNL     1     -13.993   9.186  12.899  1.00  0.00    -0.091 C 
HETATM   35  C1  UNL     1     -13.566  10.519  12.347  1.00  0.00     0.042 C 
HETATM   36  C3  UNL     1     -15.473   9.068  13.156  1.00  0.00     0.042 C 
ENDBRANCH  32  33
ENDBRANCH  31  32
ENDBRANCH  29  31
ENDBRANCH  27  28
ENDBRANCH  24  26
ENDBRANCH   1  23
BRANCH   8  37
HETATM   37  C26 UNL     1       1.415   5.171  10.983  1.00  0.00     0.265 C 
HETATM   38  O4  UNL     1       0.736   4.154  11.086  1.00  0.00    -0.302 OA
ENDBRANCH   8  37
TORSDOF 13
ENDMDL
MODEL 4
REMARK minimizedAffinity -8.00903797
REMARK  13 active torsions:
REMARK  status: ('A' for Active; 'I' for Inactive)
REMARK    1  A    between atoms: C4_4  and  C5_5 
REMARK    2  A    between atoms: C5_5  and  C6_6 
REMARK    3  A    between atoms: C6_6  and  C7_7 
REMARK    4  A    between atoms: C9_9  and  C10_10 
REMARK    5  A    between atoms: C11_11  and  C12_12 
REMARK    6  A    between atoms: C14_14  and  C15_15 
REMARK    7  A    between atoms: C18_18  and  O1_19 
REMARK    8  A    between atoms: C19_21  and  C20_22 
REMARK    9  A    between atoms: C20_22  and  C21_23 
REMARK   10  A    between atoms: C21_23  and  C22_24 
REMARK   11  A    between atoms: C22_24  and  O3_25 
REMARK   12  A    between atoms: C24_27  and  C26_29 
REMARK   13  A    between atoms: C29_33  and  O5_35 
ROOT
HETATM    1  C15 UNL     1       0.219   5.775  13.879  1.00  0.00     0.149 C 
HETATM    2  C16 UNL     1       0.839   6.028  12.496  1.00  0.00     0.054 C 
HETATM    3  C17 UNL     1       1.712   7.307  12.638  1.00  0.00     0.050 C 
HETATM    4  C18 UNL     1       1.873   7.339  14.165  1.00  0.00     0.270 C 
HETATM    5  O2  UNL     1       0.634   6.873  14.694  1.00  0.00    -0.351 OA
HETATM    6  C19 UNL     1       3.071   7.102  11.853  1.00  0.00     0.032 C 
HETATM    7  C23 UNL     1       2.772   7.048  10.341  1.00  0.00    -0.066 C 
HETATM    8  C24 UNL     1       3.073   6.018   9.509  1.00  0.00    -0.021 C 
HETATM    9  C25 UNL     1       2.681   5.982   8.055  1.00  0.00     0.052 C 
HETATM   10  C27 UNL     1       2.087   8.309   9.846  1.00  0.00     0.038 C 
HETATM   11  C28 UNL     1       0.777   8.565  10.581  1.00  0.00     0.042 C 
HETATM   12  C29 UNL     1       0.931   8.584  12.119  1.00  0.00     0.067 C 
HETATM   13  C30 UNL     1      -0.463   8.820  12.724  1.00  0.00     0.047 C 
ENDROOT
BRANCH   4  14
HETATM   14  O1  UNL     1       2.852   6.423  14.629  1.00  0.00    -0.370 OA
HETATM   15  H26 UNL     1       2.868   6.564  15.592  1.00  0.00     0.212 HD
ENDBRANCH   4  14
BRANCH   6  16
HETATM   16  C20 UNL     1       4.235   8.111  12.070  1.00  0.00     0.012 C 
BRANCH  16  17
HETATM   17  C21 UNL     1       5.503   7.610  12.772  1.00  0.00     0.027 C 
BRANCH  17  18
HETATM   18  C22 UNL     1       6.268   6.519  12.027  1.00  0.00     0.164 C 
BRANCH  18  19
HETATM   19  O3  UNL     1       7.502   7.030  11.541  1.00  0.00    -0.401 OA
HETATM   20  H34 UNL     1       7.977   6.283  11.135  1.00  0.00     0.209 HD
ENDBRANCH  18  19
ENDBRANCH  17  18
ENDBRANCH  16  17
ENDBRANCH   6  16
BRANCH  12  21
HETATM   21  O5  UNL     1       1.694   9.750  12.469  1.00  0.00    -0.389 OA
HETATM   22  H46 UNL     1       1.223  10.538  12.140  1.00  0.00     0.210 HD
ENDBRANCH  12  21
BRANCH   1  23
HETATM   23  C14 UNL     1      -1.278   5.600  13.843  1.00  0.00     0.011 C 
HETATM   24  C12 UNL     1      -2.050   4.807  13.067  1.00  0.00    -0.063 C 
HETATM   25  C13 UNL     1      -1.519   3.960  11.939  1.00  0.00     0.048 C 
BRANCH  24  26
HETATM   26  C11 UNL     1      -3.498   4.804  13.301  1.00  0.00     0.006 C 
HETATM   27  C10 UNL     1      -4.183   5.655  14.084  1.00  0.00     0.001 C 
BRANCH  27  28
HETATM   28  C9  UNL     1      -5.618   5.569  14.261  1.00  0.00     0.002 C 
HETATM   29  C7  UNL     1      -6.512   6.573  14.153  1.00  0.00    -0.084 C 
HETATM   30  C8  UNL     1      -6.182   8.013  13.852  1.00  0.00     0.043 C 
BRANCH  29  31
HETATM   31  C6  UNL     1      -7.990   6.296  14.385  1.00  0.00     0.037 C 
BRANCH  31  32
HETATM   32  C5  UNL     1      -8.629   5.475  13.260  1.00  0.00     0.031 C 
BRANCH  32  33
HETATM   33  C4  UNL     1      -7.586   4.911  12.332  1.00  0.00    -0.024 C 
HETATM   34  C2  UNL     1      -7.135   3.643  12.278  1.00  0.00    -0.091 C 
HETATM   35  C1  UNL     1      -7.572   2.529  13.190  1.00  0.00     0.042 C 
HETATM   36  C3  UNL     1      -6.098   3.239  11.262  1.00  0.00     0.042 C 
ENDBRANCH  32  33
ENDBRANCH  31  32
ENDBRANCH  29  31
ENDBRANCH  27  28
ENDBRANCH  24  26
ENDBRANCH   1  23
BRANCH   8  37
HETATM   37  C26 UNL     1       3.845   4.824   9.974  1.00  0.00     0.265 C 
HETATM   38  O4  UNL     1       4.366   4.023   9.204  1.00  0.00    -0.302 OA
ENDBRANCH   8  37
TORSDOF 13
ENDMDL
MODEL 5
REMARK minimizedAffinity -7.94394493
REMARK  13 active torsions:
REMARK  status: ('A' for Active; 'I' for Inactive)
REMARK    1  A    between atoms: C4_4  and  C5_5 
REMARK    2  A    between atoms: C5_5  and  C6_6 
REMARK    3  A    between atoms: C6_6  and  C7_7 
REMARK    4  A    between atoms: C9_9  and  C10_10 
REMARK    5  A    between atoms: C11_11  and  C12_12 
REMARK    6  A    between atoms: C14_14  and  C15_15 
REMARK    7  A    between atoms: C18_18  and  O1_19 
REMARK    8  A    between atoms: C19_21  and  C20_22 
REMARK    9  A    between atoms: C20_22  and  C21_23 
REMARK   10  A    between atoms: C21_23  and  C22_24 
REMARK   11  A    between atoms: C22_24  and  O3_25 
REMARK   12  A    between atoms: C24_27  and  C26_29 
REMARK   13  A    between atoms: C29_33  and  O5_35 
ROOT
HETATM    1  C15 UNL     1      -1.641   9.473  15.224  1.00  0.00     0.149 C 
HETATM    2  C16 UNL     1      -0.795   8.948  14.054  1.00  0.00     0.054 C 
HETATM    3  C17 UNL     1      -1.102   7.427  13.945  1.00  0.00     0.050 C 
HETATM    4  C18 UNL     1      -2.423   7.375  14.726  1.00  0.00     0.270 C 
HETATM    5  O2  UNL     1      -2.287   8.326  15.779  1.00  0.00    -0.351 OA
HETATM    6  C19 UNL     1      -1.241   7.030  12.419  1.00  0.00     0.032 C 
HETATM    7  C23 UNL     1       0.138   7.159  11.741  1.00  0.00    -0.066 C 
HETATM    8  C24 UNL     1       0.426   7.948  10.674  1.00  0.00    -0.021 C 
HETATM    9  C25 UNL     1       1.812   8.102  10.104  1.00  0.00     0.052 C 
HETATM   10  C27 UNL     1       1.187   6.280  12.399  1.00  0.00     0.038 C 
HETATM   11  C28 UNL     1       1.351   6.610  13.877  1.00  0.00     0.042 C 
HETATM   12  C29 UNL     1       0.022   6.573  14.665  1.00  0.00     0.067 C 
HETATM   13  C30 UNL     1       0.334   6.951  16.123  1.00  0.00     0.047 C 
ENDROOT
BRANCH   4  14
HETATM   14  O1  UNL     1      -3.529   7.818  13.956  1.00  0.00    -0.370 OA
HETATM   15  H26 UNL     1      -4.290   7.710  14.553  1.00  0.00     0.212 HD
ENDBRANCH   4  14
BRANCH   6  16
HETATM   16  C20 UNL     1      -1.824   5.636  12.046  1.00  0.00     0.012 C 
BRANCH  16  17
HETATM   17  C21 UNL     1      -0.978   4.716  11.157  1.00  0.00     0.027 C 
BRANCH  17  18
HETATM   18  C22 UNL     1      -1.326   3.232  11.245  1.00  0.00     0.164 C 
BRANCH  18  19
HETATM   19  O3  UNL     1      -2.040   2.826  10.085  1.00  0.00    -0.401 OA
HETATM   20  H34 UNL     1      -2.177   1.865  10.160  1.00  0.00     0.209 HD
ENDBRANCH  18  19
ENDBRANCH  17  18
ENDBRANCH  16  17
ENDBRANCH   6  16
BRANCH  12  21
HETATM   21  O5  UNL     1      -0.418   5.206  14.719  1.00  0.00    -0.389 OA
HETATM   22  H46 UNL     1       0.275   4.674  15.150  1.00  0.00     0.210 HD
ENDBRANCH  12  21
BRANCH   1  23
HETATM   23  C14 UNL     1      -0.843  10.250  16.240  1.00  0.00     0.011 C 
HETATM   24  C12 UNL     1      -1.159  10.634  17.497  1.00  0.00    -0.063 C 
HETATM   25  C13 UNL     1      -2.512  10.422  18.126  1.00  0.00     0.048 C 
BRANCH  24  26
HETATM   26  C11 UNL     1      -0.142  11.341  18.283  1.00  0.00     0.006 C 
HETATM   27  C10 UNL     1      -0.022  11.338  19.622  1.00  0.00     0.001 C 
BRANCH  27  28
HETATM   28  C9  UNL     1       1.015  12.075  20.314  1.00  0.00     0.002 C 
HETATM   29  C7  UNL     1       2.062  11.562  20.992  1.00  0.00    -0.084 C 
HETATM   30  C8  UNL     1       2.345  10.095  21.190  1.00  0.00     0.043 C 
BRANCH  29  31
HETATM   31  C6  UNL     1       3.053  12.496  21.671  1.00  0.00     0.037 C 
BRANCH  31  32
HETATM   32  C5  UNL     1       3.560  11.959  23.013  1.00  0.00     0.031 C 
BRANCH  32  33
HETATM   33  C4  UNL     1       5.041  11.693  22.973  1.00  0.00    -0.024 C 
HETATM   34  C2  UNL     1       6.040  12.597  23.020  1.00  0.00    -0.091 C 
HETATM   35  C1  UNL     1       5.853  14.089  23.081  1.00  0.00     0.042 C 
HETATM   36  C3  UNL     1       7.479  12.154  22.997  1.00  0.00     0.042 C 
ENDBRANCH  32  33
ENDBRANCH  31  32
ENDBRANCH  29  31
ENDBRANCH  27  28
ENDBRANCH  24  26
ENDBRANCH   1  23
BRANCH   8  37
HETATM   37  C26 UNL     1      -0.630   8.730   9.958  1.00  0.00     0.265 C 
HETATM   38  O4  UNL     1      -0.526   9.078   8.786  1.00  0.00    -0.302 OA
ENDBRANCH   8  37
TORSDOF 13
ENDMDL
MODEL 6
REMARK minimizedAffinity -7.49926138
REMARK  13 active torsions:
REMARK  status: ('A' for Active; 'I' for Inactive)
REMARK    1  A    between atoms: C4_4  and  C5_5 
REMARK    2  A    between atoms: C5_5  and  C6_6 
REMARK    3  A    between atoms: C6_6  and  C7_7 
REMARK    4  A    between atoms: C9_9  and  C10_10 
REMARK    5  A    between atoms: C11_11  and  C12_12 
REMARK    6  A    between atoms: C14_14  and  C15_15 
REMARK    7  A    between atoms: C18_18  and  O1_19 
REMARK    8  A    between atoms: C19_21  and  C20_22 
REMARK    9  A    between atoms: C20_22  and  C21_23 
REMARK   10  A    between atoms: C21_23  and  C22_24 
REMARK   11  A    between atoms: C22_24  and  O3_25 
REMARK   12  A    between atoms: C24_27  and  C26_29 
REMARK   13  A    between atoms: C29_33  and  O5_35 
ROOT
HETATM    1  C15 UNL     1       0.292  11.190  15.720  1.00  0.00     0.149 C 
HETATM    2  C16 UNL     1      -0.161   9.769  15.349  1.00  0.00     0.054 C 
HETATM    3  C17 UNL     1      -1.705   9.839  15.170  1.00  0.00     0.050 C 
HETATM    4  C18 UNL     1      -1.872  11.354  14.979  1.00  0.00     0.270 C 
HETATM    5  O2  UNL     1      -0.906  11.960  15.833  1.00  0.00    -0.351 OA
HETATM    6  C19 UNL     1      -2.123   8.981  13.907  1.00  0.00     0.032 C 
HETATM    7  C23 UNL     1      -1.872   7.490  14.210  1.00  0.00    -0.066 C 
HETATM    8  C24 UNL     1      -1.066   6.661  13.497  1.00  0.00    -0.021 C 
HETATM    9  C25 UNL     1      -0.790   5.232  13.887  1.00  0.00     0.052 C 
HETATM   10  C27 UNL     1      -2.646   7.012  15.425  1.00  0.00     0.038 C 
HETATM   11  C28 UNL     1      -2.293   7.816  16.669  1.00  0.00     0.042 C 
HETATM   12  C29 UNL     1      -2.447   9.342  16.479  1.00  0.00     0.067 C 
HETATM   13  C30 UNL     1      -2.031  10.021  17.795  1.00  0.00     0.047 C 
ENDROOT
BRANCH   4  14
HETATM   14  O1  UNL     1      -1.538  11.778  13.667  1.00  0.00    -0.370 OA
HETATM   15  H26 UNL     1      -1.711  12.735  13.678  1.00  0.00     0.212 HD
ENDBRANCH   4  14
BRANCH   6  16
HETATM   16  C20 UNL     1      -3.566   9.113  13.342  1.00  0.00     0.012 C 
BRANCH  16  17
HETATM   17  C21 UNL     1      -4.360   7.827  13.084  1.00  0.00     0.027 C 
BRANCH  17  18
HETATM   18  C22 UNL     1      -5.755   7.792  13.702  1.00  0.00     0.164 C 
BRANCH  18  19
HETATM   19  O3  UNL     1      -5.953   8.930  14.530  1.00  0.00    -0.401 OA
HETATM   20  H34 UNL     1      -6.874   8.895  14.844  1.00  0.00     0.209 HD
ENDBRANCH  18  19
ENDBRANCH  17  18
ENDBRANCH  16  17
ENDBRANCH   6  16
BRANCH  12  21
HETATM   21  O5  UNL     1      -3.848   9.627  16.336  1.00  0.00    -0.389 OA
HETATM   22  H46 UNL     1      -4.311   9.312  17.133  1.00  0.00     0.210 HD
ENDBRANCH  12  21
BRANCH   1  23
HETATM   23  C14 UNL     1       1.146  11.242  16.962  1.00  0.00     0.011 C 
HETATM   24  C12 UNL     1       2.432  10.875  17.158  1.00  0.00    -0.063 C 
HETATM   25  C13 UNL     1       3.284  10.202  16.113  1.00  0.00     0.048 C 
BRANCH  24  26
HETATM   26  C11 UNL     1       3.025  11.101  18.481  1.00  0.00     0.006 C 
HETATM   27  C10 UNL     1       2.658  10.512  19.633  1.00  0.00     0.001 C 
BRANCH  27  28
HETATM   28  C9  UNL     1       3.300  10.804  20.898  1.00  0.00     0.002 C 
HETATM   29  C7  UNL     1       3.226  10.080  22.033  1.00  0.00    -0.084 C 
HETATM   30  C8  UNL     1       2.421   8.819  22.218  1.00  0.00     0.043 C 
BRANCH  29  31
HETATM   31  C6  UNL     1       3.965  10.550  23.278  1.00  0.00     0.037 C 
BRANCH  31  32
HETATM   32  C5  UNL     1       4.775  11.829  23.045  1.00  0.00     0.031 C 
BRANCH  32  33
HETATM   33  C4  UNL     1       6.255  11.550  23.051  1.00  0.00    -0.024 C 
HETATM   34  C2  UNL     1       7.260  12.447  23.084  1.00  0.00    -0.091 C 
HETATM   35  C1  UNL     1       7.085  13.942  23.076  1.00  0.00     0.042 C 
HETATM   36  C3  UNL     1       8.695  11.992  23.114  1.00  0.00     0.042 C 
ENDBRANCH  32  33
ENDBRANCH  31  32
ENDBRANCH  29  31
ENDBRANCH  27  28
ENDBRANCH  24  26
ENDBRANCH   1  23
BRANCH   8  37
HETATM   37  C26 UNL     1      -0.390   7.103  12.237  1.00  0.00     0.265 C 
HETATM   38  O4  UNL     1       0.815   6.976  12.045  1.00  0.00    -0.302 OA
ENDBRANCH   8  37
TORSDOF 13
ENDMDL
MODEL 7
REMARK minimizedAffinity -7.3181982
REMARK  13 active torsions:
REMARK  status: ('A' for Active; 'I' for Inactive)
REMARK    1  A    between atoms: C4_4  and  C5_5 
REMARK    2  A    between atoms: C5_5  and  C6_6 
REMARK    3  A    between atoms: C6_6  and  C7_7 
REMARK    4  A    between atoms: C9_9  and  C10_10 
REMARK    5  A    between atoms: C11_11  and  C12_12 
REMARK    6  A    between atoms: C14_14  and  C15_15 
REMARK    7  A    between atoms: C18_18  and  O1_19 
REMARK    8  A    between atoms: C19_21  and  C20_22 
REMARK    9  A    between atoms: C20_22  and  C21_23 
REMARK   10  A    between atoms: C21_23  and  C22_24 
REMARK   11  A    between atoms: C22_24  and  O3_25 
REMARK   12  A    between atoms: C24_27  and  C26_29 
REMARK   13  A    between atoms: C29_33  and  O5_35 
ROOT
HETATM    1  C15 UNL     1      -1.363   8.852  12.241  1.00  0.00     0.149 C 
HETATM    2  C16 UNL     1      -0.563   9.185  13.510  1.00  0.00     0.054 C 
HETATM    3  C17 UNL     1       0.704   8.283  13.473  1.00  0.00     0.050 C 
HETATM    4  C18 UNL     1       0.715   7.918  11.981  1.00  0.00     0.270 C 
HETATM    5  O2  UNL     1      -0.653   7.789  11.604  1.00  0.00    -0.351 OA
HETATM    6  C19 UNL     1       1.959   9.126  13.939  1.00  0.00     0.032 C 
HETATM    7  C23 UNL     1       1.810   9.460  15.437  1.00  0.00    -0.066 C 
HETATM    8  C24 UNL     1       1.788  10.708  15.973  1.00  0.00    -0.021 C 
HETATM    9  C25 UNL     1       1.553  10.979  17.436  1.00  0.00     0.052 C 
HETATM   10  C27 UNL     1       1.692   8.213  16.295  1.00  0.00     0.038 C 
HETATM   11  C28 UNL     1       0.506   7.353  15.878  1.00  0.00     0.042 C 
HETATM   12  C29 UNL     1       0.505   6.995  14.375  1.00  0.00     0.067 C 
HETATM   13  C30 UNL     1      -0.754   6.158  14.095  1.00  0.00     0.047 C 
ENDROOT
BRANCH   4  14
HETATM   14  O1  UNL     1       1.235   8.960  11.170  1.00  0.00    -0.370 OA
HETATM   15  H26 UNL     1       1.209   8.592  10.270  1.00  0.00     0.212 HD
ENDBRANCH   4  14
BRANCH   6  16
HETATM   16  C20 UNL     1       3.387   8.548  13.723  1.00  0.00     0.012 C 
BRANCH  16  17
HETATM   17  C21 UNL     1       4.482   8.937  14.724  1.00  0.00     0.027 C 
BRANCH  17  18
HETATM   18  C22 UNL     1       5.727   8.055  14.697  1.00  0.00     0.164 C 
BRANCH  18  19
HETATM   19  O3  UNL     1       6.258   7.916  16.008  1.00  0.00    -0.401 OA
HETATM   20  H34 UNL     1       7.005   7.295  15.947  1.00  0.00     0.209 HD
ENDBRANCH  18  19
ENDBRANCH  17  18
ENDBRANCH  16  17
ENDBRANCH   6  16
BRANCH  12  21
HETATM   21  O5  UNL     1       1.608   6.105  14.135  1.00  0.00    -0.389 OA
HETATM   22  H46 UNL     1       1.496   5.317  14.697  1.00  0.00     0.210 HD
ENDBRANCH  12  21
BRANCH   1  23
HETATM   23  C14 UNL     1      -2.808   8.517  12.514  1.00  0.00     0.011 C 
HETATM   24  C12 UNL     1      -3.600   8.836  13.561  1.00  0.00    -0.063 C 
HETATM   25  C13 UNL     1      -3.117   9.561  14.791  1.00  0.00     0.048 C 
BRANCH  24  26
HETATM   26  C11 UNL     1      -5.005   8.414  13.524  1.00  0.00     0.006 C 
HETATM   27  C10 UNL     1      -5.500   7.244  13.963  1.00  0.00     0.001 C 
BRANCH  27  28
HETATM   28  C9  UNL     1      -6.907   6.911  13.878  1.00  0.00     0.002 C 
HETATM   29  C7  UNL     1      -7.447   5.791  13.354  1.00  0.00    -0.084 C 
HETATM   30  C8  UNL     1      -6.679   4.663  12.715  1.00  0.00     0.043 C 
BRANCH  29  31
HETATM   31  C6  UNL     1      -8.959   5.617  13.342  1.00  0.00     0.037 C 
BRANCH  31  32
HETATM   32  C5  UNL     1      -9.710   6.884  13.762  1.00  0.00     0.031 C 
BRANCH  32  33
HETATM   33  C4  UNL     1     -11.201   6.701  13.650  1.00  0.00    -0.024 C 
HETATM   34  C2  UNL     1     -12.096   7.556  13.119  1.00  0.00    -0.091 C 
HETATM   35  C1  UNL     1     -11.768   8.915  12.561  1.00  0.00     0.042 C 
HETATM   36  C3  UNL     1     -13.558   7.201  13.061  1.00  0.00     0.042 C 
ENDBRANCH  32  33
ENDBRANCH  31  32
ENDBRANCH  29  31
ENDBRANCH  27  28
ENDBRANCH  24  26
ENDBRANCH   1  23
BRANCH   8  37
HETATM   37  C26 UNL     1       2.013  11.932  15.142  1.00  0.00     0.265 C 
HETATM   38  O4  UNL     1       1.476  13.009  15.379  1.00  0.00    -0.302 OA
ENDBRANCH   8  37
TORSDOF 13
ENDMDL
MODEL 8
REMARK minimizedAffinity -7.2320528
REMARK  13 active torsions:
REMARK  status: ('A' for Active; 'I' for Inactive)
REMARK    1  A    between atoms: C4_4  and  C5_5 
REMARK    2  A    between atoms: C5_5  and  C6_6 
REMARK    3  A    between atoms: C6_6  and  C7_7 
REMARK    4  A    between atoms: C9_9  and  C10_10 
REMARK    5  A    between atoms: C11_11  and  C12_12 
REMARK    6  A    between atoms: C14_14  and  C15_15 
REMARK    7  A    between atoms: C18_18  and  O1_19 
REMARK    8  A    between atoms: C19_21  and  C20_22 
REMARK    9  A    between atoms: C20_22  and  C21_23 
REMARK   10  A    between atoms: C21_23  and  C22_24 
REMARK   11  A    between atoms: C22_24  and  O3_25 
REMARK   12  A    between atoms: C24_27  and  C26_29 
REMARK   13  A    between atoms: C29_33  and  O5_35 
ROOT
HETATM    1  C15 UNL     1      -1.999   4.214  11.494  1.00  0.00     0.149 C 
HETATM    2  C16 UNL     1      -1.157   5.406  11.010  1.00  0.00     0.054 C 
HETATM    3  C17 UNL     1       0.214   5.291  11.736  1.00  0.00     0.050 C 
HETATM    4  C18 UNL     1       0.161   3.813  12.151  1.00  0.00     0.270 C 
HETATM    5  O2  UNL     1      -1.201   3.551  12.476  1.00  0.00    -0.351 OA
HETATM    6  C19 UNL     1       1.375   5.632  10.716  1.00  0.00     0.032 C 
HETATM    7  C23 UNL     1       1.296   7.128  10.349  1.00  0.00    -0.066 C 
HETATM    8  C24 UNL     1       1.145   7.630   9.097  1.00  0.00    -0.021 C 
HETATM    9  C25 UNL     1       0.988   9.099   8.804  1.00  0.00     0.052 C 
HETATM   10  C27 UNL     1       1.414   8.025  11.568  1.00  0.00     0.038 C 
HETATM   11  C28 UNL     1       0.327   7.729  12.593  1.00  0.00     0.042 C 
HETATM   12  C29 UNL     1       0.261   6.240  13.004  1.00  0.00     0.067 C 
HETATM   13  C30 UNL     1      -0.891   6.085  14.012  1.00  0.00     0.047 C 
ENDROOT
BRANCH   4  14
HETATM   14  O1  UNL     1       0.472   2.935  11.081  1.00  0.00    -0.370 OA
HETATM   15  H26 UNL     1       0.428   2.050  11.483  1.00  0.00     0.212 HD
ENDBRANCH   4  14
BRANCH   6  16
HETATM   16  C20 UNL     1       2.848   5.317  11.107  1.00  0.00     0.012 C 
BRANCH  16  17
HETATM   17  C21 UNL     1       3.967   5.963  10.280  1.00  0.00     0.027 C 
BRANCH  17  18
HETATM   18  C22 UNL     1       5.062   6.645  11.096  1.00  0.00     0.164 C 
BRANCH  18  19
HETATM   19  O3  UNL     1       6.302   6.578  10.404  1.00  0.00    -0.401 OA
HETATM   20  H34 UNL     1       6.948   7.082  10.931  1.00  0.00     0.209 HD
ENDBRANCH  18  19
ENDBRANCH  17  18
ENDBRANCH  16  17
ENDBRANCH   6  16
BRANCH  12  21
HETATM   21  O5  UNL     1       1.453   5.937  13.748  1.00  0.00    -0.389 OA
HETATM   22  H46 UNL     1       1.492   6.527  14.522  1.00  0.00     0.210 HD
ENDBRANCH  12  21
BRANCH   1  23
HETATM   23  C14 UNL     1      -3.360   4.611  12.008  1.00  0.00     0.011 C 
HETATM   24  C12 UNL     1      -4.503   3.897  12.106  1.00  0.00    -0.063 C 
HETATM   25  C13 UNL     1      -4.664   2.491  11.587  1.00  0.00     0.048 C 
BRANCH  24  26
HETATM   26  C11 UNL     1      -5.674   4.541  12.712  1.00  0.00     0.006 C 
HETATM   27  C10 UNL     1      -6.955   4.157  12.579  1.00  0.00     0.001 C 
BRANCH  27  28
HETATM   28  C9  UNL     1      -8.051   4.862  13.212  1.00  0.00     0.002 C 
HETATM   29  C7  UNL     1      -8.914   5.717  12.627  1.00  0.00    -0.084 C 
HETATM   30  C8  UNL     1      -8.887   6.137  11.180  1.00  0.00     0.043 C 
BRANCH  29  31
HETATM   31  C6  UNL     1     -10.004   6.376  13.459  1.00  0.00     0.037 C 
BRANCH  31  32
HETATM   32  C5  UNL     1      -9.535   6.756  14.867  1.00  0.00     0.031 C 
BRANCH  32  33
HETATM   33  C4  UNL     1      -8.355   7.691  14.818  1.00  0.00    -0.024 C 
HETATM   34  C2  UNL     1      -7.156   7.531  15.412  1.00  0.00    -0.091 C 
HETATM   35  C1  UNL     1      -6.776   6.375  16.296  1.00  0.00     0.042 C 
HETATM   36  C3  UNL     1      -6.069   8.559  15.236  1.00  0.00     0.042 C 
ENDBRANCH  32  33
ENDBRANCH  31  32
ENDBRANCH  29  31
ENDBRANCH  27  28
ENDBRANCH  24  26
ENDBRANCH   1  23
BRANCH   8  37
HETATM   37  C26 UNL     1       1.139   6.751   7.885  1.00  0.00     0.265 C 
HETATM   38  O4  UNL     1       2.146   6.516   7.224  1.00  0.00    -0.302 OA
ENDBRANCH   8  37
TORSDOF 13
ENDMDL
MODEL 9
REMARK minimizedAffinity -7.22953892
REMARK  13 active torsions:
REMARK  status: ('A' for Active; 'I' for Inactive)
REMARK    1  A    between atoms: C4_4  and  C5_5 
REMARK    2  A    between atoms: C5_5  and  C6_6 
REMARK    3  A    between atoms: C6_6  and  C7_7 
REMARK    4  A    between atoms: C9_9  and  C10_10 
REMARK    5  A    between atoms: C11_11  and  C12_12 
REMARK    6  A    between atoms: C14_14  and  C15_15 
REMARK    7  A    between atoms: C18_18  and  O1_19 
REMARK    8  A    between atoms: C19_21  and  C20_22 
REMARK    9  A    between atoms: C20_22  and  C21_23 
REMARK   10  A    between atoms: C21_23  and  C22_24 
REMARK   11  A    between atoms: C22_24  and  O3_25 
REMARK   12  A    between atoms: C24_27  and  C26_29 
REMARK   13  A    between atoms: C29_33  and  O5_35 
ROOT
HETATM    1  C15 UNL     1      -1.088   4.914  11.295  1.00  0.00     0.149 C 
HETATM    2  C16 UNL     1      -0.146   5.903  10.591  1.00  0.00     0.054 C 
HETATM    3  C17 UNL     1       1.225   5.788  11.319  1.00  0.00     0.050 C 
HETATM    4  C18 UNL     1       1.037   4.428  12.006  1.00  0.00     0.270 C 
HETATM    5  O2  UNL     1      -0.336   4.370  12.381  1.00  0.00    -0.351 OA
HETATM    6  C19 UNL     1       2.389   5.813  10.247  1.00  0.00     0.032 C 
HETATM    7  C23 UNL     1       2.448   7.214   9.605  1.00  0.00    -0.066 C 
HETATM    8  C24 UNL     1       2.318   7.485   8.281  1.00  0.00    -0.021 C 
HETATM    9  C25 UNL     1       2.298   8.882   7.717  1.00  0.00     0.052 C 
HETATM   10  C27 UNL     1       2.683   8.307  10.632  1.00  0.00     0.038 C 
HETATM   11  C28 UNL     1       1.597   8.319  11.700  1.00  0.00     0.042 C 
HETATM   12  C29 UNL     1       1.395   6.948  12.385  1.00  0.00     0.067 C 
HETATM   13  C30 UNL     1       0.258   7.102  13.409  1.00  0.00     0.047 C 
ENDROOT
BRANCH   4  14
HETATM   14  O1  UNL     1       1.235   3.338  11.119  1.00  0.00    -0.370 OA
HETATM   15  H26 UNL     1       1.113   2.553  11.680  1.00  0.00     0.212 HD
ENDBRANCH   4  14
BRANCH   6  16
HETATM   16  C20 UNL     1       3.833   5.430  10.682  1.00  0.00     0.012 C 
BRANCH  16  17
HETATM   17  C21 UNL     1       4.926   6.501  10.577  1.00  0.00     0.027 C 
BRANCH  17  18
HETATM   18  C22 UNL     1       5.939   6.507  11.718  1.00  0.00     0.164 C 
BRANCH  18  19
HETATM   19  O3  UNL     1       5.349   7.047  12.894  1.00  0.00    -0.401 OA
HETATM   20  H34 UNL     1       6.010   6.967  13.604  1.00  0.00     0.209 HD
ENDBRANCH  18  19
ENDBRANCH  17  18
ENDBRANCH  16  17
ENDBRANCH   6  16
BRANCH  12  21
HETATM   21  O5  UNL     1       2.569   6.671  13.166  1.00  0.00    -0.389 OA
HETATM   22  H46 UNL     1       2.685   7.388  13.815  1.00  0.00     0.210 HD
ENDBRANCH  12  21
BRANCH   1  23
HETATM   23  C14 UNL     1      -2.391   5.535  11.732  1.00  0.00     0.011 C 
HETATM   24  C12 UNL     1      -2.967   5.597  12.953  1.00  0.00    -0.063 C 
HETATM   25  C13 UNL     1      -2.415   4.917  14.180  1.00  0.00     0.048 C 
BRANCH  24  26
HETATM   26  C11 UNL     1      -4.230   6.331  13.089  1.00  0.00     0.006 C 
HETATM   27  C10 UNL     1      -4.787   6.760  14.234  1.00  0.00     0.001 C 
BRANCH  27  28
HETATM   28  C9  UNL     1      -6.046   7.474  14.271  1.00  0.00     0.002 C 
HETATM   29  C7  UNL     1      -7.000   7.392  15.222  1.00  0.00    -0.084 C 
HETATM   30  C8  UNL     1      -6.952   6.502  16.437  1.00  0.00     0.043 C 
BRANCH  29  31
HETATM   31  C6  UNL     1      -8.272   8.215  15.087  1.00  0.00     0.037 C 
BRANCH  31  32
HETATM   32  C5  UNL     1      -9.390   7.472  14.349  1.00  0.00     0.031 C 
BRANCH  32  33
HETATM   33  C4  UNL     1      -9.008   6.042  14.073  1.00  0.00    -0.024 C 
HETATM   34  C2  UNL     1      -8.785   5.468  12.874  1.00  0.00    -0.091 C 
HETATM   35  C1  UNL     1      -8.921   6.161  11.545  1.00  0.00     0.042 C 
HETATM   36  C3  UNL     1      -8.381   4.020  12.778  1.00  0.00     0.042 C 
ENDBRANCH  32  33
ENDBRANCH  31  32
ENDBRANCH  29  31
ENDBRANCH  27  28
ENDBRANCH  24  26
ENDBRANCH   1  23
BRANCH   8  37
HETATM   37  C26 UNL     1       2.196   6.401   7.257  1.00  0.00     0.265 C 
HETATM   38  O4  UNL     1       2.839   5.357   7.309  1.00  0.00    -0.302 OA
ENDBRANCH   8  37
TORSDOF 13
ENDMDL
