MODEL 1
REMARK minimizedAffinity -8.97139263
REMARK CNNscore 0.439552844
REMARK CNNaffinity 8.08712482
REMARK  14 active torsions:
REMARK  status: ('A' for Active; 'I' for Inactive)
REMARK    1  A    between atoms: C2_2  and  C3_3 
REMARK    2  A    between atoms: C4_4  and  C5_5 
REMARK    3  A    between atoms: C5_5  and  C6_6 
REMARK    4  A    between atoms: C6_6  and  O2_8 
REMARK    5  A    between atoms: C7_9  and  C8_10 
REMARK    6  A    between atoms: C8_10  and  O4_12 
REMARK    7  A    between atoms: C22_29  and  O8_30 
REMARK    8  A    between atoms: C28_36  and  C29_37 
REMARK    9  A    between atoms: C29_37  and  C31_39 
REMARK   10  A    between atoms: C37_46  and  C38_47 
REMARK   11  A    between atoms: C38_47  and  C39_48 
REMARK   12  A    between atoms: C39_48  and  C40_49 
REMARK   13  A    between atoms: C40_49  and  O9_50 
REMARK   14  A    between atoms: C42_53  and  O11_54 
ROOT
HETATM    1  C3  UNL     1      -7.666  46.724 -19.103  1.00  0.00     0.046 C 
HETATM    2  C4  UNL     1      -7.998  45.647 -17.980  1.00  0.00     0.044 C 
HETATM    3  C7  UNL     1      -7.513  46.032 -16.576  1.00  0.00     0.019 C 
HETATM    4  C10 UNL     1      -6.387  46.764 -16.409  1.00  0.00    -0.000 C 
HETATM    5  C11 UNL     1      -5.572  47.254 -17.623  1.00  0.00     0.012 C 
HETATM    6  C12 UNL     1      -4.582  48.366 -17.231  1.00  0.00     0.017 C 
HETATM    7  C13 UNL     1      -3.462  47.670 -16.471  1.00  0.00     0.002 C 
HETATM    8  C14 UNL     1      -3.407  46.243 -17.004  1.00  0.00     0.010 C 
HETATM    9  C15 UNL     1      -4.598  46.064 -17.982  1.00  0.00     0.025 C 
HETATM   10  C16 UNL     1      -4.221  45.841 -19.418  1.00  0.00     0.003 C 
HETATM   11  C17 UNL     1      -3.069  46.138 -20.030  1.00  0.00     0.131 C 
HETATM   12  O5  UNL     1      -2.901  45.933 -21.379  1.00  0.00    -0.361 OA
HETATM   13  C18 UNL     1      -2.813  47.189 -22.091  1.00  0.00     0.210 C 
HETATM   14  C19 UNL     1      -4.212  47.823 -22.220  1.00  0.00     0.191 C 
HETATM   15  O6  UNL     1      -4.656  48.154 -20.898  1.00  0.00    -0.347 OA
HETATM   16  C20 UNL     1      -5.987  48.616 -20.823  1.00  0.00     0.297 C 
HETATM   17  O7  UNL     1      -6.284  48.879 -19.467  1.00  0.00    -0.351 OA
HETATM   18  C21 UNL     1      -6.674  47.812 -18.587  1.00  0.00     0.146 C 
HETATM   19  C22 UNL     1      -6.123  49.925 -21.670  1.00  0.00     0.136 C 
HETATM   20  C23 UNL     1      -5.224  51.072 -21.158  1.00  0.00     0.050 C 
HETATM   21  C24 UNL     1      -3.718  50.813 -21.302  1.00  0.00     0.041 C 
HETATM   22  C25 UNL     1      -3.351  50.198 -22.632  1.00  0.00    -0.027 C 
HETATM   23  C26 UNL     1      -2.302  50.562 -23.377  1.00  0.00     0.001 A 
HETATM   24  C27 UNL     1      -1.249  51.532 -23.146  1.00  0.00     0.039 A 
HETATM   25  C28 UNL     1      -0.445  51.484 -24.231  1.00  0.00     0.014 A 
HETATM   26  N1  UNL     1      -0.926  50.545 -25.137  1.00  0.00    -0.357 N 
HETATM   27  C36 UNL     1      -2.076  49.959 -24.681  1.00  0.00     0.072 A 
HETATM   28  C37 UNL     1      -2.929  49.073 -25.200  1.00  0.00     0.075 C 
HETATM   29  O10 UNL     1      -4.042  48.632 -24.509  1.00  0.00    -0.332 OA
HETATM   30  C41 UNL     1      -4.269  49.075 -23.145  1.00  0.00     0.148 C 
HETATM   31  C42 UNL     1      -5.729  49.581 -23.116  1.00  0.00     0.199 C 
HETATM   32  H46 UNL     1      -0.556  50.422 -26.067  1.00  0.00     0.166 HD
ENDROOT
BRANCH  25  33
HETATM   33  C29 UNL     1       0.775  52.331 -24.479  1.00  0.00     0.035 C 
HETATM   34  C30 UNL     1       0.640  53.680 -23.764  1.00  0.00     0.017 C 
BRANCH  33  35
HETATM   35  C31 UNL     1       1.182  52.517 -25.958  1.00  0.00    -0.005 C 
HETATM   36  C32 UNL     1       2.147  51.467 -26.514  1.00  0.00     0.005 C 
HETATM   37  C33 UNL     1       2.166  51.766 -28.006  1.00  0.00     0.000 C 
HETATM   38  C34 UNL     1       0.790  52.340 -28.334  1.00  0.00     0.000 C 
HETATM   39  C35 UNL     1       0.061  52.503 -27.000  1.00  0.00     0.005 C 
ENDBRANCH  33  35
ENDBRANCH  25  33
BRANCH  28  40
HETATM   40  C38 UNL     1      -2.789  48.482 -26.577  1.00  0.00     0.069 C 
BRANCH  40  41
HETATM   41  C39 UNL     1      -3.842  49.063 -27.528  1.00  0.00     0.033 C 
BRANCH  41  42
HETATM   42  C40 UNL     1      -3.374  50.366 -28.157  1.00  0.00     0.164 C 
BRANCH  42  43
HETATM   43  O9  UNL     1      -3.753  50.414 -29.527  1.00  0.00    -0.401 OA
HETATM   44  H53 UNL     1      -3.216  49.755 -29.998  1.00  0.00     0.209 HD
ENDBRANCH  42  43
ENDBRANCH  41  42
ENDBRANCH  40  41
ENDBRANCH  28  40
BRANCH  31  45
HETATM   45  O11 UNL     1      -5.935  50.731 -23.966  1.00  0.00    -0.389 OA
HETATM   46  H55 UNL     1      -5.351  50.606 -24.741  1.00  0.00     0.210 HD
ENDBRANCH  31  45
BRANCH  19  47
HETATM   47  O8  UNL     1      -7.483  50.388 -21.683  1.00  0.00    -0.382 OA
HETATM   48  H27 UNL     1      -7.531  51.025 -22.427  1.00  0.00     0.210 HD
ENDBRANCH  19  47
BRANCH   1  49
HETATM   49  C2  UNL     1      -8.891  47.398 -19.704  1.00  0.00    -0.029 C 
HETATM   50  C1  UNL     1      -9.422  48.548 -19.278  1.00  0.00     0.007 C 
ENDBRANCH   1  49
BRANCH   2  51
HETATM   51  C5  UNL     1      -9.405  45.014 -18.121  1.00  0.00     0.120 C 
BRANCH  51  52
HETATM   52  C6  UNL     1     -10.507  45.511 -17.222  1.00  0.00     0.140 C 
HETATM   53  O1  UNL     1     -10.902  46.665 -17.166  1.00  0.00    -0.650 OA
BRANCH  52  54
HETATM   54  O2  UNL     1     -11.092  44.572 -16.462  1.00  0.00    -0.776 OA
HETATM   55  H8  UNL     1     -11.785  45.066 -15.976  1.00  0.00     0.167 HD
ENDBRANCH  52  54
ENDBRANCH  51  52
ENDBRANCH   2  51
BRANCH   3  56
HETATM   56  C8  UNL     1      -8.205  45.507 -15.368  1.00  0.00     0.289 C 
HETATM   57  O3  UNL     1      -8.307  44.317 -15.111  1.00  0.00    -0.260 OA
BRANCH  56  58
HETATM   58  O4  UNL     1      -8.720  46.525 -14.633  1.00  0.00    -0.323 OA
HETATM   59  C9  UNL     1      -9.580  46.121 -13.569  1.00  0.00     0.213 C 
ENDBRANCH  56  58
ENDBRANCH   3  56
TORSDOF 14
ENDMDL
MODEL 2
REMARK minimizedAffinity -8.63457203
REMARK CNNscore 0.405157417
REMARK CNNaffinity 7.9561882
REMARK  14 active torsions:
REMARK  status: ('A' for Active; 'I' for Inactive)
REMARK    1  A    between atoms: C2_2  and  C3_3 
REMARK    2  A    between atoms: C4_4  and  C5_5 
REMARK    3  A    between atoms: C5_5  and  C6_6 
REMARK    4  A    between atoms: C6_6  and  O2_8 
REMARK    5  A    between atoms: C7_9  and  C8_10 
REMARK    6  A    between atoms: C8_10  and  O4_12 
REMARK    7  A    between atoms: C22_29  and  O8_30 
REMARK    8  A    between atoms: C28_36  and  C29_37 
REMARK    9  A    between atoms: C29_37  and  C31_39 
REMARK   10  A    between atoms: C37_46  and  C38_47 
REMARK   11  A    between atoms: C38_47  and  C39_48 
REMARK   12  A    between atoms: C39_48  and  C40_49 
REMARK   13  A    between atoms: C40_49  and  O9_50 
REMARK   14  A    between atoms: C42_53  and  O11_54 
ROOT
HETATM    1  C3  UNL     1      -6.650  46.295 -16.868  1.00  0.00     0.046 C 
HETATM    2  C4  UNL     1      -8.043  46.078 -16.130  1.00  0.00     0.044 C 
HETATM    3  C7  UNL     1      -9.069  45.278 -16.943  1.00  0.00     0.019 C 
HETATM    4  C10 UNL     1      -9.098  45.361 -18.293  1.00  0.00    -0.000 C 
HETATM    5  C11 UNL     1      -8.088  46.240 -19.056  1.00  0.00     0.012 C 
HETATM    6  C12 UNL     1      -8.049  45.891 -20.555  1.00  0.00     0.017 C 
HETATM    7  C13 UNL     1      -9.333  46.459 -21.143  1.00  0.00     0.002 C 
HETATM    8  C14 UNL     1      -9.714  47.647 -20.268  1.00  0.00     0.010 C 
HETATM    9  C15 UNL     1      -8.721  47.687 -19.077  1.00  0.00     0.025 C 
HETATM   10  C16 UNL     1      -7.811  48.881 -19.040  1.00  0.00     0.003 C 
HETATM   11  C17 UNL     1      -7.473  49.699 -20.042  1.00  0.00     0.131 C 
HETATM   12  O5  UNL     1      -6.565  50.716 -19.863  1.00  0.00    -0.361 OA
HETATM   13  C18 UNL     1      -5.334  50.448 -20.572  1.00  0.00     0.210 C 
HETATM   14  C19 UNL     1      -4.507  49.389 -19.815  1.00  0.00     0.191 C 
HETATM   15  O6  UNL     1      -5.250  48.163 -19.847  1.00  0.00    -0.347 OA
HETATM   16  C20 UNL     1      -4.697  47.122 -19.074  1.00  0.00     0.297 C 
HETATM   17  O7  UNL     1      -5.544  45.995 -19.186  1.00  0.00    -0.351 OA
HETATM   18  C21 UNL     1      -6.723  45.887 -18.373  1.00  0.00     0.146 C 
HETATM   19  C22 UNL     1      -3.270  46.781 -19.617  1.00  0.00     0.136 C 
HETATM   20  C23 UNL     1      -3.282  46.289 -21.081  1.00  0.00     0.050 C 
HETATM   21  C24 UNL     1      -3.715  47.349 -22.104  1.00  0.00     0.041 C 
HETATM   22  C25 UNL     1      -3.102  48.705 -21.843  1.00  0.00    -0.027 C 
HETATM   23  C26 UNL     1      -2.593  49.506 -22.784  1.00  0.00     0.001 A 
HETATM   24  C27 UNL     1      -2.523  49.371 -24.227  1.00  0.00     0.039 A 
HETATM   25  C28 UNL     1      -1.908  50.485 -24.682  1.00  0.00     0.014 A 
HETATM   26  N1  UNL     1      -1.582  51.317 -23.616  1.00  0.00    -0.357 N 
HETATM   27  C36 UNL     1      -1.957  50.763 -22.422  1.00  0.00     0.072 A 
HETATM   28  C37 UNL     1      -1.807  51.129 -21.147  1.00  0.00     0.075 C 
HETATM   29  O10 UNL     1      -2.299  50.371 -20.101  1.00  0.00    -0.332 OA
HETATM   30  C41 UNL     1      -3.071  49.172 -20.378  1.00  0.00     0.148 C 
HETATM   31  C42 UNL     1      -2.424  48.061 -19.520  1.00  0.00     0.199 C 
HETATM   32  H46 UNL     1      -1.014  52.145 -23.705  1.00  0.00     0.166 HD
ENDROOT
BRANCH  25  33
HETATM   33  C29 UNL     1      -1.571  50.799 -26.116  1.00  0.00     0.035 C 
HETATM   34  C30 UNL     1      -2.352  49.876 -27.059  1.00  0.00     0.017 C 
BRANCH  33  35
HETATM   35  C31 UNL     1      -0.067  50.822 -26.470  1.00  0.00    -0.005 C 
HETATM   36  C32 UNL     1       0.286  51.476 -27.809  1.00  0.00     0.005 C 
HETATM   37  C33 UNL     1       1.804  51.565 -27.764  1.00  0.00     0.000 C 
HETATM   38  C34 UNL     1       2.170  51.712 -26.289  1.00  0.00     0.000 C 
HETATM   39  C35 UNL     1       0.869  51.550 -25.503  1.00  0.00     0.005 C 
ENDBRANCH  33  35
ENDBRANCH  25  33
BRANCH  28  40
HETATM   40  C38 UNL     1      -1.084  52.375 -20.712  1.00  0.00     0.069 C 
BRANCH  40  41
HETATM   41  C39 UNL     1       0.434  52.181 -20.802  1.00  0.00     0.033 C 
BRANCH  41  42
HETATM   42  C40 UNL     1       1.184  53.226 -19.990  1.00  0.00     0.164 C 
BRANCH  42  43
HETATM   43  O9  UNL     1       1.569  54.312 -20.824  1.00  0.00    -0.401 OA
HETATM   44  H53 UNL     1       2.259  53.985 -21.424  1.00  0.00     0.209 HD
ENDBRANCH  42  43
ENDBRANCH  41  42
ENDBRANCH  40  41
ENDBRANCH  28  40
BRANCH  31  45
HETATM   45  O11 UNL     1      -1.062  47.779 -19.914  1.00  0.00    -0.389 OA
HETATM   46  H55 UNL     1      -0.675  48.633 -20.193  1.00  0.00     0.210 HD
ENDBRANCH  31  45
BRANCH  19  47
HETATM   47  O8  UNL     1      -2.640  45.775 -18.807  1.00  0.00    -0.382 OA
HETATM   48  H27 UNL     1      -1.687  45.817 -19.039  1.00  0.00     0.210 HD
ENDBRANCH  19  47
BRANCH   1  49
HETATM   49  C2  UNL     1      -5.476  45.589 -16.207  1.00  0.00    -0.029 C 
HETATM   50  C1  UNL     1      -4.387  46.196 -15.722  1.00  0.00     0.007 C 
ENDBRANCH   1  49
BRANCH   2  51
HETATM   51  C5  UNL     1      -7.904  45.769 -14.618  1.00  0.00     0.120 C 
BRANCH  51  52
HETATM   52  C6  UNL     1      -8.594  46.679 -13.635  1.00  0.00     0.140 C 
HETATM   53  O1  UNL     1      -8.252  46.850 -12.476  1.00  0.00    -0.650 OA
BRANCH  52  54
HETATM   54  O2  UNL     1      -9.643  47.358 -14.125  1.00  0.00    -0.776 OA
HETATM   55  H8  UNL     1      -9.939  47.905 -13.367  1.00  0.00     0.167 HD
ENDBRANCH  52  54
ENDBRANCH  51  52
ENDBRANCH   2  51
BRANCH   3  56
HETATM   56  C8  UNL     1     -10.127  44.490 -16.256  1.00  0.00     0.289 C 
HETATM   57  O3  UNL     1     -10.135  43.270 -16.203  1.00  0.00    -0.260 OA
BRANCH  56  58
HETATM   58  O4  UNL     1     -11.075  45.314 -15.740  1.00  0.00    -0.323 OA
HETATM   59  C9  UNL     1     -12.202  45.533 -16.586  1.00  0.00     0.213 C 
ENDBRANCH  56  58
ENDBRANCH   3  56
TORSDOF 14
ENDMDL
MODEL 3
REMARK minimizedAffinity -8.732728
REMARK CNNscore 0.331138581
REMARK CNNaffinity 7.82883978
REMARK  14 active torsions:
REMARK  status: ('A' for Active; 'I' for Inactive)
REMARK    1  A    between atoms: C2_2  and  C3_3 
REMARK    2  A    between atoms: C4_4  and  C5_5 
REMARK    3  A    between atoms: C5_5  and  C6_6 
REMARK    4  A    between atoms: C6_6  and  O2_8 
REMARK    5  A    between atoms: C7_9  and  C8_10 
REMARK    6  A    between atoms: C8_10  and  O4_12 
REMARK    7  A    between atoms: C22_29  and  O8_30 
REMARK    8  A    between atoms: C28_36  and  C29_37 
REMARK    9  A    between atoms: C29_37  and  C31_39 
REMARK   10  A    between atoms: C37_46  and  C38_47 
REMARK   11  A    between atoms: C38_47  and  C39_48 
REMARK   12  A    between atoms: C39_48  and  C40_49 
REMARK   13  A    between atoms: C40_49  and  O9_50 
REMARK   14  A    between atoms: C42_53  and  O11_54 
ROOT
HETATM    1  C3  UNL     1      -6.800  46.125 -18.880  1.00  0.00     0.046 C 
HETATM    2  C4  UNL     1      -8.340  45.744 -18.762  1.00  0.00     0.044 C 
HETATM    3  C7  UNL     1      -8.943  45.151 -20.042  1.00  0.00     0.019 C 
HETATM    4  C10 UNL     1      -8.500  45.540 -21.260  1.00  0.00    -0.000 C 
HETATM    5  C11 UNL     1      -7.363  46.572 -21.398  1.00  0.00     0.012 C 
HETATM    6  C12 UNL     1      -6.768  46.575 -22.818  1.00  0.00     0.017 C 
HETATM    7  C13 UNL     1      -7.804  47.261 -23.697  1.00  0.00     0.002 C 
HETATM    8  C14 UNL     1      -8.567  48.217 -22.788  1.00  0.00     0.010 C 
HETATM    9  C15 UNL     1      -8.067  47.984 -21.339  1.00  0.00     0.025 C 
HETATM   10  C16 UNL     1      -7.331  49.138 -20.721  1.00  0.00     0.003 C 
HETATM   11  C17 UNL     1      -6.730  50.164 -21.333  1.00  0.00     0.131 C 
HETATM   12  O5  UNL     1      -6.033  51.114 -20.625  1.00  0.00    -0.361 OA
HETATM   13  C18 UNL     1      -4.613  51.016 -20.878  1.00  0.00     0.210 C 
HETATM   14  C19 UNL     1      -4.021  49.813 -20.117  1.00  0.00     0.191 C 
HETATM   15  O6  UNL     1      -4.600  48.626 -20.677  1.00  0.00    -0.347 OA
HETATM   16  C20 UNL     1      -4.270  47.436 -19.996  1.00  0.00     0.297 C 
HETATM   17  O7  UNL     1      -4.925  46.364 -20.645  1.00  0.00    -0.351 OA
HETATM   18  C21 UNL     1      -6.303  46.072 -20.358  1.00  0.00     0.146 C 
HETATM   19  C22 UNL     1      -2.721  47.230 -20.043  1.00  0.00     0.136 C 
HETATM   20  C23 UNL     1      -2.173  47.086 -21.481  1.00  0.00     0.050 C 
HETATM   21  C24 UNL     1      -2.304  48.351 -22.340  1.00  0.00     0.041 C 
HETATM   22  C25 UNL     1      -1.939  49.612 -21.592  1.00  0.00    -0.027 C 
HETATM   23  C26 UNL     1      -1.199  50.607 -22.091  1.00  0.00     0.001 A 
HETATM   24  C27 UNL     1      -0.613  50.806 -23.403  1.00  0.00     0.039 A 
HETATM   25  C28 UNL     1       0.028  51.994 -23.356  1.00  0.00     0.014 A 
HETATM   26  N1  UNL     1      -0.115  52.560 -22.093  1.00  0.00    -0.357 N 
HETATM   27  C36 UNL     1      -0.839  51.749 -21.264  1.00  0.00     0.072 A 
HETATM   28  C37 UNL     1      -1.181  51.813 -19.975  1.00  0.00     0.075 C 
HETATM   29  O10 UNL     1      -1.945  50.835 -19.366  1.00  0.00    -0.332 OA
HETATM   30  C41 UNL     1      -2.466  49.731 -20.152  1.00  0.00     0.148 C 
HETATM   31  C42 UNL     1      -2.073  48.454 -19.376  1.00  0.00     0.199 C 
HETATM   32  H46 UNL     1       0.377  53.388 -21.791  1.00  0.00     0.166 HD
ENDROOT
BRANCH  25  33
HETATM   33  C29 UNL     1       0.821  52.628 -24.468  1.00  0.00     0.035 C 
HETATM   34  C30 UNL     1       0.560  54.138 -24.513  1.00  0.00     0.017 C 
BRANCH  33  35
HETATM   35  C31 UNL     1       0.661  51.988 -25.865  1.00  0.00    -0.005 C 
HETATM   36  C32 UNL     1      -0.168  52.793 -26.869  1.00  0.00     0.005 C 
HETATM   37  C33 UNL     1       0.053  52.051 -28.178  1.00  0.00     0.000 C 
HETATM   38  C34 UNL     1       1.448  51.438 -28.081  1.00  0.00     0.000 C 
HETATM   39  C35 UNL     1       1.939  51.709 -26.659  1.00  0.00     0.005 C 
ENDBRANCH  33  35
ENDBRANCH  25  33
BRANCH  28  40
HETATM   40  C38 UNL     1      -0.764  52.927 -19.053  1.00  0.00     0.069 C 
BRANCH  40  41
HETATM   41  C39 UNL     1       0.710  52.784 -18.659  1.00  0.00     0.033 C 
BRANCH  41  42
HETATM   42  C40 UNL     1       0.866  52.218 -17.256  1.00  0.00     0.164 C 
BRANCH  42  43
HETATM   43  O9  UNL     1       1.407  53.204 -16.386  1.00  0.00    -0.401 OA
HETATM   44  H53 UNL     1       2.330  53.349 -16.652  1.00  0.00     0.209 HD
ENDBRANCH  42  43
ENDBRANCH  41  42
ENDBRANCH  40  41
ENDBRANCH  28  40
BRANCH  31  45
HETATM   45  O11 UNL     1      -0.642  48.270 -19.299  1.00  0.00    -0.389 OA
HETATM   46  H55 UNL     1      -0.254  49.165 -19.230  1.00  0.00     0.210 HD
ENDBRANCH  31  45
BRANCH  19  47
HETATM   47  O8  UNL     1      -2.335  46.065 -19.295  1.00  0.00    -0.382 OA
HETATM   48  H27 UNL     1      -1.369  46.160 -19.150  1.00  0.00     0.210 HD
ENDBRANCH  19  47
BRANCH   1  49
HETATM   49  C2  UNL     1      -5.880  45.287 -18.004  1.00  0.00    -0.029 C 
HETATM   50  C1  UNL     1      -5.419  44.072 -18.316  1.00  0.00     0.007 C 
ENDBRANCH   1  49
BRANCH   2  51
HETATM   51  C5  UNL     1      -8.719  45.097 -17.405  1.00  0.00     0.120 C 
BRANCH  51  52
HETATM   52  C6  UNL     1      -9.309  45.976 -16.334  1.00  0.00     0.140 C 
HETATM   53  O1  UNL     1     -10.374  45.778 -15.769  1.00  0.00    -0.650 OA
BRANCH  52  54
HETATM   54  O2  UNL     1      -8.558  47.032 -15.982  1.00  0.00    -0.776 OA
HETATM   55  H8  UNL     1      -9.079  47.461 -15.272  1.00  0.00     0.167 HD
ENDBRANCH  52  54
ENDBRANCH  51  52
ENDBRANCH   2  51
BRANCH   3  56
HETATM   56  C8  UNL     1     -10.106  44.226 -19.970  1.00  0.00     0.289 C 
HETATM   57  O3  UNL     1     -10.062  43.057 -20.320  1.00  0.00    -0.260 OA
BRANCH  56  58
HETATM   58  O4  UNL     1     -11.201  44.874 -19.500  1.00  0.00    -0.323 OA
HETATM   59  C9  UNL     1     -11.765  45.827 -20.400  1.00  0.00     0.213 C 
ENDBRANCH  56  58
ENDBRANCH   3  56
TORSDOF 14
ENDMDL
MODEL 4
REMARK minimizedAffinity -7.33185625
REMARK CNNscore 0.241393641
REMARK CNNaffinity 7.08509064
REMARK  14 active torsions:
REMARK  status: ('A' for Active; 'I' for Inactive)
REMARK    1  A    between atoms: C2_2  and  C3_3 
REMARK    2  A    between atoms: C4_4  and  C5_5 
REMARK    3  A    between atoms: C5_5  and  C6_6 
REMARK    4  A    between atoms: C6_6  and  O2_8 
REMARK    5  A    between atoms: C7_9  and  C8_10 
REMARK    6  A    between atoms: C8_10  and  O4_12 
REMARK    7  A    between atoms: C22_29  and  O8_30 
REMARK    8  A    between atoms: C28_36  and  C29_37 
REMARK    9  A    between atoms: C29_37  and  C31_39 
REMARK   10  A    between atoms: C37_46  and  C38_47 
REMARK   11  A    between atoms: C38_47  and  C39_48 
REMARK   12  A    between atoms: C39_48  and  C40_49 
REMARK   13  A    between atoms: C40_49  and  O9_50 
REMARK   14  A    between atoms: C42_53  and  O11_54 
ROOT
HETATM    1  C3  UNL     1      -4.200  50.132 -23.404  1.00  0.00     0.046 C 
HETATM    2  C4  UNL     1      -3.158  51.267 -23.804  1.00  0.00     0.044 C 
HETATM    3  C7  UNL     1      -1.702  50.791 -23.869  1.00  0.00     0.019 C 
HETATM    4  C10 UNL     1      -1.256  49.813 -23.047  1.00  0.00    -0.000 C 
HETATM    5  C11 UNL     1      -2.202  49.132 -22.038  1.00  0.00     0.012 C 
HETATM    6  C12 UNL     1      -1.607  47.819 -21.496  1.00  0.00     0.017 C 
HETATM    7  C13 UNL     1      -0.506  48.235 -20.530  1.00  0.00     0.002 C 
HETATM    8  C14 UNL     1      -0.907  49.603 -19.990  1.00  0.00     0.010 C 
HETATM    9  C15 UNL     1      -2.181  50.052 -20.754  1.00  0.00     0.025 C 
HETATM   10  C16 UNL     1      -3.423  50.165 -19.919  1.00  0.00     0.003 C 
HETATM   11  C17 UNL     1      -3.684  49.597 -18.737  1.00  0.00     0.131 C 
HETATM   12  O5  UNL     1      -4.907  49.743 -18.125  1.00  0.00    -0.361 OA
HETATM   13  C18 UNL     1      -5.639  48.496 -18.117  1.00  0.00     0.210 C 
HETATM   14  C19 UNL     1      -6.217  48.213 -19.518  1.00  0.00     0.191 C 
HETATM   15  O6  UNL     1      -5.109  48.009 -20.406  1.00  0.00    -0.347 OA
HETATM   16  C20 UNL     1      -5.462  47.878 -21.765  1.00  0.00     0.297 C 
HETATM   17  O7  UNL     1      -4.274  47.706 -22.512  1.00  0.00    -0.351 OA
HETATM   18  C21 UNL     1      -3.483  48.843 -22.893  1.00  0.00     0.146 C 
HETATM   19  C22 UNL     1      -6.393  46.632 -21.935  1.00  0.00     0.136 C 
HETATM   20  C23 UNL     1      -5.712  45.309 -21.523  1.00  0.00     0.050 C 
HETATM   21  C24 UNL     1      -5.386  45.200 -20.027  1.00  0.00     0.041 C 
HETATM   22  C25 UNL     1      -6.506  45.697 -19.143  1.00  0.00    -0.027 C 
HETATM   23  C26 UNL     1      -6.929  45.087 -18.031  1.00  0.00     0.001 A 
HETATM   24  C27 UNL     1      -6.458  43.896 -17.350  1.00  0.00     0.039 A 
HETATM   25  C28 UNL     1      -7.251  43.741 -16.266  1.00  0.00     0.014 A 
HETATM   26  N1  UNL     1      -8.197  44.760 -16.221  1.00  0.00    -0.357 N 
HETATM   27  C36 UNL     1      -8.066  45.607 -17.288  1.00  0.00     0.072 A 
HETATM   28  C37 UNL     1      -8.757  46.666 -17.717  1.00  0.00     0.075 C 
HETATM   29  O10 UNL     1      -8.400  47.366 -18.854  1.00  0.00    -0.332 OA
HETATM   30  C41 UNL     1      -7.195  47.002 -19.578  1.00  0.00     0.148 C 
HETATM   31  C42 UNL     1      -7.632  46.859 -21.054  1.00  0.00     0.199 C 
HETATM   32  H46 UNL     1      -8.966  44.782 -15.569  1.00  0.00     0.166 HD
ENDROOT
BRANCH  25  33
HETATM   33  C29 UNL     1      -7.180  42.626 -15.258  1.00  0.00     0.035 C 
HETATM   34  C30 UNL     1      -8.586  42.262 -14.768  1.00  0.00     0.017 C 
BRANCH  33  35
HETATM   35  C31 UNL     1      -6.211  42.843 -14.073  1.00  0.00    -0.005 C 
HETATM   36  C32 UNL     1      -4.722  42.717 -14.407  1.00  0.00     0.005 C 
HETATM   37  C33 UNL     1      -4.038  43.210 -13.141  1.00  0.00     0.000 C 
HETATM   38  C34 UNL     1      -4.987  44.235 -12.525  1.00  0.00     0.000 C 
HETATM   39  C35 UNL     1      -6.265  44.198 -13.365  1.00  0.00     0.005 C 
ENDBRANCH  33  35
ENDBRANCH  25  33
BRANCH  28  40
HETATM   40  C38 UNL     1      -9.989  47.194 -17.034  1.00  0.00     0.069 C 
BRANCH  40  41
HETATM   41  C39 UNL     1     -11.188  47.179 -17.990  1.00  0.00     0.033 C 
BRANCH  41  42
HETATM   42  C40 UNL     1     -12.427  46.595 -17.330  1.00  0.00     0.164 C 
BRANCH  42  43
HETATM   43  O9  UNL     1     -13.217  47.632 -16.762  1.00  0.00    -0.401 OA
HETATM   44  H53 UNL     1     -12.727  47.985 -16.002  1.00  0.00     0.209 HD
ENDBRANCH  42  43
ENDBRANCH  41  42
ENDBRANCH  40  41
ENDBRANCH  28  40
BRANCH  31  45
HETATM   45  O11 UNL     1      -8.577  45.784 -21.251  1.00  0.00    -0.389 OA
HETATM   46  H55 UNL     1      -9.135  45.759 -20.448  1.00  0.00     0.210 HD
ENDBRANCH  31  45
BRANCH  19  47
HETATM   47  O8  UNL     1      -6.838  46.507 -23.296  1.00  0.00    -0.382 OA
HETATM   48  H27 UNL     1      -7.602  45.893 -23.262  1.00  0.00     0.210 HD
ENDBRANCH  19  47
BRANCH   1  49
HETATM   49  C2  UNL     1      -5.178  49.764 -24.510  1.00  0.00    -0.029 C 
HETATM   50  C1  UNL     1      -5.034  48.737 -25.353  1.00  0.00     0.007 C 
ENDBRANCH   1  49
BRANCH   2  51
HETATM   51  C5  UNL     1      -3.670  52.216 -24.917  1.00  0.00     0.120 C 
BRANCH  51  52
HETATM   52  C6  UNL     1      -3.135  52.034 -26.314  1.00  0.00     0.140 C 
HETATM   53  O1  UNL     1      -3.340  51.061 -27.023  1.00  0.00    -0.650 OA
BRANCH  52  54
HETATM   54  O2  UNL     1      -2.408  53.058 -26.786  1.00  0.00    -0.776 OA
HETATM   55  H8  UNL     1      -2.174  52.777 -27.695  1.00  0.00     0.167 HD
ENDBRANCH  52  54
ENDBRANCH  51  52
ENDBRANCH   2  51
BRANCH   3  56
HETATM   56  C8  UNL     1      -0.722  51.477 -24.754  1.00  0.00     0.289 C 
HETATM   57  O3  UNL     1      -0.318  52.613 -24.562  1.00  0.00    -0.260 OA
BRANCH  56  58
HETATM   58  O4  UNL     1      -0.382  50.678 -25.797  1.00  0.00    -0.323 OA
HETATM   59  C9  UNL     1       0.715  51.148 -26.579  1.00  0.00     0.213 C 
ENDBRANCH  56  58
ENDBRANCH   3  56
TORSDOF 14
ENDMDL
MODEL 5
REMARK minimizedAffinity -8.16555214
REMARK CNNscore 0.240578428
REMARK CNNaffinity 6.86904335
REMARK  14 active torsions:
REMARK  status: ('A' for Active; 'I' for Inactive)
REMARK    1  A    between atoms: C2_2  and  C3_3 
REMARK    2  A    between atoms: C4_4  and  C5_5 
REMARK    3  A    between atoms: C5_5  and  C6_6 
REMARK    4  A    between atoms: C6_6  and  O2_8 
REMARK    5  A    between atoms: C7_9  and  C8_10 
REMARK    6  A    between atoms: C8_10  and  O4_12 
REMARK    7  A    between atoms: C22_29  and  O8_30 
REMARK    8  A    between atoms: C28_36  and  C29_37 
REMARK    9  A    between atoms: C29_37  and  C31_39 
REMARK   10  A    between atoms: C37_46  and  C38_47 
REMARK   11  A    between atoms: C38_47  and  C39_48 
REMARK   12  A    between atoms: C39_48  and  C40_49 
REMARK   13  A    between atoms: C40_49  and  O9_50 
REMARK   14  A    between atoms: C42_53  and  O11_54 
ROOT
HETATM    1  C3  UNL     1      -7.633  46.610 -30.322  1.00  0.00     0.046 C 
HETATM    2  C4  UNL     1      -7.245  45.777 -31.621  1.00  0.00     0.044 C 
HETATM    3  C7  UNL     1      -8.441  45.161 -32.357  1.00  0.00     0.019 C 
HETATM    4  C10 UNL     1      -9.538  44.756 -31.675  1.00  0.00    -0.000 C 
HETATM    5  C11 UNL     1      -9.628  44.923 -30.145  1.00  0.00     0.012 C 
HETATM    6  C12 UNL     1     -11.074  44.763 -29.640  1.00  0.00     0.017 C 
HETATM    7  C13 UNL     1     -11.376  43.273 -29.724  1.00  0.00     0.002 C 
HETATM    8  C14 UNL     1     -10.039  42.558 -29.572  1.00  0.00     0.010 C 
HETATM    9  C15 UNL     1      -8.930  43.641 -29.541  1.00  0.00     0.025 C 
HETATM   10  C16 UNL     1      -8.187  43.762 -28.242  1.00  0.00     0.003 C 
HETATM   11  C17 UNL     1      -8.568  43.355 -27.026  1.00  0.00     0.131 C 
HETATM   12  O5  UNL     1      -7.799  43.602 -25.913  1.00  0.00    -0.361 OA
HETATM   13  C18 UNL     1      -8.435  44.566 -25.042  1.00  0.00     0.210 C 
HETATM   14  C19 UNL     1      -8.290  45.984 -25.629  1.00  0.00     0.191 C 
HETATM   15  O6  UNL     1      -9.032  46.018 -26.856  1.00  0.00    -0.347 OA
HETATM   16  C20 UNL     1      -8.887  47.209 -27.596  1.00  0.00     0.297 C 
HETATM   17  O7  UNL     1      -9.653  47.086 -28.779  1.00  0.00    -0.351 OA
HETATM   18  C21 UNL     1      -9.125  46.389 -29.918  1.00  0.00     0.146 C 
HETATM   19  C22 UNL     1      -9.405  48.412 -26.741  1.00  0.00     0.136 C 
HETATM   20  C23 UNL     1     -10.901  48.295 -26.376  1.00  0.00     0.050 C 
HETATM   21  C24 UNL     1     -11.237  47.129 -25.435  1.00  0.00     0.041 C 
HETATM   22  C25 UNL     1     -10.244  46.978 -24.306  1.00  0.00    -0.027 C 
HETATM   23  C26 UNL     1     -10.568  46.734 -23.032  1.00  0.00     0.001 A 
HETATM   24  C27 UNL     1     -11.850  46.501 -22.394  1.00  0.00     0.039 A 
HETATM   25  C28 UNL     1     -11.589  46.301 -21.083  1.00  0.00     0.014 A 
HETATM   26  N1  UNL     1     -10.221  46.394 -20.852  1.00  0.00    -0.357 N 
HETATM   27  C36 UNL     1      -9.540  46.680 -22.004  1.00  0.00     0.072 A 
HETATM   28  C37 UNL     1      -8.259  46.928 -22.283  1.00  0.00     0.075 C 
HETATM   29  O10 UNL     1      -7.822  47.190 -23.568  1.00  0.00    -0.332 OA
HETATM   30  C41 UNL     1      -8.758  47.125 -24.677  1.00  0.00     0.148 C 
HETATM   31  C42 UNL     1      -8.571  48.450 -25.449  1.00  0.00     0.199 C 
HETATM   32  H46 UNL     1      -9.807  46.398 -19.932  1.00  0.00     0.166 HD
ENDROOT
BRANCH  25  33
HETATM   33  C29 UNL     1     -12.602  46.050 -19.998  1.00  0.00     0.035 C 
HETATM   34  C30 UNL     1     -13.223  44.659 -20.163  1.00  0.00     0.017 C 
BRANCH  33  35
HETATM   35  C31 UNL     1     -13.689  47.134 -19.822  1.00  0.00    -0.005 C 
HETATM   36  C32 UNL     1     -14.523  47.030 -18.541  1.00  0.00     0.005 C 
HETATM   37  C33 UNL     1     -15.313  48.330 -18.534  1.00  0.00     0.000 C 
HETATM   38  C34 UNL     1     -14.435  49.357 -19.245  1.00  0.00     0.000 C 
HETATM   39  C35 UNL     1     -13.226  48.591 -19.783  1.00  0.00     0.005 C 
ENDBRANCH  33  35
ENDBRANCH  25  33
BRANCH  28  40
HETATM   40  C38 UNL     1      -7.169  46.969 -21.246  1.00  0.00     0.069 C 
BRANCH  40  41
HETATM   41  C39 UNL     1      -6.361  48.267 -21.357  1.00  0.00     0.033 C 
BRANCH  41  42
HETATM   42  C40 UNL     1      -7.238  49.494 -21.164  1.00  0.00     0.164 C 
BRANCH  42  43
HETATM   43  O9  UNL     1      -6.518  50.509 -20.474  1.00  0.00    -0.401 OA
HETATM   44  H53 UNL     1      -6.390  50.202 -19.561  1.00  0.00     0.209 HD
ENDBRANCH  42  43
ENDBRANCH  41  42
ENDBRANCH  40  41
ENDBRANCH  28  40
BRANCH  31  45
HETATM   45  O11 UNL     1      -8.937  49.606 -24.664  1.00  0.00    -0.389 OA
HETATM   46  H55 UNL     1      -8.686  49.401 -23.741  1.00  0.00     0.210 HD
ENDBRANCH  31  45
BRANCH  19  47
HETATM   47  O8  UNL     1      -9.204  49.657 -27.430  1.00  0.00    -0.382 OA
HETATM   48  H27 UNL     1      -9.296  50.350 -26.743  1.00  0.00     0.210 HD
ENDBRANCH  19  47
BRANCH   1  49
HETATM   49  C2  UNL     1      -7.352  48.102 -30.429  1.00  0.00    -0.029 C 
HETATM   50  C1  UNL     1      -8.160  48.998 -31.004  1.00  0.00     0.007 C 
ENDBRANCH   1  49
BRANCH   2  51
HETATM   51  C5  UNL     1      -6.122  46.432 -32.467  1.00  0.00     0.120 C 
BRANCH  51  52
HETATM   52  C6  UNL     1      -4.746  45.823 -32.422  1.00  0.00     0.140 C 
HETATM   53  O1  UNL     1      -3.788  46.293 -31.828  1.00  0.00    -0.650 OA
BRANCH  52  54
HETATM   54  O2  UNL     1      -4.615  44.657 -33.074  1.00  0.00    -0.776 OA
HETATM   55  H8  UNL     1      -3.681  44.406 -32.915  1.00  0.00     0.167 HD
ENDBRANCH  52  54
ENDBRANCH  51  52
ENDBRANCH   2  51
BRANCH   3  56
HETATM   56  C8  UNL     1      -8.371  44.888 -33.817  1.00  0.00     0.289 C 
HETATM   57  O3  UNL     1      -8.737  45.681 -34.671  1.00  0.00    -0.260 OA
BRANCH  56  58
HETATM   58  O4  UNL     1      -7.882  43.643 -34.046  1.00  0.00    -0.323 OA
HETATM   59  C9  UNL     1      -8.651  42.854 -34.952  1.00  0.00     0.213 C 
ENDBRANCH  56  58
ENDBRANCH   3  56
TORSDOF 14
ENDMDL
MODEL 6
REMARK minimizedAffinity -7.51252842
REMARK CNNscore 0.211452559
REMARK CNNaffinity 6.25627184
REMARK  14 active torsions:
REMARK  status: ('A' for Active; 'I' for Inactive)
REMARK    1  A    between atoms: C2_2  and  C3_3 
REMARK    2  A    between atoms: C4_4  and  C5_5 
REMARK    3  A    between atoms: C5_5  and  C6_6 
REMARK    4  A    between atoms: C6_6  and  O2_8 
REMARK    5  A    between atoms: C7_9  and  C8_10 
REMARK    6  A    between atoms: C8_10  and  O4_12 
REMARK    7  A    between atoms: C22_29  and  O8_30 
REMARK    8  A    between atoms: C28_36  and  C29_37 
REMARK    9  A    between atoms: C29_37  and  C31_39 
REMARK   10  A    between atoms: C37_46  and  C38_47 
REMARK   11  A    between atoms: C38_47  and  C39_48 
REMARK   12  A    between atoms: C39_48  and  C40_49 
REMARK   13  A    between atoms: C40_49  and  O9_50 
REMARK   14  A    between atoms: C42_53  and  O11_54 
ROOT
HETATM    1  C3  UNL     1     -13.994  44.947 -24.337  1.00  0.00     0.046 C 
HETATM    2  C4  UNL     1     -15.485  45.266 -23.883  1.00  0.00     0.044 C 
HETATM    3  C7  UNL     1     -16.518  44.227 -24.336  1.00  0.00     0.019 C 
HETATM    4  C10 UNL     1     -16.363  43.560 -25.504  1.00  0.00    -0.000 C 
HETATM    5  C11 UNL     1     -15.134  43.807 -26.401  1.00  0.00     0.012 C 
HETATM    6  C12 UNL     1     -14.964  42.694 -27.451  1.00  0.00     0.017 C 
HETATM    7  C13 UNL     1     -16.053  42.936 -28.487  1.00  0.00     0.002 C 
HETATM    8  C14 UNL     1     -16.340  44.433 -28.461  1.00  0.00     0.010 C 
HETATM    9  C15 UNL     1     -15.512  45.047 -27.302  1.00  0.00     0.025 C 
HETATM   10  C16 UNL     1     -14.430  46.000 -27.720  1.00  0.00     0.003 C 
HETATM   11  C17 UNL     1     -13.838  46.112 -28.914  1.00  0.00     0.131 C 
HETATM   12  O5  UNL     1     -12.805  46.995 -29.123  1.00  0.00    -0.361 OA
HETATM   13  C18 UNL     1     -11.555  46.298 -29.330  1.00  0.00     0.210 C 
HETATM   14  C19 UNL     1     -11.017  45.769 -27.985  1.00  0.00     0.191 C 
HETATM   15  O6  UNL     1     -11.941  44.780 -27.512  1.00  0.00    -0.347 OA
HETATM   16  C20 UNL     1     -11.669  44.295 -26.216  1.00  0.00     0.297 C 
HETATM   17  O7  UNL     1     -12.669  43.352 -25.883  1.00  0.00    -0.351 OA
HETATM   18  C21 UNL     1     -13.943  43.789 -25.382  1.00  0.00     0.146 C 
HETATM   19  C22 UNL     1     -10.261  43.614 -26.209  1.00  0.00     0.136 C 
HETATM   20  C23 UNL     1     -10.169  42.405 -27.165  1.00  0.00     0.050 C 
HETATM   21  C24 UNL     1     -10.289  42.760 -28.654  1.00  0.00     0.041 C 
HETATM   22  C25 UNL     1      -9.499  43.992 -29.030  1.00  0.00    -0.027 C 
HETATM   23  C26 UNL     1      -8.751  44.111 -30.132  1.00  0.00     0.001 A 
HETATM   24  C27 UNL     1      -8.523  43.205 -31.242  1.00  0.00     0.039 A 
HETATM   25  C28 UNL     1      -7.680  43.843 -32.084  1.00  0.00     0.014 A 
HETATM   26  N1  UNL     1      -7.359  45.097 -31.574  1.00  0.00    -0.357 N 
HETATM   27  C36 UNL     1      -7.967  45.314 -30.368  1.00  0.00     0.072 A 
HETATM   28  C37 UNL     1      -7.921  46.305 -29.475  1.00  0.00     0.075 C 
HETATM   29  O10 UNL     1      -8.658  46.277 -28.306  1.00  0.00    -0.332 OA
HETATM   30  C41 UNL     1      -9.576  45.180 -28.056  1.00  0.00     0.148 C 
HETATM   31  C42 UNL     1      -9.234  44.675 -26.636  1.00  0.00     0.199 C 
HETATM   32  H46 UNL     1      -6.655  45.700 -31.972  1.00  0.00     0.166 HD
ENDROOT
BRANCH  25  33
HETATM   33  C29 UNL     1      -7.118  43.298 -33.370  1.00  0.00     0.035 C 
HETATM   34  C30 UNL     1      -8.220  42.605 -34.179  1.00  0.00     0.017 C 
BRANCH  33  35
HETATM   35  C31 UNL     1      -5.868  42.399 -33.238  1.00  0.00    -0.005 C 
HETATM   36  C32 UNL     1      -5.435  41.679 -34.517  1.00  0.00     0.005 C 
HETATM   37  C33 UNL     1      -4.083  41.089 -34.144  1.00  0.00     0.000 C 
HETATM   38  C34 UNL     1      -3.484  42.038 -33.110  1.00  0.00     0.000 C 
HETATM   39  C35 UNL     1      -4.567  43.071 -32.794  1.00  0.00     0.005 C 
ENDBRANCH  33  35
ENDBRANCH  25  33
BRANCH  28  40
HETATM   40  C38 UNL     1      -7.063  47.531 -29.629  1.00  0.00     0.069 C 
BRANCH  40  41
HETATM   41  C39 UNL     1      -7.611  48.443 -30.733  1.00  0.00     0.033 C 
BRANCH  41  42
HETATM   42  C40 UNL     1      -8.854  49.193 -30.279  1.00  0.00     0.164 C 
BRANCH  42  43
HETATM   43  O9  UNL     1      -8.822  50.532 -30.757  1.00  0.00    -0.401 OA
HETATM   44  H53 UNL     1      -8.117  50.994 -30.275  1.00  0.00     0.209 HD
ENDBRANCH  42  43
ENDBRANCH  41  42
ENDBRANCH  40  41
ENDBRANCH  28  40
BRANCH  31  45
HETATM   45  O11 UNL     1      -7.900  44.129 -26.548  1.00  0.00    -0.389 OA
HETATM   46  H55 UNL     1      -7.345  44.662 -27.152  1.00  0.00     0.210 HD
ENDBRANCH  31  45
BRANCH  19  47
HETATM   47  O8  UNL     1      -9.912  43.172 -24.887  1.00  0.00    -0.382 OA
HETATM   48  H27 UNL     1      -8.944  43.014 -24.915  1.00  0.00     0.210 HD
ENDBRANCH  19  47
BRANCH   1  49
HETATM   49  C2  UNL     1     -13.045  44.636 -23.189  1.00  0.00    -0.029 C 
HETATM   50  C1  UNL     1     -12.002  45.391 -22.827  1.00  0.00     0.007 C 
ENDBRANCH   1  49
BRANCH   2  51
HETATM   51  C5  UNL     1     -15.590  45.824 -22.441  1.00  0.00     0.120 C 
BRANCH  51  52
HETATM   52  C6  UNL     1     -15.160  47.246 -22.192  1.00  0.00     0.140 C 
HETATM   53  O1  UNL     1     -14.846  47.705 -21.105  1.00  0.00    -0.650 OA
BRANCH  52  54
HETATM   54  O2  UNL     1     -15.104  48.026 -23.282  1.00  0.00    -0.776 OA
HETATM   55  H8  UNL     1     -14.787  48.887 -22.936  1.00  0.00     0.167 HD
ENDBRANCH  52  54
ENDBRANCH  51  52
ENDBRANCH   2  51
BRANCH   3  56
HETATM   56  C8  UNL     1     -17.770  44.018 -23.560  1.00  0.00     0.289 C 
HETATM   57  O3  UNL     1     -17.946  43.078 -22.801  1.00  0.00    -0.260 OA
BRANCH  56  58
HETATM   58  O4  UNL     1     -18.673  44.991 -23.843  1.00  0.00    -0.323 OA
HETATM   59  C9  UNL     1     -20.035  44.627 -23.622  1.00  0.00     0.213 C 
ENDBRANCH  56  58
ENDBRANCH   3  56
TORSDOF 14
ENDMDL
MODEL 7
REMARK minimizedAffinity -8.24122524
REMARK CNNscore 0.208650202
REMARK CNNaffinity 6.65865898
REMARK  14 active torsions:
REMARK  status: ('A' for Active; 'I' for Inactive)
REMARK    1  A    between atoms: C2_2  and  C3_3 
REMARK    2  A    between atoms: C4_4  and  C5_5 
REMARK    3  A    between atoms: C5_5  and  C6_6 
REMARK    4  A    between atoms: C6_6  and  O2_8 
REMARK    5  A    between atoms: C7_9  and  C8_10 
REMARK    6  A    between atoms: C8_10  and  O4_12 
REMARK    7  A    between atoms: C22_29  and  O8_30 
REMARK    8  A    between atoms: C28_36  and  C29_37 
REMARK    9  A    between atoms: C29_37  and  C31_39 
REMARK   10  A    between atoms: C37_46  and  C38_47 
REMARK   11  A    between atoms: C38_47  and  C39_48 
REMARK   12  A    between atoms: C39_48  and  C40_49 
REMARK   13  A    between atoms: C40_49  and  O9_50 
REMARK   14  A    between atoms: C42_53  and  O11_54 
ROOT
HETATM    1  C3  UNL     1     -13.285  44.796 -26.303  1.00  0.00     0.046 C 
HETATM    2  C4  UNL     1     -14.217  43.560 -25.935  1.00  0.00     0.044 C 
HETATM    3  C7  UNL     1     -14.266  43.231 -24.438  1.00  0.00     0.019 C 
HETATM    4  C10 UNL     1     -13.188  43.441 -23.648  1.00  0.00    -0.000 C 
HETATM    5  C11 UNL     1     -11.888  44.039 -24.222  1.00  0.00     0.012 C 
HETATM    6  C12 UNL     1     -10.953  44.544 -23.107  1.00  0.00     0.017 C 
HETATM    7  C13 UNL     1     -10.365  43.296 -22.466  1.00  0.00     0.002 C 
HETATM    8  C14 UNL     1     -10.356  42.224 -23.550  1.00  0.00     0.010 C 
HETATM    9  C15 UNL     1     -11.076  42.810 -24.792  1.00  0.00     0.025 C 
HETATM   10  C16 UNL     1     -10.209  43.009 -26.002  1.00  0.00     0.003 C 
HETATM   11  C17 UNL     1      -8.876  43.111 -26.061  1.00  0.00     0.131 C 
HETATM   12  O5  UNL     1      -8.228  43.363 -27.247  1.00  0.00    -0.361 OA
HETATM   13  C18 UNL     1      -7.647  44.687 -27.253  1.00  0.00     0.210 C 
HETATM   14  C19 UNL     1      -8.747  45.746 -27.468  1.00  0.00     0.191 C 
HETATM   15  O6  UNL     1      -9.611  45.705 -26.324  1.00  0.00    -0.347 OA
HETATM   16  C20 UNL     1     -10.759  46.518 -26.426  1.00  0.00     0.297 C 
HETATM   17  O7  UNL     1     -11.517  46.356 -25.243  1.00  0.00    -0.351 OA
HETATM   18  C21 UNL     1     -12.402  45.235 -25.093  1.00  0.00     0.146 C 
HETATM   19  C22 UNL     1     -10.318  48.010 -26.585  1.00  0.00     0.136 C 
HETATM   20  C23 UNL     1      -9.508  48.533 -25.379  1.00  0.00     0.050 C 
HETATM   21  C24 UNL     1      -8.138  47.865 -25.195  1.00  0.00     0.041 C 
HETATM   22  C25 UNL     1      -7.390  47.686 -26.495  1.00  0.00    -0.027 C 
HETATM   23  C26 UNL     1      -6.087  47.929 -26.665  1.00  0.00     0.001 A 
HETATM   24  C27 UNL     1      -5.057  48.347 -25.733  1.00  0.00     0.039 A 
HETATM   25  C28 UNL     1      -3.912  48.433 -26.446  1.00  0.00     0.014 A 
HETATM   26  N1  UNL     1      -4.154  48.096 -27.774  1.00  0.00    -0.357 N 
HETATM   27  C36 UNL     1      -5.474  47.798 -27.978  1.00  0.00     0.072 A 
HETATM   28  C37 UNL     1      -6.195  47.491 -29.058  1.00  0.00     0.075 C 
HETATM   29  O10 UNL     1      -7.549  47.221 -28.988  1.00  0.00    -0.332 OA
HETATM   30  C41 UNL     1      -8.213  47.191 -27.697  1.00  0.00     0.148 C 
HETATM   31  C42 UNL     1      -9.453  48.101 -27.853  1.00  0.00     0.199 C 
HETATM   32  H46 UNL     1      -3.475  48.203 -28.512  1.00  0.00     0.166 HD
ENDROOT
BRANCH  25  33
HETATM   33  C29 UNL     1      -2.565  48.862 -25.928  1.00  0.00     0.035 C 
HETATM   34  C30 UNL     1      -2.612  49.035 -24.406  1.00  0.00     0.017 C 
BRANCH  33  35
HETATM   35  C31 UNL     1      -1.936  50.095 -26.615  1.00  0.00    -0.005 C 
HETATM   36  C32 UNL     1      -2.844  51.323 -26.726  1.00  0.00     0.005 C 
HETATM   37  C33 UNL     1      -1.898  52.414 -27.206  1.00  0.00     0.000 C 
HETATM   38  C34 UNL     1      -0.526  52.055 -26.641  1.00  0.00     0.000 C 
HETATM   39  C35 UNL     1      -0.677  50.686 -25.976  1.00  0.00     0.005 C 
ENDBRANCH  33  35
ENDBRANCH  25  33
BRANCH  28  40
HETATM   40  C38 UNL     1      -5.630  47.424 -30.452  1.00  0.00     0.069 C 
BRANCH  40  41
HETATM   41  C39 UNL     1      -5.679  45.990 -30.990  1.00  0.00     0.033 C 
BRANCH  41  42
HETATM   42  C40 UNL     1      -4.769  45.808 -32.194  1.00  0.00     0.164 C 
BRANCH  42  43
HETATM   43  O9  UNL     1      -3.724  46.773 -32.169  1.00  0.00    -0.401 OA
HETATM   44  H53 UNL     1      -4.126  47.639 -32.345  1.00  0.00     0.209 HD
ENDBRANCH  42  43
ENDBRANCH  41  42
ENDBRANCH  40  41
ENDBRANCH  28  40
BRANCH  31  45
HETATM   45  O11 UNL     1      -9.101  49.479 -28.107  1.00  0.00    -0.389 OA
HETATM   46  H55 UNL     1      -8.291  49.458 -28.655  1.00  0.00     0.210 HD
ENDBRANCH  31  45
BRANCH  19  47
HETATM   47  O8  UNL     1     -11.458  48.865 -26.768  1.00  0.00    -0.382 OA
HETATM   48  H27 UNL     1     -11.096  49.706 -27.122  1.00  0.00     0.210 HD
ENDBRANCH  19  47
BRANCH   1  49
HETATM   49  C2  UNL     1     -14.035  46.002 -26.849  1.00  0.00    -0.029 C 
HETATM   50  C1  UNL     1     -13.954  46.454 -28.105  1.00  0.00     0.007 C 
ENDBRANCH   1  49
BRANCH   2  51
HETATM   51  C5  UNL     1     -15.542  43.519 -26.738  1.00  0.00     0.120 C 
BRANCH  51  52
HETATM   52  C6  UNL     1     -16.760  44.176 -26.143  1.00  0.00     0.140 C 
HETATM   53  O1  UNL     1     -16.852  45.360 -25.861  1.00  0.00    -0.650 OA
BRANCH  52  54
HETATM   54  O2  UNL     1     -17.812  43.364 -25.951  1.00  0.00    -0.776 OA
HETATM   55  H8  UNL     1     -18.501  43.959 -25.591  1.00  0.00     0.167 HD
ENDBRANCH  52  54
ENDBRANCH  51  52
ENDBRANCH   2  51
BRANCH   3  56
HETATM   56  C8  UNL     1     -15.459  42.564 -23.850  1.00  0.00     0.289 C 
HETATM   57  O3  UNL     1     -15.721  41.382 -24.012  1.00  0.00    -0.260 OA
BRANCH  56  58
HETATM   58  O4  UNL     1     -16.207  43.456 -23.152  1.00  0.00    -0.323 OA
HETATM   59  C9  UNL     1     -16.346  43.163 -21.762  1.00  0.00     0.213 C 
ENDBRANCH  56  58
ENDBRANCH   3  56
TORSDOF 14
ENDMDL
MODEL 8
REMARK minimizedAffinity -7.16839743
REMARK CNNscore 0.204594597
REMARK CNNaffinity 7.11003304
REMARK  14 active torsions:
REMARK  status: ('A' for Active; 'I' for Inactive)
REMARK    1  A    between atoms: C2_2  and  C3_3 
REMARK    2  A    between atoms: C4_4  and  C5_5 
REMARK    3  A    between atoms: C5_5  and  C6_6 
REMARK    4  A    between atoms: C6_6  and  O2_8 
REMARK    5  A    between atoms: C7_9  and  C8_10 
REMARK    6  A    between atoms: C8_10  and  O4_12 
REMARK    7  A    between atoms: C22_29  and  O8_30 
REMARK    8  A    between atoms: C28_36  and  C29_37 
REMARK    9  A    between atoms: C29_37  and  C31_39 
REMARK   10  A    between atoms: C37_46  and  C38_47 
REMARK   11  A    between atoms: C38_47  and  C39_48 
REMARK   12  A    between atoms: C39_48  and  C40_49 
REMARK   13  A    between atoms: C40_49  and  O9_50 
REMARK   14  A    between atoms: C42_53  and  O11_54 
ROOT
HETATM    1  C3  UNL     1       0.880  52.693  -7.554  1.00  0.00     0.046 C 
HETATM    2  C4  UNL     1       1.835  53.394  -6.491  1.00  0.00     0.044 C 
HETATM    3  C7  UNL     1       2.099  54.880  -6.765  1.00  0.00     0.019 C 
HETATM    4  C10 UNL     1       2.141  55.353  -8.033  1.00  0.00    -0.000 C 
HETATM    5  C11 UNL     1       1.902  54.419  -9.236  1.00  0.00     0.012 C 
HETATM    6  C12 UNL     1       1.614  55.214 -10.524  1.00  0.00     0.017 C 
HETATM    7  C13 UNL     1       2.952  55.800 -10.953  1.00  0.00     0.002 C 
HETATM    8  C14 UNL     1       4.022  54.852 -10.425  1.00  0.00     0.010 C 
HETATM    9  C15 UNL     1       3.310  53.780  -9.559  1.00  0.00     0.025 C 
HETATM   10  C16 UNL     1       3.367  52.379 -10.096  1.00  0.00     0.003 C 
HETATM   11  C17 UNL     1       3.601  51.980 -11.351  1.00  0.00     0.131 C 
HETATM   12  O5  UNL     1       3.551  50.652 -11.703  1.00  0.00    -0.361 OA
HETATM   13  C18 UNL     1       2.414  50.379 -12.553  1.00  0.00     0.210 C 
HETATM   14  C19 UNL     1       1.122  50.349 -11.713  1.00  0.00     0.191 C 
HETATM   15  O6  UNL     1       0.915  51.671 -11.198  1.00  0.00    -0.347 OA
HETATM   16  C20 UNL     1      -0.155  51.785 -10.286  1.00  0.00     0.297 C 
HETATM   17  O7  UNL     1      -0.220  53.130  -9.853  1.00  0.00    -0.351 OA
HETATM   18  C21 UNL     1       0.640  53.598  -8.802  1.00  0.00     0.146 C 
HETATM   19  C22 UNL     1      -1.486  51.384 -11.004  1.00  0.00     0.136 C 
HETATM   20  C23 UNL     1      -1.824  52.297 -12.204  1.00  0.00     0.050 C 
HETATM   21  C24 UNL     1      -0.842  52.193 -13.379  1.00  0.00     0.041 C 
HETATM   22  C25 UNL     1      -0.447  50.769 -13.693  1.00  0.00    -0.027 C 
HETATM   23  C26 UNL     1      -0.353  50.258 -14.924  1.00  0.00     0.001 A 
HETATM   24  C27 UNL     1      -0.527  50.861 -16.232  1.00  0.00     0.039 A 
HETATM   25  C28 UNL     1      -0.306  49.880 -17.134  1.00  0.00     0.014 A 
HETATM   26  N1  UNL     1      -0.003  48.691 -16.478  1.00  0.00    -0.357 N 
HETATM   27  C36 UNL     1      -0.036  48.851 -15.119  1.00  0.00     0.072 A 
HETATM   28  C37 UNL     1       0.111  48.018 -14.087  1.00  0.00     0.075 C 
HETATM   29  O10 UNL     1       0.034  48.449 -12.776  1.00  0.00    -0.332 OA
HETATM   30  C41 UNL     1      -0.139  49.862 -12.489  1.00  0.00     0.148 C 
HETATM   31  C42 UNL     1      -1.324  49.938 -11.499  1.00  0.00     0.199 C 
HETATM   32  H46 UNL     1       0.083  47.800 -16.942  1.00  0.00     0.166 HD
ENDROOT
BRANCH  25  33
HETATM   33  C29 UNL     1      -0.400  50.003 -18.632  1.00  0.00     0.035 C 
HETATM   34  C30 UNL     1      -1.238  51.228 -19.012  1.00  0.00     0.017 C 
BRANCH  33  35
HETATM   35  C31 UNL     1      -0.875  48.741 -19.387  1.00  0.00    -0.005 C 
HETATM   36  C32 UNL     1      -2.354  48.386 -19.214  1.00  0.00     0.005 C 
HETATM   37  C33 UNL     1      -2.569  47.280 -20.237  1.00  0.00     0.000 C 
HETATM   38  C34 UNL     1      -1.588  47.564 -21.372  1.00  0.00     0.000 C 
HETATM   39  C35 UNL     1      -0.722  48.737 -20.909  1.00  0.00     0.005 C 
ENDBRANCH  33  35
ENDBRANCH  25  33
BRANCH  28  40
HETATM   40  C38 UNL     1       0.355  46.540 -14.232  1.00  0.00     0.069 C 
BRANCH  40  41
HETATM   41  C39 UNL     1       1.839  46.257 -14.491  1.00  0.00     0.033 C 
BRANCH  41  42
HETATM   42  C40 UNL     1       2.154  44.773 -14.401  1.00  0.00     0.164 C 
BRANCH  42  43
HETATM   43  O9  UNL     1       1.829  44.126 -15.625  1.00  0.00    -0.401 OA
HETATM   44  H53 UNL     1       0.860  44.126 -15.703  1.00  0.00     0.209 HD
ENDBRANCH  42  43
ENDBRANCH  41  42
ENDBRANCH  40  41
ENDBRANCH  28  40
BRANCH  31  45
HETATM   45  O11 UNL     1      -2.563  49.478 -12.082  1.00  0.00    -0.389 OA
HETATM   46  H55 UNL     1      -2.326  48.749 -12.690  1.00  0.00     0.210 HD
ENDBRANCH  31  45
BRANCH  19  47
HETATM   47  O8  UNL     1      -2.592  51.414 -10.088  1.00  0.00    -0.382 OA
HETATM   48  H27 UNL     1      -3.306  50.906 -10.529  1.00  0.00     0.210 HD
ENDBRANCH  19  47
BRANCH   1  49
HETATM   49  C2  UNL     1      -0.460  52.243  -6.989  1.00  0.00    -0.029 C 
HETATM   50  C1  UNL     1      -1.529  53.028  -6.828  1.00  0.00     0.007 C 
ENDBRANCH   1  49
BRANCH   2  51
HETATM   51  C5  UNL     1       1.567  52.955  -5.029  1.00  0.00     0.120 C 
BRANCH  51  52
HETATM   52  C6  UNL     1       2.578  52.066  -4.353  1.00  0.00     0.140 C 
HETATM   53  O1  UNL     1       3.765  52.325  -4.223  1.00  0.00    -0.650 OA
BRANCH  52  54
HETATM   54  O2  UNL     1       2.088  50.926  -3.843  1.00  0.00    -0.776 OA
HETATM   55  H8  UNL     1       2.868  50.502  -3.429  1.00  0.00     0.167 HD
ENDBRANCH  52  54
ENDBRANCH  51  52
ENDBRANCH   2  51
BRANCH   3  56
HETATM   56  C8  UNL     1       2.431  55.806  -5.650  1.00  0.00     0.289 C 
HETATM   57  O3  UNL     1       3.556  56.231  -5.437  1.00  0.00    -0.260 OA
BRANCH  56  58
HETATM   58  O4  UNL     1       1.327  56.072  -4.907  1.00  0.00    -0.323 OA
HETATM   59  C9  UNL     1       0.417  56.999  -5.497  1.00  0.00     0.213 C 
ENDBRANCH  56  58
ENDBRANCH   3  56
TORSDOF 14
ENDMDL
MODEL 9
REMARK minimizedAffinity -8.09463406
REMARK CNNscore 0.178568155
REMARK CNNaffinity 6.1354332
REMARK  14 active torsions:
REMARK  status: ('A' for Active; 'I' for Inactive)
REMARK    1  A    between atoms: C2_2  and  C3_3 
REMARK    2  A    between atoms: C4_4  and  C5_5 
REMARK    3  A    between atoms: C5_5  and  C6_6 
REMARK    4  A    between atoms: C6_6  and  O2_8 
REMARK    5  A    between atoms: C7_9  and  C8_10 
REMARK    6  A    between atoms: C8_10  and  O4_12 
REMARK    7  A    between atoms: C22_29  and  O8_30 
REMARK    8  A    between atoms: C28_36  and  C29_37 
REMARK    9  A    between atoms: C29_37  and  C31_39 
REMARK   10  A    between atoms: C37_46  and  C38_47 
REMARK   11  A    between atoms: C38_47  and  C39_48 
REMARK   12  A    between atoms: C39_48  and  C40_49 
REMARK   13  A    between atoms: C40_49  and  O9_50 
REMARK   14  A    between atoms: C42_53  and  O11_54 
ROOT
HETATM    1  C3  UNL     1      -7.644  46.877 -29.692  1.00  0.00     0.046 C 
HETATM    2  C4  UNL     1      -6.494  46.623 -30.762  1.00  0.00     0.044 C 
HETATM    3  C7  UNL     1      -6.874  47.004 -32.198  1.00  0.00     0.019 C 
HETATM    4  C10 UNL     1      -8.150  46.883 -32.631  1.00  0.00    -0.000 C 
HETATM    5  C11 UNL     1      -9.264  46.384 -31.690  1.00  0.00     0.012 C 
HETATM    6  C12 UNL     1     -10.664  46.689 -32.253  1.00  0.00     0.017 C 
HETATM    7  C13 UNL     1     -10.872  45.702 -33.394  1.00  0.00     0.002 C 
HETATM    8  C14 UNL     1     -10.031  44.477 -33.056  1.00  0.00     0.010 C 
HETATM    9  C15 UNL     1      -9.215  44.808 -31.779  1.00  0.00     0.025 C 
HETATM   10  C16 UNL     1      -9.568  43.999 -30.564  1.00  0.00     0.003 C 
HETATM   11  C17 UNL     1     -10.694  43.322 -30.316  1.00  0.00     0.131 C 
HETATM   12  O5  UNL     1     -10.896  42.681 -29.117  1.00  0.00    -0.361 OA
HETATM   13  C18 UNL     1     -11.926  43.336 -28.341  1.00  0.00     0.210 C 
HETATM   14  C19 UNL     1     -11.372  44.632 -27.715  1.00  0.00     0.191 C 
HETATM   15  O6  UNL     1     -11.064  45.529 -28.790  1.00  0.00    -0.347 OA
HETATM   16  C20 UNL     1     -10.411  46.715 -28.396  1.00  0.00     0.297 C 
HETATM   17  O7  UNL     1     -10.155  47.481 -29.556  1.00  0.00    -0.351 OA
HETATM   18  C21 UNL     1      -9.009  47.200 -30.376  1.00  0.00     0.146 C 
HETATM   19  C22 UNL     1     -11.337  47.510 -27.418  1.00  0.00     0.136 C 
HETATM   20  C23 UNL     1     -12.676  47.932 -28.062  1.00  0.00     0.050 C 
HETATM   21  C24 UNL     1     -13.604  46.764 -28.425  1.00  0.00     0.041 C 
HETATM   22  C25 UNL     1     -13.667  45.706 -27.348  1.00  0.00    -0.027 C 
HETATM   23  C26 UNL     1     -14.787  45.104 -26.934  1.00  0.00     0.001 A 
HETATM   24  C27 UNL     1     -16.162  45.220 -27.381  1.00  0.00     0.039 A 
HETATM   25  C28 UNL     1     -16.883  44.374 -26.613  1.00  0.00     0.014 A 
HETATM   26  N1  UNL     1     -16.048  43.730 -25.705  1.00  0.00    -0.357 N 
HETATM   27  C36 UNL     1     -14.752  44.150 -25.837  1.00  0.00     0.072 A 
HETATM   28  C37 UNL     1     -13.625  43.889 -25.173  1.00  0.00     0.075 C 
HETATM   29  O10 UNL     1     -12.415  44.458 -25.523  1.00  0.00    -0.332 OA
HETATM   30  C41 UNL     1     -12.331  45.313 -26.694  1.00  0.00     0.148 C 
HETATM   31  C42 UNL     1     -11.622  46.599 -26.212  1.00  0.00     0.199 C 
HETATM   32  H46 UNL     1     -16.382  43.143 -24.956  1.00  0.00     0.166 HD
ENDROOT
BRANCH  25  33
HETATM   33  C29 UNL     1     -18.372  44.159 -26.672  1.00  0.00     0.035 C 
HETATM   34  C30 UNL     1     -18.783  43.024 -25.728  1.00  0.00     0.017 C 
BRANCH  33  35
HETATM   35  C31 UNL     1     -18.973  43.963 -28.082  1.00  0.00    -0.005 C 
HETATM   36  C32 UNL     1     -18.056  43.281 -29.101  1.00  0.00     0.005 C 
HETATM   37  C33 UNL     1     -18.981  43.015 -30.280  1.00  0.00     0.000 C 
HETATM   38  C34 UNL     1     -20.372  42.817 -29.683  1.00  0.00     0.000 C 
HETATM   39  C35 UNL     1     -20.248  43.124 -28.189  1.00  0.00     0.005 C 
ENDBRANCH  33  35
ENDBRANCH  25  33
BRANCH  28  40
HETATM   40  C38 UNL     1     -13.548  42.976 -23.979  1.00  0.00     0.069 C 
BRANCH  40  41
HETATM   41  C39 UNL     1     -13.415  43.785 -22.683  1.00  0.00     0.033 C 
BRANCH  41  42
HETATM   42  C40 UNL     1     -14.625  43.608 -21.781  1.00  0.00     0.164 C 
BRANCH  42  43
HETATM   43  O9  UNL     1     -15.814  43.542 -22.560  1.00  0.00    -0.401 OA
HETATM   44  H53 UNL     1     -15.964  44.426 -22.934  1.00  0.00     0.209 HD
ENDBRANCH  42  43
ENDBRANCH  41  42
ENDBRANCH  40  41
ENDBRANCH  28  40
BRANCH  31  45
HETATM   45  O11 UNL     1     -12.392  47.321 -25.225  1.00  0.00    -0.389 OA
HETATM   46  H55 UNL     1     -12.852  46.644 -24.688  1.00  0.00     0.210 HD
ENDBRANCH  31  45
BRANCH  19  47
HETATM   47  O8  UNL     1     -10.678  48.690 -26.932  1.00  0.00    -0.382 OA
HETATM   48  H27 UNL     1     -11.196  48.971 -26.147  1.00  0.00     0.210 HD
ENDBRANCH  19  47
BRANCH   1  49
HETATM   49  C2  UNL     1      -7.320  47.958 -28.671  1.00  0.00    -0.029 C 
HETATM   50  C1  UNL     1      -7.250  47.772 -27.349  1.00  0.00     0.007 C 
ENDBRANCH   1  49
BRANCH   2  51
HETATM   51  C5  UNL     1      -5.078  46.998 -30.254  1.00  0.00     0.120 C 
BRANCH  51  52
HETATM   52  C6  UNL     1      -4.790  48.443 -29.941  1.00  0.00     0.140 C 
HETATM   53  O1  UNL     1      -4.413  48.866 -28.860  1.00  0.00    -0.650 OA
BRANCH  52  54
HETATM   54  O2  UNL     1      -4.945  49.292 -30.969  1.00  0.00    -0.776 OA
HETATM   55  H8  UNL     1      -4.693  50.161 -30.592  1.00  0.00     0.167 HD
ENDBRANCH  52  54
ENDBRANCH  51  52
ENDBRANCH   2  51
BRANCH   3  56
HETATM   56  C8  UNL     1      -5.825  47.399 -33.177  1.00  0.00     0.289 C 
HETATM   57  O3  UNL     1      -6.017  48.183 -34.093  1.00  0.00    -0.260 OA
BRANCH  56  58
HETATM   58  O4  UNL     1      -4.664  46.745 -32.920  1.00  0.00    -0.323 OA
HETATM   59  C9  UNL     1      -3.520  47.270 -33.591  1.00  0.00     0.213 C 
ENDBRANCH  56  58
ENDBRANCH   3  56
TORSDOF 14
ENDMDL
