MODEL 1
REMARK minimizedAffinity -7.08708858
REMARK CNNscore 0.29837355
REMARK CNNaffinity 6.32854271
REMARK  12 active torsions:
REMARK  status: ('A' for Active; 'I' for Inactive)
REMARK    1  A    between atoms: C2_2  and  C3_3 
REMARK    2  A    between atoms: C3_3  and  O1_4 
REMARK    3  A    between atoms: C3_3  and  C5_6 
REMARK    4  A    between atoms: C5_6  and  C7_8 
REMARK    5  A    between atoms: C8_10  and  C10_12 
REMARK    6  A    between atoms: C10_12  and  C11_13 
REMARK    7  A    between atoms: C11_13  and  C13_15 
REMARK    8  A    between atoms: C14_16  and  C15_17 
REMARK    9  A    between atoms: C16_18  and  C18_20 
REMARK   10  A    between atoms: C19_22  and  C20_23 
REMARK   11  A    between atoms: C20_23  and  C21_24 
REMARK   12  A    between atoms: C21_24  and  O5_26 
ROOT
HETATM    1  C13 UNL     1       0.130  52.031 -19.432  1.00  0.00    -0.022 C 
HETATM    2  C14 UNL     1       0.655  52.641 -18.356  1.00  0.00    -0.003 C 
ENDROOT
BRANCH   2   3
HETATM    3  C15 UNL     1       0.755  52.001 -17.062  1.00  0.00     0.005 C 
HETATM    4  C16 UNL     1       1.816  52.006 -16.226  1.00  0.00    -0.055 C 
HETATM    5  C17 UNL     1       3.115  52.732 -16.499  1.00  0.00     0.046 C 
BRANCH   4   6
HETATM    6  C18 UNL     1       1.826  51.297 -14.869  1.00  0.00     0.154 C 
HETATM    7  O3  UNL     1       1.594  49.910 -15.179  1.00  0.00    -0.375 OA
HETATM    8  C19 UNL     1       1.705  49.056 -14.041  1.00  0.00     0.132 C 
HETATM    9  C22 UNL     1       3.179  48.977 -13.624  1.00  0.00     0.033 C 
HETATM   10  C23 UNL     1       3.959  50.244 -13.976  1.00  0.00     0.009 C 
HETATM   11  C24 UNL     1       3.081  51.497 -13.968  1.00  0.00     0.015 C 
HETATM   12  C25 UNL     1       2.683  51.876 -12.531  1.00  0.00     0.012 C 
BRANCH   8  13
HETATM   13  C20 UNL     1       1.170  47.674 -14.412  1.00  0.00     0.141 C 
BRANCH  13  14
HETATM   14  C21 UNL     1      -0.333  47.659 -14.417  1.00  0.00     0.141 C 
HETATM   15  O4  UNL     1      -1.074  46.972 -13.733  1.00  0.00    -0.650 OA
BRANCH  14  16
HETATM   16  O5  UNL     1      -0.844  48.475 -15.362  1.00  0.00    -0.776 OA
HETATM   17  H34 UNL     1      -1.813  48.368 -15.267  1.00  0.00     0.167 HD
ENDBRANCH  14  16
ENDBRANCH  13  14
ENDBRANCH   8  13
ENDBRANCH   4   6
ENDBRANCH   2   3
BRANCH   1  18
HETATM   18  C11 UNL     1      -0.006  52.651 -20.808  1.00  0.00     0.007 C 
HETATM   19  C12 UNL     1       1.062  53.731 -21.030  1.00  0.00     0.014 C 
BRANCH  18  20
HETATM   20  C10 UNL     1       0.037  51.610 -21.948  1.00  0.00     0.048 C 
BRANCH  20  21
HETATM   21  C8  UNL     1      -0.650  52.057 -23.224  1.00  0.00     0.085 A 
HETATM   22  C7  UNL     1      -0.032  51.596 -24.551  1.00  0.00     0.163 A 
HETATM   23  O2  UNL     1       0.152  52.923 -24.039  1.00  0.00    -0.369 OA
HETATM   24  C9  UNL     1      -2.082  52.486 -23.125  1.00  0.00     0.049 C 
BRANCH  22  25
HETATM   25  C5  UNL     1      -0.770  51.528 -25.867  1.00  0.00     0.042 C 
HETATM   26  C6  UNL     1      -1.693  50.307 -25.890  1.00  0.00     0.015 C 
BRANCH  25  27
HETATM   27  C3  UNL     1       0.193  51.545 -27.095  1.00  0.00     0.126 C 
BRANCH  27  28
HETATM   28  C2  UNL     1       1.528  50.810 -26.862  1.00  0.00     0.028 C 
HETATM   29  C1  UNL     1       2.734  51.702 -27.140  1.00  0.00     0.007 C 
ENDBRANCH  27  28
BRANCH  27  30
HETATM   30  O1  UNL     1       0.511  52.883 -27.507  1.00  0.00    -0.390 OA
HETATM   31  C4  UNL     1      -0.625  53.716 -27.695  1.00  0.00     0.202 C 
ENDBRANCH  27  30
ENDBRANCH  25  27
ENDBRANCH  22  25
ENDBRANCH  20  21
ENDBRANCH  18  20
ENDBRANCH   1  18
TORSDOF 12
ENDMDL
MODEL 2
REMARK minimizedAffinity -7.6643219
REMARK CNNscore 0.275475264
REMARK CNNaffinity 6.36117983
REMARK  12 active torsions:
REMARK  status: ('A' for Active; 'I' for Inactive)
REMARK    1  A    between atoms: C2_2  and  C3_3 
REMARK    2  A    between atoms: C3_3  and  O1_4 
REMARK    3  A    between atoms: C3_3  and  C5_6 
REMARK    4  A    between atoms: C5_6  and  C7_8 
REMARK    5  A    between atoms: C8_10  and  C10_12 
REMARK    6  A    between atoms: C10_12  and  C11_13 
REMARK    7  A    between atoms: C11_13  and  C13_15 
REMARK    8  A    between atoms: C14_16  and  C15_17 
REMARK    9  A    between atoms: C16_18  and  C18_20 
REMARK   10  A    between atoms: C19_22  and  C20_23 
REMARK   11  A    between atoms: C20_23  and  C21_24 
REMARK   12  A    between atoms: C21_24  and  O5_26 
ROOT
HETATM    1  C13 UNL     1       0.246  52.624 -19.515  1.00  0.00    -0.022 C 
HETATM    2  C14 UNL     1       1.193  52.771 -18.574  1.00  0.00    -0.003 C 
ENDROOT
BRANCH   2   3
HETATM    3  C15 UNL     1       1.034  52.292 -17.218  1.00  0.00     0.005 C 
HETATM    4  C16 UNL     1       1.969  52.263 -16.244  1.00  0.00    -0.055 C 
HETATM    5  C17 UNL     1       3.384  52.773 -16.405  1.00  0.00     0.046 C 
BRANCH   4   6
HETATM    6  C18 UNL     1       1.703  51.735 -14.832  1.00  0.00     0.154 C 
HETATM    7  O3  UNL     1       0.315  52.029 -14.586  1.00  0.00    -0.375 OA
HETATM    8  C19 UNL     1      -0.165  51.484 -13.358  1.00  0.00     0.132 C 
HETATM    9  C22 UNL     1      -0.250  49.959 -13.493  1.00  0.00     0.033 C 
HETATM   10  C23 UNL     1       0.774  49.396 -14.478  1.00  0.00     0.009 C 
HETATM   11  C24 UNL     1       2.047  50.243 -14.550  1.00  0.00     0.015 C 
HETATM   12  C25 UNL     1       2.875  50.093 -13.263  1.00  0.00     0.012 C 
BRANCH   8  13
HETATM   13  C20 UNL     1      -1.538  52.083 -13.058  1.00  0.00     0.141 C 
BRANCH  13  14
HETATM   14  C21 UNL     1      -1.659  52.464 -11.610  1.00  0.00     0.141 C 
HETATM   15  O4  UNL     1      -2.196  51.832 -10.715  1.00  0.00    -0.650 OA
BRANCH  14  16
HETATM   16  O5  UNL     1      -1.152  53.689 -11.365  1.00  0.00    -0.776 OA
HETATM   17  H34 UNL     1      -1.298  53.818 -10.405  1.00  0.00     0.167 HD
ENDBRANCH  14  16
ENDBRANCH  13  14
ENDBRANCH   8  13
ENDBRANCH   4   6
ENDBRANCH   2   3
BRANCH   1  18
HETATM   18  C11 UNL     1       0.354  53.109 -20.947  1.00  0.00     0.007 C 
HETATM   19  C12 UNL     1       1.611  53.970 -21.140  1.00  0.00     0.014 C 
BRANCH  18  20
HETATM   20  C10 UNL     1       0.326  51.961 -21.980  1.00  0.00     0.048 C 
BRANCH  20  21
HETATM   21  C8  UNL     1      -0.525  52.245 -23.202  1.00  0.00     0.085 A 
HETATM   22  C7  UNL     1       0.133  52.050 -24.575  1.00  0.00     0.163 A 
HETATM   23  O2  UNL     1      -0.054  53.347 -23.990  1.00  0.00    -0.369 OA
HETATM   24  C9  UNL     1      -2.014  52.229 -23.028  1.00  0.00     0.049 C 
BRANCH  22  25
HETATM   25  C5  UNL     1      -0.618  51.830 -25.866  1.00  0.00     0.042 C 
HETATM   26  C6  UNL     1      -0.883  50.335 -26.072  1.00  0.00     0.015 C 
BRANCH  25  27
HETATM   27  C3  UNL     1       0.106  52.460 -27.095  1.00  0.00     0.126 C 
BRANCH  27  28
HETATM   28  C2  UNL     1       1.253  51.600 -27.663  1.00  0.00     0.028 C 
HETATM   29  C1  UNL     1       2.476  51.593 -26.751  1.00  0.00     0.007 C 
ENDBRANCH  27  28
BRANCH  27  30
HETATM   30  O1  UNL     1       0.655  53.751 -26.788  1.00  0.00    -0.390 OA
HETATM   31  C4  UNL     1      -0.080  54.838 -27.335  1.00  0.00     0.202 C 
ENDBRANCH  27  30
ENDBRANCH  25  27
ENDBRANCH  22  25
ENDBRANCH  20  21
ENDBRANCH  18  20
ENDBRANCH   1  18
TORSDOF 12
ENDMDL
MODEL 3
REMARK minimizedAffinity -6.9111805
REMARK CNNscore 0.253422052
REMARK CNNaffinity 5.79166603
REMARK  12 active torsions:
REMARK  status: ('A' for Active; 'I' for Inactive)
REMARK    1  A    between atoms: C2_2  and  C3_3 
REMARK    2  A    between atoms: C3_3  and  O1_4 
REMARK    3  A    between atoms: C3_3  and  C5_6 
REMARK    4  A    between atoms: C5_6  and  C7_8 
REMARK    5  A    between atoms: C8_10  and  C10_12 
REMARK    6  A    between atoms: C10_12  and  C11_13 
REMARK    7  A    between atoms: C11_13  and  C13_15 
REMARK    8  A    between atoms: C14_16  and  C15_17 
REMARK    9  A    between atoms: C16_18  and  C18_20 
REMARK   10  A    between atoms: C19_22  and  C20_23 
REMARK   11  A    between atoms: C20_23  and  C21_24 
REMARK   12  A    between atoms: C21_24  and  O5_26 
ROOT
HETATM    1  C13 UNL     1      -4.927  47.885 -27.395  1.00  0.00    -0.022 C 
HETATM    2  C14 UNL     1      -5.438  48.149 -28.608  1.00  0.00    -0.003 C 
ENDROOT
BRANCH   2   3
HETATM    3  C15 UNL     1      -5.970  47.122 -29.477  1.00  0.00     0.005 C 
HETATM    4  C16 UNL     1      -5.877  47.059 -30.823  1.00  0.00    -0.055 C 
HETATM    5  C17 UNL     1      -5.149  48.073 -31.677  1.00  0.00     0.046 C 
BRANCH   4   6
HETATM    6  C18 UNL     1      -6.475  45.925 -31.660  1.00  0.00     0.154 C 
HETATM    7  O3  UNL     1      -5.480  44.884 -31.630  1.00  0.00    -0.375 OA
HETATM    8  C19 UNL     1      -5.916  43.674 -32.249  1.00  0.00     0.132 C 
HETATM    9  C22 UNL     1      -6.986  43.024 -31.363  1.00  0.00     0.033 C 
HETATM   10  C23 UNL     1      -7.779  44.047 -30.550  1.00  0.00     0.009 C 
HETATM   11  C24 UNL     1      -7.884  45.403 -31.252  1.00  0.00     0.015 C 
HETATM   12  C25 UNL     1      -8.822  45.316 -32.468  1.00  0.00     0.012 C 
BRANCH   8  13
HETATM   13  C20 UNL     1      -4.713  42.748 -32.417  1.00  0.00     0.141 C 
BRANCH  13  14
HETATM   14  C21 UNL     1      -4.546  42.332 -33.852  1.00  0.00     0.141 C 
HETATM   15  O4  UNL     1      -4.862  41.270 -34.362  1.00  0.00    -0.650 OA
BRANCH  14  16
HETATM   16  O5  UNL     1      -3.902  43.269 -34.579  1.00  0.00    -0.776 OA
HETATM   17  H34 UNL     1      -3.852  42.879 -35.475  1.00  0.00     0.167 HD
ENDBRANCH  14  16
ENDBRANCH  13  14
ENDBRANCH   8  13
ENDBRANCH   4   6
ENDBRANCH   2   3
BRANCH   1  18
HETATM   18  C11 UNL     1      -4.352  48.916 -26.444  1.00  0.00     0.007 C 
HETATM   19  C12 UNL     1      -4.705  48.574 -24.988  1.00  0.00     0.014 C 
BRANCH  18  20
HETATM   20  C10 UNL     1      -2.827  49.100 -26.599  1.00  0.00     0.048 C 
BRANCH  20  21
HETATM   21  C8  UNL     1      -2.332  50.494 -26.268  1.00  0.00     0.085 A 
HETATM   22  C7  UNL     1      -1.033  50.604 -25.458  1.00  0.00     0.163 A 
HETATM   23  O2  UNL     1      -2.326  50.787 -24.864  1.00  0.00    -0.369 OA
HETATM   24  C9  UNL     1      -2.837  51.625 -27.112  1.00  0.00     0.049 C 
BRANCH  22  25
HETATM   25  C5  UNL     1      -0.144  51.824 -25.416  1.00  0.00     0.042 C 
HETATM   26  C6  UNL     1      -0.761  52.893 -24.510  1.00  0.00     0.015 C 
BRANCH  25  27
HETATM   27  C3  UNL     1       0.169  52.385 -26.838  1.00  0.00     0.126 C 
BRANCH  27  28
HETATM   28  C2  UNL     1       1.380  51.723 -27.526  1.00  0.00     0.028 C 
HETATM   29  C1  UNL     1       2.531  51.474 -26.555  1.00  0.00     0.007 C 
ENDBRANCH  27  28
BRANCH  27  30
HETATM   30  O1  UNL     1       0.416  53.799 -26.812  1.00  0.00    -0.390 OA
HETATM   31  C4  UNL     1      -0.237  54.519 -27.849  1.00  0.00     0.202 C 
ENDBRANCH  27  30
ENDBRANCH  25  27
ENDBRANCH  22  25
ENDBRANCH  20  21
ENDBRANCH  18  20
ENDBRANCH   1  18
TORSDOF 12
ENDMDL
MODEL 4
REMARK minimizedAffinity -6.55838633
REMARK CNNscore 0.22703971
REMARK CNNaffinity 5.67319727
REMARK  12 active torsions:
REMARK  status: ('A' for Active; 'I' for Inactive)
REMARK    1  A    between atoms: C2_2  and  C3_3 
REMARK    2  A    between atoms: C3_3  and  O1_4 
REMARK    3  A    between atoms: C3_3  and  C5_6 
REMARK    4  A    between atoms: C5_6  and  C7_8 
REMARK    5  A    between atoms: C8_10  and  C10_12 
REMARK    6  A    between atoms: C10_12  and  C11_13 
REMARK    7  A    between atoms: C11_13  and  C13_15 
REMARK    8  A    between atoms: C14_16  and  C15_17 
REMARK    9  A    between atoms: C16_18  and  C18_20 
REMARK   10  A    between atoms: C19_22  and  C20_23 
REMARK   11  A    between atoms: C20_23  and  C21_24 
REMARK   12  A    between atoms: C21_24  and  O5_26 
ROOT
HETATM    1  C13 UNL     1       0.232  52.224 -19.241  1.00  0.00    -0.022 C 
HETATM    2  C14 UNL     1       1.077  52.596 -18.266  1.00  0.00    -0.003 C 
ENDROOT
BRANCH   2   3
HETATM    3  C15 UNL     1       1.085  51.980 -16.956  1.00  0.00     0.005 C 
HETATM    4  C16 UNL     1       2.088  51.991 -16.052  1.00  0.00    -0.055 C 
HETATM    5  C17 UNL     1       3.410  52.698 -16.252  1.00  0.00     0.046 C 
BRANCH   4   6
HETATM    6  C18 UNL     1       2.001  51.308 -14.684  1.00  0.00     0.154 C 
HETATM    7  O3  UNL     1       1.624  49.949 -14.977  1.00  0.00    -0.375 OA
HETATM    8  C19 UNL     1       1.624  49.107 -13.825  1.00  0.00     0.132 C 
HETATM    9  C22 UNL     1       3.074  48.876 -13.383  1.00  0.00     0.033 C 
HETATM   10  C23 UNL     1       3.993  50.044 -13.740  1.00  0.00     0.009 C 
HETATM   11  C24 UNL     1       3.256  51.385 -13.766  1.00  0.00     0.015 C 
HETATM   12  C25 UNL     1       2.881  51.829 -12.342  1.00  0.00     0.012 C 
BRANCH   8  13
HETATM   13  C20 UNL     1       0.946  47.786 -14.183  1.00  0.00     0.141 C 
BRANCH  13  14
HETATM   14  C21 UNL     1      -0.547  47.945 -14.257  1.00  0.00     0.141 C 
HETATM   15  O4  UNL     1      -1.390  47.395 -13.569  1.00  0.00    -0.650 OA
BRANCH  14  16
HETATM   16  O5  UNL     1      -0.919  48.753 -15.271  1.00  0.00    -0.776 OA
HETATM   17  H34 UNL     1      -1.897  48.766 -15.216  1.00  0.00     0.167 HD
ENDBRANCH  14  16
ENDBRANCH  13  14
ENDBRANCH   8  13
ENDBRANCH   4   6
ENDBRANCH   2   3
BRANCH   1  18
HETATM   18  C11 UNL     1       0.174  52.834 -20.628  1.00  0.00     0.007 C 
HETATM   19  C12 UNL     1       1.404  53.715 -20.889  1.00  0.00     0.014 C 
BRANCH  18  20
HETATM   20  C10 UNL     1       0.019  51.781 -21.747  1.00  0.00     0.048 C 
BRANCH  20  21
HETATM   21  C8  UNL     1      -1.412  51.557 -22.195  1.00  0.00     0.085 A 
HETATM   22  C7  UNL     1      -1.623  50.893 -23.562  1.00  0.00     0.163 A 
HETATM   23  O2  UNL     1      -1.776  52.305 -23.363  1.00  0.00    -0.369 OA
HETATM   24  C9  UNL     1      -2.474  51.545 -21.137  1.00  0.00     0.049 C 
BRANCH  22  25
HETATM   25  C5  UNL     1      -2.884  50.179 -23.988  1.00  0.00     0.042 C 
HETATM   26  C6  UNL     1      -2.663  48.663 -23.964  1.00  0.00     0.015 C 
BRANCH  25  27
HETATM   27  C3  UNL     1      -3.406  50.662 -25.377  1.00  0.00     0.126 C 
BRANCH  27  28
HETATM   28  C2  UNL     1      -2.297  50.902 -26.421  1.00  0.00     0.028 C 
HETATM   29  C1  UNL     1      -2.333  52.319 -26.986  1.00  0.00     0.007 C 
ENDBRANCH  27  28
BRANCH  27  30
HETATM   30  O1  UNL     1      -4.159  51.879 -25.270  1.00  0.00    -0.390 OA
HETATM   31  C4  UNL     1      -5.046  51.916 -24.160  1.00  0.00     0.202 C 
ENDBRANCH  27  30
ENDBRANCH  25  27
ENDBRANCH  22  25
ENDBRANCH  20  21
ENDBRANCH  18  20
ENDBRANCH   1  18
TORSDOF 12
ENDMDL
MODEL 5
REMARK minimizedAffinity -6.70067215
REMARK CNNscore 0.220315814
REMARK CNNaffinity 6.17877388
REMARK  12 active torsions:
REMARK  status: ('A' for Active; 'I' for Inactive)
REMARK    1  A    between atoms: C2_2  and  C3_3 
REMARK    2  A    between atoms: C3_3  and  O1_4 
REMARK    3  A    between atoms: C3_3  and  C5_6 
REMARK    4  A    between atoms: C5_6  and  C7_8 
REMARK    5  A    between atoms: C8_10  and  C10_12 
REMARK    6  A    between atoms: C10_12  and  C11_13 
REMARK    7  A    between atoms: C11_13  and  C13_15 
REMARK    8  A    between atoms: C14_16  and  C15_17 
REMARK    9  A    between atoms: C16_18  and  C18_20 
REMARK   10  A    between atoms: C19_22  and  C20_23 
REMARK   11  A    between atoms: C20_23  and  C21_24 
REMARK   12  A    between atoms: C21_24  and  O5_26 
ROOT
HETATM    1  C13 UNL     1      -1.416  50.314 -20.513  1.00  0.00    -0.022 C 
HETATM    2  C14 UNL     1      -1.173  51.335 -21.351  1.00  0.00    -0.003 C 
ENDROOT
BRANCH   2   3
HETATM    3  C15 UNL     1      -0.959  51.152 -22.770  1.00  0.00     0.005 C 
HETATM    4  C16 UNL     1      -0.193  51.909 -23.587  1.00  0.00    -0.055 C 
HETATM    5  C17 UNL     1       0.620  53.100 -23.133  1.00  0.00     0.046 C 
BRANCH   4   6
HETATM    6  C18 UNL     1      -0.028  51.634 -25.084  1.00  0.00     0.154 C 
HETATM    7  O3  UNL     1      -1.343  51.824 -25.639  1.00  0.00    -0.375 OA
HETATM    8  C19 UNL     1      -1.366  51.745 -27.064  1.00  0.00     0.132 C 
HETATM    9  C22 UNL     1      -0.669  52.984 -27.639  1.00  0.00     0.033 C 
HETATM   10  C23 UNL     1       0.409  53.539 -26.708  1.00  0.00     0.009 C 
HETATM   11  C24 UNL     1       1.056  52.453 -25.845  1.00  0.00     0.015 C 
HETATM   12  C25 UNL     1       1.952  51.540 -26.698  1.00  0.00     0.012 C 
BRANCH   8  13
HETATM   13  C20 UNL     1      -2.820  51.674 -27.527  1.00  0.00     0.141 C 
BRANCH  13  14
HETATM   14  C21 UNL     1      -3.140  50.323 -28.103  1.00  0.00     0.141 C 
HETATM   15  O4  UNL     1      -2.913  49.230 -27.612  1.00  0.00    -0.650 OA
BRANCH  14  16
HETATM   16  O5  UNL     1      -3.676  50.414 -29.338  1.00  0.00    -0.776 OA
HETATM   17  H34 UNL     1      -3.827  49.482 -29.599  1.00  0.00     0.167 HD
ENDBRANCH  14  16
ENDBRANCH  13  14
ENDBRANCH   8  13
ENDBRANCH   4   6
ENDBRANCH   2   3
BRANCH   1  18
HETATM   18  C11 UNL     1      -1.643  50.442 -19.020  1.00  0.00     0.007 C 
HETATM   19  C12 UNL     1      -0.856  51.631 -18.448  1.00  0.00     0.014 C 
BRANCH  18  20
HETATM   20  C10 UNL     1      -3.136  50.554 -18.641  1.00  0.00     0.048 C 
BRANCH  20  21
HETATM   21  C8  UNL     1      -4.052  49.660 -19.454  1.00  0.00     0.085 A 
HETATM   22  C7  UNL     1      -4.808  48.558 -18.699  1.00  0.00     0.163 A 
HETATM   23  O2  UNL     1      -3.640  48.287 -19.486  1.00  0.00    -0.369 OA
HETATM   24  C9  UNL     1      -4.520  50.175 -20.781  1.00  0.00     0.049 C 
BRANCH  22  25
HETATM   25  C5  UNL     1      -6.067  47.885 -19.191  1.00  0.00     0.042 C 
HETATM   26  C6  UNL     1      -5.729  46.883 -20.299  1.00  0.00     0.015 C 
BRANCH  25  27
HETATM   27  C3  UNL     1      -7.152  48.907 -19.651  1.00  0.00     0.126 C 
BRANCH  27  28
HETATM   28  C2  UNL     1      -8.260  49.163 -18.610  1.00  0.00     0.028 C 
HETATM   29  C1  UNL     1      -8.264  48.115 -17.502  1.00  0.00     0.007 C 
ENDBRANCH  27  28
BRANCH  27  30
HETATM   30  O1  UNL     1      -7.796  48.494 -20.865  1.00  0.00    -0.390 OA
HETATM   31  C4  UNL     1      -7.608  49.389 -21.954  1.00  0.00     0.202 C 
ENDBRANCH  27  30
ENDBRANCH  25  27
ENDBRANCH  22  25
ENDBRANCH  20  21
ENDBRANCH  18  20
ENDBRANCH   1  18
TORSDOF 12
ENDMDL
MODEL 6
REMARK minimizedAffinity -7.57385731
REMARK CNNscore 0.198050126
REMARK CNNaffinity 5.54549599
REMARK  12 active torsions:
REMARK  status: ('A' for Active; 'I' for Inactive)
REMARK    1  A    between atoms: C2_2  and  C3_3 
REMARK    2  A    between atoms: C3_3  and  O1_4 
REMARK    3  A    between atoms: C3_3  and  C5_6 
REMARK    4  A    between atoms: C5_6  and  C7_8 
REMARK    5  A    between atoms: C8_10  and  C10_12 
REMARK    6  A    between atoms: C10_12  and  C11_13 
REMARK    7  A    between atoms: C11_13  and  C13_15 
REMARK    8  A    between atoms: C14_16  and  C15_17 
REMARK    9  A    between atoms: C16_18  and  C18_20 
REMARK   10  A    between atoms: C19_22  and  C20_23 
REMARK   11  A    between atoms: C20_23  and  C21_24 
REMARK   12  A    between atoms: C21_24  and  O5_26 
ROOT
HETATM    1  C13 UNL     1      -4.586  48.213 -26.531  1.00  0.00    -0.022 C 
HETATM    2  C14 UNL     1      -5.089  48.109 -27.772  1.00  0.00    -0.003 C 
ENDROOT
BRANCH   2   3
HETATM    3  C15 UNL     1      -6.390  47.539 -28.047  1.00  0.00     0.005 C 
HETATM    4  C16 UNL     1      -6.874  47.141 -29.243  1.00  0.00    -0.055 C 
HETATM    5  C17 UNL     1      -6.098  47.200 -30.540  1.00  0.00     0.046 C 
BRANCH   4   6
HETATM    6  C18 UNL     1      -8.272  46.546 -29.434  1.00  0.00     0.154 C 
HETATM    7  O3  UNL     1      -9.018  46.988 -28.285  1.00  0.00    -0.375 OA
HETATM    8  C19 UNL     1     -10.401  46.643 -28.349  1.00  0.00     0.132 C 
HETATM    9  C22 UNL     1     -11.074  47.499 -29.429  1.00  0.00     0.033 C 
HETATM   10  C23 UNL     1     -10.113  47.898 -30.548  1.00  0.00     0.009 C 
HETATM   11  C24 UNL     1      -9.007  46.863 -30.770  1.00  0.00     0.015 C 
HETATM   12  C25 UNL     1      -9.575  45.587 -31.413  1.00  0.00     0.012 C 
BRANCH   8  13
HETATM   13  C20 UNL     1     -11.034  46.896 -26.981  1.00  0.00     0.141 C 
BRANCH  13  14
HETATM   14  C21 UNL     1     -11.073  48.365 -26.665  1.00  0.00     0.141 C 
HETATM   15  O4  UNL     1     -10.215  49.031 -26.111  1.00  0.00    -0.650 OA
BRANCH  14  16
HETATM   16  O5  UNL     1     -12.254  48.923 -27.003  1.00  0.00    -0.776 OA
HETATM   17  H34 UNL     1     -12.154  49.862 -26.742  1.00  0.00     0.167 HD
ENDBRANCH  14  16
ENDBRANCH  13  14
ENDBRANCH   8  13
ENDBRANCH   4   6
ENDBRANCH   2   3
BRANCH   1  18
HETATM   18  C11 UNL     1      -3.230  48.795 -26.183  1.00  0.00     0.007 C 
HETATM   19  C12 UNL     1      -3.032  50.161 -26.855  1.00  0.00     0.014 C 
BRANCH  18  20
HETATM   20  C10 UNL     1      -2.990  48.904 -24.661  1.00  0.00     0.048 C 
BRANCH  20  21
HETATM   21  C8  UNL     1      -2.487  50.260 -24.207  1.00  0.00     0.085 A 
HETATM   22  C7  UNL     1      -1.043  50.630 -24.570  1.00  0.00     0.163 A 
HETATM   23  O2  UNL     1      -1.416  50.191 -23.257  1.00  0.00    -0.369 OA
HETATM   24  C9  UNL     1      -3.512  51.303 -23.877  1.00  0.00     0.049 C 
BRANCH  22  25
HETATM   25  C5  UNL     1      -0.504  52.040 -24.632  1.00  0.00     0.042 C 
HETATM   26  C6  UNL     1      -1.653  53.047 -24.529  1.00  0.00     0.015 C 
BRANCH  25  27
HETATM   27  C3  UNL     1       0.372  52.291 -25.898  1.00  0.00     0.126 C 
BRANCH  27  28
HETATM   28  C2  UNL     1       1.803  51.727 -25.800  1.00  0.00     0.028 C 
HETATM   29  C1  UNL     1       2.476  51.622 -27.166  1.00  0.00     0.007 C 
ENDBRANCH  27  28
BRANCH  27  30
HETATM   30  O1  UNL     1       0.486  53.690 -26.200  1.00  0.00    -0.390 OA
HETATM   31  C4  UNL     1      -0.060  54.056 -27.461  1.00  0.00     0.202 C 
ENDBRANCH  27  30
ENDBRANCH  25  27
ENDBRANCH  22  25
ENDBRANCH  20  21
ENDBRANCH  18  20
ENDBRANCH   1  18
TORSDOF 12
ENDMDL
MODEL 7
REMARK minimizedAffinity -7.51907778
REMARK CNNscore 0.185891882
REMARK CNNaffinity 5.42137527
REMARK  12 active torsions:
REMARK  status: ('A' for Active; 'I' for Inactive)
REMARK    1  A    between atoms: C2_2  and  C3_3 
REMARK    2  A    between atoms: C3_3  and  O1_4 
REMARK    3  A    between atoms: C3_3  and  C5_6 
REMARK    4  A    between atoms: C5_6  and  C7_8 
REMARK    5  A    between atoms: C8_10  and  C10_12 
REMARK    6  A    between atoms: C10_12  and  C11_13 
REMARK    7  A    between atoms: C11_13  and  C13_15 
REMARK    8  A    between atoms: C14_16  and  C15_17 
REMARK    9  A    between atoms: C16_18  and  C18_20 
REMARK   10  A    between atoms: C19_22  and  C20_23 
REMARK   11  A    between atoms: C20_23  and  C21_24 
REMARK   12  A    between atoms: C21_24  and  O5_26 
ROOT
HETATM    1  C13 UNL     1      -4.303  48.483 -27.015  1.00  0.00    -0.022 C 
HETATM    2  C14 UNL     1      -5.416  48.226 -27.721  1.00  0.00    -0.003 C 
ENDROOT
BRANCH   2   3
HETATM    3  C15 UNL     1      -5.387  47.708 -29.072  1.00  0.00     0.005 C 
HETATM    4  C16 UNL     1      -6.261  46.847 -29.638  1.00  0.00    -0.055 C 
HETATM    5  C17 UNL     1      -7.477  46.283 -28.939  1.00  0.00     0.046 C 
BRANCH   4   6
HETATM    6  C18 UNL     1      -6.146  46.355 -31.083  1.00  0.00     0.154 C 
HETATM    7  O3  UNL     1      -7.087  47.158 -31.820  1.00  0.00    -0.375 OA
HETATM    8  C19 UNL     1      -7.029  46.939 -33.228  1.00  0.00     0.132 C 
HETATM    9  C22 UNL     1      -5.720  47.529 -33.767  1.00  0.00     0.033 C 
HETATM   10  C23 UNL     1      -4.598  47.519 -32.728  1.00  0.00     0.009 C 
HETATM   11  C24 UNL     1      -4.730  46.366 -31.731  1.00  0.00     0.015 C 
HETATM   12  C25 UNL     1      -4.415  45.021 -32.408  1.00  0.00     0.012 C 
BRANCH   8  13
HETATM   13  C20 UNL     1      -8.237  47.610 -33.880  1.00  0.00     0.141 C 
BRANCH  13  14
HETATM   14  C21 UNL     1      -8.470  47.079 -35.266  1.00  0.00     0.141 C 
HETATM   15  O4  UNL     1      -8.806  45.950 -35.585  1.00  0.00    -0.650 OA
BRANCH  14  16
HETATM   16  O5  UNL     1      -8.189  47.997 -36.213  1.00  0.00    -0.776 OA
HETATM   17  H34 UNL     1      -8.370  47.531 -37.055  1.00  0.00     0.167 HD
ENDBRANCH  14  16
ENDBRANCH  13  14
ENDBRANCH   8  13
ENDBRANCH   4   6
ENDBRANCH   2   3
BRANCH   1  18
HETATM   18  C11 UNL     1      -4.271  49.030 -25.601  1.00  0.00     0.007 C 
HETATM   19  C12 UNL     1      -5.148  48.183 -24.667  1.00  0.00     0.014 C 
BRANCH  18  20
HETATM   20  C10 UNL     1      -2.841  49.153 -25.031  1.00  0.00     0.048 C 
BRANCH  20  21
HETATM   21  C8  UNL     1      -2.301  50.569 -25.010  1.00  0.00     0.085 A 
HETATM   22  C7  UNL     1      -0.856  50.762 -24.528  1.00  0.00     0.163 A 
HETATM   23  O2  UNL     1      -1.988  51.049 -23.695  1.00  0.00    -0.369 OA
HETATM   24  C9  UNL     1      -2.991  51.586 -25.868  1.00  0.00     0.049 C 
BRANCH  22  25
HETATM   25  C5  UNL     1       0.007  51.959 -24.849  1.00  0.00     0.042 C 
HETATM   26  C6  UNL     1      -0.488  53.185 -24.077  1.00  0.00     0.015 C 
BRANCH  25  27
HETATM   27  C3  UNL     1       0.095  52.239 -26.381  1.00  0.00     0.126 C 
BRANCH  27  28
HETATM   28  C2  UNL     1       1.011  51.267 -27.151  1.00  0.00     0.028 C 
HETATM   29  C1  UNL     1       2.484  51.654 -27.044  1.00  0.00     0.007 C 
ENDBRANCH  27  28
BRANCH  27  30
HETATM   30  O1  UNL     1       0.562  53.569 -26.656  1.00  0.00    -0.390 OA
HETATM   31  C4  UNL     1      -0.184  54.249 -27.657  1.00  0.00     0.202 C 
ENDBRANCH  27  30
ENDBRANCH  25  27
ENDBRANCH  22  25
ENDBRANCH  20  21
ENDBRANCH  18  20
ENDBRANCH   1  18
TORSDOF 12
ENDMDL
MODEL 8
REMARK minimizedAffinity -7.46801949
REMARK CNNscore 0.185083553
REMARK CNNaffinity 5.7498436
REMARK  12 active torsions:
REMARK  status: ('A' for Active; 'I' for Inactive)
REMARK    1  A    between atoms: C2_2  and  C3_3 
REMARK    2  A    between atoms: C3_3  and  O1_4 
REMARK    3  A    between atoms: C3_3  and  C5_6 
REMARK    4  A    between atoms: C5_6  and  C7_8 
REMARK    5  A    between atoms: C8_10  and  C10_12 
REMARK    6  A    between atoms: C10_12  and  C11_13 
REMARK    7  A    between atoms: C11_13  and  C13_15 
REMARK    8  A    between atoms: C14_16  and  C15_17 
REMARK    9  A    between atoms: C16_18  and  C18_20 
REMARK   10  A    between atoms: C19_22  and  C20_23 
REMARK   11  A    between atoms: C20_23  and  C21_24 
REMARK   12  A    between atoms: C21_24  and  O5_26 
ROOT
HETATM    1  C13 UNL     1       0.188  52.577 -19.133  1.00  0.00    -0.022 C 
HETATM    2  C14 UNL     1       1.247  52.605 -18.309  1.00  0.00    -0.003 C 
ENDROOT
BRANCH   2   3
HETATM    3  C15 UNL     1       1.161  52.255 -16.907  1.00  0.00     0.005 C 
HETATM    4  C16 UNL     1       2.162  52.250 -16.001  1.00  0.00    -0.055 C 
HETATM    5  C17 UNL     1       3.589  52.652 -16.303  1.00  0.00     0.046 C 
BRANCH   4   6
HETATM    6  C18 UNL     1       1.971  51.863 -14.532  1.00  0.00     0.154 C 
HETATM    7  O3  UNL     1       0.571  52.079 -14.275  1.00  0.00    -0.375 OA
HETATM    8  C19 UNL     1       0.164  51.640 -12.980  1.00  0.00     0.132 C 
HETATM    9  C22 UNL     1       0.192  50.107 -12.947  1.00  0.00     0.033 C 
HETATM   10  C23 UNL     1       1.232  49.516 -13.898  1.00  0.00     0.009 C 
HETATM   11  C24 UNL     1       2.435  50.440 -14.102  1.00  0.00     0.015 C 
HETATM   12  C25 UNL     1       3.303  50.494 -12.833  1.00  0.00     0.012 C 
BRANCH   8  13
HETATM   13  C20 UNL     1      -1.243  52.166 -12.703  1.00  0.00     0.141 C 
BRANCH  13  14
HETATM   14  C21 UNL     1      -1.288  52.947 -11.420  1.00  0.00     0.141 C 
HETATM   15  O4  UNL     1      -2.025  52.769 -10.464  1.00  0.00    -0.650 OA
BRANCH  14  16
HETATM   16  O5  UNL     1      -0.431  53.989 -11.432  1.00  0.00    -0.776 OA
HETATM   17  H34 UNL     1      -0.562  54.412 -10.558  1.00  0.00     0.167 HD
ENDBRANCH  14  16
ENDBRANCH  13  14
ENDBRANCH   8  13
ENDBRANCH   4   6
ENDBRANCH   2   3
BRANCH   1  18
HETATM   18  C11 UNL     1       0.216  52.937 -20.606  1.00  0.00     0.007 C 
HETATM   19  C12 UNL     1       1.182  54.102 -20.865  1.00  0.00     0.014 C 
BRANCH  18  20
HETATM   20  C10 UNL     1       0.562  51.739 -21.516  1.00  0.00     0.048 C 
BRANCH  20  21
HETATM   21  C8  UNL     1      -0.388  51.549 -22.682  1.00  0.00     0.085 A 
HETATM   22  C7  UNL     1       0.112  51.970 -24.070  1.00  0.00     0.163 A 
HETATM   23  O2  UNL     1      -0.792  52.777 -23.304  1.00  0.00    -0.369 OA
HETATM   24  C9  UNL     1      -1.510  50.570 -22.508  1.00  0.00     0.049 C 
BRANCH  22  25
HETATM   25  C5  UNL     1      -0.450  51.466 -25.378  1.00  0.00     0.042 C 
HETATM   26  C6  UNL     1       0.682  50.964 -26.279  1.00  0.00     0.015 C 
BRANCH  25  27
HETATM   27  C3  UNL     1      -1.331  52.532 -26.101  1.00  0.00     0.126 C 
BRANCH  27  28
HETATM   28  C2  UNL     1      -2.100  51.992 -27.324  1.00  0.00     0.028 C 
HETATM   29  C1  UNL     1      -3.081  50.885 -26.946  1.00  0.00     0.007 C 
ENDBRANCH  27  28
BRANCH  27  30
HETATM   30  O1  UNL     1      -0.555  53.653 -26.548  1.00  0.00    -0.390 OA
HETATM   31  C4  UNL     1      -0.577  53.848 -27.956  1.00  0.00     0.202 C 
ENDBRANCH  27  30
ENDBRANCH  25  27
ENDBRANCH  22  25
ENDBRANCH  20  21
ENDBRANCH  18  20
ENDBRANCH   1  18
TORSDOF 12
ENDMDL
MODEL 9
REMARK minimizedAffinity -7.0096879
REMARK CNNscore 0.184320882
REMARK CNNaffinity 5.72212791
REMARK  12 active torsions:
REMARK  status: ('A' for Active; 'I' for Inactive)
REMARK    1  A    between atoms: C2_2  and  C3_3 
REMARK    2  A    between atoms: C3_3  and  O1_4 
REMARK    3  A    between atoms: C3_3  and  C5_6 
REMARK    4  A    between atoms: C5_6  and  C7_8 
REMARK    5  A    between atoms: C8_10  and  C10_12 
REMARK    6  A    between atoms: C10_12  and  C11_13 
REMARK    7  A    between atoms: C11_13  and  C13_15 
REMARK    8  A    between atoms: C14_16  and  C15_17 
REMARK    9  A    between atoms: C16_18  and  C18_20 
REMARK   10  A    between atoms: C19_22  and  C20_23 
REMARK   11  A    between atoms: C20_23  and  C21_24 
REMARK   12  A    between atoms: C21_24  and  O5_26 
ROOT
HETATM    1  C13 UNL     1      -5.091  48.276 -25.789  1.00  0.00    -0.022 C 
HETATM    2  C14 UNL     1      -5.213  48.184 -27.123  1.00  0.00    -0.003 C 
ENDROOT
BRANCH   2   3
HETATM    3  C15 UNL     1      -6.251  47.405 -27.764  1.00  0.00     0.005 C 
HETATM    4  C16 UNL     1      -6.373  47.129 -29.081  1.00  0.00    -0.055 C 
HETATM    5  C17 UNL     1      -5.395  47.582 -30.141  1.00  0.00     0.046 C 
BRANCH   4   6
HETATM    6  C18 UNL     1      -7.512  46.291 -29.666  1.00  0.00     0.154 C 
HETATM    7  O3  UNL     1      -7.226  46.219 -31.076  1.00  0.00    -0.375 OA
HETATM    8  C19 UNL     1      -8.113  45.354 -31.784  1.00  0.00     0.132 C 
HETATM    9  C22 UNL     1      -7.805  43.904 -31.392  1.00  0.00     0.033 C 
HETATM   10  C23 UNL     1      -7.245  43.782 -29.975  1.00  0.00     0.009 C 
HETATM   11  C24 UNL     1      -7.756  44.884 -29.044  1.00  0.00     0.015 C 
HETATM   12  C25 UNL     1      -9.243  44.670 -28.712  1.00  0.00     0.012 C 
BRANCH   8  13
HETATM   13  C20 UNL     1      -7.913  45.567 -33.284  1.00  0.00     0.141 C 
BRANCH  13  14
HETATM   14  C21 UNL     1      -7.465  46.972 -33.577  1.00  0.00     0.141 C 
HETATM   15  O4  UNL     1      -8.161  47.966 -33.700  1.00  0.00    -0.650 OA
BRANCH  14  16
HETATM   16  O5  UNL     1      -6.134  47.046 -33.781  1.00  0.00    -0.776 OA
HETATM   17  H34 UNL     1      -5.976  47.994 -33.967  1.00  0.00     0.167 HD
ENDBRANCH  14  16
ENDBRANCH  13  14
ENDBRANCH   8  13
ENDBRANCH   4   6
ENDBRANCH   2   3
BRANCH   1  18
HETATM   18  C11 UNL     1      -4.024  49.071 -25.062  1.00  0.00     0.007 C 
HETATM   19  C12 UNL     1      -3.635  48.385 -23.744  1.00  0.00     0.014 C 
BRANCH  18  20
HETATM   20  C10 UNL     1      -2.769  49.331 -25.923  1.00  0.00     0.048 C 
BRANCH  20  21
HETATM   21  C8  UNL     1      -2.172  50.714 -25.750  1.00  0.00     0.085 A 
HETATM   22  C7  UNL     1      -0.774  50.801 -25.123  1.00  0.00     0.163 A 
HETATM   23  O2  UNL     1      -1.967  51.087 -24.380  1.00  0.00    -0.369 OA
HETATM   24  C9  UNL     1      -2.732  51.820 -26.593  1.00  0.00     0.049 C 
BRANCH  22  25
HETATM   25  C5  UNL     1       0.167  51.972 -25.276  1.00  0.00     0.042 C 
HETATM   26  C6  UNL     1      -0.247  53.106 -24.333  1.00  0.00     0.015 C 
BRANCH  25  27
HETATM   27  C3  UNL     1       0.279  52.463 -26.752  1.00  0.00     0.126 C 
BRANCH  27  28
HETATM   28  C2  UNL     1       1.445  51.834 -27.541  1.00  0.00     0.028 C 
HETATM   29  C1  UNL     1       2.603  51.429 -26.634  1.00  0.00     0.007 C 
ENDBRANCH  27  28
BRANCH  27  30
HETATM   30  O1  UNL     1       0.431  53.888 -26.833  1.00  0.00    -0.390 OA
HETATM   31  C4  UNL     1      -0.365  54.499 -27.840  1.00  0.00     0.202 C 
ENDBRANCH  27  30
ENDBRANCH  25  27
ENDBRANCH  22  25
ENDBRANCH  20  21
ENDBRANCH  18  20
ENDBRANCH   1  18
TORSDOF 12
ENDMDL
