MODEL 1
REMARK minimizedAffinity -7.39710617
REMARK CNNscore 0.640546203
REMARK CNNaffinity 6.99630737
REMARK  3 active torsions:
REMARK  status: ('A' for Active; 'I' for Inactive)
REMARK    1  A    between atoms: C2_2  and  O1_3 
REMARK    2  A    between atoms: O1_3  and  C3_4 
REMARK    3  A    between atoms: C3_4  and  C4_6 
ROOT
HETATM    1  C4  UNL     1       5.602  54.350  -7.531  1.00  0.00     0.045 C 
HETATM    2  C5  UNL     1       6.056  54.280  -6.062  1.00  0.00     0.026 C 
HETATM    3  C6  UNL     1       5.715  55.795  -8.080  1.00  0.00     0.020 C 
HETATM    4  C7  UNL     1       4.402  56.572  -7.981  1.00  0.00     0.011 C 
HETATM    5  C8  UNL     1       3.259  55.923  -8.813  1.00  0.00    -0.036 C 
HETATM    6  C9  UNL     1       3.316  56.483 -10.258  1.00  0.00     0.016 C 
HETATM    7  C10 UNL     1       1.908  56.342  -8.184  1.00  0.00     0.011 C 
HETATM    8  C11 UNL     1       0.689  55.547  -8.684  1.00  0.00     0.015 C 
HETATM    9  C12 UNL     1       0.822  53.997  -8.553  1.00  0.00    -0.013 C 
HETATM   10  C13 UNL     1       0.929  53.631  -7.045  1.00  0.00     0.021 C 
HETATM   11  C14 UNL     1       2.135  53.661  -9.265  1.00  0.00    -0.070 C 
HETATM   12  C15 UNL     1       2.170  52.894 -10.364  1.00  0.00    -0.022 C 
HETATM   13  C16 UNL     1       0.982  52.381 -11.092  1.00  0.00     0.033 C 
HETATM   14  C17 UNL     1      -0.376  53.068 -10.742  1.00  0.00     0.007 C 
HETATM   15  C18 UNL     1      -1.581  52.288 -11.474  1.00  0.00    -0.034 C 
HETATM   16  C19 UNL     1      -1.109  52.053 -12.956  1.00  0.00     0.016 C 
HETATM   17  C20 UNL     1      -2.866  53.164 -11.606  1.00  0.00     0.017 C 
HETATM   18  C21 UNL     1      -4.190  52.643 -11.049  1.00  0.00     0.080 C 
HETATM   19  C22 UNL     1      -4.370  51.152 -10.871  1.00  0.00     0.135 C 
HETATM   20  O3  UNL     1      -5.453  50.718 -10.471  1.00  0.00    -0.297 OA
HETATM   21  C23 UNL     1      -3.215  50.219 -11.213  1.00  0.00     0.017 C 
HETATM   22  C24 UNL     1      -3.330  49.902 -12.715  1.00  0.00     0.023 C 
HETATM   23  C25 UNL     1      -3.400  48.874 -10.470  1.00  0.00     0.023 C 
HETATM   24  C26 UNL     1      -1.866  50.909 -10.780  1.00  0.00     0.009 C 
HETATM   25  C27 UNL     1      -1.781  50.977  -9.229  1.00  0.00     0.007 C 
HETATM   26  C28 UNL     1      -0.625  51.777  -8.625  1.00  0.00     0.011 C 
HETATM   27  C29 UNL     1      -0.486  53.220  -9.180  1.00  0.00    -0.028 C 
HETATM   28  C30 UNL     1      -1.752  54.012  -8.761  1.00  0.00     0.016 C 
HETATM   29  C31 UNL     1       3.429  54.373  -8.865  1.00  0.00     0.024 C 
HETATM   30  C32 UNL     1       4.137  53.827  -7.614  1.00  0.00     0.029 C 
ENDROOT
BRANCH   1  31
HETATM   31  C3  UNL     1       6.533  53.441  -8.348  1.00  0.00     0.267 C 
HETATM   32  O2  UNL     1       7.083  53.750  -9.396  1.00  0.00    -0.264 OA
BRANCH  31  33
HETATM   33  O1  UNL     1       6.674  52.231  -7.735  1.00  0.00    -0.321 OA
BRANCH  33  34
HETATM   34  C2  UNL     1       7.127  51.177  -8.593  1.00  0.00     0.174 C 
HETATM   35  C1  UNL     1       8.140  50.345  -7.830  1.00  0.00     0.034 C 
ENDBRANCH  33  34
ENDBRANCH  31  33
ENDBRANCH   1  31
TORSDOF 3
ENDMDL
MODEL 2
REMARK minimizedAffinity -7.02360058
REMARK CNNscore 0.548054934
REMARK CNNaffinity 6.94631243
REMARK  3 active torsions:
REMARK  status: ('A' for Active; 'I' for Inactive)
REMARK    1  A    between atoms: C2_2  and  O1_3 
REMARK    2  A    between atoms: O1_3  and  C3_4 
REMARK    3  A    between atoms: C3_4  and  C4_6 
ROOT
HETATM    1  C4  UNL     1       5.796  56.655  -6.051  1.00  0.00     0.045 C 
HETATM    2  C5  UNL     1       6.309  58.092  -6.252  1.00  0.00     0.026 C 
HETATM    3  C6  UNL     1       6.938  55.624  -6.241  1.00  0.00     0.020 C 
HETATM    4  C7  UNL     1       6.993  55.055  -7.659  1.00  0.00     0.011 C 
HETATM    5  C8  UNL     1       5.698  54.284  -8.045  1.00  0.00    -0.036 C 
HETATM    6  C9  UNL     1       5.848  52.805  -7.599  1.00  0.00     0.016 C 
HETATM    7  C10 UNL     1       5.561  54.313  -9.587  1.00  0.00     0.011 C 
HETATM    8  C11 UNL     1       4.187  53.871 -10.121  1.00  0.00     0.015 C 
HETATM    9  C12 UNL     1       2.972  54.642  -9.515  1.00  0.00    -0.013 C 
HETATM   10  C13 UNL     1       3.081  56.140  -9.917  1.00  0.00     0.021 C 
HETATM   11  C14 UNL     1       3.142  54.497  -8.000  1.00  0.00    -0.070 C 
HETATM   12  C15 UNL     1       2.243  53.848  -7.245  1.00  0.00    -0.022 C 
HETATM   13  C16 UNL     1       1.067  53.102  -7.760  1.00  0.00     0.033 C 
HETATM   14  C17 UNL     1       1.086  52.778  -9.287  1.00  0.00     0.007 C 
HETATM   15  C18 UNL     1      -0.325  52.130  -9.719  1.00  0.00    -0.034 C 
HETATM   16  C19 UNL     1      -0.658  51.047  -8.628  1.00  0.00     0.016 C 
HETATM   17  C20 UNL     1      -0.229  51.326 -11.053  1.00  0.00     0.017 C 
HETATM   18  C21 UNL     1      -1.165  51.676 -12.210  1.00  0.00     0.080 C 
HETATM   19  C22 UNL     1      -2.467  52.381 -11.906  1.00  0.00     0.135 C 
HETATM   20  O3  UNL     1      -3.254  52.621 -12.826  1.00  0.00    -0.297 OA
HETATM   21  C23 UNL     1      -2.789  52.758 -10.465  1.00  0.00     0.017 C 
HETATM   22  C24 UNL     1      -3.475  51.536  -9.829  1.00  0.00     0.023 C 
HETATM   23  C25 UNL     1      -3.834  53.900 -10.450  1.00  0.00     0.023 C 
HETATM   24  C26 UNL     1      -1.458  53.217  -9.756  1.00  0.00     0.009 C 
HETATM   25  C27 UNL     1      -0.983  54.573 -10.349  1.00  0.00     0.007 C 
HETATM   26  C28 UNL     1       0.390  55.087  -9.912  1.00  0.00     0.011 C 
HETATM   27  C29 UNL     1       1.541  54.059 -10.078  1.00  0.00    -0.028 C 
HETATM   28  C30 UNL     1       1.709  53.777 -11.594  1.00  0.00     0.016 C 
HETATM   29  C31 UNL     1       4.457  54.903  -7.332  1.00  0.00     0.024 C 
HETATM   30  C32 UNL     1       4.636  56.406  -7.061  1.00  0.00     0.029 C 
ENDROOT
BRANCH   1  31
HETATM   31  C3  UNL     1       5.274  56.545  -4.610  1.00  0.00     0.267 C 
HETATM   32  O2  UNL     1       5.901  56.095  -3.661  1.00  0.00    -0.264 OA
BRANCH  31  33
HETATM   33  O1  UNL     1       4.002  57.033  -4.528  1.00  0.00    -0.321 OA
BRANCH  33  34
HETATM   34  C2  UNL     1       3.769  57.904  -3.415  1.00  0.00     0.174 C 
HETATM   35  C1  UNL     1       3.672  59.325  -3.936  1.00  0.00     0.034 C 
ENDBRANCH  33  34
ENDBRANCH  31  33
ENDBRANCH   1  31
TORSDOF 3
ENDMDL
MODEL 3
REMARK minimizedAffinity -6.80361795
REMARK CNNscore 0.497501045
REMARK CNNaffinity 5.96794939
REMARK  3 active torsions:
REMARK  status: ('A' for Active; 'I' for Inactive)
REMARK    1  A    between atoms: C2_2  and  O1_3 
REMARK    2  A    between atoms: O1_3  and  C3_4 
REMARK    3  A    between atoms: C3_4  and  C4_6 
ROOT
HETATM    1  C4  UNL     1     -18.716  44.409 -23.242  1.00  0.00     0.045 C 
HETATM    2  C5  UNL     1     -18.889  43.439 -22.060  1.00  0.00     0.026 C 
HETATM    3  C6  UNL     1     -19.826  44.197 -24.303  1.00  0.00     0.020 C 
HETATM    4  C7  UNL     1     -19.396  43.262 -25.434  1.00  0.00     0.011 C 
HETATM    5  C8  UNL     1     -18.183  43.814 -26.237  1.00  0.00    -0.036 C 
HETATM    6  C9  UNL     1     -18.714  44.719 -27.380  1.00  0.00     0.016 C 
HETATM    7  C10 UNL     1     -17.442  42.613 -26.875  1.00  0.00     0.011 C 
HETATM    8  C11 UNL     1     -16.050  42.943 -27.443  1.00  0.00     0.015 C 
HETATM    9  C12 UNL     1     -15.077  43.629 -26.432  1.00  0.00    -0.013 C 
HETATM   10  C13 UNL     1     -14.795  42.642 -25.264  1.00  0.00     0.021 C 
HETATM   11  C14 UNL     1     -15.855  44.841 -25.912  1.00  0.00    -0.070 C 
HETATM   12  C15 UNL     1     -15.437  46.097 -26.128  1.00  0.00    -0.022 C 
HETATM   13  C16 UNL     1     -14.277  46.484 -26.970  1.00  0.00     0.033 C 
HETATM   14  C17 UNL     1     -13.734  45.375 -27.927  1.00  0.00     0.007 C 
HETATM   15  C18 UNL     1     -12.380  45.888 -28.634  1.00  0.00    -0.034 C 
HETATM   16  C19 UNL     1     -12.672  47.355 -29.119  1.00  0.00     0.016 C 
HETATM   17  C20 UNL     1     -12.055  45.100 -29.941  1.00  0.00     0.017 C 
HETATM   18  C21 UNL     1     -10.696  44.416 -30.087  1.00  0.00     0.080 C 
HETATM   19  C22 UNL     1      -9.534  44.921 -29.263  1.00  0.00     0.135 C 
HETATM   20  O3  UNL     1      -8.420  44.411 -29.412  1.00  0.00    -0.297 OA
HETATM   21  C23 UNL     1      -9.760  46.066 -28.284  1.00  0.00     0.017 C 
HETATM   22  C24 UNL     1      -9.571  47.372 -29.076  1.00  0.00     0.023 C 
HETATM   23  C25 UNL     1      -8.652  46.049 -27.203  1.00  0.00     0.023 C 
HETATM   24  C26 UNL     1     -11.179  45.889 -27.622  1.00  0.00     0.009 C 
HETATM   25  C27 UNL     1     -11.174  44.652 -26.681  1.00  0.00     0.007 C 
HETATM   26  C28 UNL     1     -12.515  44.214 -26.090  1.00  0.00     0.011 C 
HETATM   27  C29 UNL     1     -13.643  44.017 -27.138  1.00  0.00    -0.028 C 
HETATM   28  C30 UNL     1     -13.234  42.837 -28.058  1.00  0.00     0.016 C 
HETATM   29  C31 UNL     1     -17.252  44.659 -25.315  1.00  0.00     0.024 C 
HETATM   30  C32 UNL     1     -17.300  44.185 -23.853  1.00  0.00     0.029 C 
ENDROOT
BRANCH   1  31
HETATM   31  C3  UNL     1     -18.832  45.838 -22.691  1.00  0.00     0.267 C 
HETATM   32  O2  UNL     1     -18.810  46.861 -23.363  1.00  0.00    -0.264 OA
BRANCH  31  33
HETATM   33  O1  UNL     1     -18.974  45.814 -21.334  1.00  0.00    -0.321 OA
BRANCH  33  34
HETATM   34  C2  UNL     1     -18.362  46.915 -20.652  1.00  0.00     0.174 C 
HETATM   35  C1  UNL     1     -19.187  47.228 -19.419  1.00  0.00     0.034 C 
ENDBRANCH  33  34
ENDBRANCH  31  33
ENDBRANCH   1  31
TORSDOF 3
ENDMDL
MODEL 4
REMARK minimizedAffinity -6.84769297
REMARK CNNscore 0.493725419
REMARK CNNaffinity 6.12431955
REMARK  3 active torsions:
REMARK  status: ('A' for Active; 'I' for Inactive)
REMARK    1  A    between atoms: C2_2  and  O1_3 
REMARK    2  A    between atoms: O1_3  and  C3_4 
REMARK    3  A    between atoms: C3_4  and  C4_6 
ROOT
HETATM    1  C4  UNL     1     -16.734  44.590 -25.559  1.00  0.00     0.045 C 
HETATM    2  C5  UNL     1     -17.230  45.196 -24.234  1.00  0.00     0.026 C 
HETATM    3  C6  UNL     1     -16.602  43.049 -25.451  1.00  0.00     0.020 C 
HETATM    4  C7  UNL     1     -15.185  42.599 -25.096  1.00  0.00     0.011 C 
HETATM    5  C8  UNL     1     -14.139  43.010 -26.172  1.00  0.00    -0.036 C 
HETATM    6  C9  UNL     1     -14.070  41.895 -27.250  1.00  0.00     0.016 C 
HETATM    7  C10 UNL     1     -12.754  43.107 -25.486  1.00  0.00     0.011 C 
HETATM    8  C11 UNL     1     -11.666  43.798 -26.326  1.00  0.00     0.015 C 
HETATM    9  C12 UNL     1     -12.047  45.220 -26.846  1.00  0.00    -0.013 C 
HETATM   10  C13 UNL     1     -12.249  46.161 -25.625  1.00  0.00     0.021 C 
HETATM   11  C14 UNL     1     -13.379  45.019 -27.574  1.00  0.00    -0.070 C 
HETATM   12  C15 UNL     1     -13.509  45.241 -28.891  1.00  0.00    -0.022 C 
HETATM   13  C16 UNL     1     -12.400  45.580 -29.818  1.00  0.00     0.033 C 
HETATM   14  C17 UNL     1     -10.959  45.322 -29.274  1.00  0.00     0.007 C 
HETATM   15  C18 UNL     1      -9.876  45.901 -30.318  1.00  0.00    -0.034 C 
HETATM   16  C19 UNL     1     -10.342  45.419 -31.740  1.00  0.00     0.016 C 
HETATM   17  C20 UNL     1      -8.465  45.261 -30.130  1.00  0.00     0.017 C 
HETATM   18  C21 UNL     1      -7.255  46.166 -29.899  1.00  0.00     0.080 C 
HETATM   19  C22 UNL     1      -7.320  47.602 -30.367  1.00  0.00     0.135 C 
HETATM   20  O3  UNL     1      -6.329  48.327 -30.233  1.00  0.00    -0.297 OA
HETATM   21  C23 UNL     1      -8.599  48.115 -31.015  1.00  0.00     0.017 C 
HETATM   22  C24 UNL     1      -8.499  47.789 -32.515  1.00  0.00     0.023 C 
HETATM   23  C25 UNL     1      -8.650  49.659 -30.908  1.00  0.00     0.023 C 
HETATM   24  C26 UNL     1      -9.831  47.470 -30.274  1.00  0.00     0.009 C 
HETATM   25  C27 UNL     1      -9.944  48.044 -28.833  1.00  0.00     0.007 C 
HETATM   26  C28 UNL     1     -10.972  47.401 -27.901  1.00  0.00     0.011 C 
HETATM   27  C29 UNL     1     -10.865  45.856 -27.797  1.00  0.00    -0.028 C 
HETATM   28  C30 UNL     1      -9.500  45.519 -27.143  1.00  0.00     0.016 C 
HETATM   29  C31 UNL     1     -14.553  44.348 -26.857  1.00  0.00     0.024 C 
HETATM   30  C32 UNL     1     -15.369  45.250 -25.918  1.00  0.00     0.029 C 
ENDROOT
BRANCH   1  31
HETATM   31  C3  UNL     1     -17.777  44.917 -26.638  1.00  0.00     0.267 C 
HETATM   32  O2  UNL     1     -18.745  45.651 -26.490  1.00  0.00    -0.264 OA
BRANCH  31  33
HETATM   33  O1  UNL     1     -17.471  44.278 -27.805  1.00  0.00    -0.321 OA
BRANCH  33  34
HETATM   34  C2  UNL     1     -18.596  43.711 -28.486  1.00  0.00     0.174 C 
HETATM   35  C1  UNL     1     -18.137  43.246 -29.855  1.00  0.00     0.034 C 
ENDBRANCH  33  34
ENDBRANCH  31  33
ENDBRANCH   1  31
TORSDOF 3
ENDMDL
MODEL 5
REMARK minimizedAffinity -6.43220806
REMARK CNNscore 0.479318947
REMARK CNNaffinity 6.49983788
REMARK  3 active torsions:
REMARK  status: ('A' for Active; 'I' for Inactive)
REMARK    1  A    between atoms: C2_2  and  O1_3 
REMARK    2  A    between atoms: O1_3  and  C3_4 
REMARK    3  A    between atoms: C3_4  and  C4_6 
ROOT
HETATM    1  C4  UNL     1       5.971  54.838  -5.865  1.00  0.00     0.045 C 
HETATM    2  C5  UNL     1       5.992  55.613  -4.535  1.00  0.00     0.026 C 
HETATM    3  C6  UNL     1       6.758  55.596  -6.963  1.00  0.00     0.020 C 
HETATM    4  C7  UNL     1       5.861  56.472  -7.839  1.00  0.00     0.011 C 
HETATM    5  C8  UNL     1       4.795  55.648  -8.616  1.00  0.00    -0.036 C 
HETATM    6  C9  UNL     1       5.411  55.181  -9.962  1.00  0.00     0.016 C 
HETATM    7  C10 UNL     1       3.599  56.580  -8.928  1.00  0.00     0.011 C 
HETATM    8  C11 UNL     1       2.329  55.859  -9.414  1.00  0.00     0.015 C 
HETATM    9  C12 UNL     1       1.822  54.723  -8.471  1.00  0.00    -0.013 C 
HETATM   10  C13 UNL     1       1.413  55.350  -7.109  1.00  0.00     0.021 C 
HETATM   11  C14 UNL     1       3.036  53.810  -8.280  1.00  0.00    -0.070 C 
HETATM   12  C15 UNL     1       3.040  52.537  -8.701  1.00  0.00    -0.022 C 
HETATM   13  C16 UNL     1       1.961  51.889  -9.488  1.00  0.00     0.033 C 
HETATM   14  C17 UNL     1       0.928  52.857 -10.148  1.00  0.00     0.007 C 
HETATM   15  C18 UNL     1      -0.267  52.003 -10.810  1.00  0.00    -0.034 C 
HETATM   16  C19 UNL     1       0.423  50.833 -11.603  1.00  0.00     0.016 C 
HETATM   17  C20 UNL     1      -1.045  52.808 -11.897  1.00  0.00     0.017 C 
HETATM   18  C21 UNL     1      -2.560  52.967 -11.773  1.00  0.00     0.080 C 
HETATM   19  C22 UNL     1      -3.334  51.956 -10.958  1.00  0.00     0.135 C 
HETATM   20  O3  UNL     1      -4.563  52.045 -10.895  1.00  0.00    -0.297 OA
HETATM   21  C23 UNL     1      -2.579  50.836 -10.253  1.00  0.00     0.017 C 
HETATM   22  C24 UNL     1      -2.439  49.687 -11.267  1.00  0.00     0.023 C 
HETATM   23  C25 UNL     1      -3.440  50.286  -9.089  1.00  0.00     0.023 C 
HETATM   24  C26 UNL     1      -1.218  51.413  -9.708  1.00  0.00     0.009 C 
HETATM   25  C27 UNL     1      -1.491  52.406  -8.543  1.00  0.00     0.007 C 
HETATM   26  C28 UNL     1      -0.300  53.204  -8.008  1.00  0.00     0.011 C 
HETATM   27  C29 UNL     1       0.510  53.953  -9.100  1.00  0.00    -0.028 C 
HETATM   28  C30 UNL     1      -0.416  55.030  -9.722  1.00  0.00     0.016 C 
HETATM   29  C31 UNL     1       4.366  54.392  -7.796  1.00  0.00     0.024 C 
HETATM   30  C32 UNL     1       4.484  54.624  -6.280  1.00  0.00     0.029 C 
ENDROOT
BRANCH   1  31
HETATM   31  C3  UNL     1       6.651  53.482  -5.623  1.00  0.00     0.267 C 
HETATM   32  O2  UNL     1       6.122  52.388  -5.768  1.00  0.00    -0.264 OA
BRANCH  31  33
HETATM   33  O1  UNL     1       7.945  53.662  -5.229  1.00  0.00    -0.321 OA
BRANCH  33  34
HETATM   34  C2  UNL     1       8.486  52.588  -4.452  1.00  0.00     0.174 C 
HETATM   35  C1  UNL     1       9.937  52.907  -4.146  1.00  0.00     0.034 C 
ENDBRANCH  33  34
ENDBRANCH  31  33
ENDBRANCH   1  31
TORSDOF 3
ENDMDL
MODEL 6
REMARK minimizedAffinity -6.96204996
REMARK CNNscore 0.475383848
REMARK CNNaffinity 6.28453302
REMARK  3 active torsions:
REMARK  status: ('A' for Active; 'I' for Inactive)
REMARK    1  A    between atoms: C2_2  and  O1_3 
REMARK    2  A    between atoms: O1_3  and  C3_4 
REMARK    3  A    between atoms: C3_4  and  C4_6 
ROOT
HETATM    1  C4  UNL     1     -10.715  45.557 -30.032  1.00  0.00     0.045 C 
HETATM    2  C5  UNL     1     -12.174  45.187 -29.709  1.00  0.00     0.026 C 
HETATM    3  C6  UNL     1     -10.642  46.878 -30.839  1.00  0.00     0.020 C 
HETATM    4  C7  UNL     1     -10.573  46.648 -32.349  1.00  0.00     0.011 C 
HETATM    5  C8  UNL     1      -9.304  45.854 -32.776  1.00  0.00    -0.036 C 
HETATM    6  C9  UNL     1      -8.147  46.860 -33.019  1.00  0.00     0.016 C 
HETATM    7  C10 UNL     1      -9.611  45.136 -34.112  1.00  0.00     0.011 C 
HETATM    8  C11 UNL     1      -8.585  44.065 -34.519  1.00  0.00     0.015 C 
HETATM    9  C12 UNL     1      -8.316  42.973 -33.436  1.00  0.00    -0.013 C 
HETATM   10  C13 UNL     1      -9.630  42.178 -33.192  1.00  0.00     0.021 C 
HETATM   11  C14 UNL     1      -7.944  43.762 -32.178  1.00  0.00    -0.070 C 
HETATM   12  C15 UNL     1      -6.734  43.664 -31.609  1.00  0.00    -0.022 C 
HETATM   13  C16 UNL     1      -5.585  42.901 -32.162  1.00  0.00     0.033 C 
HETATM   14  C17 UNL     1      -5.709  42.482 -33.661  1.00  0.00     0.007 C 
HETATM   15  C18 UNL     1      -4.477  41.521 -34.056  1.00  0.00    -0.034 C 
HETATM   16  C19 UNL     1      -3.187  42.205 -33.472  1.00  0.00     0.016 C 
HETATM   17  C20 UNL     1      -4.231  41.469 -35.596  1.00  0.00     0.017 C 
HETATM   18  C21 UNL     1      -4.221  40.117 -36.310  1.00  0.00     0.080 C 
HETATM   19  C22 UNL     1      -3.922  38.872 -35.507  1.00  0.00     0.135 C 
HETATM   20  O3  UNL     1      -3.860  37.782 -36.083  1.00  0.00    -0.297 OA
HETATM   21  C23 UNL     1      -3.680  38.995 -34.008  1.00  0.00     0.017 C 
HETATM   22  C24 UNL     1      -2.181  39.293 -33.822  1.00  0.00     0.023 C 
HETATM   23  C25 UNL     1      -3.938  37.627 -33.329  1.00  0.00     0.023 C 
HETATM   24  C26 UNL     1      -4.653  40.091 -33.430  1.00  0.00     0.009 C 
HETATM   25  C27 UNL     1      -6.120  39.579 -33.482  1.00  0.00     0.007 C 
HETATM   26  C28 UNL     1      -7.224  40.577 -33.131  1.00  0.00     0.011 C 
HETATM   27  C29 UNL     1      -7.153  41.914 -33.918  1.00  0.00    -0.028 C 
HETATM   28  C30 UNL     1      -7.395  41.595 -35.416  1.00  0.00     0.016 C 
HETATM   29  C31 UNL     1      -8.877  44.857 -31.655  1.00  0.00     0.024 C 
HETATM   30  C32 UNL     1     -10.077  44.375 -30.822  1.00  0.00     0.029 C 
ENDROOT
BRANCH   1  31
HETATM   31  C3  UNL     1      -9.980  45.757 -28.698  1.00  0.00     0.267 C 
HETATM   32  O2  UNL     1     -10.380  45.380 -27.605  1.00  0.00    -0.264 OA
BRANCH  31  33
HETATM   33  O1  UNL     1      -8.800  46.412 -28.899  1.00  0.00    -0.321 OA
BRANCH  33  34
HETATM   34  C2  UNL     1      -8.445  47.331 -27.860  1.00  0.00     0.174 C 
HETATM   35  C1  UNL     1      -6.936  47.317 -27.709  1.00  0.00     0.034 C 
ENDBRANCH  33  34
ENDBRANCH  31  33
ENDBRANCH   1  31
TORSDOF 3
ENDMDL
MODEL 7
REMARK minimizedAffinity -6.96333504
REMARK CNNscore 0.459810406
REMARK CNNaffinity 6.25603819
REMARK  3 active torsions:
REMARK  status: ('A' for Active; 'I' for Inactive)
REMARK    1  A    between atoms: C2_2  and  O1_3 
REMARK    2  A    between atoms: O1_3  and  C3_4 
REMARK    3  A    between atoms: C3_4  and  C4_6 
ROOT
HETATM    1  C4  UNL     1     -14.488  45.429 -24.298  1.00  0.00     0.045 C 
HETATM    2  C5  UNL     1     -14.466  44.523 -23.054  1.00  0.00     0.026 C 
HETATM    3  C6  UNL     1     -15.672  45.064 -25.231  1.00  0.00     0.020 C 
HETATM    4  C7  UNL     1     -15.272  44.098 -26.347  1.00  0.00     0.011 C 
HETATM    5  C8  UNL     1     -14.192  44.694 -27.295  1.00  0.00    -0.036 C 
HETATM    6  C9  UNL     1     -14.904  45.482 -28.426  1.00  0.00     0.016 C 
HETATM    7  C10 UNL     1     -13.415  43.519 -27.938  1.00  0.00     0.011 C 
HETATM    8  C11 UNL     1     -12.116  43.922 -28.658  1.00  0.00     0.015 C 
HETATM    9  C12 UNL     1     -11.114  44.744 -27.787  1.00  0.00    -0.013 C 
HETATM   10  C13 UNL     1     -10.640  43.857 -26.601  1.00  0.00     0.021 C 
HETATM   11  C14 UNL     1     -11.939  45.921 -27.258  1.00  0.00    -0.070 C 
HETATM   12  C15 UNL     1     -11.652  47.190 -27.581  1.00  0.00    -0.022 C 
HETATM   13  C16 UNL     1     -10.614  47.615 -28.554  1.00  0.00     0.033 C 
HETATM   14  C17 UNL     1     -10.071  46.496 -29.499  1.00  0.00     0.007 C 
HETATM   15  C18 UNL     1      -8.839  47.070 -30.364  1.00  0.00    -0.034 C 
HETATM   16  C19 UNL     1      -9.299  48.476 -30.895  1.00  0.00     0.016 C 
HETATM   17  C20 UNL     1      -8.573  46.231 -31.653  1.00  0.00     0.017 C 
HETATM   18  C21 UNL     1      -7.180  45.650 -31.895  1.00  0.00     0.080 C 
HETATM   19  C22 UNL     1      -5.993  46.295 -31.219  1.00  0.00     0.135 C 
HETATM   20  O3  UNL     1      -4.859  45.867 -31.450  1.00  0.00    -0.297 OA
HETATM   21  C23 UNL     1      -6.222  47.477 -30.285  1.00  0.00     0.017 C 
HETATM   22  C24 UNL     1      -6.221  48.743 -31.161  1.00  0.00     0.023 C 
HETATM   23  C25 UNL     1      -5.019  47.615 -29.320  1.00  0.00     0.023 C 
HETATM   24  C26 UNL     1      -7.552  47.229 -29.477  1.00  0.00     0.009 C 
HETATM   25  C27 UNL     1      -7.353  46.057 -28.476  1.00  0.00     0.007 C 
HETATM   26  C28 UNL     1      -8.590  45.552 -27.732  1.00  0.00     0.011 C 
HETATM   27  C29 UNL     1      -9.791  45.201 -28.651  1.00  0.00    -0.028 C 
HETATM   28  C30 UNL     1      -9.372  44.003 -29.542  1.00  0.00     0.016 C 
HETATM   29  C31 UNL     1     -13.253  45.666 -26.517  1.00  0.00     0.024 C 
HETATM   30  C32 UNL     1     -13.123  45.280 -25.034  1.00  0.00     0.029 C 
ENDROOT
BRANCH   1  31
HETATM   31  C3  UNL     1     -14.673  46.876 -23.816  1.00  0.00     0.267 C 
HETATM   32  O2  UNL     1     -15.411  47.706 -24.330  1.00  0.00    -0.264 OA
BRANCH  31  33
HETATM   33  O1  UNL     1     -13.901  47.112 -22.716  1.00  0.00    -0.321 OA
BRANCH  33  34
HETATM   34  C2  UNL     1     -14.626  47.553 -21.563  1.00  0.00     0.174 C 
HETATM   35  C1  UNL     1     -13.626  48.001 -20.515  1.00  0.00     0.034 C 
ENDBRANCH  33  34
ENDBRANCH  31  33
ENDBRANCH   1  31
TORSDOF 3
ENDMDL
MODEL 8
REMARK minimizedAffinity -6.388165
REMARK CNNscore 0.391730696
REMARK CNNaffinity 6.4520874
REMARK  3 active torsions:
REMARK  status: ('A' for Active; 'I' for Inactive)
REMARK    1  A    between atoms: C2_2  and  O1_3 
REMARK    2  A    between atoms: O1_3  and  C3_4 
REMARK    3  A    between atoms: C3_4  and  C4_6 
ROOT
HETATM    1  C4  UNL     1       3.109  58.059  -4.024  1.00  0.00     0.045 C 
HETATM    2  C5  UNL     1       3.675  59.469  -4.271  1.00  0.00     0.026 C 
HETATM    3  C6  UNL     1       4.214  57.096  -3.520  1.00  0.00     0.020 C 
HETATM    4  C7  UNL     1       4.853  56.285  -4.646  1.00  0.00     0.011 C 
HETATM    5  C8  UNL     1       3.832  55.364  -5.375  1.00  0.00    -0.036 C 
HETATM    6  C9  UNL     1       3.764  54.007  -4.628  1.00  0.00     0.016 C 
HETATM    7  C10 UNL     1       4.356  55.103  -6.808  1.00  0.00     0.011 C 
HETATM    8  C11 UNL     1       3.329  54.474  -7.766  1.00  0.00     0.015 C 
HETATM    9  C12 UNL     1       1.980  55.252  -7.880  1.00  0.00    -0.013 C 
HETATM   10  C13 UNL     1       2.263  56.656  -8.485  1.00  0.00     0.021 C 
HETATM   11  C14 UNL     1       1.495  55.397  -6.434  1.00  0.00    -0.070 C 
HETATM   12  C15 UNL     1       0.356  54.832  -6.008  1.00  0.00    -0.022 C 
HETATM   13  C16 UNL     1      -0.503  53.922  -6.807  1.00  0.00     0.033 C 
HETATM   14  C17 UNL     1       0.152  53.328  -8.094  1.00  0.00     0.007 C 
HETATM   15  C18 UNL     1      -0.954  52.512  -8.936  1.00  0.00    -0.034 C 
HETATM   16  C19 UNL     1      -1.726  51.624  -7.892  1.00  0.00     0.016 C 
HETATM   17  C20 UNL     1      -0.315  51.488  -9.925  1.00  0.00     0.017 C 
HETATM   18  C21 UNL     1      -0.675  51.554 -11.409  1.00  0.00     0.080 C 
HETATM   19  C22 UNL     1      -1.977  52.206 -11.815  1.00  0.00     0.135 C 
HETATM   20  O3  UNL     1      -2.301  52.218 -13.006  1.00  0.00    -0.297 OA
HETATM   21  C23 UNL     1      -2.869  52.814 -10.741  1.00  0.00     0.017 C 
HETATM   22  C24 UNL     1      -3.773  51.682 -10.221  1.00  0.00     0.023 C 
HETATM   23  C25 UNL     1      -3.812  53.862 -11.383  1.00  0.00     0.023 C 
HETATM   24  C26 UNL     1      -1.955  53.489  -9.650  1.00  0.00     0.009 C 
HETATM   25  C27 UNL     1      -1.260  54.746 -10.245  1.00  0.00     0.007 C 
HETATM   26  C28 UNL     1      -0.192  55.429  -9.388  1.00  0.00     0.011 C 
HETATM   27  C29 UNL     1       0.911  54.474  -8.859  1.00  0.00    -0.028 C 
HETATM   28  C30 UNL     1       1.697  53.934 -10.082  1.00  0.00     0.016 C 
HETATM   29  C31 UNL     1       2.412  56.011  -5.375  1.00  0.00     0.024 C 
HETATM   30  C32 UNL     1       2.477  57.547  -5.353  1.00  0.00     0.029 C 
ENDROOT
BRANCH   1  31
HETATM   31  C3  UNL     1       2.028  58.176  -2.938  1.00  0.00     0.267 C 
HETATM   32  O2  UNL     1       2.234  58.416  -1.756  1.00  0.00    -0.264 OA
BRANCH  31  33
HETATM   33  O1  UNL     1       0.790  57.982  -3.477  1.00  0.00    -0.321 OA
BRANCH  33  34
HETATM   34  C2  UNL     1      -0.255  58.737  -2.854  1.00  0.00     0.174 C 
HETATM   35  C1  UNL     1      -1.586  58.221  -3.369  1.00  0.00     0.034 C 
ENDBRANCH  33  34
ENDBRANCH  31  33
ENDBRANCH   1  31
TORSDOF 3
ENDMDL
MODEL 9
REMARK minimizedAffinity -6.37200022
REMARK CNNscore 0.317097098
REMARK CNNaffinity 5.84260321
REMARK  3 active torsions:
REMARK  status: ('A' for Active; 'I' for Inactive)
REMARK    1  A    between atoms: C2_2  and  O1_3 
REMARK    2  A    between atoms: O1_3  and  C3_4 
REMARK    3  A    between atoms: C3_4  and  C4_6 
ROOT
HETATM    1  C4  UNL     1     -11.049  46.284 -29.657  1.00  0.00     0.045 C 
HETATM    2  C5  UNL     1     -11.579  47.634 -30.173  1.00  0.00     0.026 C 
HETATM    3  C6  UNL     1     -10.274  46.462 -28.327  1.00  0.00     0.020 C 
HETATM    4  C7  UNL     1      -8.766  46.602 -28.532  1.00  0.00     0.011 C 
HETATM    5  C8  UNL     1      -8.132  45.343 -29.192  1.00  0.00    -0.036 C 
HETATM    6  C9  UNL     1      -7.743  44.340 -28.075  1.00  0.00     0.016 C 
HETATM    7  C10 UNL     1      -6.839  45.781 -29.922  1.00  0.00     0.011 C 
HETATM    8  C11 UNL     1      -6.254  44.731 -30.883  1.00  0.00     0.015 C 
HETATM    9  C12 UNL     1      -7.256  44.197 -31.955  1.00  0.00    -0.013 C 
HETATM   10  C13 UNL     1      -7.674  45.375 -32.878  1.00  0.00     0.021 C 
HETATM   11  C14 UNL     1      -8.464  43.715 -31.146  1.00  0.00    -0.070 C 
HETATM   12  C15 UNL     1      -8.840  42.428 -31.131  1.00  0.00    -0.022 C 
HETATM   13  C16 UNL     1      -8.100  41.309 -31.771  1.00  0.00     0.033 C 
HETATM   14  C17 UNL     1      -6.627  41.620 -32.184  1.00  0.00     0.007 C 
HETATM   15  C18 UNL     1      -6.025  40.377 -33.015  1.00  0.00    -0.034 C 
HETATM   16  C19 UNL     1      -6.425  39.084 -32.213  1.00  0.00     0.016 C 
HETATM   17  C20 UNL     1      -4.465  40.365 -33.025  1.00  0.00     0.017 C 
HETATM   18  C21 UNL     1      -3.724  40.335 -34.362  1.00  0.00     0.080 C 
HETATM   19  C22 UNL     1      -4.439  39.798 -35.580  1.00  0.00     0.135 C 
HETATM   20  O3  UNL     1      -3.833  39.721 -36.652  1.00  0.00    -0.297 OA
HETATM   21  C23 UNL     1      -5.888  39.343 -35.450  1.00  0.00     0.017 C 
HETATM   22  C24 UNL     1      -5.852  37.870 -35.008  1.00  0.00     0.023 C 
HETATM   23  C25 UNL     1      -6.563  39.363 -36.844  1.00  0.00     0.023 C 
HETATM   24  C26 UNL     1      -6.634  40.317 -34.461  1.00  0.00     0.009 C 
HETATM   25  C27 UNL     1      -6.791  41.719 -35.115  1.00  0.00     0.007 C 
HETATM   26  C28 UNL     1      -7.330  42.847 -34.235  1.00  0.00     0.011 C 
HETATM   27  C29 UNL     1      -6.577  43.025 -32.889  1.00  0.00    -0.028 C 
HETATM   28  C30 UNL     1      -5.125  43.461 -33.213  1.00  0.00     0.016 C 
HETATM   29  C31 UNL     1      -9.149  44.657 -30.155  1.00  0.00     0.024 C 
HETATM   30  C32 UNL     1     -10.141  45.663 -30.761  1.00  0.00     0.029 C 
ENDROOT
BRANCH   1  31
HETATM   31  C3  UNL     1     -12.261  45.376 -29.400  1.00  0.00     0.267 C 
HETATM   32  O2  UNL     1     -12.227  44.157 -29.309  1.00  0.00    -0.264 OA
BRANCH  31  33
HETATM   33  O1  UNL     1     -13.396  46.124 -29.275  1.00  0.00    -0.321 OA
BRANCH  33  34
HETATM   34  C2  UNL     1     -14.143  45.876 -28.079  1.00  0.00     0.174 C 
HETATM   35  C1  UNL     1     -15.384  45.086 -28.448  1.00  0.00     0.034 C 
ENDBRANCH  33  34
ENDBRANCH  31  33
ENDBRANCH   1  31
TORSDOF 3
ENDMDL
