MODEL 1
REMARK minimizedAffinity -9.04762554
REMARK CNNscore 0.548964858
REMARK CNNaffinity 6.59768486
REMARK  4 active torsions:
REMARK  status: ('A' for Active; 'I' for Inactive)
REMARK    1  A    between atoms: C2_2  and  C3_3 
REMARK    2  A    between atoms: C2_2  and  C9_9 
REMARK    3  A    between atoms: C4_4  and  C5_5 
REMARK    4  A    between atoms: C23_23  and  O1_24 
ROOT
HETATM    1  C9  UNL     1      -4.127   6.517  13.187  1.00  0.00     0.001 C 
HETATM    2  C10 UNL     1      -4.033   7.902  13.899  1.00  0.00     0.006 C 
HETATM    3  C11 UNL     1      -2.644   8.479  13.592  1.00  0.00     0.009 C 
HETATM    4  C12 UNL     1      -2.062   7.502  12.579  1.00  0.00     0.036 C 
HETATM    5  C13 UNL     1      -2.626   6.119  12.997  1.00  0.00    -0.033 C 
HETATM    6  C14 UNL     1      -2.043   5.557  14.312  1.00  0.00     0.016 C 
HETATM    7  C15 UNL     1      -2.334   5.152  11.831  1.00  0.00     0.010 C 
HETATM    8  C16 UNL     1      -0.835   5.097  11.481  1.00  0.00     0.010 C 
HETATM    9  C17 UNL     1      -0.228   6.482  11.178  1.00  0.00     0.039 C 
HETATM   10  C18 UNL     1      -0.563   7.560  12.263  1.00  0.00     0.123 C 
HETATM   11  C19 UNL     1       0.390   7.530  13.430  1.00  0.00     0.014 C 
HETATM   12  C20 UNL     1       1.672   7.696  13.076  1.00  0.00     0.014 C 
HETATM   13  C21 UNL     1       1.887   7.791  11.578  1.00  0.00     0.124 C 
HETATM   14  C22 UNL     1       3.348   8.099  11.230  1.00  0.00     0.078 C 
HETATM   15  C23 UNL     1       3.673   7.936   9.741  1.00  0.00     0.121 C 
HETATM   16  C24 UNL     1       2.457   7.714   8.849  1.00  0.00     0.033 C 
HETATM   17  C25 UNL     1       1.573   6.556   9.325  1.00  0.00     0.015 C 
HETATM   18  C26 UNL     1       1.331   6.506  10.871  1.00  0.00     0.001 C 
HETATM   19  C27 UNL     1       2.058   5.240  11.404  1.00  0.00     0.019 C 
HETATM   20  O2  UNL     1       1.086   8.915  11.111  1.00  0.00    -0.223 OA
HETATM   21  O3  UNL     1      -0.310   8.848  11.637  1.00  0.00    -0.224 OA
ENDROOT
BRANCH   1  22
HETATM   22  C2  UNL     1      -5.096   5.544  13.916  1.00  0.00     0.008 C 
HETATM   23  C1  UNL     1      -5.771   4.546  12.969  1.00  0.00     0.014 C 
BRANCH  22  24
HETATM   24  C3  UNL     1      -6.104   6.330  14.740  1.00  0.00    -0.026 C 
HETATM   25  C4  UNL     1      -7.180   7.002  14.294  1.00  0.00    -0.025 C 
BRANCH  25  26
HETATM   26  C5  UNL     1      -8.122   7.749  15.133  1.00  0.00     0.012 A 
HETATM   27  C6  UNL     1      -9.003   6.997  16.103  1.00  0.00     0.013 A 
HETATM   28  C7  UNL     1      -9.612   7.649  14.892  1.00  0.00    -0.010 A 
HETATM   29  C8  UNL     1     -10.209   6.805  13.816  1.00  0.00     0.010 C 
ENDBRANCH  25  26
ENDBRANCH  22  24
ENDBRANCH   1  22
BRANCH  15  30
HETATM   30  O1  UNL     1       4.563   6.824   9.597  1.00  0.00    -0.395 OA
HETATM   31  H33 UNL     1       4.838   6.789   8.664  1.00  0.00     0.210 HD
ENDBRANCH  15  30
TORSDOF 4
ENDMDL
MODEL 2
REMARK minimizedAffinity -9.60043907
REMARK CNNscore 0.54573983
REMARK CNNaffinity 6.80174589
REMARK  4 active torsions:
REMARK  status: ('A' for Active; 'I' for Inactive)
REMARK    1  A    between atoms: C2_2  and  C3_3 
REMARK    2  A    between atoms: C2_2  and  C9_9 
REMARK    3  A    between atoms: C4_4  and  C5_5 
REMARK    4  A    between atoms: C23_23  and  O1_24 
ROOT
HETATM    1  C9  UNL     1      -5.985   6.836  13.929  1.00  0.00     0.001 C 
HETATM    2  C10 UNL     1      -5.930   8.379  14.151  1.00  0.00     0.006 C 
HETATM    3  C11 UNL     1      -4.496   8.833  13.846  1.00  0.00     0.009 C 
HETATM    4  C12 UNL     1      -3.830   7.580  13.292  1.00  0.00     0.036 C 
HETATM    5  C13 UNL     1      -4.486   6.409  14.069  1.00  0.00    -0.033 C 
HETATM    6  C14 UNL     1      -4.084   6.318  15.557  1.00  0.00     0.016 C 
HETATM    7  C15 UNL     1      -4.090   5.113  13.332  1.00  0.00     0.010 C 
HETATM    8  C16 UNL     1      -2.563   4.957  13.208  1.00  0.00     0.010 C 
HETATM    9  C17 UNL     1      -1.878   6.168  12.543  1.00  0.00     0.039 C 
HETATM   10  C18 UNL     1      -2.303   7.542  13.163  1.00  0.00     0.123 C 
HETATM   11  C19 UNL     1      -1.497   7.907  14.383  1.00  0.00     0.014 C 
HETATM   12  C20 UNL     1      -0.177   7.957  14.156  1.00  0.00     0.014 C 
HETATM   13  C21 UNL     1       0.218   7.552  12.749  1.00  0.00     0.124 C 
HETATM   14  C22 UNL     1       1.720   7.739  12.503  1.00  0.00     0.078 C 
HETATM   15  C23 UNL     1       2.215   7.095  11.203  1.00  0.00     0.121 C 
HETATM   16  C24 UNL     1       1.107   6.580  10.291  1.00  0.00     0.033 C 
HETATM   17  C25 UNL     1       0.134   5.639  11.008  1.00  0.00     0.015 C 
HETATM   18  C26 UNL     1      -0.293   6.101  12.441  1.00  0.00     0.001 C 
HETATM   19  C27 UNL     1       0.322   5.089  13.447  1.00  0.00     0.019 C 
HETATM   20  O2  UNL     1      -0.483   8.452  11.843  1.00  0.00    -0.223 OA
HETATM   21  O3  UNL     1      -1.934   8.552  12.184  1.00  0.00    -0.224 OA
ENDROOT
BRANCH   1  22
HETATM   22  C2  UNL     1      -7.066   6.152  14.812  1.00  0.00     0.008 C 
HETATM   23  C1  UNL     1      -6.593   5.893  16.247  1.00  0.00     0.014 C 
BRANCH  22  24
HETATM   24  C3  UNL     1      -7.572   4.887  14.135  1.00  0.00    -0.026 C 
HETATM   25  C4  UNL     1      -7.066   4.284  13.044  1.00  0.00    -0.025 C 
BRANCH  25  26
HETATM   26  C5  UNL     1      -7.595   3.064  12.428  1.00  0.00     0.012 A 
HETATM   27  C6  UNL     1      -7.202   1.721  12.994  1.00  0.00     0.013 A 
HETATM   28  C7  UNL     1      -6.687   2.142  11.646  1.00  0.00    -0.010 A 
HETATM   29  C8  UNL     1      -5.230   2.401  11.457  1.00  0.00     0.010 C 
ENDBRANCH  25  26
ENDBRANCH  22  24
ENDBRANCH   1  22
BRANCH  15  30
HETATM   30  O1  UNL     1       3.077   6.004  11.545  1.00  0.00    -0.395 OA
HETATM   31  H33 UNL     1       3.460   5.665  10.717  1.00  0.00     0.210 HD
ENDBRANCH  15  30
TORSDOF 4
ENDMDL
MODEL 3
REMARK minimizedAffinity -6.55417871
REMARK CNNscore 0.421409994
REMARK CNNaffinity 6.05936098
REMARK  4 active torsions:
REMARK  status: ('A' for Active; 'I' for Inactive)
REMARK    1  A    between atoms: C2_2  and  C3_3 
REMARK    2  A    between atoms: C2_2  and  C9_9 
REMARK    3  A    between atoms: C4_4  and  C5_5 
REMARK    4  A    between atoms: C23_23  and  O1_24 
ROOT
HETATM    1  C9  UNL     1       0.966   8.949  13.037  1.00  0.00     0.001 C 
HETATM    2  C10 UNL     1      -0.316   8.716  12.181  1.00  0.00     0.006 C 
HETATM    3  C11 UNL     1      -1.483   9.394  12.913  1.00  0.00     0.009 C 
HETATM    4  C12 UNL     1      -0.808  10.138  14.057  1.00  0.00     0.036 C 
HETATM    5  C13 UNL     1       0.387   9.237  14.462  1.00  0.00    -0.033 C 
HETATM    6  C14 UNL     1      -0.008   7.919  15.164  1.00  0.00     0.016 C 
HETATM    7  C15 UNL     1       1.284  10.082  15.389  1.00  0.00     0.010 C 
HETATM    8  C16 UNL     1       0.515  10.625  16.608  1.00  0.00     0.010 C 
HETATM    9  C17 UNL     1      -0.746  11.426  16.226  1.00  0.00     0.039 C 
HETATM   10  C18 UNL     1      -1.670  10.683  15.203  1.00  0.00     0.123 C 
HETATM   11  C19 UNL     1      -2.624   9.723  15.866  1.00  0.00     0.014 C 
HETATM   12  C20 UNL     1      -3.416  10.304  16.779  1.00  0.00     0.014 C 
HETATM   13  C21 UNL     1      -3.118  11.774  17.002  1.00  0.00     0.124 C 
HETATM   14  C22 UNL     1      -4.124  12.420  17.963  1.00  0.00     0.078 C 
HETATM   15  C23 UNL     1      -3.713  13.819  18.433  1.00  0.00     0.121 C 
HETATM   16  C24 UNL     1      -2.508  14.403  17.704  1.00  0.00     0.033 C 
HETATM   17  C25 UNL     1      -1.295  13.467  17.715  1.00  0.00     0.015 C 
HETATM   18  C26 UNL     1      -1.623  11.962  17.439  1.00  0.00     0.001 C 
HETATM   19  C27 UNL     1      -1.345  11.186  18.757  1.00  0.00     0.019 C 
HETATM   20  O2  UNL     1      -3.271  12.432  15.711  1.00  0.00    -0.223 OA
HETATM   21  O3  UNL     1      -2.536  11.703  14.634  1.00  0.00    -0.224 OA
ENDROOT
BRANCH   1  22
HETATM   22  C2  UNL     1       2.016   7.817  12.846  1.00  0.00     0.008 C 
HETATM   23  C1  UNL     1       3.229   7.962  13.771  1.00  0.00     0.014 C 
BRANCH  22  24
HETATM   24  C3  UNL     1       2.415   7.716  11.382  1.00  0.00    -0.026 C 
HETATM   25  C4  UNL     1       1.988   6.818  10.477  1.00  0.00    -0.025 C 
BRANCH  25  26
HETATM   26  C5  UNL     1       2.408   6.763   9.074  1.00  0.00     0.012 A 
HETATM   27  C6  UNL     1       2.978   8.001   8.424  1.00  0.00     0.013 A 
HETATM   28  C7  UNL     1       1.624   7.495   8.007  1.00  0.00    -0.010 A 
HETATM   29  C8  UNL     1       0.408   8.306   8.303  1.00  0.00     0.010 C 
ENDBRANCH  25  26
ENDBRANCH  22  24
ENDBRANCH   1  22
BRANCH  15  30
HETATM   30  O1  UNL     1      -3.420  13.753  19.832  1.00  0.00    -0.395 OA
HETATM   31  H33 UNL     1      -3.255  14.662  20.140  1.00  0.00     0.210 HD
ENDBRANCH  15  30
TORSDOF 4
ENDMDL
MODEL 4
REMARK minimizedAffinity -9.51176357
REMARK CNNscore 0.411880314
REMARK CNNaffinity 6.40635729
REMARK  4 active torsions:
REMARK  status: ('A' for Active; 'I' for Inactive)
REMARK    1  A    between atoms: C2_2  and  C3_3 
REMARK    2  A    between atoms: C2_2  and  C9_9 
REMARK    3  A    between atoms: C4_4  and  C5_5 
REMARK    4  A    between atoms: C23_23  and  O1_24 
ROOT
HETATM    1  C9  UNL     1       1.589   7.139   9.953  1.00  0.00     0.001 C 
HETATM    2  C10 UNL     1       2.092   5.756  10.471  1.00  0.00     0.006 C 
HETATM    3  C11 UNL     1       1.137   5.311  11.586  1.00  0.00     0.009 C 
HETATM    4  C12 UNL     1       0.027   6.353  11.549  1.00  0.00     0.036 C 
HETATM    5  C13 UNL     1       0.740   7.673  11.154  1.00  0.00    -0.033 C 
HETATM    6  C14 UNL     1       1.657   8.262  12.248  1.00  0.00     0.016 C 
HETATM    7  C15 UNL     1      -0.369   8.682  10.791  1.00  0.00     0.010 C 
HETATM    8  C16 UNL     1      -1.378   8.877  11.937  1.00  0.00     0.010 C 
HETATM    9  C17 UNL     1      -2.010   7.558  12.425  1.00  0.00     0.039 C 
HETATM   10  C18 UNL     1      -0.959   6.436  12.721  1.00  0.00     0.123 C 
HETATM   11  C19 UNL     1      -0.377   6.530  14.108  1.00  0.00     0.014 C 
HETATM   12  C20 UNL     1      -1.300   6.486  15.078  1.00  0.00     0.014 C 
HETATM   13  C21 UNL     1      -2.727   6.437  14.564  1.00  0.00     0.124 C 
HETATM   14  C22 UNL     1      -3.737   6.267  15.705  1.00  0.00     0.078 C 
HETATM   15  C23 UNL     1      -5.192   6.484  15.275  1.00  0.00     0.121 C 
HETATM   16  C24 UNL     1      -5.394   6.612  13.769  1.00  0.00     0.033 C 
HETATM   17  C25 UNL     1      -4.492   7.677  13.136  1.00  0.00     0.015 C 
HETATM   18  C26 UNL     1      -3.014   7.679  13.651  1.00  0.00     0.001 C 
HETATM   19  C27 UNL     1      -2.813   8.995  14.451  1.00  0.00     0.019 C 
HETATM   20  O2  UNL     1      -2.826   5.254  13.720  1.00  0.00    -0.223 OA
HETATM   21  O3  UNL     1      -1.703   5.187  12.737  1.00  0.00    -0.224 OA
ENDROOT
BRANCH   1  22
HETATM   22  C2  UNL     1       2.743   8.008   9.379  1.00  0.00     0.008 C 
HETATM   23  C1  UNL     1       2.656   8.193   7.860  1.00  0.00     0.014 C 
BRANCH  22  24
HETATM   24  C3  UNL     1       4.088   7.448   9.816  1.00  0.00    -0.026 C 
HETATM   25  C4  UNL     1       5.121   8.121  10.352  1.00  0.00    -0.025 C 
BRANCH  25  26
HETATM   26  C5  UNL     1       6.401   7.531  10.755  1.00  0.00     0.012 A 
HETATM   27  C6  UNL     1       6.426   6.123  11.300  1.00  0.00     0.013 A 
HETATM   28  C7  UNL     1       6.706   7.283  12.216  1.00  0.00    -0.010 A 
HETATM   29  C8  UNL     1       5.752   7.607  13.315  1.00  0.00     0.010 C 
ENDBRANCH  25  26
ENDBRANCH  22  24
ENDBRANCH   1  22
BRANCH  15  30
HETATM   30  O1  UNL     1      -5.673   7.674  15.909  1.00  0.00    -0.395 OA
HETATM   31  H33 UNL     1      -6.622   7.749  15.707  1.00  0.00     0.210 HD
ENDBRANCH  15  30
TORSDOF 4
ENDMDL
MODEL 5
REMARK minimizedAffinity -6.65496111
REMARK CNNscore 0.40152213
REMARK CNNaffinity 5.83906937
REMARK  4 active torsions:
REMARK  status: ('A' for Active; 'I' for Inactive)
REMARK    1  A    between atoms: C2_2  and  C3_3 
REMARK    2  A    between atoms: C2_2  and  C9_9 
REMARK    3  A    between atoms: C4_4  and  C5_5 
REMARK    4  A    between atoms: C23_23  and  O1_24 
ROOT
HETATM    1  C9  UNL     1     -15.569   5.778  24.405  1.00  0.00     0.001 C 
HETATM    2  C10 UNL     1     -15.076   5.648  25.879  1.00  0.00     0.006 C 
HETATM    3  C11 UNL     1     -14.136   6.830  26.152  1.00  0.00     0.009 C 
HETATM    4  C12 UNL     1     -14.260   7.688  24.899  1.00  0.00     0.036 C 
HETATM    5  C13 UNL     1     -14.467   6.671  23.746  1.00  0.00    -0.033 C 
HETATM    6  C14 UNL     1     -13.220   5.829  23.400  1.00  0.00     0.016 C 
HETATM    7  C15 UNL     1     -14.915   7.485  22.515  1.00  0.00     0.010 C 
HETATM    8  C16 UNL     1     -13.910   8.594  22.152  1.00  0.00     0.010 C 
HETATM    9  C17 UNL     1     -13.601   9.546  23.325  1.00  0.00     0.039 C 
HETATM   10  C18 UNL     1     -13.235   8.800  24.652  1.00  0.00     0.123 C 
HETATM   11  C19 UNL     1     -11.777   8.425  24.729  1.00  0.00     0.014 C 
HETATM   12  C20 UNL     1     -10.950   9.474  24.612  1.00  0.00     0.014 C 
HETATM   13  C21 UNL     1     -11.659  10.787  24.343  1.00  0.00     0.124 C 
HETATM   14  C22 UNL     1     -10.684  11.970  24.336  1.00  0.00     0.078 C 
HETATM   15  C23 UNL     1     -11.298  13.270  23.804  1.00  0.00     0.121 C 
HETATM   16  C24 UNL     1     -12.806  13.213  23.585  1.00  0.00     0.033 C 
HETATM   17  C25 UNL     1     -13.237  12.031  22.712  1.00  0.00     0.015 C 
HETATM   18  C26 UNL     1     -12.522  10.677  23.038  1.00  0.00     0.001 C 
HETATM   19  C27 UNL     1     -11.618  10.336  21.821  1.00  0.00     0.019 C 
HETATM   20  O2  UNL     1     -12.584  10.997  25.450  1.00  0.00    -0.223 OA
HETATM   21  O3  UNL     1     -13.403   9.776  25.717  1.00  0.00    -0.224 OA
ENDROOT
BRANCH   1  22
HETATM   22  C2  UNL     1     -15.920   4.399  23.778  1.00  0.00     0.008 C 
HETATM   23  C1  UNL     1     -17.424   4.205  23.559  1.00  0.00     0.014 C 
BRANCH  22  24
HETATM   24  C3  UNL     1     -15.307   3.278  24.603  1.00  0.00    -0.026 C 
HETATM   25  C4  UNL     1     -14.272   2.487  24.270  1.00  0.00    -0.025 C 
BRANCH  25  26
HETATM   26  C5  UNL     1     -13.720   1.416  25.105  1.00  0.00     0.012 A 
HETATM   27  C6  UNL     1     -12.975   1.773  26.368  1.00  0.00     0.013 A 
HETATM   28  C7  UNL     1     -12.225   1.204  25.195  1.00  0.00    -0.010 A 
HETATM   29  C8  UNL     1     -11.237   2.050  24.466  1.00  0.00     0.010 C 
ENDBRANCH  25  26
ENDBRANCH  22  24
ENDBRANCH   1  22
BRANCH  15  30
HETATM   30  O1  UNL     1     -10.661  13.589  22.562  1.00  0.00    -0.395 OA
HETATM   31  H33 UNL     1     -10.988  14.462  22.283  1.00  0.00     0.210 HD
ENDBRANCH  15  30
TORSDOF 4
ENDMDL
MODEL 6
REMARK minimizedAffinity -9.39142418
REMARK CNNscore 0.394680113
REMARK CNNaffinity 6.48006964
REMARK  4 active torsions:
REMARK  status: ('A' for Active; 'I' for Inactive)
REMARK    1  A    between atoms: C2_2  and  C3_3 
REMARK    2  A    between atoms: C2_2  and  C9_9 
REMARK    3  A    between atoms: C4_4  and  C5_5 
REMARK    4  A    between atoms: C23_23  and  O1_24 
ROOT
HETATM    1  C9  UNL     1      -6.090   6.311  13.859  1.00  0.00     0.001 C 
HETATM    2  C10 UNL     1      -6.305   7.814  14.217  1.00  0.00     0.006 C 
HETATM    3  C11 UNL     1      -4.985   8.544  13.932  1.00  0.00     0.009 C 
HETATM    4  C12 UNL     1      -4.124   7.484  13.258  1.00  0.00     0.036 C 
HETATM    5  C13 UNL     1      -4.536   6.152  13.937  1.00  0.00    -0.033 C 
HETATM    6  C14 UNL     1      -4.077   6.009  15.404  1.00  0.00     0.016 C 
HETATM    7  C15 UNL     1      -3.937   5.017  13.081  1.00  0.00     0.010 C 
HETATM    8  C16 UNL     1      -2.411   5.151  12.921  1.00  0.00     0.010 C 
HETATM    9  C17 UNL     1      -1.974   6.518  12.356  1.00  0.00     0.039 C 
HETATM   10  C18 UNL     1      -2.619   7.734  13.103  1.00  0.00     0.123 C 
HETATM   11  C19 UNL     1      -1.854   8.134  14.339  1.00  0.00     0.014 C 
HETATM   12  C20 UNL     1      -0.572   8.441  14.097  1.00  0.00     0.014 C 
HETATM   13  C21 UNL     1      -0.155   8.236  12.653  1.00  0.00     0.124 C 
HETATM   14  C22 UNL     1       1.281   8.711  12.402  1.00  0.00     0.078 C 
HETATM   15  C23 UNL     1       1.843   8.281  11.042  1.00  0.00     0.121 C 
HETATM   16  C24 UNL     1       0.816   7.654  10.105  1.00  0.00     0.033 C 
HETATM   17  C25 UNL     1       0.050   6.494  10.750  1.00  0.00     0.015 C 
HETATM   18  C26 UNL     1      -0.407   6.748  12.225  1.00  0.00     0.001 C 
HETATM   19  C27 UNL     1       0.410   5.781  13.126  1.00  0.00     0.019 C 
HETATM   20  O2  UNL     1      -1.033   9.068  11.842  1.00  0.00    -0.223 OA
HETATM   21  O3  UNL     1      -2.467   8.874  12.213  1.00  0.00    -0.224 OA
ENDROOT
BRANCH   1  22
HETATM   22  C2  UNL     1      -7.003   5.370  14.694  1.00  0.00     0.008 C 
HETATM   23  C1  UNL     1      -7.328   4.056  13.975  1.00  0.00     0.014 C 
BRANCH  22  24
HETATM   24  C3  UNL     1      -8.256   6.112  15.134  1.00  0.00    -0.026 C 
HETATM   25  C4  UNL     1      -9.213   6.640  14.351  1.00  0.00    -0.025 C 
BRANCH  25  26
HETATM   26  C5  UNL     1     -10.403   7.350  14.828  1.00  0.00     0.012 A 
HETATM   27  C6  UNL     1     -11.009   8.435  13.970  1.00  0.00     0.013 A 
HETATM   28  C7  UNL     1     -10.314   8.799  15.254  1.00  0.00    -0.010 A 
HETATM   29  C8  UNL     1      -9.046   9.583  15.214  1.00  0.00     0.010 C 
ENDBRANCH  25  26
ENDBRANCH  22  24
ENDBRANCH   1  22
BRANCH  15  30
HETATM   30  O1  UNL     1       2.896   7.339  11.272  1.00  0.00    -0.395 OA
HETATM   31  H33 UNL     1       3.308   7.147  10.411  1.00  0.00     0.210 HD
ENDBRANCH  15  30
TORSDOF 4
ENDMDL
MODEL 7
REMARK minimizedAffinity -7.29529715
REMARK CNNscore 0.389128
REMARK CNNaffinity 6.0054183
REMARK  4 active torsions:
REMARK  status: ('A' for Active; 'I' for Inactive)
REMARK    1  A    between atoms: C2_2  and  C3_3 
REMARK    2  A    between atoms: C2_2  and  C9_9 
REMARK    3  A    between atoms: C4_4  and  C5_5 
REMARK    4  A    between atoms: C23_23  and  O1_24 
ROOT
HETATM    1  C9  UNL     1      -3.190  11.939  17.538  1.00  0.00     0.001 C 
HETATM    2  C10 UNL     1      -3.230  10.959  18.751  1.00  0.00     0.006 C 
HETATM    3  C11 UNL     1      -2.587   9.642  18.295  1.00  0.00     0.009 C 
HETATM    4  C12 UNL     1      -2.043   9.965  16.910  1.00  0.00     0.036 C 
HETATM    5  C13 UNL     1      -3.060  10.973  16.314  1.00  0.00    -0.033 C 
HETATM    6  C14 UNL     1      -4.433  10.366  15.953  1.00  0.00     0.016 C 
HETATM    7  C15 UNL     1      -2.400  11.574  15.056  1.00  0.00     0.010 C 
HETATM    8  C16 UNL     1      -1.979  10.492  14.044  1.00  0.00     0.010 C 
HETATM    9  C17 UNL     1      -1.061   9.413  14.652  1.00  0.00     0.039 C 
HETATM   10  C18 UNL     1      -1.606   8.816  15.994  1.00  0.00     0.123 C 
HETATM   11  C19 UNL     1      -2.586   7.692  15.779  1.00  0.00     0.014 C 
HETATM   12  C20 UNL     1      -2.086   6.678  15.058  1.00  0.00     0.014 C 
HETATM   13  C21 UNL     1      -0.679   6.924  14.549  1.00  0.00     0.124 C 
HETATM   14  C22 UNL     1      -0.108   5.693  13.834  1.00  0.00     0.078 C 
HETATM   15  C23 UNL     1       1.190   5.973  13.069  1.00  0.00     0.121 C 
HETATM   16  C24 UNL     1       1.792   7.350  13.329  1.00  0.00     0.033 C 
HETATM   17  C25 UNL     1       0.793   8.489  13.105  1.00  0.00     0.015 C 
HETATM   18  C26 UNL     1      -0.640   8.228  13.679  1.00  0.00     0.001 C 
HETATM   19  C27 UNL     1      -1.599   8.094  12.463  1.00  0.00     0.019 C 
HETATM   20  O2  UNL     1       0.153   7.168  15.720  1.00  0.00    -0.223 OA
HETATM   21  O3  UNL     1      -0.469   8.172  16.634  1.00  0.00    -0.224 OA
ENDROOT
BRANCH   1  22
HETATM   22  C2  UNL     1      -4.346  12.977  17.580  1.00  0.00     0.008 C 
HETATM   23  C1  UNL     1      -4.191  14.092  16.540  1.00  0.00     0.014 C 
BRANCH  22  24
HETATM   24  C3  UNL     1      -4.507  13.523  18.991  1.00  0.00    -0.026 C 
HETATM   25  C4  UNL     1      -5.550  13.350  19.822  1.00  0.00    -0.025 C 
BRANCH  25  26
HETATM   26  C5  UNL     1      -5.656  13.903  21.176  1.00  0.00     0.012 A 
HETATM   27  C6  UNL     1      -5.855  12.965  22.342  1.00  0.00     0.013 A 
HETATM   28  C7  UNL     1      -6.975  13.874  21.916  1.00  0.00    -0.010 A 
HETATM   29  C8  UNL     1      -8.221  13.292  21.338  1.00  0.00     0.010 C 
ENDBRANCH  25  26
ENDBRANCH  22  24
ENDBRANCH   1  22
BRANCH  15  30
HETATM   30  O1  UNL     1       0.920   5.842  11.669  1.00  0.00    -0.395 OA
HETATM   31  H33 UNL     1       1.769   5.926  11.200  1.00  0.00     0.210 HD
ENDBRANCH  15  30
TORSDOF 4
ENDMDL
MODEL 8
REMARK minimizedAffinity -6.42879868
REMARK CNNscore 0.384769738
REMARK CNNaffinity 5.99296045
REMARK  4 active torsions:
REMARK  status: ('A' for Active; 'I' for Inactive)
REMARK    1  A    between atoms: C2_2  and  C3_3 
REMARK    2  A    between atoms: C2_2  and  C9_9 
REMARK    3  A    between atoms: C4_4  and  C5_5 
REMARK    4  A    between atoms: C23_23  and  O1_24 
ROOT
HETATM    1  C9  UNL     1     -13.742 -12.946  28.059  1.00  0.00     0.001 C 
HETATM    2  C10 UNL     1     -15.213 -13.256  28.473  1.00  0.00     0.006 C 
HETATM    3  C11 UNL     1     -15.854 -11.931  28.906  1.00  0.00     0.009 C 
HETATM    4  C12 UNL     1     -14.800 -10.888  28.559  1.00  0.00     0.036 C 
HETATM    5  C13 UNL     1     -13.445 -11.603  28.804  1.00  0.00    -0.033 C 
HETATM    6  C14 UNL     1     -13.116 -11.867  30.290  1.00  0.00     0.016 C 
HETATM    7  C15 UNL     1     -12.356 -10.714  28.170  1.00  0.00     0.010 C 
HETATM    8  C16 UNL     1     -12.376  -9.279  28.729  1.00  0.00     0.010 C 
HETATM    9  C17 UNL     1     -13.751  -8.594  28.601  1.00  0.00     0.039 C 
HETATM   10  C18 UNL     1     -14.936  -9.471  29.129  1.00  0.00     0.123 C 
HETATM   11  C19 UNL     1     -15.143  -9.341  30.616  1.00  0.00     0.014 C 
HETATM   12  C20 UNL     1     -15.363  -8.081  31.015  1.00  0.00     0.014 C 
HETATM   13  C21 UNL     1     -15.270  -7.059  29.898  1.00  0.00     0.124 C 
HETATM   14  C22 UNL     1     -15.646  -5.653  30.381  1.00  0.00     0.078 C 
HETATM   15  C23 UNL     1     -15.309  -4.547  29.374  1.00  0.00     0.121 C 
HETATM   16  C24 UNL     1     -14.869  -5.052  28.005  1.00  0.00     0.033 C 
HETATM   17  C25 UNL     1     -13.720  -6.061  28.083  1.00  0.00     0.015 C 
HETATM   18  C26 UNL     1     -13.860  -7.132  29.216  1.00  0.00     0.001 C 
HETATM   19  C27 UNL     1     -12.742  -6.844  30.255  1.00  0.00     0.019 C 
HETATM   20  O2  UNL     1     -16.252  -7.447  28.894  1.00  0.00    -0.223 OA
HETATM   21  O3  UNL     1     -16.143  -8.898  28.555  1.00  0.00    -0.224 OA
ENDROOT
BRANCH   1  22
HETATM   22  C2  UNL     1     -12.802 -14.167  28.268  1.00  0.00     0.008 C 
HETATM   23  C1  UNL     1     -13.019 -14.869  29.613  1.00  0.00     0.014 C 
BRANCH  22  24
HETATM   24  C3  UNL     1     -11.353 -13.752  28.062  1.00  0.00    -0.026 C 
HETATM   25  C4  UNL     1     -10.632 -13.830  26.930  1.00  0.00    -0.025 C 
BRANCH  25  26
HETATM   26  C5  UNL     1      -9.232 -13.417  26.785  1.00  0.00     0.012 A 
HETATM   27  C6  UNL     1      -8.484 -13.772  25.523  1.00  0.00     0.013 A 
HETATM   28  C7  UNL     1      -8.121 -14.443  26.819  1.00  0.00    -0.010 A 
HETATM   29  C8  UNL     1      -8.367 -15.904  26.992  1.00  0.00     0.010 C 
ENDBRANCH  25  26
ENDBRANCH  22  24
ENDBRANCH   1  22
BRANCH  15  30
HETATM   30  O1  UNL     1     -14.264  -3.741  29.929  1.00  0.00    -0.395 OA
HETATM   31  H33 UNL     1     -14.125  -2.989  29.327  1.00  0.00     0.210 HD
ENDBRANCH  15  30
TORSDOF 4
ENDMDL
MODEL 9
REMARK minimizedAffinity -6.81767702
REMARK CNNscore 0.323215902
REMARK CNNaffinity 5.8680768
REMARK  4 active torsions:
REMARK  status: ('A' for Active; 'I' for Inactive)
REMARK    1  A    between atoms: C2_2  and  C3_3 
REMARK    2  A    between atoms: C2_2  and  C9_9 
REMARK    3  A    between atoms: C4_4  and  C5_5 
REMARK    4  A    between atoms: C23_23  and  O1_24 
ROOT
HETATM    1  C9  UNL     1     -11.040   8.997  14.215  1.00  0.00     0.001 C 
HETATM    2  C10 UNL     1     -10.903   7.465  13.957  1.00  0.00     0.006 C 
HETATM    3  C11 UNL     1     -12.262   6.963  13.452  1.00  0.00     0.009 C 
HETATM    4  C12 UNL     1     -13.072   8.239  13.266  1.00  0.00     0.036 C 
HETATM    5  C13 UNL     1     -12.583   9.184  14.394  1.00  0.00    -0.033 C 
HETATM    6  C14 UNL     1     -13.018   8.767  15.816  1.00  0.00     0.016 C 
HETATM    7  C15 UNL     1     -13.129  10.588  14.063  1.00  0.00     0.010 C 
HETATM    8  C16 UNL     1     -14.661  10.596  13.909  1.00  0.00     0.010 C 
HETATM    9  C17 UNL     1     -15.176   9.576  12.873  1.00  0.00     0.039 C 
HETATM   10  C18 UNL     1     -14.590   8.138  13.072  1.00  0.00     0.123 C 
HETATM   11  C19 UNL     1     -15.362   7.325  14.079  1.00  0.00     0.014 C 
HETATM   12  C20 UNL     1     -16.661   7.195  13.776  1.00  0.00     0.014 C 
HETATM   13  C21 UNL     1     -17.081   7.963  12.537  1.00  0.00     0.124 C 
HETATM   14  C22 UNL     1     -18.543   7.687  12.165  1.00  0.00     0.078 C 
HETATM   15  C23 UNL     1     -19.095   8.637  11.095  1.00  0.00     0.121 C 
HETATM   16  C24 UNL     1     -18.046   9.530  10.443  1.00  0.00     0.033 C 
HETATM   17  C25 UNL     1     -17.213  10.313  11.462  1.00  0.00     0.015 C 
HETATM   18  C26 UNL     1     -16.755   9.487  12.710  1.00  0.00     0.001 C 
HETATM   19  C27 UNL     1     -17.509  10.064  13.940  1.00  0.00     0.019 C 
HETATM   20  O2  UNL     1     -16.257   7.471  11.441  1.00  0.00    -0.223 OA
HETATM   21  O3  UNL     1     -14.811   7.440  11.815  1.00  0.00    -0.224 OA
ENDROOT
BRANCH   1  22
HETATM   22  C2  UNL     1     -10.069   9.499  15.321  1.00  0.00     0.008 C 
HETATM   23  C1  UNL     1      -9.745  10.992  15.203  1.00  0.00     0.014 C 
BRANCH  22  24
HETATM   24  C3  UNL     1      -8.816   8.636  15.347  1.00  0.00    -0.026 C 
HETATM   25  C4  UNL     1      -8.569   7.574  16.133  1.00  0.00    -0.025 C 
BRANCH  25  26
HETATM   26  C5  UNL     1      -7.339   6.777  16.120  1.00  0.00     0.012 A 
HETATM   27  C6  UNL     1      -6.300   7.041  15.057  1.00  0.00     0.013 A 
HETATM   28  C7  UNL     1      -7.092   5.763  15.025  1.00  0.00    -0.010 A 
HETATM   29  C8  UNL     1      -8.054   5.515  13.913  1.00  0.00     0.010 C 
ENDBRANCH  25  26
ENDBRANCH  22  24
ENDBRANCH   1  22
BRANCH  15  30
HETATM   30  O1  UNL     1     -20.094   9.462  11.703  1.00  0.00    -0.395 OA
HETATM   31  H33 UNL     1     -20.503   9.992  10.996  1.00  0.00     0.210 HD
ENDBRANCH  15  30
TORSDOF 4
ENDMDL
