MODEL 1
REMARK minimizedAffinity -11.4932432
REMARK  5 active torsions:
REMARK  status: ('A' for Active; 'I' for Inactive)
REMARK    1  A    between atoms: N1_2  and  C2_3 
REMARK    2  A    between atoms: C4_5  and  N4_34 
REMARK    3  A    between atoms: C5_7  and  N2_12 
REMARK    4  A    between atoms: C7_9  and  O2_10 
REMARK    5  A    between atoms: C27_35  and  C28_36 
ROOT
HETATM    1  C2  UNL     1      -5.719  48.068 -22.098  1.00  0.00     0.257 C 
HETATM    2  C3  UNL     1      -4.552  47.817 -23.047  1.00  0.00     0.092 C 
HETATM    3  C4  UNL     1      -3.373  48.760 -22.796  1.00  0.00     0.234 C 
HETATM    4  O1  UNL     1      -3.508  49.608 -21.663  1.00  0.00    -0.333 OA
HETATM    5  C5  UNL     1      -4.756  50.318 -21.465  1.00  0.00     0.168 C 
HETATM    6  C6  UNL     1      -4.793  50.363 -19.922  1.00  0.00     0.074 C 
HETATM    7  C7  UNL     1      -5.995  49.587 -22.073  1.00  0.00     0.209 C 
ENDROOT
BRANCH   1   8
HETATM    8  N1  UNL     1      -6.923  47.326 -22.533  1.00  0.00     0.086 N 
HETATM    9  C1  UNL     1      -6.988  47.146 -23.979  1.00  0.00     0.307 C 
HETATM   10  H4  UNL     1      -6.880  46.398 -22.098  1.00  0.00     0.316 HD
ENDBRANCH   1   8
BRANCH   7  11
HETATM   11  O2  UNL     1      -7.191  49.838 -21.307  1.00  0.00    -0.384 OA
HETATM   12  C8  UNL     1      -7.358  48.909 -20.238  1.00  0.00     0.202 C 
ENDBRANCH   7  11
BRANCH   3  13
HETATM   13  N4  UNL     1      -2.966  49.535 -23.965  1.00  0.00    -0.316 N 
HETATM   14  C26 UNL     1      -3.406  49.299 -25.258  1.00  0.00     0.048 A 
HETATM   15  C21 UNL     1      -2.707  50.175 -26.104  1.00  0.00     0.004 A 
HETATM   16  C25 UNL     1      -4.352  48.383 -25.753  1.00  0.00     0.030 A 
HETATM   17  C20 UNL     1      -1.835  50.955 -25.286  1.00  0.00     0.022 A 
HETATM   18  C22 UNL     1      -2.977  50.118 -27.488  1.00  0.00     0.014 A 
HETATM   19  C19 UNL     1      -0.877  51.965 -25.429  1.00  0.00     0.062 A 
HETATM   20  C27 UNL     1      -2.052  50.542 -23.980  1.00  0.00     0.077 A 
HETATM   21  C16 UNL     1      -0.177  52.553 -24.350  1.00  0.00     0.062 A 
HETATM   22  C18 UNL     1      -0.409  52.620 -26.651  1.00  0.00     0.260 A 
HETATM   23  C15 UNL     1      -0.365  52.204 -23.004  1.00  0.00     0.022 A 
HETATM   24  C17 UNL     1       0.711  53.566 -24.924  1.00  0.00     0.260 A 
HETATM   25  C14 UNL     1       0.099  52.603 -21.719  1.00  0.00     0.004 A 
HETATM   26  C28 UNL     1      -1.287  51.196 -22.783  1.00  0.00     0.078 A 
HETATM   27  C9  UNL     1      -0.593  51.841 -20.756  1.00  0.00     0.049 A 
HETATM   28  C13 UNL     1       1.019  53.581 -21.277  1.00  0.00     0.014 A 
HETATM   29  N2  UNL     1      -1.391  50.926 -21.440  1.00  0.00    -0.308 N 
HETATM   30  C10 UNL     1      -0.409  52.097 -19.381  1.00  0.00     0.030 A 
HETATM   31  C11 UNL     1       0.504  53.076 -18.979  1.00  0.00     0.002 A 
HETATM   32  C12 UNL     1       1.220  53.804 -19.914  1.00  0.00     0.001 A 
HETATM   33  O3  UNL     1       1.475  54.302 -24.333  1.00  0.00    -0.267 OA
HETATM   34  N3  UNL     1       0.519  53.537 -26.269  1.00  0.00    -0.289 N 
HETATM   35  H20 UNL     1       1.005  54.138 -26.913  1.00  0.00     0.172 HD
HETATM   36  O4  UNL     1      -0.769  52.402 -27.790  1.00  0.00    -0.267 OA
HETATM   37  C23 UNL     1      -3.918  49.211 -27.987  1.00  0.00     0.001 A 
HETATM   38  C24 UNL     1      -4.595  48.356 -27.128  1.00  0.00     0.002 A 
ENDBRANCH   3  13
TORSDOF 5
ENDMDL
MODEL 2
REMARK minimizedAffinity -11.3282022
REMARK  5 active torsions:
REMARK  status: ('A' for Active; 'I' for Inactive)
REMARK    1  A    between atoms: N1_2  and  C2_3 
REMARK    2  A    between atoms: C4_5  and  N4_34 
REMARK    3  A    between atoms: C5_7  and  N2_12 
REMARK    4  A    between atoms: C7_9  and  O2_10 
REMARK    5  A    between atoms: C27_35  and  C28_36 
ROOT
HETATM    1  C2  UNL     1      -4.458  49.230 -21.545  1.00  0.00     0.257 C 
HETATM    2  C3  UNL     1      -3.098  49.188 -22.234  1.00  0.00     0.092 C 
HETATM    3  C4  UNL     1      -1.957  49.635 -21.317  1.00  0.00     0.234 C 
HETATM    4  O1  UNL     1      -2.328  49.888 -19.969  1.00  0.00    -0.333 OA
HETATM    5  C5  UNL     1      -3.511  50.684 -19.706  1.00  0.00     0.168 C 
HETATM    6  C6  UNL     1      -3.978  50.035 -18.385  1.00  0.00     0.074 C 
HETATM    7  C7  UNL     1      -4.589  50.593 -20.833  1.00  0.00     0.209 C 
ENDROOT
BRANCH   1   8
HETATM    8  N1  UNL     1      -5.552  49.044 -22.523  1.00  0.00     0.086 N 
HETATM    9  C1  UNL     1      -5.598  47.695 -23.076  1.00  0.00     0.307 C 
HETATM   10  H4  UNL     1      -6.433  49.216 -22.028  1.00  0.00     0.316 HD
ENDBRANCH   1   8
BRANCH   7  11
HETATM   11  O2  UNL     1      -5.924  50.725 -20.304  1.00  0.00    -0.384 OA
HETATM   12  C8  UNL     1      -6.482  49.471 -19.915  1.00  0.00     0.202 C 
ENDBRANCH   7  11
BRANCH   3  13
HETATM   13  N4  UNL     1      -1.166  50.744 -21.843  1.00  0.00    -0.316 N 
HETATM   14  C26 UNL     1      -0.323  51.540 -21.081  1.00  0.00     0.048 A 
HETATM   15  C21 UNL     1       0.165  52.554 -21.921  1.00  0.00     0.004 A 
HETATM   16  C25 UNL     1       0.041  51.456 -19.725  1.00  0.00     0.030 A 
HETATM   17  C20 UNL     1      -0.400  52.347 -23.216  1.00  0.00     0.022 A 
HETATM   18  C22 UNL     1       1.046  53.508 -21.368  1.00  0.00     0.014 A 
HETATM   19  C19 UNL     1      -0.378  52.940 -24.483  1.00  0.00     0.062 A 
HETATM   20  C27 UNL     1      -1.187  51.209 -23.121  1.00  0.00     0.077 A 
HETATM   21  C16 UNL     1      -1.079  52.439 -25.605  1.00  0.00     0.062 A 
HETATM   22  C18 UNL     1       0.336  54.138 -24.924  1.00  0.00     0.260 A 
HETATM   23  C15 UNL     1      -1.870  51.280 -25.588  1.00  0.00     0.022 A 
HETATM   24  C17 UNL     1      -0.781  53.335 -26.724  1.00  0.00     0.260 A 
HETATM   25  C14 UNL     1      -2.634  50.491 -26.494  1.00  0.00     0.004 A 
HETATM   26  C28 UNL     1      -1.955  50.646 -24.360  1.00  0.00     0.078 A 
HETATM   27  C9  UNL     1      -3.126  49.377 -25.784  1.00  0.00     0.049 A 
HETATM   28  C13 UNL     1      -2.919  50.596 -27.875  1.00  0.00     0.014 A 
HETATM   29  N2  UNL     1      -2.755  49.533 -24.450  1.00  0.00    -0.308 N 
HETATM   30  C10 UNL     1      -3.837  48.363 -26.459  1.00  0.00     0.030 A 
HETATM   31  C11 UNL     1      -4.096  48.496 -27.826  1.00  0.00     0.002 A 
HETATM   32  C12 UNL     1      -3.653  49.604 -28.527  1.00  0.00     0.001 A 
HETATM   33  O3  UNL     1      -1.180  53.250 -27.868  1.00  0.00    -0.267 OA
HETATM   34  N3  UNL     1       0.044  54.301 -26.241  1.00  0.00    -0.289 N 
HETATM   35  H20 UNL     1       0.409  55.052 -26.803  1.00  0.00     0.172 HD
HETATM   36  O4  UNL     1       1.055  54.856 -24.260  1.00  0.00    -0.267 OA
HETATM   37  C23 UNL     1       1.414  53.429 -20.020  1.00  0.00     0.001 A 
HETATM   38  C24 UNL     1       0.917  52.416 -19.212  1.00  0.00     0.002 A 
ENDBRANCH   3  13
TORSDOF 5
ENDMDL
MODEL 3
REMARK minimizedAffinity -11.2879372
REMARK  5 active torsions:
REMARK  status: ('A' for Active; 'I' for Inactive)
REMARK    1  A    between atoms: N1_2  and  C2_3 
REMARK    2  A    between atoms: C4_5  and  N4_34 
REMARK    3  A    between atoms: C5_7  and  N2_12 
REMARK    4  A    between atoms: C7_9  and  O2_10 
REMARK    5  A    between atoms: C27_35  and  C28_36 
ROOT
HETATM    1  C2  UNL     1      -5.279  48.328 -23.121  1.00  0.00     0.257 C 
HETATM    2  C3  UNL     1      -3.883  48.434 -23.728  1.00  0.00     0.092 C 
HETATM    3  C4  UNL     1      -2.925  49.259 -22.866  1.00  0.00     0.234 C 
HETATM    4  O1  UNL     1      -3.446  49.673 -21.610  1.00  0.00    -0.333 OA
HETATM    5  C5  UNL     1      -4.774  50.251 -21.559  1.00  0.00     0.168 C 
HETATM    6  C6  UNL     1      -5.218  49.773 -20.160  1.00  0.00     0.074 C 
HETATM    7  C7  UNL     1      -5.720  49.744 -22.694  1.00  0.00     0.209 C 
ENDROOT
BRANCH   1   8
HETATM    8  N1  UNL     1      -6.235  47.753 -24.093  1.00  0.00     0.086 N 
HETATM    9  C1  UNL     1      -5.870  48.026 -25.478  1.00  0.00     0.307 C 
HETATM   10  H4  UNL     1      -6.231  46.737 -23.956  1.00  0.00     0.316 HD
ENDBRANCH   1   8
BRANCH   7  11
HETATM   11  O2  UNL     1      -7.095  49.700 -22.261  1.00  0.00    -0.384 OA
HETATM   12  C8  UNL     1      -7.443  48.446 -21.678  1.00  0.00     0.202 C 
ENDBRANCH   7  11
BRANCH   3  13
HETATM   13  N4  UNL     1      -2.316  50.389 -23.560  1.00  0.00    -0.316 N 
HETATM   14  C26 UNL     1      -2.524  50.697 -24.897  1.00  0.00     0.048 A 
HETATM   15  C21 UNL     1      -1.684  51.776 -25.212  1.00  0.00     0.004 A 
HETATM   16  C25 UNL     1      -3.373  50.109 -25.852  1.00  0.00     0.030 A 
HETATM   17  C20 UNL     1      -0.965  52.121 -24.027  1.00  0.00     0.022 A 
HETATM   18  C22 UNL     1      -1.707  52.272 -26.534  1.00  0.00     0.014 A 
HETATM   19  C19 UNL     1       0.007  53.038 -23.612  1.00  0.00     0.062 A 
HETATM   20  C27 UNL     1      -1.409  51.257 -23.037  1.00  0.00     0.077 A 
HETATM   21  C16 UNL     1       0.510  53.117 -22.292  1.00  0.00     0.062 A 
HETATM   22  C18 UNL     1       0.685  54.074 -24.392  1.00  0.00     0.260 A 
HETATM   23  C15 UNL     1       0.088  52.296 -21.237  1.00  0.00     0.022 A 
HETATM   24  C17 UNL     1       1.489  54.206 -22.279  1.00  0.00     0.260 A 
HETATM   25  C14 UNL     1       0.321  52.140 -19.841  1.00  0.00     0.004 A 
HETATM   26  C28 UNL     1      -0.863  51.348 -21.575  1.00  0.00     0.078 A 
HETATM   27  C9  UNL     1      -0.532  51.120 -19.373  1.00  0.00     0.049 A 
HETATM   28  C13 UNL     1       1.154  52.807 -18.913  1.00  0.00     0.014 A 
HETATM   29  N2  UNL     1      -1.201  50.595 -20.477  1.00  0.00    -0.308 N 
HETATM   30  C10 UNL     1      -0.590  50.818 -17.997  1.00  0.00     0.030 A 
HETATM   31  C11 UNL     1       0.243  51.501 -17.106  1.00  0.00     0.002 A 
HETATM   32  C12 UNL     1       1.114  52.478 -17.557  1.00  0.00     0.001 A 
HETATM   33  O3  UNL     1       2.141  54.603 -21.335  1.00  0.00    -0.267 OA
HETATM   34  N3  UNL     1       1.535  54.706 -23.542  1.00  0.00    -0.289 N 
HETATM   35  H20 UNL     1       2.129  55.471 -23.815  1.00  0.00     0.172 HD
HETATM   36  O4  UNL     1       0.529  54.333 -25.568  1.00  0.00    -0.267 OA
HETATM   37  C23 UNL     1      -2.550  51.694 -27.489  1.00  0.00     0.001 A 
HETATM   38  C24 UNL     1      -3.371  50.627 -27.149  1.00  0.00     0.002 A 
ENDBRANCH   3  13
TORSDOF 5
ENDMDL
MODEL 4
REMARK minimizedAffinity -11.1267176
REMARK  5 active torsions:
REMARK  status: ('A' for Active; 'I' for Inactive)
REMARK    1  A    between atoms: N1_2  and  C2_3 
REMARK    2  A    between atoms: C4_5  and  N4_34 
REMARK    3  A    between atoms: C5_7  and  N2_12 
REMARK    4  A    between atoms: C7_9  and  O2_10 
REMARK    5  A    between atoms: C27_35  and  C28_36 
ROOT
HETATM    1  C2  UNL     1      -4.212  49.035 -23.871  1.00  0.00     0.257 C 
HETATM    2  C3  UNL     1      -2.701  49.000 -23.663  1.00  0.00     0.092 C 
HETATM    3  C4  UNL     1      -2.308  48.548 -22.255  1.00  0.00     0.234 C 
HETATM    4  O1  UNL     1      -3.387  48.123 -21.433  1.00  0.00    -0.333 OA
HETATM    5  C5  UNL     1      -4.584  48.939 -21.371  1.00  0.00     0.168 C 
HETATM    6  C6  UNL     1      -5.644  47.839 -21.155  1.00  0.00     0.074 C 
HETATM    7  C7  UNL     1      -4.840  49.771 -22.668  1.00  0.00     0.209 C 
ENDROOT
BRANCH   1   8
HETATM    8  N1  UNL     1      -4.555  49.715 -25.138  1.00  0.00     0.086 N 
HETATM    9  C1  UNL     1      -4.160  48.953 -26.318  1.00  0.00     0.307 C 
HETATM   10  H4  UNL     1      -5.574  49.825 -25.156  1.00  0.00     0.316 HD
ENDBRANCH   1   8
BRANCH   7  11
HETATM   11  O2  UNL     1      -6.250  49.957 -22.912  1.00  0.00    -0.384 OA
HETATM   12  C8  UNL     1      -6.817  48.892 -23.672  1.00  0.00     0.202 C 
ENDBRANCH   7  11
BRANCH   3  13
HETATM   13  N4  UNL     1      -1.464  49.497 -21.534  1.00  0.00    -0.316 N 
HETATM   14  C26 UNL     1      -1.232  49.464 -20.167  1.00  0.00     0.048 A 
HETATM   15  C21 UNL     1      -0.468  50.597 -19.847  1.00  0.00     0.004 A 
HETATM   16  C25 UNL     1      -1.639  48.539 -19.189  1.00  0.00     0.030 A 
HETATM   17  C20 UNL     1      -0.235  51.315 -21.059  1.00  0.00     0.022 A 
HETATM   18  C22 UNL     1      -0.107  50.795 -18.496  1.00  0.00     0.014 A 
HETATM   19  C19 UNL     1       0.402  52.485 -21.487  1.00  0.00     0.062 A 
HETATM   20  C27 UNL     1      -0.845  50.584 -22.068  1.00  0.00     0.077 A 
HETATM   21  C16 UNL     1       0.455  52.912 -22.834  1.00  0.00     0.062 A 
HETATM   22  C18 UNL     1       1.129  53.478 -20.694  1.00  0.00     0.260 A 
HETATM   23  C15 UNL     1      -0.115  52.210 -23.907  1.00  0.00     0.022 A 
HETATM   24  C17 UNL     1       1.218  54.162 -22.852  1.00  0.00     0.260 A 
HETATM   25  C14 UNL     1      -0.204  52.307 -25.325  1.00  0.00     0.004 A 
HETATM   26  C28 UNL     1      -0.781  51.047 -23.560  1.00  0.00     0.078 A 
HETATM   27  C9  UNL     1      -0.894  51.171 -25.792  1.00  0.00     0.049 A 
HETATM   28  C13 UNL     1       0.281  53.242 -26.268  1.00  0.00     0.014 A 
HETATM   29  N2  UNL     1      -1.305  50.443 -24.676  1.00  0.00    -0.308 N 
HETATM   30  C10 UNL     1      -1.041  50.948 -27.176  1.00  0.00     0.030 A 
HETATM   31  C11 UNL     1      -0.544  51.889 -28.082  1.00  0.00     0.002 A 
HETATM   32  C12 UNL     1       0.101  53.030 -27.636  1.00  0.00     0.001 A 
HETATM   33  O3  UNL     1       1.498  54.845 -23.816  1.00  0.00    -0.267 OA
HETATM   34  N3  UNL     1       1.568  54.423 -21.565  1.00  0.00    -0.289 N 
HETATM   35  H20 UNL     1       2.106  55.228 -21.288  1.00  0.00     0.172 HD
HETATM   36  O4  UNL     1       1.315  53.472 -19.495  1.00  0.00    -0.267 OA
HETATM   37  C23 UNL     1      -0.507  49.878 -17.519  1.00  0.00     0.001 A 
HETATM   38  C24 UNL     1      -1.262  48.765 -17.864  1.00  0.00     0.002 A 
ENDBRANCH   3  13
TORSDOF 5
ENDMDL
MODEL 5
REMARK minimizedAffinity -10.7286491
REMARK  5 active torsions:
REMARK  status: ('A' for Active; 'I' for Inactive)
REMARK    1  A    between atoms: N1_2  and  C2_3 
REMARK    2  A    between atoms: C4_5  and  N4_34 
REMARK    3  A    between atoms: C5_7  and  N2_12 
REMARK    4  A    between atoms: C7_9  and  O2_10 
REMARK    5  A    between atoms: C27_35  and  C28_36 
ROOT
HETATM    1  C2  UNL     1      -4.663  48.985 -20.032  1.00  0.00     0.257 C 
HETATM    2  C3  UNL     1      -3.673  49.615 -21.008  1.00  0.00     0.092 C 
HETATM    3  C4  UNL     1      -2.243  49.109 -20.807  1.00  0.00     0.234 C 
HETATM    4  O1  UNL     1      -2.099  48.066 -19.852  1.00  0.00    -0.333 OA
HETATM    5  C5  UNL     1      -2.758  48.197 -18.568  1.00  0.00     0.168 C 
HETATM    6  C6  UNL     1      -3.055  46.711 -18.271  1.00  0.00     0.074 C 
HETATM    7  C7  UNL     1      -4.054  49.069 -18.616  1.00  0.00     0.209 C 
ENDROOT
BRANCH   1   8
HETATM    8  N1  UNL     1      -5.968  49.681 -20.081  1.00  0.00     0.086 N 
HETATM    9  C1  UNL     1      -6.632  49.553 -21.374  1.00  0.00     0.307 C 
HETATM   10  H4  UNL     1      -6.567  49.249 -19.371  1.00  0.00     0.316 HD
ENDBRANCH   1   8
BRANCH   7  11
HETATM   11  O2  UNL     1      -5.031  48.624 -17.654  1.00  0.00    -0.384 OA
HETATM   12  C8  UNL     1      -5.912  47.637 -18.188  1.00  0.00     0.202 C 
ENDBRANCH   7  11
BRANCH   3  13
HETATM   13  N4  UNL     1      -1.264  50.163 -20.560  1.00  0.00    -0.316 N 
HETATM   14  C26 UNL     1      -0.726  50.462 -19.317  1.00  0.00     0.048 A 
HETATM   15  C21 UNL     1       0.084  51.598 -19.475  1.00  0.00     0.004 A 
HETATM   16  C25 UNL     1      -0.891  49.833 -18.070  1.00  0.00     0.030 A 
HETATM   17  C20 UNL     1       0.028  51.976 -20.851  1.00  0.00     0.022 A 
HETATM   18  C22 UNL     1       0.742  52.109 -18.335  1.00  0.00     0.014 A 
HETATM   19  C19 UNL     1       0.543  52.968 -21.694  1.00  0.00     0.062 A 
HETATM   20  C27 UNL     1      -0.790  51.049 -21.477  1.00  0.00     0.077 A 
HETATM   21  C16 UNL     1       0.283  53.040 -23.083  1.00  0.00     0.062 A 
HETATM   22  C18 UNL     1       1.424  54.088 -21.364  1.00  0.00     0.260 A 
HETATM   23  C15 UNL     1      -0.512  52.123 -23.786  1.00  0.00     0.022 A 
HETATM   24  C17 UNL     1       1.013  54.204 -23.588  1.00  0.00     0.260 A 
HETATM   25  C14 UNL     1      -0.923  51.866 -25.125  1.00  0.00     0.004 A 
HETATM   26  C28 UNL     1      -1.072  51.119 -23.014  1.00  0.00     0.078 A 
HETATM   27  C9  UNL     1      -1.693  50.686 -25.119  1.00  0.00     0.049 A 
HETATM   28  C13 UNL     1      -0.673  52.509 -26.359  1.00  0.00     0.014 A 
HETATM   29  N2  UNL     1      -1.833  50.283 -23.793  1.00  0.00    -0.308 N 
HETATM   30  C10 UNL     1      -2.151  50.132 -26.333  1.00  0.00     0.030 A 
HETATM   31  C11 UNL     1      -1.881  50.789 -27.536  1.00  0.00     0.002 A 
HETATM   32  C12 UNL     1      -1.160  51.971 -27.552  1.00  0.00     0.001 A 
HETATM   33  O3  UNL     1       1.061  54.609 -24.732  1.00  0.00    -0.267 OA
HETATM   34  N3  UNL     1       1.646  54.761 -22.523  1.00  0.00    -0.289 N 
HETATM   35  H20 UNL     1       2.227  55.581 -22.587  1.00  0.00     0.172 HD
HETATM   36  O4  UNL     1       1.879  54.373 -20.275  1.00  0.00    -0.267 OA
HETATM   37  C23 UNL     1       0.583  51.487 -17.092  1.00  0.00     0.001 A 
HETATM   38  C24 UNL     1      -0.223  50.364 -16.964  1.00  0.00     0.002 A 
ENDBRANCH   3  13
TORSDOF 5
ENDMDL
MODEL 6
REMARK minimizedAffinity -10.579812
REMARK  5 active torsions:
REMARK  status: ('A' for Active; 'I' for Inactive)
REMARK    1  A    between atoms: N1_2  and  C2_3 
REMARK    2  A    between atoms: C4_5  and  N4_34 
REMARK    3  A    between atoms: C5_7  and  N2_12 
REMARK    4  A    between atoms: C7_9  and  O2_10 
REMARK    5  A    between atoms: C27_35  and  C28_36 
ROOT
HETATM    1  C2  UNL     1      -0.400  52.877 -26.690  1.00  0.00     0.257 C 
HETATM    2  C3  UNL     1      -0.789  53.446 -25.329  1.00  0.00     0.092 C 
HETATM    3  C4  UNL     1       0.299  53.247 -24.272  1.00  0.00     0.234 C 
HETATM    4  O1  UNL     1       1.515  52.691 -24.753  1.00  0.00    -0.333 OA
HETATM    5  C5  UNL     1       1.460  51.534 -25.625  1.00  0.00     0.168 C 
HETATM    6  C6  UNL     1       2.708  51.798 -26.494  1.00  0.00     0.074 C 
HETATM    7  C7  UNL     1       0.148  51.451 -26.469  1.00  0.00     0.209 C 
ENDROOT
BRANCH   1   8
HETATM    8  N1  UNL     1      -1.562  52.855 -27.605  1.00  0.00     0.086 N 
HETATM    9  C1  UNL     1      -1.615  54.018 -28.484  1.00  0.00     0.307 C 
HETATM   10  H4  UNL     1      -1.470  52.017 -28.189  1.00  0.00     0.316 HD
ENDBRANCH   1   8
BRANCH   7  11
HETATM   11  O2  UNL     1       0.378  50.829 -27.751  1.00  0.00    -0.384 OA
HETATM   12  C8  UNL     1       1.015  51.708 -28.676  1.00  0.00     0.202 C 
ENDBRANCH   7  11
BRANCH   3  13
HETATM   13  N4  UNL     1      -0.148  52.534 -23.079  1.00  0.00    -0.316 N 
HETATM   14  C26 UNL     1       0.286  52.805 -21.790  1.00  0.00     0.048 A 
HETATM   15  C21 UNL     1      -0.285  51.841 -20.945  1.00  0.00     0.004 A 
HETATM   16  C25 UNL     1       1.139  53.812 -21.302  1.00  0.00     0.030 A 
HETATM   17  C20 UNL     1      -1.085  50.979 -21.756  1.00  0.00     0.022 A 
HETATM   18  C22 UNL     1       0.019  51.900 -19.568  1.00  0.00     0.014 A 
HETATM   19  C19 UNL     1      -1.894  49.847 -21.613  1.00  0.00     0.062 A 
HETATM   20  C27 UNL     1      -0.988  51.464 -23.052  1.00  0.00     0.077 A 
HETATM   21  C16 UNL     1      -2.587  49.227 -22.679  1.00  0.00     0.062 A 
HETATM   22  C18 UNL     1      -2.205  49.088 -20.401  1.00  0.00     0.260 A 
HETATM   23  C15 UNL     1      -2.556  49.678 -24.007  1.00  0.00     0.022 A 
HETATM   24  C17 UNL     1      -3.319  48.096 -22.106  1.00  0.00     0.260 A 
HETATM   25  C14 UNL     1      -3.144  49.354 -25.263  1.00  0.00     0.004 A 
HETATM   26  C28 UNL     1      -1.760  50.788 -24.232  1.00  0.00     0.078 A 
HETATM   27  C9  UNL     1      -2.707  50.309 -26.202  1.00  0.00     0.049 A 
HETATM   28  C13 UNL     1      -4.050  48.353 -25.684  1.00  0.00     0.014 A 
HETATM   29  N2  UNL     1      -1.794  51.142 -25.558  1.00  0.00    -0.308 N 
HETATM   30  C10 UNL     1      -3.214  50.295 -27.518  1.00  0.00     0.030 A 
HETATM   31  C11 UNL     1      -4.114  49.296 -27.899  1.00  0.00     0.002 A 
HETATM   32  C12 UNL     1      -4.521  48.327 -26.997  1.00  0.00     0.001 A 
HETATM   33  O3  UNL     1      -4.044  47.313 -22.686  1.00  0.00    -0.267 OA
HETATM   34  N3  UNL     1      -3.038  48.082 -20.777  1.00  0.00    -0.289 N 
HETATM   35  H20 UNL     1      -3.416  47.404 -20.136  1.00  0.00     0.172 HD
HETATM   36  O4  UNL     1      -1.810  49.302 -19.274  1.00  0.00    -0.267 OA
HETATM   37  C23 UNL     1       0.865  52.899 -19.075  1.00  0.00     0.001 A 
HETATM   38  C24 UNL     1       1.416  53.842 -19.934  1.00  0.00     0.002 A 
ENDBRANCH   3  13
TORSDOF 5
ENDMDL
MODEL 7
REMARK minimizedAffinity -10.5173798
REMARK  5 active torsions:
REMARK  status: ('A' for Active; 'I' for Inactive)
REMARK    1  A    between atoms: N1_2  and  C2_3 
REMARK    2  A    between atoms: C4_5  and  N4_34 
REMARK    3  A    between atoms: C5_7  and  N2_12 
REMARK    4  A    between atoms: C7_9  and  O2_10 
REMARK    5  A    between atoms: C27_35  and  C28_36 
ROOT
HETATM    1  C2  UNL     1      -5.299  47.250 -20.702  1.00  0.00     0.257 C 
HETATM    2  C3  UNL     1      -3.962  47.650 -21.318  1.00  0.00     0.092 C 
HETATM    3  C4  UNL     1      -3.859  49.154 -21.581  1.00  0.00     0.234 C 
HETATM    4  O1  UNL     1      -4.949  49.928 -21.100  1.00  0.00    -0.333 OA
HETATM    5  C5  UNL     1      -6.301  49.475 -21.366  1.00  0.00     0.168 C 
HETATM    6  C6  UNL     1      -7.011  50.001 -20.101  1.00  0.00     0.074 C 
HETATM    7  C7  UNL     1      -6.421  47.925 -21.520  1.00  0.00     0.209 C 
ENDROOT
BRANCH   1   8
HETATM    8  N1  UNL     1      -5.463  45.779 -20.704  1.00  0.00     0.086 N 
HETATM    9  C1  UNL     1      -4.201  45.067 -20.539  1.00  0.00     0.307 C 
HETATM   10  H4  UNL     1      -6.070  45.542 -19.913  1.00  0.00     0.316 HD
ENDBRANCH   1   8
BRANCH   7  11
HETATM   11  O2  UNL     1      -7.699  47.441 -21.059  1.00  0.00    -0.384 OA
HETATM   12  C8  UNL     1      -8.430  48.433 -20.342  1.00  0.00     0.202 C 
ENDBRANCH   7  11
BRANCH   3  13
HETATM   13  N4  UNL     1      -3.561  49.501 -22.967  1.00  0.00    -0.316 N 
HETATM   14  C26 UNL     1      -4.231  48.990 -24.068  1.00  0.00     0.048 A 
HETATM   15  C21 UNL     1      -3.583  49.477 -25.214  1.00  0.00     0.004 A 
HETATM   16  C25 UNL     1      -5.344  48.134 -24.149  1.00  0.00     0.030 A 
HETATM   17  C20 UNL     1      -2.504  50.306 -24.778  1.00  0.00     0.022 A 
HETATM   18  C22 UNL     1      -4.080  49.085 -26.476  1.00  0.00     0.014 A 
HETATM   19  C19 UNL     1      -1.473  51.072 -25.331  1.00  0.00     0.062 A 
HETATM   20  C27 UNL     1      -2.551  50.308 -23.392  1.00  0.00     0.077 A 
HETATM   21  C16 UNL     1      -0.543  51.817 -24.569  1.00  0.00     0.062 A 
HETATM   22  C18 UNL     1      -1.138  51.282 -26.740  1.00  0.00     0.260 A 
HETATM   23  C15 UNL     1      -0.547  51.887 -23.167  1.00  0.00     0.022 A 
HETATM   24  C17 UNL     1       0.351  52.479 -25.521  1.00  0.00     0.260 A 
HETATM   25  C14 UNL     1       0.163  52.547 -22.125  1.00  0.00     0.004 A 
HETATM   26  C28 UNL     1      -1.531  51.137 -22.546  1.00  0.00     0.078 A 
HETATM   27  C9  UNL     1      -0.445  52.199 -20.902  1.00  0.00     0.049 A 
HETATM   28  C13 UNL     1       1.250  53.451 -22.110  1.00  0.00     0.014 A 
HETATM   29  N2  UNL     1      -1.444  51.269 -21.181  1.00  0.00    -0.308 N 
HETATM   30  C10 UNL     1      -0.010  52.792 -19.699  1.00  0.00     0.030 A 
HETATM   31  C11 UNL     1       1.063  53.687 -19.720  1.00  0.00     0.002 A 
HETATM   32  C12 UNL     1       1.696  54.007 -20.909  1.00  0.00     0.001 A 
HETATM   33  O3  UNL     1       1.281  53.219 -25.274  1.00  0.00    -0.267 OA
HETATM   34  N3  UNL     1      -0.061  52.110 -26.763  1.00  0.00    -0.289 N 
HETATM   35  H20 UNL     1       0.379  52.426 -27.611  1.00  0.00     0.172 HD
HETATM   36  O4  UNL     1      -1.702  50.819 -27.709  1.00  0.00    -0.267 OA
HETATM   37  C23 UNL     1      -5.188  48.235 -26.564  1.00  0.00     0.001 A 
HETATM   38  C24 UNL     1      -5.810  47.768 -25.414  1.00  0.00     0.002 A 
ENDBRANCH   3  13
TORSDOF 5
ENDMDL
MODEL 8
REMARK minimizedAffinity -10.4620066
REMARK  5 active torsions:
REMARK  status: ('A' for Active; 'I' for Inactive)
REMARK    1  A    between atoms: N1_2  and  C2_3 
REMARK    2  A    between atoms: C4_5  and  N4_34 
REMARK    3  A    between atoms: C5_7  and  N2_12 
REMARK    4  A    between atoms: C7_9  and  O2_10 
REMARK    5  A    between atoms: C27_35  and  C28_36 
ROOT
HETATM    1  C2  UNL     1      -3.187  47.815 -19.628  1.00  0.00     0.257 C 
HETATM    2  C3  UNL     1      -3.130  49.128 -20.401  1.00  0.00     0.092 C 
HETATM    3  C4  UNL     1      -4.310  49.301 -21.360  1.00  0.00     0.234 C 
HETATM    4  O1  UNL     1      -5.308  48.292 -21.280  1.00  0.00    -0.333 OA
HETATM    5  C5  UNL     1      -4.897  46.902 -21.252  1.00  0.00     0.168 C 
HETATM    6  C6  UNL     1      -6.022  46.311 -20.377  1.00  0.00     0.074 C 
HETATM    7  C7  UNL     1      -3.479  46.682 -20.635  1.00  0.00     0.209 C 
ENDROOT
BRANCH   1   8
HETATM    8  N1  UNL     1      -1.915  47.565 -18.915  1.00  0.00     0.086 N 
HETATM    9  C1  UNL     1      -1.340  48.776 -18.338  1.00  0.00     0.307 C 
HETATM   10  H4  UNL     1      -2.120  46.914 -18.150  1.00  0.00     0.316 HD
ENDBRANCH   1   8
BRANCH   7  11
HETATM   11  O2  UNL     1      -3.384  45.411 -19.959  1.00  0.00    -0.384 OA
HETATM   12  C8  UNL     1      -3.719  45.504 -18.576  1.00  0.00     0.202 C 
ENDBRANCH   7  11
BRANCH   3  13
HETATM   13  N4  UNL     1      -3.925  49.525 -22.750  1.00  0.00    -0.316 N 
HETATM   14  C26 UNL     1      -4.577  48.978 -23.846  1.00  0.00     0.048 A 
HETATM   15  C21 UNL     1      -3.844  49.336 -24.989  1.00  0.00     0.004 A 
HETATM   16  C25 UNL     1      -5.741  48.193 -23.923  1.00  0.00     0.030 A 
HETATM   17  C20 UNL     1      -2.733  50.122 -24.557  1.00  0.00     0.022 A 
HETATM   18  C22 UNL     1      -4.308  48.884 -26.243  1.00  0.00     0.014 A 
HETATM   19  C19 UNL     1      -1.626  50.777 -25.109  1.00  0.00     0.062 A 
HETATM   20  C27 UNL     1      -2.844  50.230 -23.179  1.00  0.00     0.077 A 
HETATM   21  C16 UNL     1      -0.684  51.514 -24.355  1.00  0.00     0.062 A 
HETATM   22  C18 UNL     1      -1.213  50.860 -26.510  1.00  0.00     0.260 A 
HETATM   23  C15 UNL     1      -0.748  51.688 -22.964  1.00  0.00     0.022 A 
HETATM   24  C17 UNL     1       0.296  52.044 -25.305  1.00  0.00     0.260 A 
HETATM   25  C14 UNL     1      -0.043  52.375 -21.936  1.00  0.00     0.004 A 
HETATM   26  C28 UNL     1      -1.810  51.052 -22.342  1.00  0.00     0.078 A 
HETATM   27  C9  UNL     1      -0.730  52.159 -20.724  1.00  0.00     0.049 A 
HETATM   28  C13 UNL     1       1.101  53.205 -21.929  1.00  0.00     0.014 A 
HETATM   29  N2  UNL     1      -1.777  51.278 -20.988  1.00  0.00    -0.308 N 
HETATM   30  C10 UNL     1      -0.312  52.810 -19.546  1.00  0.00     0.030 A 
HETATM   31  C11 UNL     1       0.820  53.629 -19.575  1.00  0.00     0.002 A 
HETATM   32  C12 UNL     1       1.527  53.818 -20.749  1.00  0.00     0.001 A 
HETATM   33  O3  UNL     1       1.263  52.738 -25.063  1.00  0.00    -0.267 OA
HETATM   34  N3  UNL     1      -0.082  51.612 -26.537  1.00  0.00    -0.289 N 
HETATM   35  H20 UNL     1       0.418  51.834 -27.382  1.00  0.00     0.172 HD
HETATM   36  O4  UNL     1      -1.761  50.363 -27.472  1.00  0.00    -0.267 OA
HETATM   37  C23 UNL     1      -5.466  48.105 -26.327  1.00  0.00     0.001 A 
HETATM   38  C24 UNL     1      -6.172  47.766 -25.181  1.00  0.00     0.002 A 
ENDBRANCH   3  13
TORSDOF 5
ENDMDL
MODEL 9
REMARK minimizedAffinity -10.4415169
REMARK  5 active torsions:
REMARK  status: ('A' for Active; 'I' for Inactive)
REMARK    1  A    between atoms: N1_2  and  C2_3 
REMARK    2  A    between atoms: C4_5  and  N4_34 
REMARK    3  A    between atoms: C5_7  and  N2_12 
REMARK    4  A    between atoms: C7_9  and  O2_10 
REMARK    5  A    between atoms: C27_35  and  C28_36 
ROOT
HETATM    1  C2  UNL     1       0.225  53.409 -25.786  1.00  0.00     0.257 C 
HETATM    2  C3  UNL     1       0.112  52.363 -24.682  1.00  0.00     0.092 C 
HETATM    3  C4  UNL     1      -0.189  50.963 -25.223  1.00  0.00     0.234 C 
HETATM    4  O1  UNL     1      -0.187  50.849 -26.640  1.00  0.00    -0.333 OA
HETATM    5  C5  UNL     1      -0.896  51.842 -27.423  1.00  0.00     0.168 C 
HETATM    6  C6  UNL     1      -0.010  51.864 -28.687  1.00  0.00     0.074 C 
HETATM    7  C7  UNL     1      -0.985  53.239 -26.729  1.00  0.00     0.209 C 
ENDROOT
BRANCH   1   8
HETATM    8  N1  UNL     1       0.256  54.775 -25.218  1.00  0.00     0.086 N 
HETATM    9  C1  UNL     1       0.953  54.843 -23.938  1.00  0.00     0.307 C 
HETATM   10  H4  UNL     1       0.757  55.369 -25.886  1.00  0.00     0.316 HD
ENDBRANCH   1   8
BRANCH   7  11
HETATM   11  O2  UNL     1      -0.990  54.312 -27.692  1.00  0.00    -0.384 OA
HETATM   12  C8  UNL     1      -0.057  55.341 -27.366  1.00  0.00     0.202 C 
ENDBRANCH   7  11
BRANCH   3  13
HETATM   13  N4  UNL     1      -1.392  50.351 -24.666  1.00  0.00    -0.316 N 
HETATM   14  C26 UNL     1      -2.328  49.642 -25.404  1.00  0.00     0.048 A 
HETATM   15  C21 UNL     1      -3.382  49.314 -24.536  1.00  0.00     0.004 A 
HETATM   16  C25 UNL     1      -2.338  49.271 -26.761  1.00  0.00     0.030 A 
HETATM   17  C20 UNL     1      -3.056  49.838 -23.248  1.00  0.00     0.022 A 
HETATM   18  C22 UNL     1      -4.475  48.591 -25.061  1.00  0.00     0.014 A 
HETATM   19  C19 UNL     1      -3.611  49.907 -21.966  1.00  0.00     0.062 A 
HETATM   20  C27 UNL     1      -1.814  50.441 -23.376  1.00  0.00     0.077 A 
HETATM   21  C16 UNL     1      -2.978  50.520 -20.859  1.00  0.00     0.062 A 
HETATM   22  C18 UNL     1      -4.893  49.384 -21.490  1.00  0.00     0.260 A 
HETATM   23  C15 UNL     1      -1.713  51.124 -20.910  1.00  0.00     0.022 A 
HETATM   24  C17 UNL     1      -3.880  50.362 -19.716  1.00  0.00     0.260 A 
HETATM   25  C14 UNL     1      -0.792  51.756 -20.027  1.00  0.00     0.004 A 
HETATM   26  C28 UNL     1      -1.106  51.112 -22.154  1.00  0.00     0.078 A 
HETATM   27  C9  UNL     1       0.365  52.073 -20.768  1.00  0.00     0.049 A 
HETATM   28  C13 UNL     1      -0.815  52.052 -18.645  1.00  0.00     0.014 A 
HETATM   29  N2  UNL     1       0.118  51.732 -22.096  1.00  0.00    -0.308 N 
HETATM   30  C10 UNL     1       1.494  52.618 -20.122  1.00  0.00     0.030 A 
HETATM   31  C11 UNL     1       1.440  52.892 -18.753  1.00  0.00     0.002 A 
HETATM   32  C12 UNL     1       0.296  52.623 -18.021  1.00  0.00     0.001 A 
HETATM   33  O3  UNL     1      -3.703  50.742 -18.576  1.00  0.00    -0.267 OA
HETATM   34  N3  UNL     1      -4.973  49.695 -20.170  1.00  0.00    -0.289 N 
HETATM   35  H20 UNL     1      -5.756  49.449 -19.588  1.00  0.00     0.172 HD
HETATM   36  O4  UNL     1      -5.730  48.785 -22.134  1.00  0.00    -0.267 OA
HETATM   37  C23 UNL     1      -4.490  48.217 -26.409  1.00  0.00     0.001 A 
HETATM   38  C24 UNL     1      -3.434  48.554 -27.245  1.00  0.00     0.002 A 
ENDBRANCH   3  13
TORSDOF 5
ENDMDL
