MODEL 1
REMARK minimizedAffinity -6.99859524
REMARK CNNscore 0.677052736
REMARK CNNaffinity 6.5753994
REMARK  10 active torsions:
REMARK  status: ('A' for Active; 'I' for Inactive)
REMARK    1  A    between atoms: N1_6  and  O1_8 
REMARK    2  A    between atoms: O1_8  and  C6_9 
REMARK    3  A    between atoms: C6_9  and  C7_10 
REMARK       I    between atoms: C7_10  and  N2_12 
REMARK    4  A    between atoms: N2_12  and  C8_13 
REMARK    5  A    between atoms: C8_13  and  C9_14 
REMARK    6  A    between atoms: C20_27  and  O3_28 
REMARK    7  A    between atoms: C27_35  and  O4_36 
REMARK    8  A    between atoms: C27_35  and  C28_37 
REMARK    9  A    between atoms: C28_37  and  C29_39 
REMARK   10  A    between atoms: C29_39  and  O6_40 
ROOT
HETATM    1  C1  UNL     1       2.936  52.620 -11.293  1.00  0.00     0.020 C 
HETATM    2  C2  UNL     1       2.900  53.624 -10.106  1.00  0.00    -0.014 C 
HETATM    3  C3  UNL     1       2.208  52.935  -8.899  1.00  0.00     0.020 C 
HETATM    4  C4  UNL     1       0.747  52.560  -9.127  1.00  0.00     0.060 C 
HETATM    5  C5  UNL     1      -0.067  53.701  -9.692  1.00  0.00     0.032 C 
HETATM    6  N1  UNL     1      -1.358  53.597  -9.583  1.00  0.00    -0.271 N 
ATOM      7  H1  UNL     1      -1.829  52.830  -9.102  1.00  0.00     0.194 HD
HETATM    8  C14 UNL     1       0.669  54.811 -10.357  1.00  0.00     0.030 C 
HETATM    9  C15 UNL     1       2.004  54.788 -10.557  1.00  0.00    -0.069 C 
HETATM   10  C16 UNL     1       2.605  55.968 -11.271  1.00  0.00     0.035 C 
HETATM   11  C17 UNL     1       4.061  56.295 -10.967  1.00  0.00     0.010 C 
HETATM   12  C18 UNL     1       4.693  55.575  -9.778  1.00  0.00    -0.002 C 
HETATM   13  C19 UNL     1       4.410  54.058  -9.819  1.00  0.00     0.031 C 
HETATM   14  C20 UNL     1       5.214  53.388  -8.682  1.00  0.00     0.124 C 
HETATM   15  C21 UNL     1       4.985  54.014  -7.303  1.00  0.00     0.045 C 
HETATM   16  C22 UNL     1       5.261  55.550  -7.246  1.00  0.00     0.001 C 
HETATM   17  C23 UNL     1       6.789  55.759  -7.283  1.00  0.00     0.019 C 
HETATM   18  C24 UNL     1       4.533  56.269  -8.408  1.00  0.00     0.002 C 
HETATM   19  C25 UNL     1       3.113  56.528  -7.886  1.00  0.00     0.009 C 
HETATM   20  C26 UNL     1       3.157  56.411  -6.357  1.00  0.00     0.047 C 
HETATM   21  C27 UNL     1       4.625  56.201  -5.977  1.00  0.00     0.128 C 
ENDROOT
BRANCH   6  22
HETATM   22  O1  UNL     1      -2.031  54.664 -10.201  1.00  0.00    -0.271 OA
BRANCH  22  23
HETATM   23  C6  UNL     1      -3.366  54.261 -10.459  1.00  0.00     0.303 C 
BRANCH  23  24
HETATM   24  C7  UNL     1      -3.415  52.872 -11.091  1.00  0.00     0.244 C 
HETATM   25  O2  UNL     1      -3.699  51.848 -10.476  1.00  0.00    -0.271 OA
HETATM   26  N2  UNL     1      -3.107  52.876 -12.438  1.00  0.00    -0.355 N 
HETATM   27  H10 UNL     1      -2.755  53.723 -12.860  1.00  0.00     0.162 HD
BRANCH  26  28
HETATM   28  C8  UNL     1      -3.063  51.666 -13.225  1.00  0.00     0.161 C 
BRANCH  28  29
HETATM   29  C9  UNL     1      -1.723  51.520 -13.895  1.00  0.00    -0.038 A 
HETATM   30  C10 UNL     1      -0.610  52.218 -13.416  1.00  0.00     0.025 A 
HETATM   31  C11 UNL     1       0.600  52.074 -14.076  1.00  0.00     0.088 A 
HETATM   32  N3  UNL     1       0.772  51.299 -15.168  1.00  0.00    -0.375 N 
HETATM   33  C12 UNL     1      -0.315  50.640 -15.620  1.00  0.00     0.088 A 
ATOM     34  H3  UNL     1       1.678  51.215 -15.628  1.00  0.00     0.164 HD
HETATM   35  C13 UNL     1      -1.568  50.719 -15.029  1.00  0.00     0.025 A 
ENDBRANCH  28  29
ENDBRANCH  26  28
ENDBRANCH  23  24
ENDBRANCH  22  23
ENDBRANCH   6  22
BRANCH  14  36
HETATM   36  O3  UNL     1       5.004  51.986  -8.619  1.00  0.00    -0.395 OA
HETATM   37  H25 UNL     1       5.343  51.601  -9.445  1.00  0.00     0.210 HD
ENDBRANCH  14  36
BRANCH  21  38
HETATM   38  O4  UNL     1       4.672  55.268  -4.884  1.00  0.00    -0.381 OA
HETATM   39  H36 UNL     1       5.181  55.691  -4.159  1.00  0.00     0.211 HD
ENDBRANCH  21  38
BRANCH  21  40
HETATM   40  C28 UNL     1       5.263  57.513  -5.443  1.00  0.00     0.184 C 
HETATM   41  O5  UNL     1       6.272  57.983  -5.995  1.00  0.00    -0.292 OA
BRANCH  40  42
HETATM   42  C29 UNL     1       4.682  58.212  -4.218  1.00  0.00     0.245 C 
BRANCH  42  43
HETATM   43  O6  UNL     1       5.592  58.158  -3.119  1.00  0.00    -0.393 OA
HETATM   44  H39 UNL     1       6.371  57.647  -3.430  1.00  0.00     0.209 HD
ENDBRANCH  42  43
ENDBRANCH  40  42
ENDBRANCH  21  40
TORSDOF 10
ENDMDL
MODEL 2
REMARK minimizedAffinity -7.49972343
REMARK CNNscore 0.540606856
REMARK CNNaffinity 6.27413416
REMARK  10 active torsions:
REMARK  status: ('A' for Active; 'I' for Inactive)
REMARK    1  A    between atoms: N1_6  and  O1_8 
REMARK    2  A    between atoms: O1_8  and  C6_9 
REMARK    3  A    between atoms: C6_9  and  C7_10 
REMARK       I    between atoms: C7_10  and  N2_12 
REMARK    4  A    between atoms: N2_12  and  C8_13 
REMARK    5  A    between atoms: C8_13  and  C9_14 
REMARK    6  A    between atoms: C20_27  and  O3_28 
REMARK    7  A    between atoms: C27_35  and  O4_36 
REMARK    8  A    between atoms: C27_35  and  C28_37 
REMARK    9  A    between atoms: C28_37  and  C29_39 
REMARK   10  A    between atoms: C29_39  and  O6_40 
ROOT
HETATM    1  C1  UNL     1      -6.183  49.323 -19.799  1.00  0.00     0.020 C 
HETATM    2  C2  UNL     1      -5.258  49.091 -21.027  1.00  0.00    -0.014 C 
HETATM    3  C3  UNL     1      -5.948  48.078 -21.980  1.00  0.00     0.020 C 
HETATM    4  C4  UNL     1      -6.159  46.686 -21.391  1.00  0.00     0.060 C 
HETATM    5  C5  UNL     1      -4.909  46.126 -20.753  1.00  0.00     0.032 C 
HETATM    6  N1  UNL     1      -4.888  44.843 -20.554  1.00  0.00    -0.271 N 
ATOM      7  H1  UNL     1      -5.633  44.209 -20.847  1.00  0.00     0.194 HD
HETATM    8  C14 UNL     1      -3.839  47.089 -20.372  1.00  0.00     0.030 C 
HETATM    9  C15 UNL     1      -3.983  48.426 -20.482  1.00  0.00    -0.069 C 
HETATM   10  C16 UNL     1      -2.827  49.276 -20.029  1.00  0.00     0.035 C 
HETATM   11  C17 UNL     1      -2.669  50.641 -20.686  1.00  0.00     0.010 C 
HETATM   12  C18 UNL     1      -3.522  50.910 -21.922  1.00  0.00    -0.002 C 
HETATM   13  C19 UNL     1      -4.997  50.520 -21.689  1.00  0.00     0.031 C 
HETATM   14  C20 UNL     1      -5.815  50.974 -22.919  1.00  0.00     0.124 C 
HETATM   15  C21 UNL     1      -5.257  50.478 -24.257  1.00  0.00     0.045 C 
HETATM   16  C22 UNL     1      -3.763  50.859 -24.506  1.00  0.00     0.001 C 
HETATM   17  C23 UNL     1      -3.707  52.365 -24.838  1.00  0.00     0.019 C 
HETATM   18  C24 UNL     1      -2.903  50.489 -23.273  1.00  0.00     0.002 C 
HETATM   19  C25 UNL     1      -2.536  49.013 -23.475  1.00  0.00     0.009 C 
HETATM   20  C26 UNL     1      -2.752  48.684 -24.957  1.00  0.00     0.047 C 
HETATM   21  C27 UNL     1      -3.133  49.998 -25.645  1.00  0.00     0.128 C 
ENDROOT
BRANCH   6  22
HETATM   22  O1  UNL     1      -3.723  44.426 -19.891  1.00  0.00    -0.271 OA
BRANCH  22  23
HETATM   23  C6  UNL     1      -4.101  43.645 -18.769  1.00  0.00     0.303 C 
BRANCH  23  24
HETATM   24  C7  UNL     1      -3.641  42.196 -18.920  1.00  0.00     0.244 C 
HETATM   25  O2  UNL     1      -2.507  41.806 -18.660  1.00  0.00    -0.271 OA
HETATM   26  N2  UNL     1      -4.636  41.356 -19.383  1.00  0.00    -0.355 N 
HETATM   27  H10 UNL     1      -5.507  41.754 -19.705  1.00  0.00     0.162 HD
BRANCH  26  28
HETATM   28  C8  UNL     1      -4.410  39.951 -19.629  1.00  0.00     0.161 C 
BRANCH  28  29
HETATM   29  C9  UNL     1      -5.171  39.498 -20.845  1.00  0.00    -0.038 A 
HETATM   30  C10 UNL     1      -6.305  40.195 -21.274  1.00  0.00     0.025 A 
HETATM   31  C11 UNL     1      -6.991  39.729 -22.385  1.00  0.00     0.088 A 
HETATM   32  N3  UNL     1      -6.633  38.631 -23.083  1.00  0.00    -0.375 N 
HETATM   33  C12 UNL     1      -5.542  37.967 -22.649  1.00  0.00     0.088 A 
ATOM     34  H3  UNL     1      -7.160  38.318 -23.897  1.00  0.00     0.164 HD
HETATM   35  C13 UNL     1      -4.788  38.353 -21.549  1.00  0.00     0.025 A 
ENDBRANCH  28  29
ENDBRANCH  26  28
ENDBRANCH  23  24
ENDBRANCH  22  23
ENDBRANCH   6  22
BRANCH  14  36
HETATM   36  O3  UNL     1      -7.190  50.640 -22.813  1.00  0.00    -0.395 OA
HETATM   37  H25 UNL     1      -7.554  51.131 -22.058  1.00  0.00     0.210 HD
ENDBRANCH  14  36
BRANCH  21  38
HETATM   38  O4  UNL     1      -4.133  49.707 -26.637  1.00  0.00    -0.381 OA
HETATM   39  H36 UNL     1      -3.810  50.064 -27.492  1.00  0.00     0.211 HD
ENDBRANCH  21  38
BRANCH  21  40
HETATM   40  C28 UNL     1      -1.928  50.598 -26.420  1.00  0.00     0.184 C 
HETATM   41  O5  UNL     1      -0.776  50.473 -25.973  1.00  0.00    -0.292 OA
BRANCH  40  42
HETATM   42  C29 UNL     1      -2.152  51.379 -27.712  1.00  0.00     0.245 C 
BRANCH  42  43
HETATM   43  O6  UNL     1      -0.909  51.773 -28.293  1.00  0.00    -0.393 OA
HETATM   44  H39 UNL     1      -0.206  51.457 -27.685  1.00  0.00     0.209 HD
ENDBRANCH  42  43
ENDBRANCH  40  42
ENDBRANCH  21  40
TORSDOF 10
ENDMDL
MODEL 3
REMARK minimizedAffinity -7.38258791
REMARK CNNscore 0.519242883
REMARK CNNaffinity 6.19680643
REMARK  10 active torsions:
REMARK  status: ('A' for Active; 'I' for Inactive)
REMARK    1  A    between atoms: N1_6  and  O1_8 
REMARK    2  A    between atoms: O1_8  and  C6_9 
REMARK    3  A    between atoms: C6_9  and  C7_10 
REMARK       I    between atoms: C7_10  and  N2_12 
REMARK    4  A    between atoms: N2_12  and  C8_13 
REMARK    5  A    between atoms: C8_13  and  C9_14 
REMARK    6  A    between atoms: C20_27  and  O3_28 
REMARK    7  A    between atoms: C27_35  and  O4_36 
REMARK    8  A    between atoms: C27_35  and  C28_37 
REMARK    9  A    between atoms: C28_37  and  C29_39 
REMARK   10  A    between atoms: C29_39  and  O6_40 
ROOT
HETATM    1  C1  UNL     1      -8.618  49.482 -30.776  1.00  0.00     0.020 C 
HETATM    2  C2  UNL     1      -8.150  48.000 -30.819  1.00  0.00    -0.014 C 
HETATM    3  C3  UNL     1      -8.828  47.235 -29.650  1.00  0.00     0.020 C 
HETATM    4  C4  UNL     1      -8.438  47.720 -28.257  1.00  0.00     0.060 C 
HETATM    5  C5  UNL     1      -6.943  47.848 -28.079  1.00  0.00     0.032 C 
HETATM    6  N1  UNL     1      -6.510  47.900 -26.856  1.00  0.00    -0.271 N 
ATOM      7  H1  UNL     1      -7.110  47.811 -26.035  1.00  0.00     0.194 HD
HETATM    8  C14 UNL     1      -6.108  47.945 -29.309  1.00  0.00     0.030 C 
HETATM    9  C15 UNL     1      -6.636  48.022 -30.548  1.00  0.00    -0.069 C 
HETATM   10  C16 UNL     1      -5.669  48.147 -31.694  1.00  0.00     0.035 C 
HETATM   11  C17 UNL     1      -6.122  47.613 -33.046  1.00  0.00     0.010 C 
HETATM   12  C18 UNL     1      -7.390  46.764 -33.060  1.00  0.00    -0.002 C 
HETATM   13  C19 UNL     1      -8.529  47.434 -32.263  1.00  0.00     0.031 C 
HETATM   14  C20 UNL     1      -9.813  46.597 -32.462  1.00  0.00     0.124 C 
HETATM   15  C21 UNL     1      -9.642  45.107 -32.147  1.00  0.00     0.045 C 
HETATM   16  C22 UNL     1      -8.488  44.415 -32.940  1.00  0.00     0.001 C 
HETATM   17  C23 UNL     1      -8.959  44.234 -34.398  1.00  0.00     0.019 C 
HETATM   18  C24 UNL     1      -7.188  45.249 -32.833  1.00  0.00     0.002 C 
HETATM   19  C25 UNL     1      -6.531  44.792 -31.524  1.00  0.00     0.009 C 
HETATM   20  C26 UNL     1      -7.151  43.441 -31.146  1.00  0.00     0.047 C 
HETATM   21  C27 UNL     1      -8.085  43.052 -32.295  1.00  0.00     0.128 C 
ENDROOT
BRANCH   6  22
HETATM   22  O1  UNL     1      -5.120  48.095 -26.791  1.00  0.00    -0.271 OA
BRANCH  22  23
HETATM   23  C6  UNL     1      -4.784  48.489 -25.471  1.00  0.00     0.303 C 
BRANCH  23  24
HETATM   24  C7  UNL     1      -5.973  48.333 -24.525  1.00  0.00     0.244 C 
HETATM   25  O2  UNL     1      -6.402  47.251 -24.134  1.00  0.00    -0.271 OA
HETATM   26  N2  UNL     1      -6.526  49.541 -24.144  1.00  0.00    -0.355 N 
HETATM   27  H10 UNL     1      -6.217  50.389 -24.597  1.00  0.00     0.162 HD
BRANCH  26  28
HETATM   28  C8  UNL     1      -7.679  49.625 -23.278  1.00  0.00     0.161 C 
BRANCH  28  29
HETATM   29  C9  UNL     1      -7.287  49.364 -21.849  1.00  0.00    -0.038 A 
HETATM   30  C10 UNL     1      -8.066  48.531 -21.040  1.00  0.00     0.025 A 
HETATM   31  C11 UNL     1      -7.682  48.336 -19.722  1.00  0.00     0.088 A 
HETATM   32  N3  UNL     1      -6.596  48.911 -19.163  1.00  0.00    -0.375 N 
HETATM   33  C12 UNL     1      -5.863  49.717 -19.956  1.00  0.00     0.088 A 
ATOM     34  H3  UNL     1      -6.343  48.743 -18.190  1.00  0.00     0.164 HD
HETATM   35  C13 UNL     1      -6.163  49.975 -21.287  1.00  0.00     0.025 A 
ENDBRANCH  28  29
ENDBRANCH  26  28
ENDBRANCH  23  24
ENDBRANCH  22  23
ENDBRANCH   6  22
BRANCH  14  36
HETATM   36  O3  UNL     1     -10.921  47.120 -31.748  1.00  0.00    -0.395 OA
HETATM   37  H25 UNL     1     -11.119  47.998 -32.114  1.00  0.00     0.210 HD
ENDBRANCH  14  36
BRANCH  21  38
HETATM   38  O4  UNL     1      -9.249  42.425 -31.729  1.00  0.00    -0.381 OA
HETATM   39  H36 UNL     1      -9.351  41.551 -32.163  1.00  0.00     0.211 HD
ENDBRANCH  21  38
BRANCH  21  40
HETATM   40  C28 UNL     1      -7.433  41.984 -33.215  1.00  0.00     0.184 C 
HETATM   41  O5  UNL     1      -8.106  41.026 -33.631  1.00  0.00    -0.292 OA
BRANCH  40  42
HETATM   42  C29 UNL     1      -5.956  42.080 -33.583  1.00  0.00     0.245 C 
BRANCH  42  43
HETATM   43  O6  UNL     1      -5.777  42.041 -34.999  1.00  0.00    -0.393 OA
HETATM   44  H39 UNL     1      -6.672  41.934 -35.388  1.00  0.00     0.209 HD
ENDBRANCH  42  43
ENDBRANCH  40  42
ENDBRANCH  21  40
TORSDOF 10
ENDMDL
MODEL 4
REMARK minimizedAffinity -7.80056858
REMARK CNNscore 0.501381636
REMARK CNNaffinity 6.3665905
REMARK  10 active torsions:
REMARK  status: ('A' for Active; 'I' for Inactive)
REMARK    1  A    between atoms: N1_6  and  O1_8 
REMARK    2  A    between atoms: O1_8  and  C6_9 
REMARK    3  A    between atoms: C6_9  and  C7_10 
REMARK       I    between atoms: C7_10  and  N2_12 
REMARK    4  A    between atoms: N2_12  and  C8_13 
REMARK    5  A    between atoms: C8_13  and  C9_14 
REMARK    6  A    between atoms: C20_27  and  O3_28 
REMARK    7  A    between atoms: C27_35  and  O4_36 
REMARK    8  A    between atoms: C27_35  and  C28_37 
REMARK    9  A    between atoms: C28_37  and  C29_39 
REMARK   10  A    between atoms: C29_39  and  O6_40 
ROOT
HETATM    1  C1  UNL     1      -8.841  49.229 -30.510  1.00  0.00     0.020 C 
HETATM    2  C2  UNL     1      -8.276  47.791 -30.687  1.00  0.00    -0.014 C 
HETATM    3  C3  UNL     1      -8.334  47.066 -29.315  1.00  0.00     0.020 C 
HETATM    4  C4  UNL     1      -7.464  47.687 -28.226  1.00  0.00     0.060 C 
HETATM    5  C5  UNL     1      -6.049  47.949 -28.687  1.00  0.00     0.032 C 
HETATM    6  N1  UNL     1      -5.163  48.131 -27.755  1.00  0.00    -0.271 N 
ATOM      7  H1  UNL     1      -5.364  48.057 -26.757  1.00  0.00     0.194 HD
HETATM    8  C14 UNL     1      -5.803  48.019 -30.154  1.00  0.00     0.030 C 
HETATM    9  C15 UNL     1      -6.796  47.956 -31.067  1.00  0.00    -0.069 C 
HETATM   10  C16 UNL     1      -6.399  48.071 -32.513  1.00  0.00     0.035 C 
HETATM   11  C17 UNL     1      -7.304  47.399 -33.537  1.00  0.00     0.010 C 
HETATM   12  C18 UNL     1      -8.370  46.451 -32.994  1.00  0.00    -0.002 C 
HETATM   13  C19 UNL     1      -9.149  47.086 -31.824  1.00  0.00     0.031 C 
HETATM   14  C20 UNL     1     -10.306  46.134 -31.443  1.00  0.00     0.124 C 
HETATM   15  C21 UNL     1      -9.865  44.692 -31.172  1.00  0.00     0.045 C 
HETATM   16  C22 UNL     1      -9.068  44.037 -32.344  1.00  0.00     0.001 C 
HETATM   17  C23 UNL     1     -10.070  43.706 -33.470  1.00  0.00     0.019 C 
HETATM   18  C24 UNL     1      -7.934  44.980 -32.815  1.00  0.00     0.002 C 
HETATM   19  C25 UNL     1      -6.756  44.680 -31.879  1.00  0.00     0.009 C 
HETATM   20  C26 UNL     1      -7.021  43.316 -31.229  1.00  0.00     0.047 C 
HETATM   21  C27 UNL     1      -8.296  42.765 -31.873  1.00  0.00     0.128 C 
ENDROOT
BRANCH   6  22
HETATM   22  O1  UNL     1      -3.897  48.442 -28.277  1.00  0.00    -0.271 OA
BRANCH  22  23
HETATM   23  C6  UNL     1      -3.467  49.668 -27.709  1.00  0.00     0.303 C 
BRANCH  23  24
HETATM   24  C7  UNL     1      -2.867  49.457 -26.320  1.00  0.00     0.244 C 
HETATM   25  O2  UNL     1      -2.862  48.379 -25.731  1.00  0.00    -0.271 OA
HETATM   26  N2  UNL     1      -2.323  50.607 -25.782  1.00  0.00    -0.355 N 
HETATM   27  H10 UNL     1      -2.472  51.489 -26.252  1.00  0.00     0.162 HD
BRANCH  26  28
HETATM   28  C8  UNL     1      -1.732  50.642 -24.465  1.00  0.00     0.161 C 
BRANCH  28  29
HETATM   29  C9  UNL     1      -2.748  51.066 -23.440  1.00  0.00    -0.038 A 
HETATM   30  C10 UNL     1      -3.838  51.861 -23.807  1.00  0.00     0.025 A 
HETATM   31  C11 UNL     1      -4.738  52.250 -22.827  1.00  0.00     0.088 A 
HETATM   32  N3  UNL     1      -4.624  51.910 -21.526  1.00  0.00    -0.375 N 
HETATM   33  C12 UNL     1      -3.562  51.150 -21.189  1.00  0.00     0.088 A 
ATOM     34  H3  UNL     1      -5.307  52.212 -20.831  1.00  0.00     0.164 HD
HETATM   35  C13 UNL     1      -2.607  50.710 -22.096  1.00  0.00     0.025 A 
ENDBRANCH  28  29
ENDBRANCH  26  28
ENDBRANCH  23  24
ENDBRANCH  22  23
ENDBRANCH   6  22
BRANCH  14  36
HETATM   36  O3  UNL     1     -11.076  46.619 -30.355  1.00  0.00    -0.395 OA
HETATM   37  H25 UNL     1     -11.498  47.447 -30.639  1.00  0.00     0.210 HD
ENDBRANCH  14  36
BRANCH  21  38
HETATM   38  O4  UNL     1      -9.055  42.092 -30.855  1.00  0.00    -0.381 OA
HETATM   39  H36 UNL     1      -9.231  41.181 -31.175  1.00  0.00     0.211 HD
ENDBRANCH  21  38
BRANCH  21  40
HETATM   40  C28 UNL     1      -7.966  41.686 -32.941  1.00  0.00     0.184 C 
HETATM   41  O5  UNL     1      -8.668  40.665 -33.032  1.00  0.00    -0.292 OA
BRANCH  40  42
HETATM   42  C29 UNL     1      -6.758  41.850 -33.858  1.00  0.00     0.245 C 
BRANCH  42  43
HETATM   43  O6  UNL     1      -7.134  42.454 -35.096  1.00  0.00    -0.393 OA
HETATM   44  H39 UNL     1      -8.105  42.590 -35.054  1.00  0.00     0.209 HD
ENDBRANCH  42  43
ENDBRANCH  40  42
ENDBRANCH  21  40
TORSDOF 10
ENDMDL
MODEL 5
REMARK minimizedAffinity -7.4817152
REMARK CNNscore 0.496244997
REMARK CNNaffinity 6.25865221
REMARK  10 active torsions:
REMARK  status: ('A' for Active; 'I' for Inactive)
REMARK    1  A    between atoms: N1_6  and  O1_8 
REMARK    2  A    between atoms: O1_8  and  C6_9 
REMARK    3  A    between atoms: C6_9  and  C7_10 
REMARK       I    between atoms: C7_10  and  N2_12 
REMARK    4  A    between atoms: N2_12  and  C8_13 
REMARK    5  A    between atoms: C8_13  and  C9_14 
REMARK    6  A    between atoms: C20_27  and  O3_28 
REMARK    7  A    between atoms: C27_35  and  O4_36 
REMARK    8  A    between atoms: C27_35  and  C28_37 
REMARK    9  A    between atoms: C28_37  and  C29_39 
REMARK   10  A    between atoms: C29_39  and  O6_40 
ROOT
HETATM    1  C1  UNL     1      -6.959  48.318 -19.557  1.00  0.00     0.020 C 
HETATM    2  C2  UNL     1      -5.888  48.349 -20.685  1.00  0.00    -0.014 C 
HETATM    3  C3  UNL     1      -6.256  47.275 -21.744  1.00  0.00     0.020 C 
HETATM    4  C4  UNL     1      -6.231  45.837 -21.233  1.00  0.00     0.060 C 
HETATM    5  C5  UNL     1      -4.963  45.505 -20.483  1.00  0.00     0.032 C 
HETATM    6  N1  UNL     1      -4.697  44.242 -20.330  1.00  0.00    -0.271 N 
ATOM      7  H1  UNL     1      -5.262  43.490 -20.725  1.00  0.00     0.194 HD
HETATM    8  C14 UNL     1      -4.158  46.640 -19.952  1.00  0.00     0.030 C 
HETATM    9  C15 UNL     1      -4.564  47.924 -20.028  1.00  0.00    -0.069 C 
HETATM   10  C16 UNL     1      -3.660  48.962 -19.420  1.00  0.00     0.035 C 
HETATM   11  C17 UNL     1      -3.722  50.366 -20.006  1.00  0.00     0.010 C 
HETATM   12  C18 UNL     1      -4.485  50.530 -21.317  1.00  0.00    -0.002 C 
HETATM   13  C19 UNL     1      -5.863  49.838 -21.261  1.00  0.00     0.031 C 
HETATM   14  C20 UNL     1      -6.631  50.188 -22.556  1.00  0.00     0.124 C 
HETATM   15  C21 UNL     1      -5.852  49.894 -23.842  1.00  0.00     0.045 C 
HETATM   16  C22 UNL     1      -4.452  50.582 -23.912  1.00  0.00     0.001 C 
HETATM   17  C23 UNL     1      -4.676  52.084 -24.181  1.00  0.00     0.019 C 
HETATM   18  C24 UNL     1      -3.660  50.322 -22.607  1.00  0.00     0.002 C 
HETATM   19  C25 UNL     1      -2.978  48.964 -22.821  1.00  0.00     0.009 C 
HETATM   20  C26 UNL     1      -2.973  48.685 -24.329  1.00  0.00     0.047 C 
HETATM   21  C27 UNL     1      -3.547  49.933 -25.006  1.00  0.00     0.128 C 
ENDROOT
BRANCH   6  22
HETATM   22  O1  UNL     1      -3.543  44.032 -19.558  1.00  0.00    -0.271 OA
BRANCH  22  23
HETATM   23  C6  UNL     1      -3.902  43.276 -18.414  1.00  0.00     0.303 C 
BRANCH  23  24
HETATM   24  C7  UNL     1      -2.920  42.130 -18.173  1.00  0.00     0.244 C 
HETATM   25  O2  UNL     1      -2.535  41.361 -19.049  1.00  0.00    -0.271 OA
HETATM   26  N2  UNL     1      -2.500  42.041 -16.860  1.00  0.00    -0.355 N 
HETATM   27  H10 UNL     1      -2.948  42.615 -16.159  1.00  0.00     0.162 HD
BRANCH  26  28
HETATM   28  C8  UNL     1      -1.596  41.011 -16.404  1.00  0.00     0.161 C 
BRANCH  28  29
HETATM   29  C9  UNL     1      -0.213  41.570 -16.209  1.00  0.00    -0.038 A 
HETATM   30  C10 UNL     1       0.321  41.710 -14.924  1.00  0.00     0.025 A 
HETATM   31  C11 UNL     1       1.590  42.252 -14.787  1.00  0.00     0.088 A 
HETATM   32  N3  UNL     1       2.347  42.663 -15.826  1.00  0.00    -0.375 N 
HETATM   33  C12 UNL     1       1.811  42.529 -17.056  1.00  0.00     0.088 A 
ATOM     34  H3  UNL     1       3.278  43.056 -15.688  1.00  0.00     0.164 HD
HETATM   35  C13 UNL     1       0.551  41.999 -17.297  1.00  0.00     0.025 A 
ENDBRANCH  28  29
ENDBRANCH  26  28
ENDBRANCH  23  24
ENDBRANCH  22  23
ENDBRANCH   6  22
BRANCH  14  36
HETATM   36  O3  UNL     1      -7.910  49.578 -22.613  1.00  0.00    -0.395 OA
HETATM   37  H25 UNL     1      -8.442  49.941 -21.885  1.00  0.00     0.210 HD
ENDBRANCH  14  36
BRANCH  21  38
HETATM   38  O4  UNL     1      -4.362  49.505 -26.111  1.00  0.00    -0.381 OA
HETATM   39  H36 UNL     1      -4.035  49.968 -26.912  1.00  0.00     0.211 HD
ENDBRANCH  21  38
BRANCH  21  40
HETATM   40  C28 UNL     1      -2.421  50.808 -25.622  1.00  0.00     0.184 C 
HETATM   41  O5  UNL     1      -1.372  51.010 -24.988  1.00  0.00    -0.292 OA
BRANCH  40  42
HETATM   42  C29 UNL     1      -2.608  51.458 -26.990  1.00  0.00     0.245 C 
BRANCH  42  43
HETATM   43  O6  UNL     1      -2.683  52.879 -26.875  1.00  0.00    -0.393 OA
HETATM   44  H39 UNL     1      -2.621  53.083 -25.917  1.00  0.00     0.209 HD
ENDBRANCH  42  43
ENDBRANCH  40  42
ENDBRANCH  21  40
TORSDOF 10
ENDMDL
MODEL 6
REMARK minimizedAffinity -8.44089508
REMARK CNNscore 0.486409605
REMARK CNNaffinity 6.67061758
REMARK  10 active torsions:
REMARK  status: ('A' for Active; 'I' for Inactive)
REMARK    1  A    between atoms: N1_6  and  O1_8 
REMARK    2  A    between atoms: O1_8  and  C6_9 
REMARK    3  A    between atoms: C6_9  and  C7_10 
REMARK       I    between atoms: C7_10  and  N2_12 
REMARK    4  A    between atoms: N2_12  and  C8_13 
REMARK    5  A    between atoms: C8_13  and  C9_14 
REMARK    6  A    between atoms: C20_27  and  O3_28 
REMARK    7  A    between atoms: C27_35  and  O4_36 
REMARK    8  A    between atoms: C27_35  and  C28_37 
REMARK    9  A    between atoms: C28_37  and  C29_39 
REMARK   10  A    between atoms: C29_39  and  O6_40 
ROOT
HETATM    1  C1  UNL     1      -8.314  49.416 -30.827  1.00  0.00     0.020 C 
HETATM    2  C2  UNL     1      -7.838  47.937 -30.870  1.00  0.00    -0.014 C 
HETATM    3  C3  UNL     1      -8.227  47.255 -29.530  1.00  0.00     0.020 C 
HETATM    4  C4  UNL     1      -7.550  47.839 -28.294  1.00  0.00     0.060 C 
HETATM    5  C5  UNL     1      -6.056  47.986 -28.460  1.00  0.00     0.032 C 
HETATM    6  N1  UNL     1      -5.365  48.128 -27.369  1.00  0.00    -0.271 N 
ATOM      7  H1  UNL     1      -5.768  48.095 -26.432  1.00  0.00     0.194 HD
HETATM    8  C14 UNL     1      -5.513  47.999 -29.847  1.00  0.00     0.030 C 
HETATM    9  C15 UNL     1      -6.303  47.984 -30.942  1.00  0.00    -0.069 C 
HETATM   10  C16 UNL     1      -5.614  48.032 -32.279  1.00  0.00     0.035 C 
HETATM   11  C17 UNL     1      -6.342  47.400 -33.458  1.00  0.00     0.010 C 
HETATM   12  C18 UNL     1      -7.565  46.547 -33.132  1.00  0.00    -0.002 C 
HETATM   13  C19 UNL     1      -8.514  47.267 -32.152  1.00  0.00     0.031 C 
HETATM   14  C20 UNL     1      -9.793  46.413 -32.005  1.00  0.00     0.124 C 
HETATM   15  C21 UNL     1      -9.527  44.950 -31.633  1.00  0.00     0.045 C 
HETATM   16  C22 UNL     1      -8.563  44.208 -32.612  1.00  0.00     0.001 C 
HETATM   17  C23 UNL     1      -9.339  43.921 -33.914  1.00  0.00     0.019 C 
HETATM   18  C24 UNL     1      -7.288  45.053 -32.852  1.00  0.00     0.002 C 
HETATM   19  C25 UNL     1      -6.351  44.693 -31.692  1.00  0.00     0.009 C 
HETATM   20  C26 UNL     1      -6.845  43.370 -31.095  1.00  0.00     0.047 C 
HETATM   21  C27 UNL     1      -8.001  42.896 -31.979  1.00  0.00     0.128 C 
ENDROOT
BRANCH   6  22
HETATM   22  O1  UNL     1      -4.000  48.332 -27.627  1.00  0.00    -0.271 OA
BRANCH  22  23
HETATM   23  C6  UNL     1      -3.333  48.512 -26.388  1.00  0.00     0.303 C 
BRANCH  23  24
HETATM   24  C7  UNL     1      -2.879  49.959 -26.206  1.00  0.00     0.244 C 
HETATM   25  O2  UNL     1      -3.551  50.935 -26.528  1.00  0.00    -0.271 OA
HETATM   26  N2  UNL     1      -1.625  50.068 -25.636  1.00  0.00    -0.355 N 
HETATM   27  H10 UNL     1      -1.065  49.236 -25.514  1.00  0.00     0.162 HD
BRANCH  26  28
HETATM   28  C8  UNL     1      -0.989  51.343 -25.403  1.00  0.00     0.161 C 
BRANCH  28  29
HETATM   29  C9  UNL     1       0.222  51.499 -26.284  1.00  0.00    -0.038 A 
HETATM   30  C10 UNL     1       0.079  51.656 -27.666  1.00  0.00     0.025 A 
HETATM   31  C11 UNL     1       1.220  51.771 -28.443  1.00  0.00     0.088 A 
HETATM   32  N3  UNL     1       2.475  51.736 -27.946  1.00  0.00    -0.375 N 
HETATM   33  C12 UNL     1       2.593  51.576 -26.612  1.00  0.00     0.088 A 
ATOM     34  H3  UNL     1       3.293  51.826 -28.548  1.00  0.00     0.164 HD
HETATM   35  C13 UNL     1       1.512  51.451 -25.750  1.00  0.00     0.025 A 
ENDBRANCH  28  29
ENDBRANCH  26  28
ENDBRANCH  23  24
ENDBRANCH  22  23
ENDBRANCH   6  22
BRANCH  14  36
HETATM   36  O3  UNL     1     -10.728  46.981 -31.101  1.00  0.00    -0.395 OA
HETATM   37  H25 UNL     1     -11.019  47.830 -31.475  1.00  0.00     0.210 HD
ENDBRANCH  14  36
BRANCH  21  38
HETATM   38  O4  UNL     1      -9.000  42.307 -31.129  1.00  0.00    -0.381 OA
HETATM   39  H36 UNL     1      -9.177  41.403 -31.468  1.00  0.00     0.211 HD
ENDBRANCH  21  38
BRANCH  21  40
HETATM   40  C28 UNL     1      -7.546  41.768 -32.945  1.00  0.00     0.184 C 
HETATM   41  O5  UNL     1      -8.289  40.796 -33.162  1.00  0.00    -0.292 OA
BRANCH  40  42
HETATM   42  C29 UNL     1      -6.171  41.822 -33.603  1.00  0.00     0.245 C 
BRANCH  42  43
HETATM   43  O6  UNL     1      -6.167  41.110 -34.841  1.00  0.00    -0.393 OA
HETATM   44  H39 UNL     1      -7.067  40.733 -34.946  1.00  0.00     0.209 HD
ENDBRANCH  42  43
ENDBRANCH  40  42
ENDBRANCH  21  40
TORSDOF 10
ENDMDL
MODEL 7
REMARK minimizedAffinity -8.81189728
REMARK CNNscore 0.470045656
REMARK CNNaffinity 7.03930616
REMARK  10 active torsions:
REMARK  status: ('A' for Active; 'I' for Inactive)
REMARK    1  A    between atoms: N1_6  and  O1_8 
REMARK    2  A    between atoms: O1_8  and  C6_9 
REMARK    3  A    between atoms: C6_9  and  C7_10 
REMARK       I    between atoms: C7_10  and  N2_12 
REMARK    4  A    between atoms: N2_12  and  C8_13 
REMARK    5  A    between atoms: C8_13  and  C9_14 
REMARK    6  A    between atoms: C20_27  and  O3_28 
REMARK    7  A    between atoms: C27_35  and  O4_36 
REMARK    8  A    between atoms: C27_35  and  C28_37 
REMARK    9  A    between atoms: C28_37  and  C29_39 
REMARK   10  A    between atoms: C29_39  and  O6_40 
ROOT
HETATM    1  C1  UNL     1      -5.604  47.106 -20.717  1.00  0.00     0.020 C 
HETATM    2  C2  UNL     1      -4.555  48.212 -20.410  1.00  0.00    -0.014 C 
HETATM    3  C3  UNL     1      -5.309  49.514 -20.027  1.00  0.00     0.020 C 
HETATM    4  C4  UNL     1      -6.172  50.104 -21.139  1.00  0.00     0.060 C 
HETATM    5  C5  UNL     1      -5.434  50.223 -22.451  1.00  0.00     0.032 C 
HETATM    6  N1  UNL     1      -5.951  51.024 -23.333  1.00  0.00    -0.271 N 
ATOM      7  H1  UNL     1      -6.778  51.598 -23.166  1.00  0.00     0.194 HD
HETATM    8  C14 UNL     1      -4.215  49.387 -22.636  1.00  0.00     0.030 C 
HETATM    9  C15 UNL     1      -3.810  48.473 -21.729  1.00  0.00    -0.069 C 
HETATM   10  C16 UNL     1      -2.577  47.680 -22.066  1.00  0.00     0.035 C 
HETATM   11  C17 UNL     1      -1.752  47.150 -20.900  1.00  0.00     0.010 C 
HETATM   12  C18 UNL     1      -2.094  47.692 -19.515  1.00  0.00    -0.002 C 
HETATM   13  C19 UNL     1      -3.613  47.649 -19.249  1.00  0.00     0.031 C 
HETATM   14  C20 UNL     1      -3.857  48.058 -17.778  1.00  0.00     0.124 C 
HETATM   15  C21 UNL     1      -3.205  49.388 -17.385  1.00  0.00     0.045 C 
HETATM   16  C22 UNL     1      -1.668  49.450 -17.654  1.00  0.00     0.001 C 
HETATM   17  C23 UNL     1      -0.965  48.586 -16.586  1.00  0.00     0.019 C 
HETATM   18  C24 UNL     1      -1.357  48.984 -19.097  1.00  0.00     0.002 C 
HETATM   19  C25 UNL     1      -1.536  50.236 -19.965  1.00  0.00     0.009 C 
HETATM   20  C26 UNL     1      -1.475  51.453 -19.034  1.00  0.00     0.047 C 
HETATM   21  C27 UNL     1      -1.142  50.920 -17.638  1.00  0.00     0.128 C 
ENDROOT
BRANCH   6  22
HETATM   22  O1  UNL     1      -5.240  51.012 -24.545  1.00  0.00    -0.271 OA
BRANCH  22  23
HETATM   23  C6  UNL     1      -4.243  52.018 -24.489  1.00  0.00     0.303 C 
BRANCH  23  24
HETATM   24  C7  UNL     1      -3.323  51.958 -25.707  1.00  0.00     0.244 C 
HETATM   25  O2  UNL     1      -3.148  52.894 -26.482  1.00  0.00    -0.271 OA
HETATM   26  N2  UNL     1      -2.698  50.734 -25.856  1.00  0.00    -0.355 N 
HETATM   27  H10 UNL     1      -2.980  49.962 -25.268  1.00  0.00     0.162 HD
BRANCH  26  28
HETATM   28  C8  UNL     1      -1.811  50.448 -26.958  1.00  0.00     0.161 C 
BRANCH  28  29
HETATM   29  C9  UNL     1      -0.454  51.054 -26.716  1.00  0.00    -0.038 A 
HETATM   30  C10 UNL     1      -0.011  51.303 -25.414  1.00  0.00     0.025 A 
HETATM   31  C11 UNL     1       1.235  51.885 -25.236  1.00  0.00     0.088 A 
HETATM   32  N3  UNL     1       2.053  52.235 -26.251  1.00  0.00    -0.375 N 
HETATM   33  C12 UNL     1       1.604  51.995 -27.500  1.00  0.00     0.088 A 
ATOM     34  H3  UNL     1       2.964  52.660 -26.083  1.00  0.00     0.164 HD
HETATM   35  C13 UNL     1       0.373  51.417 -27.782  1.00  0.00     0.025 A 
ENDBRANCH  28  29
ENDBRANCH  26  28
ENDBRANCH  23  24
ENDBRANCH  22  23
ENDBRANCH   6  22
BRANCH  14  36
HETATM   36  O3  UNL     1      -5.233  48.072 -17.437  1.00  0.00    -0.395 OA
HETATM   37  H25 UNL     1      -5.565  47.162 -17.516  1.00  0.00     0.210 HD
ENDBRANCH  14  36
BRANCH  21  38
HETATM   38  O4  UNL     1      -1.889  51.687 -16.678  1.00  0.00    -0.381 OA
HETATM   39  H36 UNL     1      -1.248  52.044 -16.026  1.00  0.00     0.211 HD
ENDBRANCH  21  38
BRANCH  21  40
HETATM   40  C28 UNL     1       0.355  51.146 -17.290  1.00  0.00     0.184 C 
HETATM   41  O5  UNL     1       1.003  50.253 -16.718  1.00  0.00    -0.292 OA
BRANCH  40  42
HETATM   42  C29 UNL     1       1.031  52.475 -17.611  1.00  0.00     0.245 C 
BRANCH  42  43
HETATM   43  O6  UNL     1       0.164  53.322 -18.366  1.00  0.00    -0.393 OA
HETATM   44  H39 UNL     1      -0.661  52.810 -18.515  1.00  0.00     0.209 HD
ENDBRANCH  42  43
ENDBRANCH  40  42
ENDBRANCH  21  40
TORSDOF 10
ENDMDL
MODEL 8
REMARK minimizedAffinity -7.03527117
REMARK CNNscore 0.444243759
REMARK CNNaffinity 6.41134024
REMARK  10 active torsions:
REMARK  status: ('A' for Active; 'I' for Inactive)
REMARK    1  A    between atoms: N1_6  and  O1_8 
REMARK    2  A    between atoms: O1_8  and  C6_9 
REMARK    3  A    between atoms: C6_9  and  C7_10 
REMARK       I    between atoms: C7_10  and  N2_12 
REMARK    4  A    between atoms: N2_12  and  C8_13 
REMARK    5  A    between atoms: C8_13  and  C9_14 
REMARK    6  A    between atoms: C20_27  and  O3_28 
REMARK    7  A    between atoms: C27_35  and  O4_36 
REMARK    8  A    between atoms: C27_35  and  C28_37 
REMARK    9  A    between atoms: C28_37  and  C29_39 
REMARK   10  A    between atoms: C29_39  and  O6_40 
ROOT
HETATM    1  C1  UNL     1      -1.993  51.110 -14.012  1.00  0.00     0.020 C 
HETATM    2  C2  UNL     1      -0.759  50.173 -14.140  1.00  0.00    -0.014 C 
HETATM    3  C3  UNL     1       0.506  50.960 -13.701  1.00  0.00     0.020 C 
HETATM    4  C4  UNL     1       0.846  52.163 -14.576  1.00  0.00     0.060 C 
HETATM    5  C5  UNL     1       0.849  51.832 -16.050  1.00  0.00     0.032 C 
HETATM    6  N1  UNL     1       1.464  52.671 -16.828  1.00  0.00    -0.271 N 
ATOM      7  H1  UNL     1       1.972  53.490 -16.494  1.00  0.00     0.194 HD
HETATM    8  C14 UNL     1       0.118  50.609 -16.484  1.00  0.00     0.030 C 
HETATM    9  C15 UNL     1      -0.616  49.856 -15.638  1.00  0.00    -0.069 C 
HETATM   10  C16 UNL     1      -1.325  48.667 -16.226  1.00  0.00     0.035 C 
HETATM   11  C17 UNL     1      -1.602  47.494 -15.294  1.00  0.00     0.010 C 
HETATM   12  C18 UNL     1      -0.906  47.515 -13.937  1.00  0.00    -0.002 C 
HETATM   13  C19 UNL     1      -1.058  48.886 -13.244  1.00  0.00     0.031 C 
HETATM   14  C20 UNL     1      -0.470  48.772 -11.818  1.00  0.00     0.124 C 
HETATM   15  C21 UNL     1       0.958  48.221 -11.774  1.00  0.00     0.045 C 
HETATM   16  C22 UNL     1       1.130  46.837 -12.477  1.00  0.00     0.001 C 
HETATM   17  C23 UNL     1       0.498  45.763 -11.569  1.00  0.00     0.019 C 
HETATM   18  C24 UNL     1       0.497  46.870 -13.890  1.00  0.00     0.002 C 
HETATM   19  C25 UNL     1       1.591  47.443 -14.800  1.00  0.00     0.009 C 
HETATM   20  C26 UNL     1       2.928  47.293 -14.064  1.00  0.00     0.047 C 
HETATM   21  C27 UNL     1       2.632  46.526 -12.772  1.00  0.00     0.128 C 
ENDROOT
BRANCH   6  22
HETATM   22  O1  UNL     1       1.349  52.321 -18.184  1.00  0.00    -0.271 OA
BRANCH  22  23
HETATM   23  C6  UNL     1       0.565  53.306 -18.835  1.00  0.00     0.303 C 
BRANCH  23  24
HETATM   24  C7  UNL     1       1.000  53.492 -20.288  1.00  0.00     0.244 C 
HETATM   25  O2  UNL     1       1.772  54.368 -20.666  1.00  0.00    -0.271 OA
HETATM   26  N2  UNL     1       0.434  52.569 -21.147  1.00  0.00    -0.355 N 
HETATM   27  H10 UNL     1      -0.293  51.957 -20.804  1.00  0.00     0.162 HD
BRANCH  26  28
HETATM   28  C8  UNL     1       0.684  52.582 -22.569  1.00  0.00     0.161 C 
BRANCH  28  29
HETATM   29  C9  UNL     1      -0.525  52.095 -23.322  1.00  0.00    -0.038 A 
HETATM   30  C10 UNL     1      -0.385  51.504 -24.582  1.00  0.00     0.025 A 
HETATM   31  C11 UNL     1      -1.526  51.091 -25.252  1.00  0.00     0.088 A 
HETATM   32  N3  UNL     1      -2.777  51.230 -24.763  1.00  0.00    -0.375 N 
HETATM   33  C12 UNL     1      -2.891  51.810 -23.551  1.00  0.00     0.088 A 
ATOM     34  H3  UNL     1      -3.594  50.913 -25.284  1.00  0.00     0.164 HD
HETATM   35  C13 UNL     1      -1.811  52.257 -22.802  1.00  0.00     0.025 A 
ENDBRANCH  28  29
ENDBRANCH  26  28
ENDBRANCH  23  24
ENDBRANCH  22  23
ENDBRANCH   6  22
BRANCH  14  36
HETATM   36  O3  UNL     1      -0.542  49.994 -11.100  1.00  0.00    -0.395 OA
HETATM   37  H25 UNL     1      -1.482  50.211 -10.982  1.00  0.00     0.210 HD
ENDBRANCH  14  36
BRANCH  21  38
HETATM   38  O4  UNL     1       3.451  47.079 -11.728  1.00  0.00    -0.381 OA
HETATM   39  H36 UNL     1       3.957  46.338 -11.329  1.00  0.00     0.211 HD
ENDBRANCH  21  38
BRANCH  21  40
HETATM   40  C28 UNL     1       3.048  45.035 -12.894  1.00  0.00     0.184 C 
HETATM   41  O5  UNL     1       2.873  44.425 -13.963  1.00  0.00    -0.292 OA
BRANCH  40  42
HETATM   42  C29 UNL     1       3.636  44.296 -11.696  1.00  0.00     0.245 C 
BRANCH  42  43
HETATM   43  O6  UNL     1       4.870  44.886 -11.286  1.00  0.00    -0.393 OA
HETATM   44  H39 UNL     1       5.046  45.621 -11.912  1.00  0.00     0.209 HD
ENDBRANCH  42  43
ENDBRANCH  40  42
ENDBRANCH  21  40
TORSDOF 10
ENDMDL
MODEL 9
REMARK minimizedAffinity -7.41728497
REMARK CNNscore 0.442728668
REMARK CNNaffinity 6.14269114
REMARK  10 active torsions:
REMARK  status: ('A' for Active; 'I' for Inactive)
REMARK    1  A    between atoms: N1_6  and  O1_8 
REMARK    2  A    between atoms: O1_8  and  C6_9 
REMARK    3  A    between atoms: C6_9  and  C7_10 
REMARK       I    between atoms: C7_10  and  N2_12 
REMARK    4  A    between atoms: N2_12  and  C8_13 
REMARK    5  A    between atoms: C8_13  and  C9_14 
REMARK    6  A    between atoms: C20_27  and  O3_28 
REMARK    7  A    between atoms: C27_35  and  O4_36 
REMARK    8  A    between atoms: C27_35  and  C28_37 
REMARK    9  A    between atoms: C28_37  and  C29_39 
REMARK   10  A    between atoms: C29_39  and  O6_40 
ROOT
HETATM    1  C1  UNL     1      -4.411  50.426  -9.921  1.00  0.00     0.020 C 
HETATM    2  C2  UNL     1      -3.073  50.949 -10.515  1.00  0.00    -0.014 C 
HETATM    3  C3  UNL     1      -1.899  50.255  -9.772  1.00  0.00     0.020 C 
HETATM    4  C4  UNL     1      -1.806  50.574  -8.283  1.00  0.00     0.060 C 
HETATM    5  C5  UNL     1      -1.882  52.055  -7.997  1.00  0.00     0.032 C 
HETATM    6  N1  UNL     1      -1.459  52.439  -6.830  1.00  0.00    -0.271 N 
ATOM      7  H1  UNL     1      -1.045  51.812  -6.140  1.00  0.00     0.194 HD
HETATM    8  C14 UNL     1      -2.468  52.932  -9.048  1.00  0.00     0.030 C 
HETATM    9  C15 UNL     1      -3.015  52.449 -10.183  1.00  0.00    -0.069 C 
HETATM   10  C16 UNL     1      -3.597  53.454 -11.140  1.00  0.00     0.035 C 
HETATM   11  C17 UNL     1      -3.626  53.072 -12.614  1.00  0.00     0.010 C 
HETATM   12  C18 UNL     1      -2.827  51.837 -13.020  1.00  0.00    -0.002 C 
HETATM   13  C19 UNL     1      -3.110  50.646 -12.083  1.00  0.00     0.031 C 
HETATM   14  C20 UNL     1      -2.394  49.401 -12.655  1.00  0.00     0.124 C 
HETATM   15  C21 UNL     1      -0.904  49.614 -12.938  1.00  0.00     0.045 C 
HETATM   16  C22 UNL     1      -0.599  50.821 -13.881  1.00  0.00     0.001 C 
HETATM   17  C23 UNL     1      -0.994  50.413 -15.315  1.00  0.00     0.019 C 
HETATM   18  C24 UNL     1      -1.348  52.085 -13.393  1.00  0.00     0.002 C 
HETATM   19  C25 UNL     1      -0.427  52.708 -12.336  1.00  0.00     0.009 C 
HETATM   20  C26 UNL     1       0.975  52.124 -12.546  1.00  0.00     0.047 C 
HETATM   21  C27 UNL     1       0.901  51.248 -13.800  1.00  0.00     0.128 C 
ENDROOT
BRANCH   6  22
HETATM   22  O1  UNL     1      -1.638  53.817  -6.627  1.00  0.00    -0.271 OA
BRANCH  22  23
HETATM   23  C6  UNL     1      -0.591  54.287  -5.794  1.00  0.00     0.303 C 
BRANCH  23  24
HETATM   24  C7  UNL     1       0.079  55.525  -6.387  1.00  0.00     0.244 C 
HETATM   25  O2  UNL     1      -0.378  56.661  -6.300  1.00  0.00    -0.271 OA
HETATM   26  N2  UNL     1       1.264  55.241  -7.038  1.00  0.00    -0.355 N 
HETATM   27  H10 UNL     1       1.524  54.277  -7.192  1.00  0.00     0.162 HD
BRANCH  26  28
HETATM   28  C8  UNL     1       2.046  56.259  -7.700  1.00  0.00     0.161 C 
BRANCH  28  29
HETATM   29  C9  UNL     1       2.667  55.715  -8.958  1.00  0.00    -0.038 A 
HETATM   30  C10 UNL     1       3.363  56.559  -9.829  1.00  0.00     0.025 A 
HETATM   31  C11 UNL     1       3.898  56.022 -10.989  1.00  0.00     0.088 A 
HETATM   32  N3  UNL     1       3.784  54.722 -11.337  1.00  0.00    -0.375 N 
HETATM   33  C12 UNL     1       3.102  53.926 -10.489  1.00  0.00     0.088 A 
ATOM     34  H3  UNL     1       4.193  54.361 -12.199  1.00  0.00     0.164 HD
HETATM   35  C13 UNL     1       2.530  54.368  -9.304  1.00  0.00     0.025 A 
ENDBRANCH  28  29
ENDBRANCH  26  28
ENDBRANCH  23  24
ENDBRANCH  22  23
ENDBRANCH   6  22
BRANCH  14  36
HETATM   36  O3  UNL     1      -2.576  48.248 -11.849  1.00  0.00    -0.395 OA
HETATM   37  H25 UNL     1      -3.523  48.032 -11.853  1.00  0.00     0.210 HD
ENDBRANCH  14  36
BRANCH  21  38
HETATM   38  O4  UNL     1       1.720  50.087 -13.582  1.00  0.00    -0.381 OA
HETATM   39  H36 UNL     1       2.356  50.033 -14.327  1.00  0.00     0.211 HD
ENDBRANCH  21  38
BRANCH  21  40
HETATM   40  C28 UNL     1       1.510  51.973 -15.031  1.00  0.00     0.184 C 
HETATM   41  O5  UNL     1       0.803  52.723 -15.725  1.00  0.00    -0.292 OA
BRANCH  40  42
HETATM   42  C29 UNL     1       2.967  51.742 -15.421  1.00  0.00     0.245 C 
BRANCH  42  43
HETATM   43  O6  UNL     1       3.369  52.641 -16.454  1.00  0.00    -0.393 OA
HETATM   44  H39 UNL     1       2.578  53.178 -16.677  1.00  0.00     0.209 HD
ENDBRANCH  42  43
ENDBRANCH  40  42
ENDBRANCH  21  40
TORSDOF 10
ENDMDL
