MODEL 1
REMARK minimizedAffinity -6.46878767
REMARK CNNscore 0.60518533
REMARK CNNaffinity 6.62312126
REMARK  4 active torsions:
REMARK  status: ('A' for Active; 'I' for Inactive)
REMARK    1  A    between atoms: C2_2  and  C3_3 
REMARK    2  A    between atoms: C2_2  and  C9_9 
REMARK    3  A    between atoms: C3_3  and  C4_4 
REMARK    4  A    between atoms: C4_4  and  C5_5 
ROOT
HETATM    1  C9  UNL     1     -15.417  -9.360  28.120  1.00  0.00     0.018 C 
HETATM    2  C10 UNL     1     -15.155  -9.770  29.594  1.00  0.00     0.010 C 
HETATM    3  C11 UNL     1     -14.411 -11.115  29.521  1.00  0.00     0.011 C 
HETATM    4  C12 UNL     1     -13.520 -10.985  28.265  1.00  0.00    -0.032 C 
HETATM    5  C13 UNL     1     -12.364 -10.003  28.638  1.00  0.00     0.016 C 
HETATM    6  C14 UNL     1     -14.544 -10.342  27.286  1.00  0.00     0.002 C 
HETATM    7  C15 UNL     1     -13.882  -9.924  25.982  1.00  0.00     0.006 C 
HETATM    8  C16 UNL     1     -13.232 -11.144  25.300  1.00  0.00     0.006 C 
HETATM    9  C17 UNL     1     -12.274 -11.951  26.221  1.00  0.00     0.003 C 
HETATM   10  C18 UNL     1     -11.457 -13.116  25.504  1.00  0.00    -0.035 C 
HETATM   11  C19 UNL     1     -12.392 -14.203  24.926  1.00  0.00     0.016 C 
HETATM   12  C20 UNL     1     -10.643 -12.505  24.321  1.00  0.00     0.017 C 
HETATM   13  C21 UNL     1      -9.617 -13.447  23.705  1.00  0.00     0.080 C 
HETATM   14  C22 UNL     1      -8.693 -14.031  24.745  1.00  0.00     0.135 C 
HETATM   15  O1  UNL     1      -7.480 -14.074  24.528  1.00  0.00    -0.297 OA
HETATM   16  C23 UNL     1      -9.329 -14.655  25.998  1.00  0.00     0.017 C 
HETATM   17  C24 UNL     1      -8.206 -14.847  27.050  1.00  0.00     0.023 C 
HETATM   18  C25 UNL     1      -9.851 -16.052  25.638  1.00  0.00     0.023 C 
HETATM   19  C26 UNL     1     -10.410 -13.661  26.551  1.00  0.00     0.009 C 
HETATM   20  C27 UNL     1     -11.095 -14.128  27.853  1.00  0.00     0.007 C 
HETATM   21  C28 UNL     1     -11.883 -12.993  28.520  1.00  0.00     0.011 C 
HETATM   22  C29 UNL     1     -12.950 -12.333  27.609  1.00  0.00    -0.032 C 
HETATM   23  C30 UNL     1     -14.093 -13.374  27.430  1.00  0.00     0.016 C 
ENDROOT
BRANCH   1  24
HETATM   24  C2  UNL     1     -15.388  -7.878  27.752  1.00  0.00    -0.084 C 
HETATM   25  C1  UNL     1     -16.328  -7.273  27.006  1.00  0.00     0.014 C 
BRANCH  24  26
HETATM   26  C3  UNL     1     -14.141  -7.147  28.254  1.00  0.00     0.037 C 
BRANCH  26  27
HETATM   27  C4  UNL     1     -14.085  -5.623  28.075  1.00  0.00     0.031 C 
BRANCH  27  28
HETATM   28  C5  UNL     1     -13.801  -4.926  29.380  1.00  0.00    -0.024 C 
HETATM   29  C6  UNL     1     -12.972  -5.327  30.363  1.00  0.00    -0.091 C 
HETATM   30  C7  UNL     1     -12.187  -6.611  30.361  1.00  0.00     0.042 C 
HETATM   31  C8  UNL     1     -12.776  -4.483  31.595  1.00  0.00     0.042 C 
ENDBRANCH  27  28
ENDBRANCH  26  27
ENDBRANCH  24  26
ENDBRANCH   1  24
TORSDOF 4
ENDMDL
MODEL 2
REMARK minimizedAffinity -9.00005627
REMARK CNNscore 0.498232633
REMARK CNNaffinity 7.08769274
REMARK  4 active torsions:
REMARK  status: ('A' for Active; 'I' for Inactive)
REMARK    1  A    between atoms: C2_2  and  C3_3 
REMARK    2  A    between atoms: C2_2  and  C9_9 
REMARK    3  A    between atoms: C3_3  and  C4_4 
REMARK    4  A    between atoms: C4_4  and  C5_5 
ROOT
HETATM    1  C9  UNL     1       0.851   6.505  12.069  1.00  0.00     0.018 C 
HETATM    2  C10 UNL     1       1.004   5.018  11.650  1.00  0.00     0.010 C 
HETATM    3  C11 UNL     1      -0.184   4.283  12.295  1.00  0.00     0.011 C 
HETATM    4  C12 UNL     1      -1.340   5.307  12.228  1.00  0.00    -0.032 C 
HETATM    5  C13 UNL     1      -1.786   5.379  10.733  1.00  0.00     0.016 C 
HETATM    6  C14 UNL     1      -0.580   6.587  12.677  1.00  0.00     0.002 C 
HETATM    7  C15 UNL     1      -1.446   7.830  12.535  1.00  0.00     0.006 C 
HETATM    8  C16 UNL     1      -2.728   7.684  13.379  1.00  0.00     0.006 C 
HETATM    9  C17 UNL     1      -3.519   6.373  13.110  1.00  0.00     0.003 C 
HETATM   10  C18 UNL     1      -4.933   6.267  13.839  1.00  0.00    -0.035 C 
HETATM   11  C19 UNL     1      -4.790   6.286  15.378  1.00  0.00     0.016 C 
HETATM   12  C20 UNL     1      -5.805   7.492  13.423  1.00  0.00     0.017 C 
HETATM   13  C21 UNL     1      -7.269   7.395  13.834  1.00  0.00     0.080 C 
HETATM   14  C22 UNL     1      -7.900   6.106  13.369  1.00  0.00     0.135 C 
HETATM   15  O1  UNL     1      -9.017   6.127  12.847  1.00  0.00    -0.297 OA
HETATM   16  C23 UNL     1      -7.156   4.795  13.672  1.00  0.00     0.017 C 
HETATM   17  C24 UNL     1      -7.795   3.680  12.803  1.00  0.00     0.023 C 
HETATM   18  C25 UNL     1      -7.405   4.419  15.139  1.00  0.00     0.023 C 
HETATM   19  C26 UNL     1      -5.649   4.978  13.276  1.00  0.00     0.009 C 
HETATM   20  C27 UNL     1      -4.784   3.714  13.469  1.00  0.00     0.007 C 
HETATM   21  C28 UNL     1      -3.425   3.844  12.768  1.00  0.00     0.011 C 
HETATM   22  C29 UNL     1      -2.596   5.080  13.199  1.00  0.00    -0.032 C 
HETATM   23  C30 UNL     1      -2.115   4.812  14.655  1.00  0.00     0.016 C 
ENDROOT
BRANCH   1  24
HETATM   24  C2  UNL     1       1.282   7.593  11.090  1.00  0.00    -0.084 C 
HETATM   25  C1  UNL     1       0.422   8.368  10.405  1.00  0.00     0.014 C 
BRANCH  24  26
HETATM   26  C3  UNL     1       2.797   7.680  10.898  1.00  0.00     0.037 C 
BRANCH  26  27
HETATM   27  C4  UNL     1       3.465   6.630   9.997  1.00  0.00     0.031 C 
BRANCH  27  28
HETATM   28  C5  UNL     1       2.717   6.464   8.699  1.00  0.00    -0.024 C 
HETATM   29  C6  UNL     1       2.550   7.377   7.724  1.00  0.00    -0.091 C 
HETATM   30  C7  UNL     1       3.054   8.794   7.771  1.00  0.00     0.042 C 
HETATM   31  C8  UNL     1       1.799   7.028   6.465  1.00  0.00     0.042 C 
ENDBRANCH  27  28
ENDBRANCH  26  27
ENDBRANCH  24  26
ENDBRANCH   1  24
TORSDOF 4
ENDMDL
MODEL 3
REMARK minimizedAffinity -6.89845514
REMARK CNNscore 0.496736288
REMARK CNNaffinity 6.42179346
REMARK  4 active torsions:
REMARK  status: ('A' for Active; 'I' for Inactive)
REMARK    1  A    between atoms: C2_2  and  C3_3 
REMARK    2  A    between atoms: C2_2  and  C9_9 
REMARK    3  A    between atoms: C3_3  and  C4_4 
REMARK    4  A    between atoms: C4_4  and  C5_5 
ROOT
HETATM    1  C9  UNL     1      -0.353   7.860  13.884  1.00  0.00     0.018 C 
HETATM    2  C10 UNL     1      -0.337   6.908  15.110  1.00  0.00     0.010 C 
HETATM    3  C11 UNL     1      -0.516   7.816  16.339  1.00  0.00     0.011 C 
HETATM    4  C12 UNL     1      -1.474   8.926  15.849  1.00  0.00    -0.032 C 
HETATM    5  C13 UNL     1      -2.888   8.274  15.729  1.00  0.00     0.016 C 
HETATM    6  C14 UNL     1      -0.842   9.221  14.459  1.00  0.00     0.002 C 
HETATM    7  C15 UNL     1      -1.701  10.177  13.647  1.00  0.00     0.006 C 
HETATM    8  C16 UNL     1      -1.883  11.506  14.407  1.00  0.00     0.006 C 
HETATM    9  C17 UNL     1      -2.396  11.337  15.866  1.00  0.00     0.003 C 
HETATM   10  C18 UNL     1      -2.756  12.692  16.624  1.00  0.00    -0.035 C 
HETATM   11  C19 UNL     1      -1.520  13.606  16.786  1.00  0.00     0.016 C 
HETATM   12  C20 UNL     1      -3.820  13.468  15.789  1.00  0.00     0.017 C 
HETATM   13  C21 UNL     1      -4.450  14.653  16.510  1.00  0.00     0.080 C 
HETATM   14  C22 UNL     1      -5.009  14.260  17.856  1.00  0.00     0.135 C 
HETATM   15  O1  UNL     1      -6.126  14.659  18.192  1.00  0.00    -0.297 OA
HETATM   16  C23 UNL     1      -4.099  13.461  18.802  1.00  0.00     0.017 C 
HETATM   17  C24 UNL     1      -4.989  12.879  19.931  1.00  0.00     0.023 C 
HETATM   18  C25 UNL     1      -3.111  14.431  19.465  1.00  0.00     0.023 C 
HETATM   19  C26 UNL     1      -3.442  12.292  17.988  1.00  0.00     0.009 C 
HETATM   20  C27 UNL     1      -2.543  11.360  18.828  1.00  0.00     0.007 C 
HETATM   21  C28 UNL     1      -2.202  10.068  18.073  1.00  0.00     0.011 C 
HETATM   22  C29 UNL     1      -1.532  10.289  16.693  1.00  0.00    -0.032 C 
HETATM   23  C30 UNL     1      -0.094  10.816  16.971  1.00  0.00     0.016 C 
ENDROOT
BRANCH   1  24
HETATM   24  C2  UNL     1      -0.969   7.366  12.577  1.00  0.00    -0.084 C 
HETATM   25  C1  UNL     1      -1.988   6.491  12.514  1.00  0.00     0.014 C 
BRANCH  24  26
HETATM   26  C3  UNL     1      -0.270   7.905  11.327  1.00  0.00     0.037 C 
BRANCH  26  27
HETATM   27  C4  UNL     1       0.795   7.019  10.665  1.00  0.00     0.031 C 
BRANCH  27  28
HETATM   28  C5  UNL     1       1.003   7.396   9.221  1.00  0.00    -0.024 C 
HETATM   29  C6  UNL     1       1.933   6.918   8.372  1.00  0.00    -0.091 C 
HETATM   30  C7  UNL     1       3.000   5.921   8.732  1.00  0.00     0.042 C 
HETATM   31  C8  UNL     1       1.975   7.381   6.939  1.00  0.00     0.042 C 
ENDBRANCH  27  28
ENDBRANCH  26  27
ENDBRANCH  24  26
ENDBRANCH   1  24
TORSDOF 4
ENDMDL
MODEL 4
REMARK minimizedAffinity -9.03320026
REMARK CNNscore 0.419375062
REMARK CNNaffinity 7.03182411
REMARK  4 active torsions:
REMARK  status: ('A' for Active; 'I' for Inactive)
REMARK    1  A    between atoms: C2_2  and  C3_3 
REMARK    2  A    between atoms: C2_2  and  C9_9 
REMARK    3  A    between atoms: C3_3  and  C4_4 
REMARK    4  A    between atoms: C4_4  and  C5_5 
ROOT
HETATM    1  C9  UNL     1      -6.692   7.102  15.273  1.00  0.00     0.018 C 
HETATM    2  C10 UNL     1      -6.558   8.645  15.383  1.00  0.00     0.010 C 
HETATM    3  C11 UNL     1      -5.051   8.937  15.274  1.00  0.00     0.011 C 
HETATM    4  C12 UNL     1      -4.535   7.880  14.271  1.00  0.00    -0.032 C 
HETATM    5  C13 UNL     1      -5.045   8.317  12.861  1.00  0.00     0.016 C 
HETATM    6  C14 UNL     1      -5.286   6.627  14.805  1.00  0.00     0.002 C 
HETATM    7  C15 UNL     1      -5.106   5.432  13.881  1.00  0.00     0.006 C 
HETATM    8  C16 UNL     1      -3.608   5.095  13.732  1.00  0.00     0.006 C 
HETATM    9  C17 UNL     1      -2.723   6.306  13.319  1.00  0.00     0.003 C 
HETATM   10  C18 UNL     1      -1.203   5.960  12.993  1.00  0.00    -0.035 C 
HETATM   11  C19 UNL     1      -0.466   5.385  14.224  1.00  0.00     0.016 C 
HETATM   12  C20 UNL     1      -1.163   4.883  11.865  1.00  0.00     0.017 C 
HETATM   13  C21 UNL     1       0.218   4.641  11.268  1.00  0.00     0.080 C 
HETATM   14  C22 UNL     1       0.864   5.925  10.806  1.00  0.00     0.135 C 
HETATM   15  O1  UNL     1       1.424   5.965   9.708  1.00  0.00    -0.297 OA
HETATM   16  C23 UNL     1       0.888   7.108  11.788  1.00  0.00     0.017 C 
HETATM   17  C24 UNL     1       1.259   8.380  10.982  1.00  0.00     0.023 C 
HETATM   18  C25 UNL     1       2.014   6.875  12.805  1.00  0.00     0.023 C 
HETATM   19  C26 UNL     1      -0.546   7.269  12.404  1.00  0.00     0.009 C 
HETATM   20  C27 UNL     1      -0.690   8.464  13.370  1.00  0.00     0.007 C 
HETATM   21  C28 UNL     1      -2.162   8.771  13.677  1.00  0.00     0.011 C 
HETATM   22  C29 UNL     1      -2.961   7.573  14.251  1.00  0.00    -0.032 C 
HETATM   23  C30 UNL     1      -2.436   7.335  15.697  1.00  0.00     0.016 C 
ENDROOT
BRANCH   1  24
HETATM   24  C2  UNL     1      -7.919   6.519  14.578  1.00  0.00    -0.084 C 
HETATM   25  C1  UNL     1      -7.900   5.994  13.340  1.00  0.00     0.014 C 
BRANCH  24  26
HETATM   26  C3  UNL     1      -9.206   6.649  15.395  1.00  0.00     0.037 C 
BRANCH  26  27
HETATM   27  C4  UNL     1     -10.191   7.762  15.007  1.00  0.00     0.031 C 
BRANCH  27  28
HETATM   28  C5  UNL     1     -11.491   7.194  14.500  1.00  0.00    -0.024 C 
HETATM   29  C6  UNL     1     -12.208   7.604  13.436  1.00  0.00    -0.091 C 
HETATM   30  C7  UNL     1     -11.859   8.774  12.558  1.00  0.00     0.042 C 
HETATM   31  C8  UNL     1     -13.477   6.893  13.045  1.00  0.00     0.042 C 
ENDBRANCH  27  28
ENDBRANCH  26  27
ENDBRANCH  24  26
ENDBRANCH   1  24
TORSDOF 4
ENDMDL
MODEL 5
REMARK minimizedAffinity -7.42827606
REMARK CNNscore 0.405085862
REMARK CNNaffinity 5.62302065
REMARK  4 active torsions:
REMARK  status: ('A' for Active; 'I' for Inactive)
REMARK    1  A    between atoms: C2_2  and  C3_3 
REMARK    2  A    between atoms: C2_2  and  C9_9 
REMARK    3  A    between atoms: C3_3  and  C4_4 
REMARK    4  A    between atoms: C4_4  and  C5_5 
ROOT
HETATM    1  C9  UNL     1       2.840   7.807  12.485  1.00  0.00     0.018 C 
HETATM    2  C10 UNL     1       2.394   9.290  12.383  1.00  0.00     0.010 C 
HETATM    3  C11 UNL     1       3.444  10.092  13.171  1.00  0.00     0.011 C 
HETATM    4  C12 UNL     1       4.769   9.345  12.898  1.00  0.00    -0.032 C 
HETATM    5  C13 UNL     1       5.167   9.667  11.422  1.00  0.00     0.016 C 
HETATM    6  C14 UNL     1       4.281   7.879  13.068  1.00  0.00     0.002 C 
HETATM    7  C15 UNL     1       5.361   6.881  12.675  1.00  0.00     0.006 C 
HETATM    8  C16 UNL     1       6.621   7.095  13.536  1.00  0.00     0.006 C 
HETATM    9  C17 UNL     1       7.141   8.560  13.549  1.00  0.00     0.003 C 
HETATM   10  C18 UNL     1       8.534   8.784  14.289  1.00  0.00    -0.035 C 
HETATM   11  C19 UNL     1       8.453   8.424  15.790  1.00  0.00     0.016 C 
HETATM   12  C20 UNL     1       9.607   7.862  13.632  1.00  0.00     0.017 C 
HETATM   13  C21 UNL     1      11.040   8.152  14.060  1.00  0.00     0.080 C 
HETATM   14  C22 UNL     1      11.399   9.606  13.875  1.00  0.00     0.135 C 
HETATM   15  O1  UNL     1      12.481   9.907  13.365  1.00  0.00    -0.297 OA
HETATM   16  C23 UNL     1      10.432  10.659  14.440  1.00  0.00     0.017 C 
HETATM   17  C24 UNL     1      10.817  12.029  13.825  1.00  0.00     0.023 C 
HETATM   18  C25 UNL     1      10.658  10.768  15.954  1.00  0.00     0.023 C 
HETATM   19  C26 UNL     1       8.974  10.274  14.009  1.00  0.00     0.009 C 
HETATM   20  C27 UNL     1       7.893  11.282  14.456  1.00  0.00     0.007 C 
HETATM   21  C28 UNL     1       6.559  11.039  13.738  1.00  0.00     0.011 C 
HETATM   22  C29 UNL     1       5.994   9.605  13.900  1.00  0.00    -0.032 C 
HETATM   23  C30 UNL     1       5.524   9.472  15.378  1.00  0.00     0.016 C 
ENDROOT
BRANCH   1  24
HETATM   24  C2  UNL     1       2.587   6.879  11.299  1.00  0.00    -0.084 C 
HETATM   25  C1  UNL     1       1.494   6.107  11.172  1.00  0.00     0.014 C 
BRANCH  24  26
HETATM   26  C3  UNL     1       3.735   6.851  10.288  1.00  0.00     0.037 C 
BRANCH  26  27
HETATM   27  C4  UNL     1       3.913   8.072   9.374  1.00  0.00     0.031 C 
BRANCH  27  28
HETATM   28  C5  UNL     1       2.847   8.123   8.310  1.00  0.00    -0.024 C 
HETATM   29  C6  UNL     1       2.383   7.104   7.562  1.00  0.00    -0.091 C 
HETATM   30  C7  UNL     1       2.891   5.689   7.618  1.00  0.00     0.042 C 
HETATM   31  C8  UNL     1       1.278   7.326   6.562  1.00  0.00     0.042 C 
ENDBRANCH  27  28
ENDBRANCH  26  27
ENDBRANCH  24  26
ENDBRANCH   1  24
TORSDOF 4
ENDMDL
MODEL 6
REMARK minimizedAffinity -8.19687366
REMARK CNNscore 0.397825092
REMARK CNNaffinity 6.63795042
REMARK  4 active torsions:
REMARK  status: ('A' for Active; 'I' for Inactive)
REMARK    1  A    between atoms: C2_2  and  C3_3 
REMARK    2  A    between atoms: C2_2  and  C9_9 
REMARK    3  A    between atoms: C3_3  and  C4_4 
REMARK    4  A    between atoms: C4_4  and  C5_5 
ROOT
HETATM    1  C9  UNL     1      -2.372   8.764  15.878  1.00  0.00     0.018 C 
HETATM    2  C10 UNL     1      -1.152   8.732  16.837  1.00  0.00     0.010 C 
HETATM    3  C11 UNL     1      -0.027   8.037  16.050  1.00  0.00     0.011 C 
HETATM    4  C12 UNL     1      -0.241   8.510  14.594  1.00  0.00    -0.032 C 
HETATM    5  C13 UNL     1       0.211  10.004  14.539  1.00  0.00     0.016 C 
HETATM    6  C14 UNL     1      -1.785   8.359  14.495  1.00  0.00     0.002 C 
HETATM    7  C15 UNL     1      -2.321   8.935  13.193  1.00  0.00     0.006 C 
HETATM    8  C16 UNL     1      -1.669   8.225  11.990  1.00  0.00     0.006 C 
HETATM    9  C17 UNL     1      -0.115   8.198  12.034  1.00  0.00     0.003 C 
HETATM   10  C18 UNL     1       0.596   7.623  10.729  1.00  0.00    -0.035 C 
HETATM   11  C19 UNL     1       0.223   6.145  10.474  1.00  0.00     0.016 C 
HETATM   12  C20 UNL     1       0.129   8.455   9.495  1.00  0.00     0.017 C 
HETATM   13  C21 UNL     1       0.917   8.191   8.218  1.00  0.00     0.080 C 
HETATM   14  C22 UNL     1       2.404   8.342   8.433  1.00  0.00     0.135 C 
HETATM   15  O1  UNL     1       3.079   8.964   7.610  1.00  0.00    -0.297 OA
HETATM   16  C23 UNL     1       3.031   7.607   9.629  1.00  0.00     0.017 C 
HETATM   17  C24 UNL     1       4.451   8.191   9.848  1.00  0.00     0.023 C 
HETATM   18  C25 UNL     1       3.207   6.128   9.256  1.00  0.00     0.023 C 
HETATM   19  C26 UNL     1       2.145   7.875  10.895  1.00  0.00     0.009 C 
HETATM   20  C27 UNL     1       2.690   7.246  12.196  1.00  0.00     0.007 C 
HETATM   21  C28 UNL     1       1.983   7.807  13.437  1.00  0.00     0.011 C 
HETATM   22  C29 UNL     1       0.441   7.654  13.422  1.00  0.00    -0.032 C 
HETATM   23  C30 UNL     1       0.139   6.138  13.611  1.00  0.00     0.016 C 
ENDROOT
BRANCH   1  24
HETATM   24  C2  UNL     1      -3.322   9.958  15.938  1.00  0.00    -0.084 C 
HETATM   25  C1  UNL     1      -4.570   9.947  15.438  1.00  0.00     0.014 C 
BRANCH  24  26
HETATM   26  C3  UNL     1      -2.698  11.208  16.560  1.00  0.00     0.037 C 
BRANCH  26  27
HETATM   27  C4  UNL     1      -2.812  11.383  18.082  1.00  0.00     0.031 C 
BRANCH  27  28
HETATM   28  C5  UNL     1      -1.894  12.468  18.581  1.00  0.00    -0.024 C 
HETATM   29  C6  UNL     1      -0.718  12.320  19.222  1.00  0.00    -0.091 C 
HETATM   30  C7  UNL     1      -0.107  11.001  19.612  1.00  0.00     0.042 C 
HETATM   31  C8  UNL     1       0.097  13.523  19.620  1.00  0.00     0.042 C 
ENDBRANCH  27  28
ENDBRANCH  26  27
ENDBRANCH  24  26
ENDBRANCH   1  24
TORSDOF 4
ENDMDL
MODEL 7
REMARK minimizedAffinity -8.21565819
REMARK CNNscore 0.385083258
REMARK CNNaffinity 7.05137062
REMARK  4 active torsions:
REMARK  status: ('A' for Active; 'I' for Inactive)
REMARK    1  A    between atoms: C2_2  and  C3_3 
REMARK    2  A    between atoms: C2_2  and  C9_9 
REMARK    3  A    between atoms: C3_3  and  C4_4 
REMARK    4  A    between atoms: C4_4  and  C5_5 
ROOT
HETATM    1  C9  UNL     1      -2.999   5.871  14.679  1.00  0.00     0.018 C 
HETATM    2  C10 UNL     1      -3.272   4.812  13.577  1.00  0.00     0.010 C 
HETATM    3  C11 UNL     1      -4.799   4.624  13.554  1.00  0.00     0.011 C 
HETATM    4  C12 UNL     1      -5.356   6.034  13.855  1.00  0.00    -0.032 C 
HETATM    5  C13 UNL     1      -5.124   6.888  12.568  1.00  0.00     0.016 C 
HETATM    6  C14 UNL     1      -4.406   6.448  15.014  1.00  0.00     0.002 C 
HETATM    7  C15 UNL     1      -4.607   7.903  15.408  1.00  0.00     0.006 C 
HETATM    8  C16 UNL     1      -6.066   8.139  15.846  1.00  0.00     0.006 C 
HETATM    9  C17 UNL     1      -7.125   7.649  14.818  1.00  0.00     0.003 C 
HETATM   10  C18 UNL     1      -8.634   8.027  15.159  1.00  0.00    -0.035 C 
HETATM   11  C19 UNL     1      -9.104   7.384  16.484  1.00  0.00     0.016 C 
HETATM   12  C20 UNL     1      -8.742   9.576  15.313  1.00  0.00     0.017 C 
HETATM   13  C21 UNL     1     -10.168  10.108  15.385  1.00  0.00     0.080 C 
HETATM   14  C22 UNL     1     -11.007   9.626  14.226  1.00  0.00     0.135 C 
HETATM   15  O1  UNL     1     -11.735  10.421  13.628  1.00  0.00    -0.297 OA
HETATM   16  C23 UNL     1     -10.997   8.121  13.913  1.00  0.00     0.017 C 
HETATM   17  C24 UNL     1     -11.619   7.929  12.506  1.00  0.00     0.023 C 
HETATM   18  C25 UNL     1     -11.917   7.407  14.912  1.00  0.00     0.023 C 
HETATM   19  C26 UNL     1      -9.507   7.627  13.906  1.00  0.00     0.009 C 
HETATM   20  C27 UNL     1      -9.335   6.137  13.543  1.00  0.00     0.007 C 
HETATM   21  C28 UNL     1      -7.872   5.795  13.229  1.00  0.00     0.011 C 
HETATM   22  C29 UNL     1      -6.874   6.146  14.361  1.00  0.00    -0.032 C 
HETATM   23  C30 UNL     1      -7.135   5.139  15.518  1.00  0.00     0.016 C 
ENDROOT
BRANCH   1  24
HETATM   24  C2  UNL     1      -1.845   6.851  14.488  1.00  0.00    -0.084 C 
HETATM   25  C1  UNL     1      -1.183   7.436  15.502  1.00  0.00     0.014 C 
BRANCH  24  26
HETATM   26  C3  UNL     1      -1.547   7.169  13.021  1.00  0.00     0.037 C 
BRANCH  26  27
HETATM   27  C4  UNL     1      -0.540   8.290  12.722  1.00  0.00     0.031 C 
BRANCH  27  28
HETATM   28  C5  UNL     1      -0.546   8.658  11.261  1.00  0.00    -0.024 C 
HETATM   29  C6  UNL     1       0.076   8.021  10.250  1.00  0.00    -0.091 C 
HETATM   30  C7  UNL     1       0.957   6.812  10.403  1.00  0.00     0.042 C 
HETATM   31  C8  UNL     1      -0.068   8.508   8.832  1.00  0.00     0.042 C 
ENDBRANCH  27  28
ENDBRANCH  26  27
ENDBRANCH  24  26
ENDBRANCH   1  24
TORSDOF 4
ENDMDL
MODEL 8
REMARK minimizedAffinity -7.8103652
REMARK CNNscore 0.37752986
REMARK CNNaffinity 6.43676138
REMARK  4 active torsions:
REMARK  status: ('A' for Active; 'I' for Inactive)
REMARK    1  A    between atoms: C2_2  and  C3_3 
REMARK    2  A    between atoms: C2_2  and  C9_9 
REMARK    3  A    between atoms: C3_3  and  C4_4 
REMARK    4  A    between atoms: C4_4  and  C5_5 
ROOT
HETATM    1  C9  UNL     1      -0.717   6.139  12.824  1.00  0.00     0.018 C 
HETATM    2  C10 UNL     1      -2.181   5.812  12.423  1.00  0.00     0.010 C 
HETATM    3  C11 UNL     1      -3.063   6.568  13.433  1.00  0.00     0.011 C 
HETATM    4  C12 UNL     1      -2.287   7.877  13.703  1.00  0.00    -0.032 C 
HETATM    5  C13 UNL     1      -2.441   8.760  12.425  1.00  0.00     0.016 C 
HETATM    6  C14 UNL     1      -0.850   7.302  13.850  1.00  0.00     0.002 C 
HETATM    7  C15 UNL     1       0.188   8.410  13.951  1.00  0.00     0.006 C 
HETATM    8  C16 UNL     1      -0.116   9.316  15.160  1.00  0.00     0.006 C 
HETATM    9  C17 UNL     1      -1.573   9.859  15.196  1.00  0.00     0.003 C 
HETATM   10  C18 UNL     1      -1.875  10.930  16.337  1.00  0.00    -0.035 C 
HETATM   11  C19 UNL     1      -1.684  10.335  17.750  1.00  0.00     0.016 C 
HETATM   12  C20 UNL     1      -0.882  12.123  16.181  1.00  0.00     0.017 C 
HETATM   13  C21 UNL     1      -1.214  13.340  17.036  1.00  0.00     0.080 C 
HETATM   14  C22 UNL     1      -2.638  13.798  16.833  1.00  0.00     0.135 C 
HETATM   15  O1  UNL     1      -2.877  14.999  16.691  1.00  0.00    -0.297 OA
HETATM   16  C23 UNL     1      -3.750  12.741  16.925  1.00  0.00     0.017 C 
HETATM   17  C24 UNL     1      -5.042  13.365  16.338  1.00  0.00     0.023 C 
HETATM   18  C25 UNL     1      -4.025  12.449  18.407  1.00  0.00     0.023 C 
HETATM   19  C26 UNL     1      -3.323  11.498  16.069  1.00  0.00     0.009 C 
HETATM   20  C27 UNL     1      -4.377  10.371  16.017  1.00  0.00     0.007 C 
HETATM   21  C28 UNL     1      -4.060   9.347  14.918  1.00  0.00     0.011 C 
HETATM   22  C29 UNL     1      -2.654   8.704  15.028  1.00  0.00    -0.032 C 
HETATM   23  C30 UNL     1      -2.687   7.759  16.265  1.00  0.00     0.016 C 
ENDROOT
BRANCH   1  24
HETATM   24  C2  UNL     1       0.336   6.262  11.726  1.00  0.00    -0.084 C 
HETATM   25  C1  UNL     1       1.566   5.724  11.803  1.00  0.00     0.014 C 
BRANCH  24  26
HETATM   26  C3  UNL     1      -0.110   7.123  10.543  1.00  0.00     0.037 C 
BRANCH  26  27
HETATM   27  C4  UNL     1       0.884   8.158   9.996  1.00  0.00     0.031 C 
BRANCH  27  28
HETATM   28  C5  UNL     1       1.022   8.050   8.499  1.00  0.00    -0.024 C 
HETATM   29  C6  UNL     1       1.812   7.209   7.804  1.00  0.00    -0.091 C 
HETATM   30  C7  UNL     1       2.770   6.222   8.414  1.00  0.00     0.042 C 
HETATM   31  C8  UNL     1       1.797   7.210   6.298  1.00  0.00     0.042 C 
ENDBRANCH  27  28
ENDBRANCH  26  27
ENDBRANCH  24  26
ENDBRANCH   1  24
TORSDOF 4
ENDMDL
MODEL 9
REMARK minimizedAffinity -7.46166897
REMARK CNNscore 0.362914503
REMARK CNNaffinity 6.38860559
REMARK  4 active torsions:
REMARK  status: ('A' for Active; 'I' for Inactive)
REMARK    1  A    between atoms: C2_2  and  C3_3 
REMARK    2  A    between atoms: C2_2  and  C9_9 
REMARK    3  A    between atoms: C3_3  and  C4_4 
REMARK    4  A    between atoms: C4_4  and  C5_5 
ROOT
HETATM    1  C9  UNL     1       0.823   6.710  11.108  1.00  0.00     0.018 C 
HETATM    2  C10 UNL     1      -0.556   6.016  11.270  1.00  0.00     0.010 C 
HETATM    3  C11 UNL     1      -1.012   6.333  12.705  1.00  0.00     0.011 C 
HETATM    4  C12 UNL     1      -0.491   7.767  12.955  1.00  0.00    -0.032 C 
HETATM    5  C13 UNL     1      -1.398   8.723  12.117  1.00  0.00     0.016 C 
HETATM    6  C14 UNL     1       0.937   7.634  12.355  1.00  0.00     0.002 C 
HETATM    7  C15 UNL     1       1.647   8.979  12.299  1.00  0.00     0.006 C 
HETATM    8  C16 UNL     1       1.750   9.584  13.713  1.00  0.00     0.006 C 
HETATM    9  C17 UNL     1       0.396   9.657  14.474  1.00  0.00     0.003 C 
HETATM   10  C18 UNL     1       0.436  10.429  15.867  1.00  0.00    -0.035 C 
HETATM   11  C19 UNL     1       1.375   9.738  16.882  1.00  0.00     0.016 C 
HETATM   12  C20 UNL     1       0.971  11.875  15.626  1.00  0.00     0.017 C 
HETATM   13  C21 UNL     1       0.823  12.812  16.817  1.00  0.00     0.080 C 
HETATM   14  C22 UNL     1      -0.595  12.846  17.334  1.00  0.00     0.135 C 
HETATM   15  O1  UNL     1      -1.119  13.928  17.608  1.00  0.00    -0.297 OA
HETATM   16  C23 UNL     1      -1.291  11.501  17.602  1.00  0.00     0.017 C 
HETATM   17  C24 UNL     1      -2.807  11.782  17.768  1.00  0.00     0.023 C 
HETATM   18  C25 UNL     1      -0.787  10.949  18.942  1.00  0.00     0.023 C 
HETATM   19  C26 UNL     1      -1.056  10.567  16.364  1.00  0.00     0.009 C 
HETATM   20  C27 UNL     1      -1.754   9.193  16.464  1.00  0.00     0.007 C 
HETATM   21  C28 UNL     1      -1.770   8.466  15.113  1.00  0.00     0.011 C 
HETATM   22  C29 UNL     1      -0.372   8.264  14.476  1.00  0.00    -0.032 C 
HETATM   23  C30 UNL     1       0.365   7.199  15.338  1.00  0.00     0.016 C 
ENDROOT
BRANCH   1  24
HETATM   24  C2  UNL     1       1.201   7.286   9.746  1.00  0.00    -0.084 C 
HETATM   25  C1  UNL     1       0.377   8.039   8.997  1.00  0.00     0.014 C 
BRANCH  24  26
HETATM   26  C3  UNL     1       2.593   6.867   9.268  1.00  0.00     0.037 C 
BRANCH  26  27
HETATM   27  C4  UNL     1       3.160   5.540   9.792  1.00  0.00     0.031 C 
BRANCH  27  28
HETATM   28  C5  UNL     1       3.521   4.611   8.662  1.00  0.00    -0.024 C 
HETATM   29  C6  UNL     1       3.253   4.769   7.351  1.00  0.00    -0.091 C 
HETATM   30  C7  UNL     1       2.477   5.914   6.759  1.00  0.00     0.042 C 
HETATM   31  C8  UNL     1       3.724   3.753   6.343  1.00  0.00     0.042 C 
ENDBRANCH  27  28
ENDBRANCH  26  27
ENDBRANCH  24  26
ENDBRANCH   1  24
TORSDOF 4
ENDMDL
