MODEL 1
REMARK minimizedAffinity -8.80774879
REMARK CNNscore 0.502251327
REMARK CNNaffinity 7.12917662
REMARK  9 active torsions:
REMARK  status: ('A' for Active; 'I' for Inactive)
REMARK    1  A    between atoms: C3_3  and  O1_4 
REMARK    2  A    between atoms: N1_14  and  O2_16 
REMARK    3  A    between atoms: O2_16  and  C13_17 
REMARK    4  A    between atoms: C13_17  and  C14_18 
REMARK       I    between atoms: C14_18  and  N2_20 
REMARK    5  A    between atoms: N2_20  and  C15_21 
REMARK    6  A    between atoms: C15_21  and  C16_22 
REMARK    7  A    between atoms: C15_21  and  C18_26 
REMARK    8  A    between atoms: C16_22  and  C17_23 
REMARK    9  A    between atoms: C17_23  and  O5_25 
ROOT
HETATM    1  C1  UNL     1      -5.294  52.699 -23.616  1.00  0.00     0.015 C 
HETATM    2  C2  UNL     1      -4.974  51.541 -23.657  1.00  0.00    -0.078 C 
HETATM    3  C3  UNL     1      -4.636  50.105 -23.731  1.00  0.00     0.128 C 
HETATM    4  C4  UNL     1      -5.660  49.289 -22.936  1.00  0.00     0.052 C 
HETATM    5  C5  UNL     1      -5.139  49.287 -21.501  1.00  0.00     0.010 C 
HETATM    6  C6  UNL     1      -3.623  49.628 -21.550  1.00  0.00     0.002 C 
HETATM    7  C7  UNL     1      -3.309  50.896 -20.713  1.00  0.00    -0.004 C 
HETATM    8  C8  UNL     1      -3.476  50.638 -19.198  1.00  0.00     0.010 C 
HETATM    9  C9  UNL     1      -2.260  49.986 -18.545  1.00  0.00     0.035 C 
HETATM   10  C10 UNL     1      -1.052  50.842 -18.826  1.00  0.00    -0.069 C 
HETATM   11  C11 UNL     1      -0.453  51.501 -17.817  1.00  0.00     0.030 C 
HETATM   12  C12 UNL     1       0.586  52.531 -18.099  1.00  0.00     0.032 C 
HETATM   13  N1  UNL     1       1.435  53.022 -17.249  1.00  0.00    -0.271 N 
ATOM     14  H1  UNL     1       2.129  53.734 -17.478  1.00  0.00     0.194 HD
HETATM   15  C25 UNL     1       0.606  53.074 -19.508  1.00  0.00     0.060 C 
HETATM   16  C26 UNL     1       0.577  51.901 -20.471  1.00  0.00     0.020 C 
HETATM   17  C27 UNL     1      -0.680  50.984 -20.311  1.00  0.00    -0.016 C 
HETATM   18  C28 UNL     1      -0.232  49.612 -20.857  1.00  0.00     0.020 C 
HETATM   19  C29 UNL     1      -1.949  51.587 -21.035  1.00  0.00     0.002 C 
HETATM   20  C30 UNL     1      -1.853  51.831 -22.549  1.00  0.00     0.007 C 
HETATM   21  C31 UNL     1      -2.086  50.613 -23.434  1.00  0.00     0.014 C 
HETATM   22  C32 UNL     1      -3.278  49.701 -23.066  1.00  0.00     0.003 C 
HETATM   23  C33 UNL     1      -2.870  48.269 -23.544  1.00  0.00     0.020 C 
ENDROOT
BRANCH   3  24
HETATM   24  O1  UNL     1      -4.691  49.710 -25.097  1.00  0.00    -0.377 OA
HETATM   25  H2  UNL     1      -4.235  50.399 -25.610  1.00  0.00     0.211 HD
ENDBRANCH   3  24
BRANCH  13  26
HETATM   26  O2  UNL     1       1.282  52.450 -15.975  1.00  0.00    -0.271 OA
BRANCH  26  27
HETATM   27  C13 UNL     1       2.530  51.945 -15.539  1.00  0.00     0.303 C 
BRANCH  27  28
HETATM   28  C14 UNL     1       2.444  51.010 -14.329  1.00  0.00     0.244 C 
HETATM   29  O3  UNL     1       2.460  49.784 -14.394  1.00  0.00    -0.271 OA
HETATM   30  N2  UNL     1       2.347  51.695 -13.123  1.00  0.00    -0.354 N 
HETATM   31  H16 UNL     1       2.528  52.692 -13.132  1.00  0.00     0.162 HD
BRANCH  30  32
HETATM   32  C15 UNL     1       2.310  50.995 -11.838  1.00  0.00     0.098 C 
BRANCH  32  33
HETATM   33  C16 UNL     1       3.686  51.018 -11.150  1.00  0.00     0.135 C 
BRANCH  33  34
HETATM   34  C17 UNL     1       4.504  49.792 -11.435  1.00  0.00     0.141 C 
HETATM   35  O4  UNL     1       4.647  48.841 -10.683  1.00  0.00    -0.650 OA
BRANCH  34  36
HETATM   36  O5  UNL     1       5.025  49.779 -12.674  1.00  0.00    -0.776 OA
HETATM   37  H20 UNL     1       5.611  48.994 -12.675  1.00  0.00     0.167 HD
ENDBRANCH  34  36
ENDBRANCH  33  34
ENDBRANCH  32  33
BRANCH  32  38
HETATM   38  C18 UNL     1       1.215  51.575 -10.905  1.00  0.00     0.014 C 
HETATM   39  C19 UNL     1       1.743  52.265  -9.644  1.00  0.00     0.033 C 
HETATM   40  C20 UNL     1       0.591  52.682  -8.731  1.00  0.00     0.169 C 
HETATM   41  O6  UNL     1      -0.669  52.725  -9.395  1.00  0.00    -0.381 OA
HETATM   42  C21 UNL     1      -0.669  53.316 -10.700  1.00  0.00     0.054 C 
HETATM   43  C22 UNL     1      -2.116  53.207 -11.209  1.00  0.00     0.045 C 
HETATM   44  C23 UNL     1      -0.298  54.804 -10.613  1.00  0.00     0.045 C 
HETATM   45  C24 UNL     1       0.276  52.543 -11.652  1.00  0.00     0.044 C 
ENDBRANCH  32  38
ENDBRANCH  30  32
ENDBRANCH  27  28
ENDBRANCH  26  27
ENDBRANCH  13  26
TORSDOF 9
ENDMDL
MODEL 2
REMARK minimizedAffinity -9.29078293
REMARK CNNscore 0.484387875
REMARK CNNaffinity 7.03787804
REMARK  9 active torsions:
REMARK  status: ('A' for Active; 'I' for Inactive)
REMARK    1  A    between atoms: C3_3  and  O1_4 
REMARK    2  A    between atoms: N1_14  and  O2_16 
REMARK    3  A    between atoms: O2_16  and  C13_17 
REMARK    4  A    between atoms: C13_17  and  C14_18 
REMARK       I    between atoms: C14_18  and  N2_20 
REMARK    5  A    between atoms: N2_20  and  C15_21 
REMARK    6  A    between atoms: C15_21  and  C16_22 
REMARK    7  A    between atoms: C15_21  and  C18_26 
REMARK    8  A    between atoms: C16_22  and  C17_23 
REMARK    9  A    between atoms: C17_23  and  O5_25 
ROOT
HETATM    1  C1  UNL     1      -5.295  52.080 -23.959  1.00  0.00     0.015 C 
HETATM    2  C2  UNL     1      -4.387  51.551 -24.543  1.00  0.00    -0.078 C 
HETATM    3  C3  UNL     1      -3.312  50.874 -25.297  1.00  0.00     0.128 C 
HETATM    4  C4  UNL     1      -3.540  49.360 -25.280  1.00  0.00     0.052 C 
HETATM    5  C5  UNL     1      -2.875  48.873 -23.994  1.00  0.00     0.010 C 
HETATM    6  C6  UNL     1      -1.855  49.960 -23.551  1.00  0.00     0.002 C 
HETATM    7  C7  UNL     1      -2.180  50.481 -22.126  1.00  0.00    -0.004 C 
HETATM    8  C8  UNL     1      -1.911  49.405 -21.048  1.00  0.00     0.010 C 
HETATM    9  C9  UNL     1      -0.450  49.320 -20.613  1.00  0.00     0.035 C 
HETATM   10  C10 UNL     1      -0.010  50.684 -20.149  1.00  0.00    -0.069 C 
HETATM   11  C11 UNL     1       0.269  50.887 -18.848  1.00  0.00     0.030 C 
HETATM   12  C12 UNL     1       0.474  52.268 -18.326  1.00  0.00     0.032 C 
HETATM   13  N1  UNL     1       1.024  52.591 -17.196  1.00  0.00    -0.271 N 
ATOM     14  H1  UNL     1       1.140  53.551 -16.868  1.00  0.00     0.194 HD
HETATM   15  C25 UNL     1      -0.057  53.384 -19.195  1.00  0.00     0.060 C 
HETATM   16  C26 UNL     1       0.422  53.149 -20.617  1.00  0.00     0.020 C 
HETATM   17  C27 UNL     1      -0.044  51.784 -21.222  1.00  0.00    -0.016 C 
HETATM   18  C28 UNL     1       1.004  51.465 -22.310  1.00  0.00     0.020 C 
HETATM   19  C29 UNL     1      -1.531  51.848 -21.753  1.00  0.00     0.002 C 
HETATM   20  C30 UNL     1      -1.849  52.874 -22.852  1.00  0.00     0.007 C 
HETATM   21  C31 UNL     1      -1.496  52.455 -24.273  1.00  0.00     0.014 C 
HETATM   22  C32 UNL     1      -1.877  51.018 -24.692  1.00  0.00     0.003 C 
HETATM   23  C33 UNL     1      -0.816  50.602 -25.764  1.00  0.00     0.020 C 
ENDROOT
BRANCH   3  24
HETATM   24  O1  UNL     1      -3.364  51.333 -26.643  1.00  0.00    -0.377 OA
HETATM   25  H2  UNL     1      -3.475  52.300 -26.610  1.00  0.00     0.211 HD
ENDBRANCH   3  24
BRANCH  13  26
HETATM   26  O2  UNL     1       1.441  51.457 -16.480  1.00  0.00    -0.271 OA
BRANCH  26  27
HETATM   27  C13 UNL     1       2.255  51.865 -15.396  1.00  0.00     0.303 C 
BRANCH  27  28
HETATM   28  C14 UNL     1       1.745  51.419 -14.023  1.00  0.00     0.244 C 
HETATM   29  O3  UNL     1       0.684  50.833 -13.831  1.00  0.00    -0.271 OA
HETATM   30  N2  UNL     1       2.619  51.742 -12.991  1.00  0.00    -0.354 N 
HETATM   31  H16 UNL     1       3.551  52.052 -13.243  1.00  0.00     0.162 HD
BRANCH  30  32
HETATM   32  C15 UNL     1       2.353  51.358 -11.604  1.00  0.00     0.098 C 
BRANCH  32  33
HETATM   33  C16 UNL     1       3.205  50.146 -11.188  1.00  0.00     0.135 C 
BRANCH  33  34
HETATM   34  C17 UNL     1       4.047  49.609 -12.309  1.00  0.00     0.141 C 
HETATM   35  O4  UNL     1       5.191  49.948 -12.566  1.00  0.00    -0.650 OA
BRANCH  34  36
HETATM   36  O5  UNL     1       3.450  48.616 -12.991  1.00  0.00    -0.776 OA
HETATM   37  H20 UNL     1       4.057  48.449 -13.742  1.00  0.00     0.167 HD
ENDBRANCH  34  36
ENDBRANCH  33  34
ENDBRANCH  32  33
BRANCH  32  38
HETATM   38  C18 UNL     1       2.571  52.547 -10.632  1.00  0.00     0.014 C 
HETATM   39  C19 UNL     1       3.312  52.194  -9.340  1.00  0.00     0.033 C 
HETATM   40  C20 UNL     1       3.359  53.395  -8.396  1.00  0.00     0.169 C 
HETATM   41  O6  UNL     1       3.096  54.635  -9.046  1.00  0.00    -0.381 OA
HETATM   42  C21 UNL     1       3.730  54.823 -10.317  1.00  0.00     0.054 C 
HETATM   43  C22 UNL     1       3.263  56.199 -10.820  1.00  0.00     0.045 C 
HETATM   44  C23 UNL     1       5.257  54.861 -10.151  1.00  0.00     0.045 C 
HETATM   45  C24 UNL     1       3.288  53.726 -11.317  1.00  0.00     0.044 C 
ENDBRANCH  32  38
ENDBRANCH  30  32
ENDBRANCH  27  28
ENDBRANCH  26  27
ENDBRANCH  13  26
TORSDOF 9
ENDMDL
MODEL 3
REMARK minimizedAffinity -8.53615093
REMARK CNNscore 0.451485276
REMARK CNNaffinity 6.19536781
REMARK  9 active torsions:
REMARK  status: ('A' for Active; 'I' for Inactive)
REMARK    1  A    between atoms: C3_3  and  O1_4 
REMARK    2  A    between atoms: N1_14  and  O2_16 
REMARK    3  A    between atoms: O2_16  and  C13_17 
REMARK    4  A    between atoms: C13_17  and  C14_18 
REMARK       I    between atoms: C14_18  and  N2_20 
REMARK    5  A    between atoms: N2_20  and  C15_21 
REMARK    6  A    between atoms: C15_21  and  C16_22 
REMARK    7  A    between atoms: C15_21  and  C18_26 
REMARK    8  A    between atoms: C16_22  and  C17_23 
REMARK    9  A    between atoms: C17_23  and  O5_25 
ROOT
HETATM    1  C1  UNL     1      -0.823  47.999 -20.674  1.00  0.00     0.015 C 
HETATM    2  C2  UNL     1      -1.118  49.119 -20.994  1.00  0.00    -0.078 C 
HETATM    3  C3  UNL     1      -1.436  50.517 -21.352  1.00  0.00     0.128 C 
HETATM    4  C4  UNL     1      -1.718  51.327 -20.084  1.00  0.00     0.052 C 
HETATM    5  C5  UNL     1      -3.204  51.115 -19.799  1.00  0.00     0.010 C 
HETATM    6  C6  UNL     1      -3.873  50.642 -21.121  1.00  0.00     0.002 C 
HETATM    7  C7  UNL     1      -4.558  49.263 -20.937  1.00  0.00    -0.004 C 
HETATM    8  C8  UNL     1      -5.803  49.358 -20.025  1.00  0.00     0.010 C 
HETATM    9  C9  UNL     1      -7.066  49.815 -20.752  1.00  0.00     0.035 C 
HETATM   10  C10 UNL     1      -7.307  48.889 -21.916  1.00  0.00    -0.069 C 
HETATM   11  C11 UNL     1      -8.371  48.065 -21.902  1.00  0.00     0.030 C 
HETATM   12  C12 UNL     1      -8.502  46.982 -22.917  1.00  0.00     0.032 C 
HETATM   13  N1  UNL     1      -9.580  46.320 -23.204  1.00  0.00    -0.271 N 
ATOM     14  H1  UNL     1      -9.629  45.577 -23.902  1.00  0.00     0.194 HD
HETATM   15  C25 UNL     1      -7.231  46.606 -23.642  1.00  0.00     0.060 C 
HETATM   16  C26 UNL     1      -6.568  47.880 -24.133  1.00  0.00     0.020 C 
HETATM   17  C27 UNL     1      -6.208  48.885 -22.990  1.00  0.00    -0.016 C 
HETATM   18  C28 UNL     1      -6.169  50.264 -23.683  1.00  0.00     0.020 C 
HETATM   19  C29 UNL     1      -4.865  48.491 -22.256  1.00  0.00     0.002 C 
HETATM   20  C30 UNL     1      -3.587  48.415 -23.106  1.00  0.00     0.007 C 
HETATM   21  C31 UNL     1      -2.895  49.744 -23.382  1.00  0.00     0.014 C 
HETATM   22  C32 UNL     1      -2.743  50.713 -22.189  1.00  0.00     0.003 C 
HETATM   23  C33 UNL     1      -2.751  52.147 -22.814  1.00  0.00     0.020 C 
ENDROOT
BRANCH   3  24
HETATM   24  O1  UNL     1      -0.302  51.071 -22.010  1.00  0.00    -0.377 OA
HETATM   25  H2  UNL     1       0.008  50.406 -22.650  1.00  0.00     0.211 HD
ENDBRANCH   3  24
BRANCH  13  26
HETATM   26  O2  UNL     1     -10.673  46.752 -22.433  1.00  0.00    -0.271 OA
BRANCH  26  27
HETATM   27  C13 UNL     1     -11.634  45.714 -22.368  1.00  0.00     0.303 C 
BRANCH  27  28
HETATM   28  C14 UNL     1     -12.530  45.763 -21.127  1.00  0.00     0.244 C 
HETATM   29  O3  UNL     1     -12.333  45.119 -20.101  1.00  0.00    -0.271 OA
HETATM   30  N2  UNL     1     -13.608  46.628 -21.273  1.00  0.00    -0.354 N 
HETATM   31  H16 UNL     1     -13.601  47.260 -22.065  1.00  0.00     0.162 HD
BRANCH  30  32
HETATM   32  C15 UNL     1     -14.559  46.868 -20.186  1.00  0.00     0.098 C 
BRANCH  32  33
HETATM   33  C16 UNL     1     -14.263  48.197 -19.469  1.00  0.00     0.135 C 
BRANCH  33  34
HETATM   34  C17 UNL     1     -14.237  48.063 -17.974  1.00  0.00     0.141 C 
HETATM   35  O4  UNL     1     -14.928  48.695 -17.190  1.00  0.00    -0.650 OA
BRANCH  34  36
HETATM   36  O5  UNL     1     -13.419  47.087 -17.543  1.00  0.00    -0.776 OA
HETATM   37  H20 UNL     1     -13.420  47.192 -16.569  1.00  0.00     0.167 HD
ENDBRANCH  34  36
ENDBRANCH  33  34
ENDBRANCH  32  33
BRANCH  32  38
HETATM   38  C18 UNL     1     -16.024  46.827 -20.691  1.00  0.00     0.014 C 
HETATM   39  C19 UNL     1     -16.365  45.629 -21.581  1.00  0.00     0.033 C 
HETATM   40  C20 UNL     1     -17.785  45.749 -22.133  1.00  0.00     0.169 C 
HETATM   41  O6  UNL     1     -18.596  46.672 -21.411  1.00  0.00    -0.381 OA
HETATM   42  C21 UNL     1     -18.489  46.615 -19.983  1.00  0.00     0.054 C 
HETATM   43  C22 UNL     1     -19.418  47.719 -19.450  1.00  0.00     0.045 C 
HETATM   44  C23 UNL     1     -18.999  45.262 -19.464  1.00  0.00     0.045 C 
HETATM   45  C24 UNL     1     -17.036  46.895 -19.530  1.00  0.00     0.044 C 
ENDBRANCH  32  38
ENDBRANCH  30  32
ENDBRANCH  27  28
ENDBRANCH  26  27
ENDBRANCH  13  26
TORSDOF 9
ENDMDL
MODEL 4
REMARK minimizedAffinity -8.36830425
REMARK CNNscore 0.409660995
REMARK CNNaffinity 5.82692766
REMARK  9 active torsions:
REMARK  status: ('A' for Active; 'I' for Inactive)
REMARK    1  A    between atoms: C3_3  and  O1_4 
REMARK    2  A    between atoms: N1_14  and  O2_16 
REMARK    3  A    between atoms: O2_16  and  C13_17 
REMARK    4  A    between atoms: C13_17  and  C14_18 
REMARK       I    between atoms: C14_18  and  N2_20 
REMARK    5  A    between atoms: N2_20  and  C15_21 
REMARK    6  A    between atoms: C15_21  and  C16_22 
REMARK    7  A    between atoms: C15_21  and  C18_26 
REMARK    8  A    between atoms: C16_22  and  C17_23 
REMARK    9  A    between atoms: C17_23  and  O5_25 
ROOT
HETATM    1  C1  UNL     1      -7.253  44.099 -29.364  1.00  0.00     0.015 C 
HETATM    2  C2  UNL     1      -7.294  45.285 -29.556  1.00  0.00    -0.078 C 
HETATM    3  C3  UNL     1      -7.282  46.744 -29.786  1.00  0.00     0.128 C 
HETATM    4  C4  UNL     1      -6.576  47.448 -28.625  1.00  0.00     0.052 C 
HETATM    5  C5  UNL     1      -7.663  47.673 -27.576  1.00  0.00     0.010 C 
HETATM    6  C6  UNL     1      -9.037  47.587 -28.297  1.00  0.00     0.002 C 
HETATM    7  C7  UNL     1      -9.923  46.474 -27.678  1.00  0.00    -0.004 C 
HETATM    8  C8  UNL     1     -10.392  46.843 -26.251  1.00  0.00     0.010 C 
HETATM    9  C9  UNL     1     -11.621  47.747 -26.219  1.00  0.00     0.035 C 
HETATM   10  C10 UNL     1     -12.722  47.083 -27.005  1.00  0.00    -0.069 C 
HETATM   11  C11 UNL     1     -13.817  46.631 -26.365  1.00  0.00     0.030 C 
HETATM   12  C12 UNL     1     -14.803  45.767 -27.073  1.00  0.00     0.032 C 
HETATM   13  N1  UNL     1     -16.015  45.508 -26.691  1.00  0.00    -0.271 N 
ATOM     14  H1  UNL     1     -16.661  44.903 -27.200  1.00  0.00     0.194 HD
HETATM   15  C25 UNL     1     -14.307  45.105 -28.337  1.00  0.00     0.060 C 
HETATM   16  C26 UNL     1     -13.634  46.160 -29.195  1.00  0.00     0.020 C 
HETATM   17  C27 UNL     1     -12.424  46.865 -28.497  1.00  0.00    -0.016 C 
HETATM   18  C28 UNL     1     -12.315  48.235 -29.199  1.00  0.00     0.020 C 
HETATM   19  C29 UNL     1     -11.108  45.993 -28.569  1.00  0.00     0.002 C 
HETATM   20  C30 UNL     1     -10.575  45.627 -29.963  1.00  0.00     0.007 C 
HETATM   21  C31 UNL     1      -9.749  46.700 -30.660  1.00  0.00     0.014 C 
HETATM   22  C32 UNL     1      -8.688  47.429 -29.805  1.00  0.00     0.003 C 
HETATM   23  C33 UNL     1      -8.563  48.858 -30.429  1.00  0.00     0.020 C 
ENDROOT
BRANCH   3  24
HETATM   24  O1  UNL     1      -6.559  46.994 -30.986  1.00  0.00    -0.377 OA
HETATM   25  H2  UNL     1      -6.866  46.344 -31.643  1.00  0.00     0.211 HD
ENDBRANCH   3  24
BRANCH  13  26
HETATM   26  O2  UNL     1     -16.331  46.163 -25.488  1.00  0.00    -0.271 OA
BRANCH  26  27
HETATM   27  C13 UNL     1     -17.611  45.745 -25.054  1.00  0.00     0.303 C 
BRANCH  27  28
HETATM   28  C14 UNL     1     -17.956  46.161 -23.620  1.00  0.00     0.244 C 
HETATM   29  O3  UNL     1     -18.936  46.830 -23.307  1.00  0.00    -0.271 OA
HETATM   30  N2  UNL     1     -17.038  45.694 -22.687  1.00  0.00    -0.354 N 
HETATM   31  H16 UNL     1     -16.368  44.998 -22.992  1.00  0.00     0.162 HD
BRANCH  30  32
HETATM   32  C15 UNL     1     -17.208  45.929 -21.252  1.00  0.00     0.098 C 
BRANCH  32  33
HETATM   33  C16 UNL     1     -17.772  44.684 -20.545  1.00  0.00     0.135 C 
BRANCH  33  34
HETATM   34  C17 UNL     1     -19.258  44.751 -20.338  1.00  0.00     0.141 C 
HETATM   35  O4  UNL     1     -19.822  44.876 -19.263  1.00  0.00    -0.650 OA
BRANCH  34  36
HETATM   36  O5  UNL     1     -19.953  44.750 -21.488  1.00  0.00    -0.776 OA
HETATM   37  H20 UNL     1     -20.887  44.684 -21.198  1.00  0.00     0.167 HD
ENDBRANCH  34  36
ENDBRANCH  33  34
ENDBRANCH  32  33
BRANCH  32  38
HETATM   38  C18 UNL     1     -15.883  46.388 -20.589  1.00  0.00     0.014 C 
HETATM   39  C19 UNL     1     -15.104  47.447 -21.373  1.00  0.00     0.033 C 
HETATM   40  C20 UNL     1     -13.758  47.733 -20.709  1.00  0.00     0.169 C 
HETATM   41  O6  UNL     1     -13.693  47.300 -19.353  1.00  0.00    -0.381 OA
HETATM   42  C21 UNL     1     -14.849  47.574 -18.552  1.00  0.00     0.054 C 
HETATM   43  C22 UNL     1     -14.548  46.981 -17.166  1.00  0.00     0.045 C 
HETATM   44  C23 UNL     1     -15.044  49.090 -18.399  1.00  0.00     0.045 C 
HETATM   45  C24 UNL     1     -16.104  46.891 -19.149  1.00  0.00     0.044 C 
ENDBRANCH  32  38
ENDBRANCH  30  32
ENDBRANCH  27  28
ENDBRANCH  26  27
ENDBRANCH  13  26
TORSDOF 9
ENDMDL
MODEL 5
REMARK minimizedAffinity -8.51306152
REMARK CNNscore 0.397675246
REMARK CNNaffinity 6.83029747
REMARK  9 active torsions:
REMARK  status: ('A' for Active; 'I' for Inactive)
REMARK    1  A    between atoms: C3_3  and  O1_4 
REMARK    2  A    between atoms: N1_14  and  O2_16 
REMARK    3  A    between atoms: O2_16  and  C13_17 
REMARK    4  A    between atoms: C13_17  and  C14_18 
REMARK       I    between atoms: C14_18  and  N2_20 
REMARK    5  A    between atoms: N2_20  and  C15_21 
REMARK    6  A    between atoms: C15_21  and  C16_22 
REMARK    7  A    between atoms: C15_21  and  C18_26 
REMARK    8  A    between atoms: C16_22  and  C17_23 
REMARK    9  A    between atoms: C17_23  and  O5_25 
ROOT
HETATM    1  C1  UNL     1      -2.299  48.472 -24.951  1.00  0.00     0.015 C 
HETATM    2  C2  UNL     1      -2.937  49.469 -24.744  1.00  0.00    -0.078 C 
HETATM    3  C3  UNL     1      -3.726  50.703 -24.550  1.00  0.00     0.128 C 
HETATM    4  C4  UNL     1      -3.047  51.872 -25.268  1.00  0.00     0.052 C 
HETATM    5  C5  UNL     1      -2.036  52.422 -24.263  1.00  0.00     0.010 C 
HETATM    6  C6  UNL     1      -2.470  51.942 -22.849  1.00  0.00     0.002 C 
HETATM    7  C7  UNL     1      -1.346  51.115 -22.172  1.00  0.00    -0.004 C 
HETATM    8  C8  UNL     1      -0.133  51.997 -21.795  1.00  0.00     0.010 C 
HETATM    9  C9  UNL     1      -0.296  52.738 -20.470  1.00  0.00     0.035 C 
HETATM   10  C10 UNL     1      -0.596  51.728 -19.393  1.00  0.00    -0.069 C 
HETATM   11  C11 UNL     1       0.312  51.494 -18.428  1.00  0.00     0.030 C 
HETATM   12  C12 UNL     1       0.145  50.343 -17.497  1.00  0.00     0.032 C 
HETATM   13  N1  UNL     1       0.760  50.170 -16.367  1.00  0.00    -0.271 N 
ATOM     14  H1  UNL     1       0.625  49.362 -15.759  1.00  0.00     0.194 HD
HETATM   15  C25 UNL     1      -0.807  49.262 -17.952  1.00  0.00     0.060 C 
HETATM   16  C26 UNL     1      -2.096  49.923 -18.405  1.00  0.00     0.020 C 
HETATM   17  C27 UNL     1      -1.905  50.943 -19.576  1.00  0.00    -0.016 C 
HETATM   18  C28 UNL     1      -3.101  51.911 -19.446  1.00  0.00     0.020 C 
HETATM   19  C29 UNL     1      -1.804  50.222 -20.979  1.00  0.00     0.002 C 
HETATM   20  C30 UNL     1      -2.997  49.361 -21.422  1.00  0.00     0.007 C 
HETATM   21  C31 UNL     1      -4.167  50.116 -22.038  1.00  0.00     0.014 C 
HETATM   22  C32 UNL     1      -3.824  51.210 -23.073  1.00  0.00     0.003 C 
HETATM   23  C33 UNL     1      -4.974  52.264 -22.960  1.00  0.00     0.020 C 
ENDROOT
BRANCH   3  24
HETATM   24  O1  UNL     1      -5.013  50.496 -25.122  1.00  0.00    -0.377 OA
HETATM   25  H2  UNL     1      -5.311  49.613 -24.839  1.00  0.00     0.211 HD
ENDBRANCH   3  24
BRANCH  13  26
HETATM   26  O2  UNL     1       1.635  51.232 -16.085  1.00  0.00    -0.271 OA
BRANCH  26  27
HETATM   27  C13 UNL     1       1.143  51.957 -14.974  1.00  0.00     0.303 C 
BRANCH  27  28
HETATM   28  C14 UNL     1       1.410  51.291 -13.620  1.00  0.00     0.244 C 
HETATM   29  O3  UNL     1       1.001  50.179 -13.298  1.00  0.00    -0.271 OA
HETATM   30  N2  UNL     1       2.182  52.079 -12.774  1.00  0.00    -0.354 N 
HETATM   31  H16 UNL     1       2.636  52.892 -13.172  1.00  0.00     0.162 HD
BRANCH  30  32
HETATM   32  C15 UNL     1       2.602  51.611 -11.452  1.00  0.00     0.098 C 
BRANCH  32  33
HETATM   33  C16 UNL     1       3.889  50.773 -11.540  1.00  0.00     0.135 C 
BRANCH  33  34
HETATM   34  C17 UNL     1       3.743  49.407 -10.932  1.00  0.00     0.141 C 
HETATM   35  O4  UNL     1       2.705  48.769 -10.857  1.00  0.00    -0.650 OA
BRANCH  34  36
HETATM   36  O5  UNL     1       4.912  48.878 -10.533  1.00  0.00    -0.776 OA
HETATM   37  H20 UNL     1       4.651  48.056 -10.066  1.00  0.00     0.167 HD
ENDBRANCH  34  36
ENDBRANCH  33  34
ENDBRANCH  32  33
BRANCH  32  38
HETATM   38  C18 UNL     1       2.776  52.789 -10.459  1.00  0.00     0.014 C 
HETATM   39  C19 UNL     1       3.426  52.416  -9.124  1.00  0.00     0.033 C 
HETATM   40  C20 UNL     1       3.432  53.609  -8.170  1.00  0.00     0.169 C 
HETATM   41  O6  UNL     1       3.234  54.859  -8.827  1.00  0.00    -0.381 OA
HETATM   42  C21 UNL     1       3.952  55.042 -10.053  1.00  0.00     0.054 C 
HETATM   43  C22 UNL     1       3.543  56.429 -10.575  1.00  0.00     0.045 C 
HETATM   44  C23 UNL     1       5.465  55.052  -9.788  1.00  0.00     0.045 C 
HETATM   45  C24 UNL     1       3.557  53.960 -11.088  1.00  0.00     0.044 C 
ENDBRANCH  32  38
ENDBRANCH  30  32
ENDBRANCH  27  28
ENDBRANCH  26  27
ENDBRANCH  13  26
TORSDOF 9
ENDMDL
MODEL 6
REMARK minimizedAffinity -8.40621376
REMARK CNNscore 0.33398658
REMARK CNNaffinity 6.57832575
REMARK  9 active torsions:
REMARK  status: ('A' for Active; 'I' for Inactive)
REMARK    1  A    between atoms: C3_3  and  O1_4 
REMARK    2  A    between atoms: N1_14  and  O2_16 
REMARK    3  A    between atoms: O2_16  and  C13_17 
REMARK    4  A    between atoms: C13_17  and  C14_18 
REMARK       I    between atoms: C14_18  and  N2_20 
REMARK    5  A    between atoms: N2_20  and  C15_21 
REMARK    6  A    between atoms: C15_21  and  C16_22 
REMARK    7  A    between atoms: C15_21  and  C18_26 
REMARK    8  A    between atoms: C16_22  and  C17_23 
REMARK    9  A    between atoms: C17_23  and  O5_25 
ROOT
HETATM    1  C1  UNL     1      -1.539  53.813 -27.918  1.00  0.00     0.015 C 
HETATM    2  C2  UNL     1      -0.825  53.418 -27.035  1.00  0.00    -0.078 C 
HETATM    3  C3  UNL     1       0.102  52.946 -25.985  1.00  0.00     0.128 C 
HETATM    4  C4  UNL     1       1.027  51.867 -26.555  1.00  0.00     0.052 C 
HETATM    5  C5  UNL     1       0.256  50.558 -26.393  1.00  0.00     0.010 C 
HETATM    6  C6  UNL     1      -0.832  50.785 -25.306  1.00  0.00     0.002 C 
HETATM    7  C7  UNL     1      -2.250  50.508 -25.871  1.00  0.00    -0.004 C 
HETATM    8  C8  UNL     1      -2.469  49.005 -26.161  1.00  0.00     0.010 C 
HETATM    9  C9  UNL     1      -2.871  48.192 -24.932  1.00  0.00     0.035 C 
HETATM   10  C10 UNL     1      -4.101  48.820 -24.328  1.00  0.00    -0.069 C 
HETATM   11  C11 UNL     1      -5.273  48.160 -24.369  1.00  0.00     0.030 C 
HETATM   12  C12 UNL     1      -6.541  48.849 -23.997  1.00  0.00     0.032 C 
HETATM   13  N1  UNL     1      -7.672  48.281 -23.711  1.00  0.00    -0.271 N 
ATOM     14  H1  UNL     1      -8.524  48.789 -23.468  1.00  0.00     0.194 HD
HETATM   15  C25 UNL     1      -6.493  50.359 -23.999  1.00  0.00     0.060 C 
HETATM   16  C26 UNL     1      -5.263  50.798 -23.225  1.00  0.00     0.020 C 
HETATM   17  C27 UNL     1      -3.919  50.257 -23.815  1.00  0.00    -0.016 C 
HETATM   18  C28 UNL     1      -2.945  50.250 -22.617  1.00  0.00     0.020 C 
HETATM   19  C29 UNL     1      -3.426  51.114 -25.047  1.00  0.00     0.002 C 
HETATM   20  C30 UNL     1      -3.157  52.609 -24.810  1.00  0.00     0.007 C 
HETATM   21  C31 UNL     1      -1.806  52.951 -24.195  1.00  0.00     0.014 C 
HETATM   22  C32 UNL     1      -0.572  52.223 -24.773  1.00  0.00     0.003 C 
HETATM   23  C33 UNL     1       0.447  52.129 -23.591  1.00  0.00     0.020 C 
ENDROOT
BRANCH   3  24
HETATM   24  O1  UNL     1       0.890  54.054 -25.565  1.00  0.00    -0.377 OA
HETATM   25  H2  UNL     1       0.284  54.808 -25.453  1.00  0.00     0.211 HD
ENDBRANCH   3  24
BRANCH  13  26
HETATM   26  O2  UNL     1      -7.580  46.881 -23.778  1.00  0.00    -0.271 OA
BRANCH  26  27
HETATM   27  C13 UNL     1      -7.812  46.464 -25.111  1.00  0.00     0.303 C 
BRANCH  27  28
HETATM   28  C14 UNL     1      -9.277  46.140 -25.423  1.00  0.00     0.244 C 
HETATM   29  O3  UNL     1     -10.137  45.923 -24.575  1.00  0.00    -0.271 OA
HETATM   30  N2  UNL     1      -9.546  46.121 -26.787  1.00  0.00    -0.354 N 
HETATM   31  H16 UNL     1      -8.840  46.491 -27.412  1.00  0.00     0.162 HD
BRANCH  30  32
HETATM   32  C15 UNL     1     -10.896  45.888 -27.304  1.00  0.00     0.098 C 
BRANCH  32  33
HETATM   33  C16 UNL     1     -11.427  47.121 -28.054  1.00  0.00     0.135 C 
BRANCH  33  34
HETATM   34  C17 UNL     1     -12.080  48.123 -27.147  1.00  0.00     0.141 C 
HETATM   35  O4  UNL     1     -13.265  48.153 -26.854  1.00  0.00    -0.650 OA
BRANCH  34  36
HETATM   36  O5  UNL     1     -11.207  48.977 -26.585  1.00  0.00    -0.776 OA
HETATM   37  H20 UNL     1     -11.777  49.625 -26.121  1.00  0.00     0.167 HD
ENDBRANCH  34  36
ENDBRANCH  33  34
ENDBRANCH  32  33
BRANCH  32  38
HETATM   38  C18 UNL     1     -10.951  44.626 -28.205  1.00  0.00     0.014 C 
HETATM   39  C19 UNL     1      -9.585  44.057 -28.599  1.00  0.00     0.033 C 
HETATM   40  C20 UNL     1      -9.743  42.904 -29.589  1.00  0.00     0.169 C 
HETATM   41  O6  UNL     1     -11.057  42.352 -29.609  1.00  0.00    -0.381 OA
HETATM   42  C21 UNL     1     -11.675  42.160 -28.331  1.00  0.00     0.054 C 
HETATM   43  C22 UNL     1     -13.077  41.601 -28.623  1.00  0.00     0.045 C 
HETATM   44  C23 UNL     1     -10.899  41.116 -27.514  1.00  0.00     0.045 C 
HETATM   45  C24 UNL     1     -11.800  43.505 -27.574  1.00  0.00     0.044 C 
ENDBRANCH  32  38
ENDBRANCH  30  32
ENDBRANCH  27  28
ENDBRANCH  26  27
ENDBRANCH  13  26
TORSDOF 9
ENDMDL
MODEL 7
REMARK minimizedAffinity -8.47350693
REMARK CNNscore 0.322598934
REMARK CNNaffinity 6.30082941
REMARK  9 active torsions:
REMARK  status: ('A' for Active; 'I' for Inactive)
REMARK    1  A    between atoms: C3_3  and  O1_4 
REMARK    2  A    between atoms: N1_14  and  O2_16 
REMARK    3  A    between atoms: O2_16  and  C13_17 
REMARK    4  A    between atoms: C13_17  and  C14_18 
REMARK       I    between atoms: C14_18  and  N2_20 
REMARK    5  A    between atoms: N2_20  and  C15_21 
REMARK    6  A    between atoms: C15_21  and  C16_22 
REMARK    7  A    between atoms: C15_21  and  C18_26 
REMARK    8  A    between atoms: C16_22  and  C17_23 
REMARK    9  A    between atoms: C17_23  and  O5_25 
ROOT
HETATM    1  C1  UNL     1      -6.236  47.300 -22.109  1.00  0.00     0.015 C 
HETATM    2  C2  UNL     1      -5.729  48.142 -22.802  1.00  0.00    -0.078 C 
HETATM    3  C3  UNL     1      -5.123  49.144 -23.703  1.00  0.00     0.128 C 
HETATM    4  C4  UNL     1      -4.117  48.464 -24.635  1.00  0.00     0.052 C 
HETATM    5  C5  UNL     1      -2.803  48.444 -23.856  1.00  0.00     0.010 C 
HETATM    6  C6  UNL     1      -2.899  49.526 -22.744  1.00  0.00     0.002 C 
HETATM    7  C7  UNL     1      -2.706  48.900 -21.338  1.00  0.00    -0.004 C 
HETATM    8  C8  UNL     1      -1.252  48.420 -21.121  1.00  0.00     0.010 C 
HETATM    9  C9  UNL     1      -0.295  49.528 -20.687  1.00  0.00     0.035 C 
HETATM   10  C10 UNL     1      -0.850  50.179 -19.446  1.00  0.00    -0.069 C 
HETATM   11  C11 UNL     1      -0.209  50.030 -18.273  1.00  0.00     0.030 C 
HETATM   12  C12 UNL     1      -0.855  50.458 -17.000  1.00  0.00     0.032 C 
HETATM   13  N1  UNL     1      -0.263  50.645 -15.860  1.00  0.00    -0.271 N 
ATOM     14  H1  UNL     1      -0.742  50.931 -15.005  1.00  0.00     0.194 HD
HETATM   15  C25 UNL     1      -2.352  50.645 -17.054  1.00  0.00     0.060 C 
HETATM   16  C26 UNL     1      -2.682  51.496 -18.267  1.00  0.00     0.020 C 
HETATM   17  C27 UNL     1      -2.210  50.872 -19.622  1.00  0.00    -0.016 C 
HETATM   18  C28 UNL     1      -2.047  52.080 -20.570  1.00  0.00     0.020 C 
HETATM   19  C29 UNL     1      -3.212  49.768 -20.147  1.00  0.00     0.002 C 
HETATM   20  C30 UNL     1      -4.663  50.197 -20.416  1.00  0.00     0.007 C 
HETATM   21  C31 UNL     1      -4.916  50.879 -21.754  1.00  0.00     0.014 C 
HETATM   22  C32 UNL     1      -4.258  50.241 -22.998  1.00  0.00     0.003 C 
HETATM   23  C33 UNL     1      -4.010  51.425 -23.990  1.00  0.00     0.020 C 
ENDROOT
BRANCH   3  24
HETATM   24  O1  UNL     1      -6.164  49.717 -24.485  1.00  0.00    -0.377 OA
HETATM   25  H2  UNL     1      -6.901  49.909 -23.880  1.00  0.00     0.211 HD
ENDBRANCH   3  24
BRANCH  13  26
HETATM   26  O2  UNL     1       1.119  50.405 -15.948  1.00  0.00    -0.271 OA
BRANCH  26  27
HETATM   27  C13 UNL     1       1.817  51.515 -15.416  1.00  0.00     0.303 C 
BRANCH  27  28
HETATM   28  C14 UNL     1       1.572  51.757 -13.924  1.00  0.00     0.244 C 
HETATM   29  O3  UNL     1       0.498  52.107 -13.443  1.00  0.00    -0.271 OA
HETATM   30  N2  UNL     1       2.703  51.535 -13.148  1.00  0.00    -0.354 N 
HETATM   31  H16 UNL     1       3.491  51.071 -13.585  1.00  0.00     0.162 HD
BRANCH  30  32
HETATM   32  C15 UNL     1       2.675  51.654 -11.689  1.00  0.00     0.098 C 
BRANCH  32  33
HETATM   33  C16 UNL     1       3.505  50.544 -11.022  1.00  0.00     0.135 C 
BRANCH  33  34
HETATM   34  C17 UNL     1       4.149  49.618 -12.013  1.00  0.00     0.141 C 
HETATM   35  O4  UNL     1       5.267  49.745 -12.484  1.00  0.00    -0.650 OA
BRANCH  34  36
HETATM   36  O5  UNL     1       3.399  48.538 -12.293  1.00  0.00    -0.776 OA
HETATM   37  H20 UNL     1       3.885  48.096 -13.020  1.00  0.00     0.167 HD
ENDBRANCH  34  36
ENDBRANCH  33  34
ENDBRANCH  32  33
BRANCH  32  38
HETATM   38  C18 UNL     1       3.150  53.055 -11.223  1.00  0.00     0.014 C 
HETATM   39  C19 UNL     1       2.036  53.979 -10.723  1.00  0.00     0.033 C 
HETATM   40  C20 UNL     1       2.584  55.372 -10.414  1.00  0.00     0.169 C 
HETATM   41  O6  UNL     1       4.000  55.400 -10.257  1.00  0.00    -0.381 OA
HETATM   42  C21 UNL     1       4.567  54.329  -9.493  1.00  0.00     0.054 C 
HETATM   43  C22 UNL     1       6.086  54.564  -9.504  1.00  0.00     0.045 C 
HETATM   44  C23 UNL     1       4.078  54.395  -8.038  1.00  0.00     0.045 C 
HETATM   45  C24 UNL     1       4.247  52.962 -10.144  1.00  0.00     0.044 C 
ENDBRANCH  32  38
ENDBRANCH  30  32
ENDBRANCH  27  28
ENDBRANCH  26  27
ENDBRANCH  13  26
TORSDOF 9
ENDMDL
MODEL 8
REMARK minimizedAffinity -9.328269
REMARK CNNscore 0.319166362
REMARK CNNaffinity 7.10975266
REMARK  9 active torsions:
REMARK  status: ('A' for Active; 'I' for Inactive)
REMARK    1  A    between atoms: C3_3  and  O1_4 
REMARK    2  A    between atoms: N1_14  and  O2_16 
REMARK    3  A    between atoms: O2_16  and  C13_17 
REMARK    4  A    between atoms: C13_17  and  C14_18 
REMARK       I    between atoms: C14_18  and  N2_20 
REMARK    5  A    between atoms: N2_20  and  C15_21 
REMARK    6  A    between atoms: C15_21  and  C16_22 
REMARK    7  A    between atoms: C15_21  and  C18_26 
REMARK    8  A    between atoms: C16_22  and  C17_23 
REMARK    9  A    between atoms: C17_23  and  O5_25 
ROOT
HETATM    1  C1  UNL     1      -4.601  52.760 -24.773  1.00  0.00     0.015 C 
HETATM    2  C2  UNL     1      -4.561  51.584 -24.526  1.00  0.00    -0.078 C 
HETATM    3  C3  UNL     1      -4.569  50.133 -24.247  1.00  0.00     0.128 C 
HETATM    4  C4  UNL     1      -5.805  49.770 -23.420  1.00  0.00     0.052 C 
HETATM    5  C5  UNL     1      -5.392  49.996 -21.967  1.00  0.00     0.010 C 
HETATM    6  C6  UNL     1      -3.838  49.981 -21.912  1.00  0.00     0.002 C 
HETATM    7  C7  UNL     1      -3.288  51.313 -21.338  1.00  0.00    -0.004 C 
HETATM    8  C8  UNL     1      -3.608  51.464 -19.833  1.00  0.00     0.010 C 
HETATM    9  C9  UNL     1      -2.624  50.740 -18.917  1.00  0.00     0.035 C 
HETATM   10  C10 UNL     1      -1.232  51.224 -19.234  1.00  0.00    -0.069 C 
HETATM   11  C11 UNL     1      -0.561  51.959 -18.329  1.00  0.00     0.030 C 
HETATM   12  C12 UNL     1       0.708  52.644 -18.704  1.00  0.00     0.032 C 
HETATM   13  N1  UNL     1       1.593  53.128 -17.887  1.00  0.00    -0.271 N 
ATOM     14  H1  UNL     1       2.449  53.599 -18.183  1.00  0.00     0.194 HD
HETATM   15  C25 UNL     1       0.946  52.820 -20.185  1.00  0.00     0.060 C 
HETATM   16  C26 UNL     1       0.702  51.487 -20.868  1.00  0.00     0.020 C 
HETATM   17  C27 UNL     1      -0.744  50.927 -20.661  1.00  0.00    -0.016 C 
HETATM   18  C28 UNL     1      -0.598  49.400 -20.841  1.00  0.00     0.020 C 
HETATM   19  C29 UNL     1      -1.785  51.598 -21.641  1.00  0.00     0.002 C 
HETATM   20  C30 UNL     1      -1.538  51.450 -23.151  1.00  0.00     0.007 C 
HETATM   21  C31 UNL     1      -1.995  50.136 -23.771  1.00  0.00     0.014 C 
HETATM   22  C32 UNL     1      -3.390  49.617 -23.357  1.00  0.00     0.003 C 
HETATM   23  C33 UNL     1      -3.302  48.059 -23.463  1.00  0.00     0.020 C 
ENDROOT
BRANCH   3  24
HETATM   24  O1  UNL     1      -4.628  49.447 -25.492  1.00  0.00    -0.377 OA
HETATM   25  H2  UNL     1      -3.990  49.880 -26.086  1.00  0.00     0.211 HD
ENDBRANCH   3  24
BRANCH  13  26
HETATM   26  O2  UNL     1       1.228  52.922 -16.546  1.00  0.00    -0.271 OA
BRANCH  26  27
HETATM   27  C13 UNL     1       2.138  52.016 -15.951  1.00  0.00     0.303 C 
BRANCH  27  28
HETATM   28  C14 UNL     1       1.656  51.417 -14.627  1.00  0.00     0.244 C 
HETATM   29  O3  UNL     1       1.765  50.235 -14.316  1.00  0.00    -0.271 OA
HETATM   30  N2  UNL     1       1.075  52.362 -13.787  1.00  0.00    -0.354 N 
HETATM   31  H16 UNL     1       1.189  53.339 -14.028  1.00  0.00     0.162 HD
BRANCH  30  32
HETATM   32  C15 UNL     1       0.597  52.014 -12.448  1.00  0.00     0.098 C 
BRANCH  32  33
HETATM   33  C16 UNL     1       1.113  53.011 -11.396  1.00  0.00     0.135 C 
BRANCH  33  34
HETATM   34  C17 UNL     1       2.598  52.929 -11.188  1.00  0.00     0.141 C 
HETATM   35  O4  UNL     1       3.184  52.047 -10.582  1.00  0.00    -0.650 OA
BRANCH  34  36
HETATM   36  O5  UNL     1       3.276  53.900 -11.824  1.00  0.00    -0.776 OA
HETATM   37  H20 UNL     1       4.197  53.786 -11.511  1.00  0.00     0.167 HD
ENDBRANCH  34  36
ENDBRANCH  33  34
ENDBRANCH  32  33
BRANCH  32  38
HETATM   38  C18 UNL     1      -0.950  51.915 -12.404  1.00  0.00     0.014 C 
HETATM   39  C19 UNL     1      -1.504  50.488 -12.415  1.00  0.00     0.033 C 
HETATM   40  C20 UNL     1      -3.029  50.498 -12.503  1.00  0.00     0.169 C 
HETATM   41  O6  UNL     1      -3.608  51.751 -12.148  1.00  0.00    -0.381 OA
HETATM   42  C21 UNL     1      -3.050  52.394 -10.995  1.00  0.00     0.054 C 
HETATM   43  C22 UNL     1      -3.808  53.724 -10.850  1.00  0.00     0.045 C 
HETATM   44  C23 UNL     1      -3.308  51.550  -9.737  1.00  0.00     0.045 C 
HETATM   45  C24 UNL     1      -1.542  52.674 -11.200  1.00  0.00     0.044 C 
ENDBRANCH  32  38
ENDBRANCH  30  32
ENDBRANCH  27  28
ENDBRANCH  26  27
ENDBRANCH  13  26
TORSDOF 9
ENDMDL
MODEL 9
REMARK minimizedAffinity -8.31133556
REMARK CNNscore 0.317070216
REMARK CNNaffinity 6.02660561
REMARK  9 active torsions:
REMARK  status: ('A' for Active; 'I' for Inactive)
REMARK    1  A    between atoms: C3_3  and  O1_4 
REMARK    2  A    between atoms: N1_14  and  O2_16 
REMARK    3  A    between atoms: O2_16  and  C13_17 
REMARK    4  A    between atoms: C13_17  and  C14_18 
REMARK       I    between atoms: C14_18  and  N2_20 
REMARK    5  A    between atoms: N2_20  and  C15_21 
REMARK    6  A    between atoms: C15_21  and  C16_22 
REMARK    7  A    between atoms: C15_21  and  C18_26 
REMARK    8  A    between atoms: C16_22  and  C17_23 
REMARK    9  A    between atoms: C17_23  and  O5_25 
ROOT
HETATM    1  C1  UNL     1      -0.727  50.332 -21.446  1.00  0.00     0.015 C 
HETATM    2  C2  UNL     1      -1.217  50.572 -22.517  1.00  0.00    -0.078 C 
HETATM    3  C3  UNL     1      -1.783  50.917 -23.838  1.00  0.00     0.128 C 
HETATM    4  C4  UNL     1      -2.310  52.354 -23.819  1.00  0.00     0.052 C 
HETATM    5  C5  UNL     1      -3.740  52.245 -23.292  1.00  0.00     0.010 C 
HETATM    6  C6  UNL     1      -4.205  50.776 -23.494  1.00  0.00     0.002 C 
HETATM    7  C7  UNL     1      -4.611  50.129 -22.145  1.00  0.00    -0.004 C 
HETATM    8  C8  UNL     1      -5.912  50.747 -21.581  1.00  0.00     0.010 C 
HETATM    9  C9  UNL     1      -7.186  50.151 -22.175  1.00  0.00     0.035 C 
HETATM   10  C10 UNL     1      -7.154  48.658 -21.971  1.00  0.00    -0.069 C 
HETATM   11  C11 UNL     1      -8.030  48.083 -21.127  1.00  0.00     0.030 C 
HETATM   12  C12 UNL     1      -7.869  46.657 -20.728  1.00  0.00     0.032 C 
HETATM   13  N1  UNL     1      -8.771  45.904 -20.175  1.00  0.00    -0.271 N 
ATOM     14  H1  UNL     1      -8.620  44.931 -19.908  1.00  0.00     0.194 HD
HETATM   15  C25 UNL     1      -6.502  46.060 -20.962  1.00  0.00     0.060 C 
HETATM   16  C26 UNL     1      -6.073  46.390 -22.380  1.00  0.00     0.020 C 
HETATM   17  C27 UNL     1      -6.003  47.925 -22.677  1.00  0.00    -0.016 C 
HETATM   18  C28 UNL     1      -6.193  48.033 -24.205  1.00  0.00     0.020 C 
HETATM   19  C29 UNL     1      -4.664  48.571 -22.142  1.00  0.00     0.002 C 
HETATM   20  C30 UNL     1      -3.340  48.020 -22.695  1.00  0.00     0.007 C 
HETATM   21  C31 UNL     1      -2.910  48.565 -24.051  1.00  0.00     0.014 C 
HETATM   22  C32 UNL     1      -3.040  50.089 -24.264  1.00  0.00     0.003 C 
HETATM   23  C33 UNL     1      -3.291  50.275 -25.797  1.00  0.00     0.020 C 
ENDROOT
BRANCH   3  24
HETATM   24  O1  UNL     1      -0.739  50.821 -24.801  1.00  0.00    -0.377 OA
HETATM   25  H2  UNL     1      -0.258  49.995 -24.617  1.00  0.00     0.211 HD
ENDBRANCH   3  24
BRANCH  13  26
HETATM   26  O2  UNL     1      -9.979  46.596 -19.989  1.00  0.00    -0.271 OA
BRANCH  26  27
HETATM   27  C13 UNL     1     -10.979  46.009 -20.801  1.00  0.00     0.303 C 
BRANCH  27  28
HETATM   28  C14 UNL     1     -12.207  45.515 -20.030  1.00  0.00     0.244 C 
HETATM   29  O3  UNL     1     -12.343  44.376 -19.594  1.00  0.00    -0.271 OA
HETATM   30  N2  UNL     1     -13.172  46.502 -19.863  1.00  0.00    -0.354 N 
HETATM   31  H16 UNL     1     -12.913  47.456 -20.082  1.00  0.00     0.162 HD
BRANCH  30  32
HETATM   32  C15 UNL     1     -14.402  46.259 -19.106  1.00  0.00     0.098 C 
BRANCH  32  33
HETATM   33  C16 UNL     1     -14.442  47.104 -17.821  1.00  0.00     0.135 C 
BRANCH  33  34
HETATM   34  C17 UNL     1     -14.016  46.337 -16.602  1.00  0.00     0.141 C 
HETATM   35  O4  UNL     1     -14.312  46.610 -15.450  1.00  0.00    -0.650 OA
BRANCH  34  36
HETATM   36  O5  UNL     1     -13.321  45.224 -16.893  1.00  0.00    -0.776 OA
HETATM   37  H20 UNL     1     -13.021  44.899 -16.019  1.00  0.00     0.167 HD
ENDBRANCH  34  36
ENDBRANCH  33  34
ENDBRANCH  32  33
BRANCH  32  38
HETATM   38  C18 UNL     1     -15.663  46.511 -19.973  1.00  0.00     0.014 C 
HETATM   39  C19 UNL     1     -15.835  45.552 -21.154  1.00  0.00     0.033 C 
HETATM   40  C20 UNL     1     -17.026  45.963 -22.018  1.00  0.00     0.169 C 
HETATM   41  O6  UNL     1     -17.930  46.841 -21.353  1.00  0.00    -0.381 OA
HETATM   42  C21 UNL     1     -18.237  46.512 -19.993  1.00  0.00     0.054 C 
HETATM   43  C22 UNL     1     -19.185  47.616 -19.498  1.00  0.00     0.045 C 
HETATM   44  C23 UNL     1     -18.980  45.169 -19.924  1.00  0.00     0.045 C 
HETATM   45  C24 UNL     1     -16.953  46.503 -19.128  1.00  0.00     0.044 C 
ENDBRANCH  32  38
ENDBRANCH  30  32
ENDBRANCH  27  28
ENDBRANCH  26  27
ENDBRANCH  13  26
TORSDOF 9
ENDMDL
