MODEL 1
REMARK minimizedAffinity -7.7670331
REMARK CNNscore 0.384939164
REMARK CNNaffinity 6.67962313
REMARK  13 active torsions:
REMARK  status: ('A' for Active; 'I' for Inactive)
REMARK    1  A    between atoms: C3_3  and  O1_4 
REMARK    2  A    between atoms: N1_14  and  O2_16 
REMARK    3  A    between atoms: O2_16  and  C13_17 
REMARK    4  A    between atoms: C13_17  and  C14_18 
REMARK       I    between atoms: C14_18  and  N2_20 
REMARK    5  A    between atoms: N2_20  and  C15_21 
REMARK    6  A    between atoms: C15_21  and  C16_22 
REMARK    7  A    between atoms: C15_21  and  C21_32 
REMARK       I    between atoms: C16_22  and  N3_24 
REMARK    8  A    between atoms: N3_24  and  C17_25 
REMARK    9  A    between atoms: C17_25  and  C18_26 
REMARK   10  A    between atoms: C17_25  and  C19_28 
REMARK   11  A    between atoms: C18_26  and  S1_27 
REMARK   12  A    between atoms: C19_28  and  C20_29 
REMARK   13  A    between atoms: C20_29  and  O6_31 
ROOT
HETATM    1  C1  UNL     1      -8.011   6.062  12.789  1.00  0.00     0.015 C 
HETATM    2  C2  UNL     1      -7.039   6.094  13.494  1.00  0.00    -0.078 C 
HETATM    3  C3  UNL     1      -5.855   6.114  14.366  1.00  0.00     0.128 C 
HETATM    4  C4  UNL     1      -4.746   5.149  13.871  1.00  0.00     0.052 C 
HETATM    5  C5  UNL     1      -3.400   5.789  14.272  1.00  0.00     0.010 C 
HETATM    6  C6  UNL     1      -3.792   7.010  15.100  1.00  0.00     0.002 C 
HETATM    7  C7  UNL     1      -2.746   8.092  15.406  1.00  0.00    -0.004 C 
HETATM    8  C8  UNL     1      -1.928   8.583  14.196  1.00  0.00     0.010 C 
HETATM    9  C9  UNL     1      -1.593  10.070  14.231  1.00  0.00     0.035 C 
HETATM   10  C10 UNL     1      -1.243  10.468  15.634  1.00  0.00    -0.069 C 
HETATM   11  C11 UNL     1       0.012  10.839  15.953  1.00  0.00     0.030 C 
HETATM   12  C12 UNL     1       0.391  11.178  17.349  1.00  0.00     0.032 C 
HETATM   13  N1  UNL     1       1.577  11.678  17.556  1.00  0.00    -0.271 N 
ATOM     14  H1  UNL     1       2.282  11.815  16.832  1.00  0.00     0.194 HD
HETATM   15  C24 UNL     1      -0.625  10.942  18.453  1.00  0.00     0.060 C 
HETATM   16  C25 UNL     1      -1.748  10.004  18.022  1.00  0.00     0.020 C 
HETATM   17  C26 UNL     1      -2.377  10.368  16.649  1.00  0.00    -0.016 C 
HETATM   18  C27 UNL     1      -3.053  11.753  16.755  1.00  0.00     0.020 C 
HETATM   19  C28 UNL     1      -3.405   9.221  16.268  1.00  0.00     0.002 C 
HETATM   20  C29 UNL     1      -4.763   9.693  15.683  1.00  0.00     0.007 C 
HETATM   21  C30 UNL     1      -5.737   8.533  15.401  1.00  0.00     0.014 C 
HETATM   22  C31 UNL     1      -5.120   7.489  14.456  1.00  0.00     0.003 C 
HETATM   23  C32 UNL     1      -4.974   8.114  13.044  1.00  0.00     0.020 C 
ENDROOT
BRANCH   3  24
HETATM   24  O1  UNL     1      -6.260   5.683  15.667  1.00  0.00    -0.377 OA
HETATM   25  H2  UNL     1      -6.748   4.849  15.551  1.00  0.00     0.211 HD
ENDBRANCH   3  24
BRANCH  13  26
HETATM   26  O2  UNL     1       1.750  12.002  18.912  1.00  0.00    -0.271 OA
BRANCH  26  27
HETATM   27  C13 UNL     1       2.919  12.793  19.061  1.00  0.00     0.303 C 
BRANCH  27  28
HETATM   28  C14 UNL     1       3.993  11.991  19.785  1.00  0.00     0.244 C 
HETATM   29  O3  UNL     1       4.735  11.173  19.243  1.00  0.00    -0.271 OA
HETATM   30  N2  UNL     1       4.085  12.263  21.138  1.00  0.00    -0.346 N 
HETATM   31  H16 UNL     1       3.717  13.144  21.476  1.00  0.00     0.163 HD
BRANCH  30  32
HETATM   32  C15 UNL     1       5.032  11.546  22.003  1.00  0.00     0.180 C 
BRANCH  32  33
HETATM   33  C16 UNL     1       5.956  12.603  22.661  1.00  0.00     0.241 C 
HETATM   34  O4  UNL     1       5.557  13.683  23.095  1.00  0.00    -0.271 OA
HETATM   35  N3  UNL     1       7.284  12.224  22.706  1.00  0.00    -0.353 N 
HETATM   36  H18 UNL     1       7.542  11.411  22.143  1.00  0.00     0.163 HD
BRANCH  35  37
HETATM   37  C17 UNL     1       8.347  13.133  23.146  1.00  0.00     0.103 C 
BRANCH  37  38
HETATM   38  C18 UNL     1       7.819  14.575  23.341  1.00  0.00     0.096 C 
BRANCH  38  39
HETATM   39  S1  UNL     1       8.854  15.864  22.561  1.00  0.00    -0.180 SA
HETATM   40  H22 UNL     1       8.081  16.905  22.907  1.00  0.00     0.101 HD
ENDBRANCH  38  39
ENDBRANCH  37  38
BRANCH  37  41
HETATM   41  C19 UNL     1       9.537  13.033  22.181  1.00  0.00     0.136 C 
BRANCH  41  42
HETATM   42  C20 UNL     1       9.172  12.313  20.913  1.00  0.00     0.141 C 
HETATM   43  O5  UNL     1       9.560  11.215  20.552  1.00  0.00    -0.650 OA
BRANCH  42  44
HETATM   44  O6  UNL     1       8.298  13.012  20.165  1.00  0.00    -0.776 OA
HETATM   45  H25 UNL     1       8.126  12.440  19.387  1.00  0.00     0.167 HD
ENDBRANCH  42  44
ENDBRANCH  41  42
ENDBRANCH  37  41
ENDBRANCH  35  37
ENDBRANCH  32  33
BRANCH  32  46
HETATM   46  C21 UNL     1       4.284  10.678  23.043  1.00  0.00     0.009 C 
HETATM   47  C22 UNL     1       2.966  11.333  23.482  1.00  0.00     0.012 C 
HETATM   48  C23 UNL     1       3.971   9.286  22.481  1.00  0.00     0.012 C 
ENDBRANCH  32  46
ENDBRANCH  30  32
ENDBRANCH  27  28
ENDBRANCH  26  27
ENDBRANCH  13  26
TORSDOF 13
ENDMDL
MODEL 2
REMARK minimizedAffinity -7.16601753
REMARK CNNscore 0.384304851
REMARK CNNaffinity 6.03068113
REMARK  13 active torsions:
REMARK  status: ('A' for Active; 'I' for Inactive)
REMARK    1  A    between atoms: C3_3  and  O1_4 
REMARK    2  A    between atoms: N1_14  and  O2_16 
REMARK    3  A    between atoms: O2_16  and  C13_17 
REMARK    4  A    between atoms: C13_17  and  C14_18 
REMARK       I    between atoms: C14_18  and  N2_20 
REMARK    5  A    between atoms: N2_20  and  C15_21 
REMARK    6  A    between atoms: C15_21  and  C16_22 
REMARK    7  A    between atoms: C15_21  and  C21_32 
REMARK       I    between atoms: C16_22  and  N3_24 
REMARK    8  A    between atoms: N3_24  and  C17_25 
REMARK    9  A    between atoms: C17_25  and  C18_26 
REMARK   10  A    between atoms: C17_25  and  C19_28 
REMARK   11  A    between atoms: C18_26  and  S1_27 
REMARK   12  A    between atoms: C19_28  and  C20_29 
REMARK   13  A    between atoms: C20_29  and  O6_31 
ROOT
HETATM    1  C1  UNL     1      -1.901 -13.409   6.935  1.00  0.00     0.015 C 
HETATM    2  C2  UNL     1      -2.555 -12.582   6.359  1.00  0.00    -0.078 C 
HETATM    3  C3  UNL     1      -3.358 -11.560   5.672  1.00  0.00     0.128 C 
HETATM    4  C4  UNL     1      -2.592 -10.221   5.511  1.00  0.00     0.052 C 
HETATM    5  C5  UNL     1      -3.095  -9.585   4.198  1.00  0.00     0.010 C 
HETATM    6  C6  UNL     1      -4.223 -10.505   3.739  1.00  0.00     0.002 C 
HETATM    7  C7  UNL     1      -4.760 -10.397   2.304  1.00  0.00    -0.004 C 
HETATM    8  C8  UNL     1      -3.689 -10.372   1.197  1.00  0.00     0.010 C 
HETATM    9  C9  UNL     1      -4.094 -11.100  -0.080  1.00  0.00     0.035 C 
HETATM   10  C10 UNL     1      -5.538 -10.825  -0.373  1.00  0.00    -0.069 C 
HETATM   11  C11 UNL     1      -5.897 -10.093  -1.447  1.00  0.00     0.030 C 
HETATM   12  C12 UNL     1      -7.318  -9.758  -1.719  1.00  0.00     0.032 C 
HETATM   13  N1  UNL     1      -7.604  -9.186  -2.855  1.00  0.00    -0.271 N 
ATOM     14  H1  UNL     1      -6.915  -8.911  -3.555  1.00  0.00     0.194 HD
HETATM   15  C24 UNL     1      -8.360 -10.116  -0.673  1.00  0.00     0.060 C 
HETATM   16  C25 UNL     1      -7.742 -10.400   0.692  1.00  0.00     0.020 C 
HETATM   17  C26 UNL     1      -6.533 -11.374   0.644  1.00  0.00    -0.016 C 
HETATM   18  C27 UNL     1      -7.018 -12.755   0.145  1.00  0.00     0.020 C 
HETATM   19  C28 UNL     1      -5.907 -11.442   2.099  1.00  0.00     0.002 C 
HETATM   20  C29 UNL     1      -5.514 -12.857   2.604  1.00  0.00     0.007 C 
HETATM   21  C30 UNL     1      -4.978 -12.856   4.048  1.00  0.00     0.014 C 
HETATM   22  C31 UNL     1      -3.774 -11.914   4.208  1.00  0.00     0.003 C 
HETATM   23  C32 UNL     1      -2.566 -12.506   3.436  1.00  0.00     0.020 C 
ENDROOT
BRANCH   3  24
HETATM   24  O1  UNL     1      -4.518 -11.305   6.468  1.00  0.00    -0.377 OA
HETATM   25  H2  UNL     1      -4.209 -11.134   7.375  1.00  0.00     0.211 HD
ENDBRANCH   3  24
BRANCH  13  26
HETATM   26  O2  UNL     1      -8.991  -8.998  -2.982  1.00  0.00    -0.271 OA
BRANCH  26  27
HETATM   27  C13 UNL     1      -9.334  -7.702  -2.515  1.00  0.00     0.303 C 
BRANCH  27  28
HETATM   28  C14 UNL     1     -10.458  -7.130  -3.371  1.00  0.00     0.244 C 
HETATM   29  O3  UNL     1     -11.644  -7.436  -3.257  1.00  0.00    -0.271 OA
HETATM   30  N2  UNL     1     -10.038  -6.205  -4.309  1.00  0.00    -0.346 N 
HETATM   31  H16 UNL     1      -9.152  -5.738  -4.158  1.00  0.00     0.163 HD
BRANCH  30  32
HETATM   32  C15 UNL     1     -10.979  -5.588  -5.254  1.00  0.00     0.180 C 
BRANCH  32  33
HETATM   33  C16 UNL     1     -10.813  -4.050  -5.141  1.00  0.00     0.241 C 
HETATM   34  O4  UNL     1     -11.699  -3.295  -4.746  1.00  0.00    -0.271 OA
HETATM   35  N3  UNL     1      -9.569  -3.598  -5.539  1.00  0.00    -0.353 N 
HETATM   36  H18 UNL     1      -8.982  -4.270  -6.038  1.00  0.00     0.163 HD
BRANCH  35  37
HETATM   37  C17 UNL     1      -9.250  -2.173  -5.657  1.00  0.00     0.103 C 
BRANCH  37  38
HETATM   38  C18 UNL     1     -10.531  -1.309  -5.760  1.00  0.00     0.096 C 
BRANCH  38  39
HETATM   39  S1  UNL     1     -10.738  -0.111  -4.395  1.00  0.00    -0.180 SA
HETATM   40  H22 UNL     1     -11.878   0.435  -4.848  1.00  0.00     0.101 HD
ENDBRANCH  38  39
ENDBRANCH  37  38
BRANCH  37  41
HETATM   41  C19 UNL     1      -8.266  -1.963  -6.817  1.00  0.00     0.136 C 
BRANCH  41  42
HETATM   42  C20 UNL     1      -7.007  -1.276  -6.368  1.00  0.00     0.141 C 
HETATM   43  O5  UNL     1      -6.768  -0.081  -6.401  1.00  0.00    -0.650 OA
BRANCH  42  44
HETATM   44  O6  UNL     1      -6.108  -2.141  -5.863  1.00  0.00    -0.776 OA
HETATM   45  H25 UNL     1      -5.351  -1.581  -5.592  1.00  0.00     0.167 HD
ENDBRANCH  42  44
ENDBRANCH  41  42
ENDBRANCH  37  41
ENDBRANCH  35  37
ENDBRANCH  32  33
BRANCH  32  46
HETATM   46  C21 UNL     1     -10.741  -6.108  -6.692  1.00  0.00     0.009 C 
HETATM   47  C22 UNL     1     -10.575  -7.634  -6.720  1.00  0.00     0.012 C 
HETATM   48  C23 UNL     1     -11.903  -5.728  -7.617  1.00  0.00     0.012 C 
ENDBRANCH  32  46
ENDBRANCH  30  32
ENDBRANCH  27  28
ENDBRANCH  26  27
ENDBRANCH  13  26
TORSDOF 13
ENDMDL
MODEL 3
REMARK minimizedAffinity -8.56432724
REMARK CNNscore 0.353166461
REMARK CNNaffinity 6.46745062
REMARK  13 active torsions:
REMARK  status: ('A' for Active; 'I' for Inactive)
REMARK    1  A    between atoms: C3_3  and  O1_4 
REMARK    2  A    between atoms: N1_14  and  O2_16 
REMARK    3  A    between atoms: O2_16  and  C13_17 
REMARK    4  A    between atoms: C13_17  and  C14_18 
REMARK       I    between atoms: C14_18  and  N2_20 
REMARK    5  A    between atoms: N2_20  and  C15_21 
REMARK    6  A    between atoms: C15_21  and  C16_22 
REMARK    7  A    between atoms: C15_21  and  C21_32 
REMARK       I    between atoms: C16_22  and  N3_24 
REMARK    8  A    between atoms: N3_24  and  C17_25 
REMARK    9  A    between atoms: C17_25  and  C18_26 
REMARK   10  A    between atoms: C17_25  and  C19_28 
REMARK   11  A    between atoms: C18_26  and  S1_27 
REMARK   12  A    between atoms: C19_28  and  C20_29 
REMARK   13  A    between atoms: C20_29  and  O6_31 
ROOT
HETATM    1  C1  UNL     1       2.724   5.500   6.625  1.00  0.00     0.015 C 
HETATM    2  C2  UNL     1       2.396   6.422   7.321  1.00  0.00    -0.078 C 
HETATM    3  C3  UNL     1       1.993   7.563   8.156  1.00  0.00     0.128 C 
HETATM    4  C4  UNL     1       0.485   7.896   8.007  1.00  0.00     0.052 C 
HETATM    5  C5  UNL     1       0.023   8.449   9.372  1.00  0.00     0.010 C 
HETATM    6  C6  UNL     1       1.304   8.545  10.196  1.00  0.00     0.002 C 
HETATM    7  C7  UNL     1       1.222   8.741  11.717  1.00  0.00    -0.004 C 
HETATM    8  C8  UNL     1       0.255   7.794  12.454  1.00  0.00     0.010 C 
HETATM    9  C9  UNL     1       0.740   7.359  13.832  1.00  0.00     0.035 C 
HETATM   10  C10 UNL     1       1.386   8.521  14.524  1.00  0.00    -0.069 C 
HETATM   11  C11 UNL     1       0.820   9.078  15.613  1.00  0.00     0.030 C 
HETATM   12  C12 UNL     1       1.413  10.268  16.274  1.00  0.00     0.032 C 
HETATM   13  N1  UNL     1       0.902  10.655  17.409  1.00  0.00    -0.271 N 
ATOM     14  H1  UNL     1       0.094  10.224  17.858  1.00  0.00     0.194 HD
HETATM   15  C24 UNL     1       2.590  10.958  15.605  1.00  0.00     0.060 C 
HETATM   16  C25 UNL     1       2.734  10.572  14.137  1.00  0.00     0.020 C 
HETATM   17  C26 UNL     1       2.667   9.041  13.880  1.00  0.00    -0.016 C 
HETATM   18  C27 UNL     1       3.867   8.360  14.576  1.00  0.00     0.020 C 
HETATM   19  C28 UNL     1       2.669   8.813  12.311  1.00  0.00     0.002 C 
HETATM   20  C29 UNL     1       3.576   7.665  11.792  1.00  0.00     0.007 C 
HETATM   21  C30 UNL     1       3.582   7.544  10.256  1.00  0.00     0.014 C 
HETATM   22  C31 UNL     1       2.164   7.355   9.695  1.00  0.00     0.003 C 
HETATM   23  C32 UNL     1       1.643   5.953  10.107  1.00  0.00     0.020 C 
ENDROOT
BRANCH   3  24
HETATM   24  O1  UNL     1       2.736   8.706   7.726  1.00  0.00    -0.377 OA
HETATM   25  H2  UNL     1       2.632   8.766   6.760  1.00  0.00     0.211 HD
ENDBRANCH   3  24
BRANCH  13  26
HETATM   26  O2  UNL     1       1.617  11.747  17.930  1.00  0.00    -0.271 OA
BRANCH  26  27
HETATM   27  C13 UNL     1       1.552  11.719  19.348  1.00  0.00     0.303 C 
BRANCH  27  28
HETATM   28  C14 UNL     1       2.791  11.028  19.904  1.00  0.00     0.244 C 
HETATM   29  O3  UNL     1       2.982   9.814  19.878  1.00  0.00    -0.271 OA
HETATM   30  N2  UNL     1       3.722  11.894  20.449  1.00  0.00    -0.346 N 
HETATM   31  H16 UNL     1       3.700  12.865  20.162  1.00  0.00     0.163 HD
BRANCH  30  32
HETATM   32  C15 UNL     1       4.956  11.399  21.076  1.00  0.00     0.180 C 
BRANCH  32  33
HETATM   33  C16 UNL     1       6.144  12.162  20.435  1.00  0.00     0.241 C 
HETATM   34  O4  UNL     1       6.019  12.975  19.521  1.00  0.00    -0.271 OA
HETATM   35  N3  UNL     1       7.370  11.833  20.980  1.00  0.00    -0.353 N 
HETATM   36  H18 UNL     1       7.390  11.008  21.584  1.00  0.00     0.163 HD
BRANCH  35  37
HETATM   37  C17 UNL     1       8.635  12.320  20.423  1.00  0.00     0.103 C 
BRANCH  37  38
HETATM   38  C18 UNL     1       9.250  11.302  19.432  1.00  0.00     0.096 C 
BRANCH  38  39
HETATM   39  S1  UNL     1      11.063  11.440  19.243  1.00  0.00    -0.180 SA
HETATM   40  H22 UNL     1      11.201  10.421  18.381  1.00  0.00     0.101 HD
ENDBRANCH  38  39
ENDBRANCH  37  38
BRANCH  37  41
HETATM   41  C19 UNL     1       9.578  12.718  21.568  1.00  0.00     0.136 C 
BRANCH  41  42
HETATM   42  C20 UNL     1       9.000  12.385  22.914  1.00  0.00     0.141 C 
HETATM   43  O5  UNL     1       8.805  11.274  23.378  1.00  0.00    -0.650 OA
BRANCH  42  44
HETATM   44  O6  UNL     1       8.719  13.487  23.634  1.00  0.00    -0.776 OA
HETATM   45  H25 UNL     1       8.372  13.146  24.484  1.00  0.00     0.167 HD
ENDBRANCH  42  44
ENDBRANCH  41  42
ENDBRANCH  37  41
ENDBRANCH  35  37
ENDBRANCH  32  33
BRANCH  32  46
HETATM   46  C21 UNL     1       4.901  11.567  22.614  1.00  0.00     0.009 C 
HETATM   47  C22 UNL     1       4.177  12.860  23.015  1.00  0.00     0.012 C 
HETATM   48  C23 UNL     1       4.184  10.383  23.274  1.00  0.00     0.012 C 
ENDBRANCH  32  46
ENDBRANCH  30  32
ENDBRANCH  27  28
ENDBRANCH  26  27
ENDBRANCH  13  26
TORSDOF 13
ENDMDL
MODEL 4
REMARK minimizedAffinity -7.46082497
REMARK CNNscore 0.298897833
REMARK CNNaffinity 6.66054678
REMARK  13 active torsions:
REMARK  status: ('A' for Active; 'I' for Inactive)
REMARK    1  A    between atoms: C3_3  and  O1_4 
REMARK    2  A    between atoms: N1_14  and  O2_16 
REMARK    3  A    between atoms: O2_16  and  C13_17 
REMARK    4  A    between atoms: C13_17  and  C14_18 
REMARK       I    between atoms: C14_18  and  N2_20 
REMARK    5  A    between atoms: N2_20  and  C15_21 
REMARK    6  A    between atoms: C15_21  and  C16_22 
REMARK    7  A    between atoms: C15_21  and  C21_32 
REMARK       I    between atoms: C16_22  and  N3_24 
REMARK    8  A    between atoms: N3_24  and  C17_25 
REMARK    9  A    between atoms: C17_25  and  C18_26 
REMARK   10  A    between atoms: C17_25  and  C19_28 
REMARK   11  A    between atoms: C18_26  and  S1_27 
REMARK   12  A    between atoms: C19_28  and  C20_29 
REMARK   13  A    between atoms: C20_29  and  O6_31 
ROOT
HETATM    1  C1  UNL     1      -7.851   7.931  14.787  1.00  0.00     0.015 C 
HETATM    2  C2  UNL     1      -6.788   7.372  14.805  1.00  0.00    -0.078 C 
HETATM    3  C3  UNL     1      -5.495   6.672  14.838  1.00  0.00     0.128 C 
HETATM    4  C4  UNL     1      -5.433   5.507  13.816  1.00  0.00     0.052 C 
HETATM    5  C5  UNL     1      -3.962   5.406  13.358  1.00  0.00     0.010 C 
HETATM    6  C6  UNL     1      -3.222   6.411  14.237  1.00  0.00     0.002 C 
HETATM    7  C7  UNL     1      -1.796   6.844  13.866  1.00  0.00    -0.004 C 
HETATM    8  C8  UNL     1      -1.592   7.260  12.396  1.00  0.00     0.010 C 
HETATM    9  C9  UNL     1      -0.609   8.409  12.203  1.00  0.00     0.035 C 
HETATM   10  C10 UNL     1       0.547   8.239  13.142  1.00  0.00    -0.069 C 
HETATM   11  C11 UNL     1       1.780   7.962  12.676  1.00  0.00     0.030 C 
HETATM   12  C12 UNL     1       2.924   7.730  13.594  1.00  0.00     0.032 C 
HETATM   13  N1  UNL     1       4.114   7.625  13.073  1.00  0.00    -0.271 N 
ATOM     14  H1  UNL     1       4.313   7.648  12.073  1.00  0.00     0.194 HD
HETATM   15  C24 UNL     1       2.651   7.647  15.086  1.00  0.00     0.060 C 
HETATM   16  C25 UNL     1       1.177   7.404  15.396  1.00  0.00     0.020 C 
HETATM   17  C26 UNL     1       0.210   8.346  14.626  1.00  0.00    -0.016 C 
HETATM   18  C27 UNL     1       0.463   9.803  15.074  1.00  0.00     0.020 C 
HETATM   19  C28 UNL     1      -1.272   7.869  14.927  1.00  0.00     0.002 C 
HETATM   20  C29 UNL     1      -2.301   8.994  15.219  1.00  0.00     0.007 C 
HETATM   21  C30 UNL     1      -3.702   8.457  15.570  1.00  0.00     0.014 C 
HETATM   22  C31 UNL     1      -4.256   7.545  14.463  1.00  0.00     0.003 C 
HETATM   23  C32 UNL     1      -4.566   8.407  13.211  1.00  0.00     0.020 C 
ENDROOT
BRANCH   3  24
HETATM   24  O1  UNL     1      -5.331   6.114  16.144  1.00  0.00    -0.377 OA
HETATM   25  H2  UNL     1      -6.144   5.618  16.346  1.00  0.00     0.211 HD
ENDBRANCH   3  24
BRANCH  13  26
HETATM   26  O2  UNL     1       5.086   7.474  14.077  1.00  0.00    -0.271 OA
BRANCH  26  27
HETATM   27  C13 UNL     1       6.308   7.054  13.490  1.00  0.00     0.303 C 
BRANCH  27  28
HETATM   28  C14 UNL     1       7.422   8.018  13.881  1.00  0.00     0.244 C 
HETATM   29  O3  UNL     1       7.657   9.080  13.306  1.00  0.00    -0.271 OA
HETATM   30  N2  UNL     1       8.168   7.606  14.970  1.00  0.00    -0.346 N 
HETATM   31  H16 UNL     1       7.756   6.934  15.607  1.00  0.00     0.163 HD
BRANCH  30  32
HETATM   32  C15 UNL     1       9.314   8.387  15.456  1.00  0.00     0.180 C 
BRANCH  32  33
HETATM   33  C16 UNL     1      10.240   8.662  14.243  1.00  0.00     0.241 C 
HETATM   34  O4  UNL     1      10.803   7.779  13.600  1.00  0.00    -0.271 OA
HETATM   35  N3  UNL     1      10.386  10.005  13.954  1.00  0.00    -0.353 N 
HETATM   36  H18 UNL     1      10.049  10.661  14.663  1.00  0.00     0.163 HD
BRANCH  35  37
HETATM   37  C17 UNL     1      11.332  10.496  12.947  1.00  0.00     0.103 C 
BRANCH  37  38
HETATM   38  C18 UNL     1      12.749  10.687  13.543  1.00  0.00     0.096 C 
BRANCH  38  39
HETATM   39  S1  UNL     1      13.140  12.411  14.007  1.00  0.00    -0.180 SA
HETATM   40  H22 UNL     1      14.368  12.160  14.489  1.00  0.00     0.101 HD
ENDBRANCH  38  39
ENDBRANCH  37  38
BRANCH  37  41
HETATM   41  C19 UNL     1      10.764  11.757  12.282  1.00  0.00     0.136 C 
BRANCH  41  42
HETATM   42  C20 UNL     1      11.071  11.805  10.813  1.00  0.00     0.141 C 
HETATM   43  O5  UNL     1      12.011  12.366  10.274  1.00  0.00    -0.650 OA
BRANCH  42  44
HETATM   44  O6  UNL     1      10.182  11.105  10.084  1.00  0.00    -0.776 OA
HETATM   45  H25 UNL     1      10.495  11.194   9.159  1.00  0.00     0.167 HD
ENDBRANCH  42  44
ENDBRANCH  41  42
ENDBRANCH  37  41
ENDBRANCH  35  37
ENDBRANCH  32  33
BRANCH  32  46
HETATM   46  C21 UNL     1       8.843   9.687  16.153  1.00  0.00     0.009 C 
HETATM   47  C22 UNL     1       7.385   9.580  16.621  1.00  0.00     0.012 C 
HETATM   48  C23 UNL     1       9.721  10.013  17.367  1.00  0.00     0.012 C 
ENDBRANCH  32  46
ENDBRANCH  30  32
ENDBRANCH  27  28
ENDBRANCH  26  27
ENDBRANCH  13  26
TORSDOF 13
ENDMDL
MODEL 5
REMARK minimizedAffinity -7.02925968
REMARK CNNscore 0.288148731
REMARK CNNaffinity 6.42238951
REMARK  13 active torsions:
REMARK  status: ('A' for Active; 'I' for Inactive)
REMARK    1  A    between atoms: C3_3  and  O1_4 
REMARK    2  A    between atoms: N1_14  and  O2_16 
REMARK    3  A    between atoms: O2_16  and  C13_17 
REMARK    4  A    between atoms: C13_17  and  C14_18 
REMARK       I    between atoms: C14_18  and  N2_20 
REMARK    5  A    between atoms: N2_20  and  C15_21 
REMARK    6  A    between atoms: C15_21  and  C16_22 
REMARK    7  A    between atoms: C15_21  and  C21_32 
REMARK       I    between atoms: C16_22  and  N3_24 
REMARK    8  A    between atoms: N3_24  and  C17_25 
REMARK    9  A    between atoms: C17_25  and  C18_26 
REMARK   10  A    between atoms: C17_25  and  C19_28 
REMARK   11  A    between atoms: C18_26  and  S1_27 
REMARK   12  A    between atoms: C19_28  and  C20_29 
REMARK   13  A    between atoms: C20_29  and  O6_31 
ROOT
HETATM    1  C1  UNL     1      -5.605   4.845  12.945  1.00  0.00     0.015 C 
HETATM    2  C2  UNL     1      -4.517   5.249  13.255  1.00  0.00    -0.078 C 
HETATM    3  C3  UNL     1      -3.177   5.724  13.634  1.00  0.00     0.128 C 
HETATM    4  C4  UNL     1      -2.203   5.755  12.428  1.00  0.00     0.052 C 
HETATM    5  C5  UNL     1      -1.229   6.925  12.683  1.00  0.00     0.010 C 
HETATM    6  C6  UNL     1      -1.589   7.419  14.082  1.00  0.00     0.002 C 
HETATM    7  C7  UNL     1      -1.068   8.780  14.568  1.00  0.00    -0.004 C 
HETATM    8  C8  UNL     1      -1.263   9.952  13.586  1.00  0.00     0.010 C 
HETATM    9  C9  UNL     1      -1.582  11.282  14.259  1.00  0.00     0.035 C 
HETATM   10  C10 UNL     1      -0.756  11.423  15.502  1.00  0.00    -0.069 C 
HETATM   11  C11 UNL     1       0.215  12.354  15.584  1.00  0.00     0.030 C 
HETATM   12  C12 UNL     1       1.084  12.467  16.783  1.00  0.00     0.032 C 
HETATM   13  N1  UNL     1       1.892  13.487  16.857  1.00  0.00    -0.271 N 
ATOM     14  H1  UNL     1       2.003  14.193  16.130  1.00  0.00     0.194 HD
HETATM   15  C24 UNL     1       0.971  11.405  17.863  1.00  0.00     0.060 C 
HETATM   16  C25 UNL     1       0.270  10.144  17.368  1.00  0.00     0.020 C 
HETATM   17  C26 UNL     1      -1.058  10.419  16.610  1.00  0.00    -0.016 C 
HETATM   18  C27 UNL     1      -2.069  11.066  17.583  1.00  0.00     0.020 C 
HETATM   19  C28 UNL     1      -1.577   9.040  16.026  1.00  0.00     0.002 C 
HETATM   20  C29 UNL     1      -3.098   8.768  16.177  1.00  0.00     0.007 C 
HETATM   21  C30 UNL     1      -3.521   7.383  15.651  1.00  0.00     0.014 C 
HETATM   22  C31 UNL     1      -3.120   7.186  14.180  1.00  0.00     0.003 C 
HETATM   23  C32 UNL     1      -3.982   8.124  13.294  1.00  0.00     0.020 C 
ENDROOT
BRANCH   3  24
HETATM   24  O1  UNL     1      -2.646   4.814  14.600  1.00  0.00    -0.377 OA
HETATM   25  H2  UNL     1      -2.745   3.918  14.231  1.00  0.00     0.211 HD
ENDBRANCH   3  24
BRANCH  13  26
HETATM   26  O2  UNL     1       2.590  13.480  18.077  1.00  0.00    -0.271 OA
BRANCH  26  27
HETATM   27  C13 UNL     1       3.936  13.092  17.846  1.00  0.00     0.303 C 
BRANCH  27  28
HETATM   28  C14 UNL     1       4.379  12.112  18.925  1.00  0.00     0.244 C 
HETATM   29  O3  UNL     1       4.968  11.054  18.706  1.00  0.00    -0.271 OA
HETATM   30  N2  UNL     1       4.072  12.513  20.213  1.00  0.00    -0.346 N 
HETATM   31  H16 UNL     1       3.906  13.498  20.381  1.00  0.00     0.163 HD
BRANCH  30  32
HETATM   32  C15 UNL     1       4.381  11.668  21.375  1.00  0.00     0.180 C 
BRANCH  32  33
HETATM   33  C16 UNL     1       5.731  12.155  21.961  1.00  0.00     0.241 C 
HETATM   34  O4  UNL     1       6.271  11.650  22.944  1.00  0.00    -0.271 OA
HETATM   35  N3  UNL     1       6.273  13.228  21.280  1.00  0.00    -0.353 N 
HETATM   36  H18 UNL     1       5.657  13.700  20.614  1.00  0.00     0.163 HD
BRANCH  35  37
HETATM   37  C17 UNL     1       7.463  13.941  21.753  1.00  0.00     0.103 C 
BRANCH  37  38
HETATM   38  C18 UNL     1       8.764  13.310  21.198  1.00  0.00     0.096 C 
BRANCH  38  39
HETATM   39  S1  UNL     1       8.495  12.094  19.860  1.00  0.00    -0.180 SA
HETATM   40  H22 UNL     1       9.792  11.825  19.640  1.00  0.00     0.101 HD
ENDBRANCH  38  39
ENDBRANCH  37  38
BRANCH  37  41
HETATM   41  C19 UNL     1       7.426  14.038  23.285  1.00  0.00     0.136 C 
BRANCH  41  42
HETATM   42  C20 UNL     1       8.105  15.280  23.786  1.00  0.00     0.141 C 
HETATM   43  O5  UNL     1       7.842  16.434  23.490  1.00  0.00    -0.650 OA
BRANCH  42  44
HETATM   44  O6  UNL     1       9.079  15.005  24.674  1.00  0.00    -0.776 OA
HETATM   45  H25 UNL     1       9.428  15.882  24.938  1.00  0.00     0.167 HD
ENDBRANCH  42  44
ENDBRANCH  41  42
ENDBRANCH  37  41
ENDBRANCH  35  37
ENDBRANCH  32  33
BRANCH  32  46
HETATM   46  C21 UNL     1       3.231  11.710  22.411  1.00  0.00     0.009 C 
HETATM   47  C22 UNL     1       3.305  10.526  23.384  1.00  0.00     0.012 C 
HETATM   48  C23 UNL     1       3.266  13.011  23.223  1.00  0.00     0.012 C 
ENDBRANCH  32  46
ENDBRANCH  30  32
ENDBRANCH  27  28
ENDBRANCH  26  27
ENDBRANCH  13  26
TORSDOF 13
ENDMDL
MODEL 6
REMARK minimizedAffinity -9.02346611
REMARK CNNscore 0.266647518
REMARK CNNaffinity 6.93955851
REMARK  13 active torsions:
REMARK  status: ('A' for Active; 'I' for Inactive)
REMARK    1  A    between atoms: C3_3  and  O1_4 
REMARK    2  A    between atoms: N1_14  and  O2_16 
REMARK    3  A    between atoms: O2_16  and  C13_17 
REMARK    4  A    between atoms: C13_17  and  C14_18 
REMARK       I    between atoms: C14_18  and  N2_20 
REMARK    5  A    between atoms: N2_20  and  C15_21 
REMARK    6  A    between atoms: C15_21  and  C16_22 
REMARK    7  A    between atoms: C15_21  and  C21_32 
REMARK       I    between atoms: C16_22  and  N3_24 
REMARK    8  A    between atoms: N3_24  and  C17_25 
REMARK    9  A    between atoms: C17_25  and  C18_26 
REMARK   10  A    between atoms: C17_25  and  C19_28 
REMARK   11  A    between atoms: C18_26  and  S1_27 
REMARK   12  A    between atoms: C19_28  and  C20_29 
REMARK   13  A    between atoms: C20_29  and  O6_31 
ROOT
HETATM    1  C1  UNL     1       2.686   5.721   6.803  1.00  0.00     0.015 C 
HETATM    2  C2  UNL     1       2.328   6.587   7.555  1.00  0.00    -0.078 C 
HETATM    3  C3  UNL     1       1.890   7.660   8.460  1.00  0.00     0.128 C 
HETATM    4  C4  UNL     1       0.390   8.009   8.274  1.00  0.00     0.052 C 
HETATM    5  C5  UNL     1      -0.130   8.454   9.657  1.00  0.00     0.010 C 
HETATM    6  C6  UNL     1       1.116   8.481  10.539  1.00  0.00     0.002 C 
HETATM    7  C7  UNL     1       0.969   8.557  12.066  1.00  0.00    -0.004 C 
HETATM    8  C8  UNL     1      -0.028   7.558  12.685  1.00  0.00     0.010 C 
HETATM    9  C9  UNL     1       0.397   7.014  14.044  1.00  0.00     0.035 C 
HETATM   10  C10 UNL     1       1.014   8.116  14.852  1.00  0.00    -0.069 C 
HETATM   11  C11 UNL     1       0.402   8.588  15.956  1.00  0.00     0.030 C 
HETATM   12  C12 UNL     1       0.966   9.720  16.733  1.00  0.00     0.032 C 
HETATM   13  N1  UNL     1       0.408  10.018  17.873  1.00  0.00    -0.271 N 
ATOM     14  H1  UNL     1      -0.419   9.555  18.251  1.00  0.00     0.194 HD
HETATM   15  C24 UNL     1       2.171  10.456  16.172  1.00  0.00     0.060 C 
HETATM   16  C25 UNL     1       2.377  10.186  14.685  1.00  0.00     0.020 C 
HETATM   17  C26 UNL     1       2.321   8.681  14.305  1.00  0.00    -0.016 C 
HETATM   18  C27 UNL     1       3.490   7.943  14.996  1.00  0.00     0.020 C 
HETATM   19  C28 UNL     1       2.389   8.577  12.725  1.00  0.00     0.002 C 
HETATM   20  C29 UNL     1       3.318   7.470  12.156  1.00  0.00     0.007 C 
HETATM   21  C30 UNL     1       3.389   7.471  10.617  1.00  0.00     0.014 C 
HETATM   22  C31 UNL     1       1.996   7.331   9.983  1.00  0.00     0.003 C 
HETATM   23  C32 UNL     1       1.458   5.903  10.261  1.00  0.00     0.020 C 
ENDROOT
BRANCH   3  24
HETATM   24  O1  UNL     1       2.651   8.831   8.153  1.00  0.00    -0.377 OA
HETATM   25  H2  UNL     1       2.588   8.967   7.191  1.00  0.00     0.211 HD
ENDBRANCH   3  24
BRANCH  13  26
HETATM   26  O2  UNL     1       1.099  11.064  18.508  1.00  0.00    -0.271 OA
BRANCH  26  27
HETATM   27  C13 UNL     1       0.669  11.161  19.857  1.00  0.00     0.303 C 
BRANCH  27  28
HETATM   28  C14 UNL     1       1.871  11.049  20.788  1.00  0.00     0.244 C 
HETATM   29  O3  UNL     1       2.251  11.941  21.544  1.00  0.00    -0.271 OA
HETATM   30  N2  UNL     1       2.520   9.829  20.727  1.00  0.00    -0.346 N 
HETATM   31  H16 UNL     1       2.008   9.031  20.370  1.00  0.00     0.163 HD
BRANCH  30  32
HETATM   32  C15 UNL     1       3.728   9.561  21.518  1.00  0.00     0.180 C 
BRANCH  32  33
HETATM   33  C16 UNL     1       4.585  10.855  21.515  1.00  0.00     0.241 C 
HETATM   34  O4  UNL     1       4.979  11.409  20.492  1.00  0.00    -0.271 OA
HETATM   35  N3  UNL     1       4.877  11.325  22.781  1.00  0.00    -0.353 N 
HETATM   36  H18 UNL     1       4.682  10.689  23.557  1.00  0.00     0.163 HD
BRANCH  35  37
HETATM   37  C17 UNL     1       5.797  12.443  23.012  1.00  0.00     0.103 C 
BRANCH  37  38
HETATM   38  C18 UNL     1       5.471  13.647  22.095  1.00  0.00     0.096 C 
BRANCH  38  39
HETATM   39  S1  UNL     1       5.272  15.233  22.982  1.00  0.00    -0.180 SA
HETATM   40  H22 UNL     1       5.050  15.986  21.894  1.00  0.00     0.101 HD
ENDBRANCH  38  39
ENDBRANCH  37  38
BRANCH  37  41
HETATM   41  C19 UNL     1       7.245  11.947  22.892  1.00  0.00     0.136 C 
BRANCH  41  42
HETATM   42  C20 UNL     1       8.207  13.074  22.647  1.00  0.00     0.141 C 
HETATM   43  O5  UNL     1       8.461  13.608  21.580  1.00  0.00    -0.650 OA
BRANCH  42  44
HETATM   44  O6  UNL     1       8.790  13.502  23.783  1.00  0.00    -0.776 OA
HETATM   45  H25 UNL     1       9.371  14.239  23.501  1.00  0.00     0.167 HD
ENDBRANCH  42  44
ENDBRANCH  41  42
ENDBRANCH  37  41
ENDBRANCH  35  37
ENDBRANCH  32  33
BRANCH  32  46
HETATM   46  C21 UNL     1       3.362   9.093  22.947  1.00  0.00     0.009 C 
HETATM   47  C22 UNL     1       3.067  10.282  23.873  1.00  0.00     0.012 C 
HETATM   48  C23 UNL     1       2.135   8.174  22.930  1.00  0.00     0.012 C 
ENDBRANCH  32  46
ENDBRANCH  30  32
ENDBRANCH  27  28
ENDBRANCH  26  27
ENDBRANCH  13  26
TORSDOF 13
ENDMDL
MODEL 7
REMARK minimizedAffinity -8.61504269
REMARK CNNscore 0.228659317
REMARK CNNaffinity 6.79192924
REMARK  13 active torsions:
REMARK  status: ('A' for Active; 'I' for Inactive)
REMARK    1  A    between atoms: C3_3  and  O1_4 
REMARK    2  A    between atoms: N1_14  and  O2_16 
REMARK    3  A    between atoms: O2_16  and  C13_17 
REMARK    4  A    between atoms: C13_17  and  C14_18 
REMARK       I    between atoms: C14_18  and  N2_20 
REMARK    5  A    between atoms: N2_20  and  C15_21 
REMARK    6  A    between atoms: C15_21  and  C16_22 
REMARK    7  A    between atoms: C15_21  and  C21_32 
REMARK       I    between atoms: C16_22  and  N3_24 
REMARK    8  A    between atoms: N3_24  and  C17_25 
REMARK    9  A    between atoms: C17_25  and  C18_26 
REMARK   10  A    between atoms: C17_25  and  C19_28 
REMARK   11  A    between atoms: C18_26  and  S1_27 
REMARK   12  A    between atoms: C19_28  and  C20_29 
REMARK   13  A    between atoms: C20_29  and  O6_31 
ROOT
HETATM    1  C1  UNL     1       4.175   8.338   9.744  1.00  0.00     0.015 C 
HETATM    2  C2  UNL     1       3.181   7.705   9.976  1.00  0.00    -0.078 C 
HETATM    3  C3  UNL     1       1.966   6.920  10.242  1.00  0.00     0.128 C 
HETATM    4  C4  UNL     1       2.289   5.455  10.638  1.00  0.00     0.052 C 
HETATM    5  C5  UNL     1       1.178   5.012  11.613  1.00  0.00     0.010 C 
HETATM    6  C6  UNL     1       0.194   6.179  11.623  1.00  0.00     0.002 C 
HETATM    7  C7  UNL     1      -0.878   6.264  12.719  1.00  0.00    -0.004 C 
HETATM    8  C8  UNL     1      -0.370   6.061  14.160  1.00  0.00     0.010 C 
HETATM    9  C9  UNL     1      -1.077   6.924  15.198  1.00  0.00     0.035 C 
HETATM   10  C10 UNL     1      -2.541   6.987  14.880  1.00  0.00    -0.069 C 
HETATM   11  C11 UNL     1      -3.449   6.407  15.690  1.00  0.00     0.030 C 
HETATM   12  C12 UNL     1      -4.897   6.406  15.359  1.00  0.00     0.032 C 
HETATM   13  N1  UNL     1      -5.729   5.968  16.261  1.00  0.00    -0.271 N 
ATOM     14  H1  UNL     1      -5.455   5.585  17.166  1.00  0.00     0.194 HD
HETATM   15  C24 UNL     1      -5.330   6.930  14.001  1.00  0.00     0.060 C 
HETATM   16  C25 UNL     1      -4.174   7.003  13.008  1.00  0.00     0.020 C 
HETATM   17  C26 UNL     1      -2.901   7.690  13.575  1.00  0.00    -0.016 C 
HETATM   18  C27 UNL     1      -3.226   9.166  13.897  1.00  0.00     0.020 C 
HETATM   19  C28 UNL     1      -1.751   7.545  12.494  1.00  0.00     0.002 C 
HETATM   20  C29 UNL     1      -0.886   8.811  12.248  1.00  0.00     0.007 C 
HETATM   21  C30 UNL     1       0.165   8.620  11.139  1.00  0.00     0.014 C 
HETATM   22  C31 UNL     1       1.093   7.429  11.432  1.00  0.00     0.003 C 
HETATM   23  C32 UNL     1       1.992   7.780  12.646  1.00  0.00     0.020 C 
ENDROOT
BRANCH   3  24
HETATM   24  O1  UNL     1       1.194   6.886   9.040  1.00  0.00    -0.377 OA
HETATM   25  H2  UNL     1       1.792   6.606   8.324  1.00  0.00     0.211 HD
ENDBRANCH   3  24
BRANCH  13  26
HETATM   26  O2  UNL     1      -7.057   6.096  15.817  1.00  0.00    -0.271 OA
BRANCH  26  27
HETATM   27  C13 UNL     1      -7.746   7.012  16.653  1.00  0.00     0.303 C 
BRANCH  27  28
HETATM   28  C14 UNL     1      -8.666   7.886  15.808  1.00  0.00     0.244 C 
HETATM   29  O3  UNL     1      -8.313   8.498  14.801  1.00  0.00    -0.271 OA
HETATM   30  N2  UNL     1      -9.971   7.935  16.262  1.00  0.00    -0.346 N 
HETATM   31  H16 UNL     1     -10.299   7.187  16.860  1.00  0.00     0.163 HD
BRANCH  30  32
HETATM   32  C15 UNL     1     -10.984   8.768  15.599  1.00  0.00     0.180 C 
BRANCH  32  33
HETATM   33  C16 UNL     1     -11.900   7.823  14.777  1.00  0.00     0.241 C 
HETATM   34  O4  UNL     1     -11.489   7.067  13.900  1.00  0.00    -0.271 OA
HETATM   35  N3  UNL     1     -13.236   7.919  15.116  1.00  0.00    -0.353 N 
HETATM   36  H18 UNL     1     -13.499   8.713  15.703  1.00  0.00     0.163 HD
BRANCH  35  37
HETATM   37  C17 UNL     1     -14.289   7.230  14.364  1.00  0.00     0.103 C 
BRANCH  37  38
HETATM   38  C18 UNL     1     -14.108   5.694  14.406  1.00  0.00     0.096 C 
BRANCH  38  39
HETATM   39  S1  UNL     1     -15.640   4.767  14.773  1.00  0.00    -0.180 SA
HETATM   40  H22 UNL     1     -15.099   3.542  14.686  1.00  0.00     0.101 HD
ENDBRANCH  38  39
ENDBRANCH  37  38
BRANCH  37  41
HETATM   41  C19 UNL     1     -14.364   7.808  12.943  1.00  0.00     0.136 C 
BRANCH  41  42
HETATM   42  C20 UNL     1     -15.771   7.823  12.416  1.00  0.00     0.141 C 
HETATM   43  O5  UNL     1     -16.802   7.778  13.066  1.00  0.00    -0.650 OA
BRANCH  42  44
HETATM   44  O6  UNL     1     -15.810   7.928  11.074  1.00  0.00    -0.776 OA
HETATM   45  H25 UNL     1     -16.765   7.947  10.856  1.00  0.00     0.167 HD
ENDBRANCH  42  44
ENDBRANCH  41  42
ENDBRANCH  37  41
ENDBRANCH  35  37
ENDBRANCH  32  33
BRANCH  32  46
HETATM   46  C21 UNL     1     -11.771   9.610  16.632  1.00  0.00     0.009 C 
HETATM   47  C22 UNL     1     -11.196   9.451  18.046  1.00  0.00     0.012 C 
HETATM   48  C23 UNL     1     -11.749  11.099  16.263  1.00  0.00     0.012 C 
ENDBRANCH  32  46
ENDBRANCH  30  32
ENDBRANCH  27  28
ENDBRANCH  26  27
ENDBRANCH  13  26
TORSDOF 13
ENDMDL
MODEL 8
REMARK minimizedAffinity -7.07684088
REMARK CNNscore 0.226942942
REMARK CNNaffinity 6.55102539
REMARK  13 active torsions:
REMARK  status: ('A' for Active; 'I' for Inactive)
REMARK    1  A    between atoms: C3_3  and  O1_4 
REMARK    2  A    between atoms: N1_14  and  O2_16 
REMARK    3  A    between atoms: O2_16  and  C13_17 
REMARK    4  A    between atoms: C13_17  and  C14_18 
REMARK       I    between atoms: C14_18  and  N2_20 
REMARK    5  A    between atoms: N2_20  and  C15_21 
REMARK    6  A    between atoms: C15_21  and  C16_22 
REMARK    7  A    between atoms: C15_21  and  C21_32 
REMARK       I    between atoms: C16_22  and  N3_24 
REMARK    8  A    between atoms: N3_24  and  C17_25 
REMARK    9  A    between atoms: C17_25  and  C18_26 
REMARK   10  A    between atoms: C17_25  and  C19_28 
REMARK   11  A    between atoms: C18_26  and  S1_27 
REMARK   12  A    between atoms: C19_28  and  C20_29 
REMARK   13  A    between atoms: C20_29  and  O6_31 
ROOT
HETATM    1  C1  UNL     1      -7.901   6.158  12.657  1.00  0.00     0.015 C 
HETATM    2  C2  UNL     1      -6.957   6.240  13.396  1.00  0.00    -0.078 C 
HETATM    3  C3  UNL     1      -5.806   6.320  14.308  1.00  0.00     0.128 C 
HETATM    4  C4  UNL     1      -4.614   5.453  13.825  1.00  0.00     0.052 C 
HETATM    5  C5  UNL     1      -3.332   6.177  14.290  1.00  0.00     0.010 C 
HETATM    6  C6  UNL     1      -3.840   7.340  15.137  1.00  0.00     0.002 C 
HETATM    7  C7  UNL     1      -2.887   8.486  15.510  1.00  0.00    -0.004 C 
HETATM    8  C8  UNL     1      -2.069   9.072  14.343  1.00  0.00     0.010 C 
HETATM    9  C9  UNL     1      -1.846  10.577  14.431  1.00  0.00     0.035 C 
HETATM   10  C10 UNL     1      -1.572  10.957  15.855  1.00  0.00    -0.069 C 
HETATM   11  C11 UNL     1      -0.358  11.408  16.228  1.00  0.00     0.030 C 
HETATM   12  C12 UNL     1      -0.051  11.731  17.645  1.00  0.00     0.032 C 
HETATM   13  N1  UNL     1       1.088  12.309  17.907  1.00  0.00    -0.271 N 
ATOM     14  H1  UNL     1       1.804  12.520  17.212  1.00  0.00     0.194 HD
HETATM   15  C24 UNL     1      -1.082  11.388  18.707  1.00  0.00     0.060 C 
HETATM   16  C25 UNL     1      -2.117  10.385  18.211  1.00  0.00     0.020 C 
HETATM   17  C26 UNL     1      -2.728  10.743  16.828  1.00  0.00    -0.016 C 
HETATM   18  C27 UNL     1      -3.506  12.072  16.949  1.00  0.00     0.020 C 
HETATM   19  C28 UNL     1      -3.655   9.538  16.380  1.00  0.00     0.002 C 
HETATM   20  C29 UNL     1      -5.025   9.927  15.762  1.00  0.00     0.007 C 
HETATM   21  C30 UNL     1      -5.900   8.708  15.414  1.00  0.00     0.014 C 
HETATM   22  C31 UNL     1      -5.178   7.741  14.462  1.00  0.00     0.003 C 
HETATM   23  C32 UNL     1      -5.033   8.417  13.074  1.00  0.00     0.020 C 
ENDROOT
BRANCH   3  24
HETATM   24  O1  UNL     1      -6.220   5.820  15.582  1.00  0.00    -0.377 OA
HETATM   25  H2  UNL     1      -6.642   4.957  15.426  1.00  0.00     0.211 HD
ENDBRANCH   3  24
BRANCH  13  26
HETATM   26  O2  UNL     1       1.193  12.604  19.277  1.00  0.00    -0.271 OA
BRANCH  26  27
HETATM   27  C13 UNL     1       1.317  11.394  20.010  1.00  0.00     0.303 C 
BRANCH  27  28
HETATM   28  C14 UNL     1       2.608  11.415  20.819  1.00  0.00     0.244 C 
HETATM   29  O3  UNL     1       2.685  11.759  21.998  1.00  0.00    -0.271 OA
HETATM   30  N2  UNL     1       3.722  10.997  20.115  1.00  0.00    -0.346 N 
HETATM   31  H16 UNL     1       3.582  10.420  19.294  1.00  0.00     0.163 HD
BRANCH  30  32
HETATM   32  C15 UNL     1       5.060  10.999  20.722  1.00  0.00     0.180 C 
BRANCH  32  33
HETATM   33  C16 UNL     1       5.657  12.418  20.530  1.00  0.00     0.241 C 
HETATM   34  O4  UNL     1       5.007  13.385  20.139  1.00  0.00    -0.271 OA
HETATM   35  N3  UNL     1       7.004  12.494  20.829  1.00  0.00    -0.353 N 
HETATM   36  H18 UNL     1       7.494  11.604  20.945  1.00  0.00     0.163 HD
BRANCH  35  37
HETATM   37  C17 UNL     1       7.800  13.698  20.573  1.00  0.00     0.103 C 
BRANCH  37  38
HETATM   38  C18 UNL     1       8.335  13.729  19.120  1.00  0.00     0.096 C 
BRANCH  38  39
HETATM   39  S1  UNL     1       7.407  14.840  18.003  1.00  0.00    -0.180 SA
HETATM   40  H22 UNL     1       8.163  14.624  16.916  1.00  0.00     0.101 HD
ENDBRANCH  38  39
ENDBRANCH  37  38
BRANCH  37  41
HETATM   41  C19 UNL     1       8.897  13.823  21.640  1.00  0.00     0.136 C 
BRANCH  41  42
HETATM   42  C20 UNL     1       9.075  12.548  22.413  1.00  0.00     0.141 C 
HETATM   43  O5  UNL     1       8.795  12.350  23.584  1.00  0.00    -0.650 OA
BRANCH  42  44
HETATM   44  O6  UNL     1       9.579  11.558  21.653  1.00  0.00    -0.776 OA
HETATM   45  H25 UNL     1       9.631  10.785  22.254  1.00  0.00     0.167 HD
ENDBRANCH  42  44
ENDBRANCH  41  42
ENDBRANCH  37  41
ENDBRANCH  35  37
ENDBRANCH  32  33
BRANCH  32  46
HETATM   46  C21 UNL     1       4.994  10.577  22.210  1.00  0.00     0.009 C 
HETATM   47  C22 UNL     1       4.225  11.603  23.054  1.00  0.00     0.012 C 
HETATM   48  C23 UNL     1       4.316   9.211  22.367  1.00  0.00     0.012 C 
ENDBRANCH  32  46
ENDBRANCH  30  32
ENDBRANCH  27  28
ENDBRANCH  26  27
ENDBRANCH  13  26
TORSDOF 13
ENDMDL
MODEL 9
REMARK minimizedAffinity -7.49433184
REMARK CNNscore 0.218585178
REMARK CNNaffinity 6.42967844
REMARK  13 active torsions:
REMARK  status: ('A' for Active; 'I' for Inactive)
REMARK    1  A    between atoms: C3_3  and  O1_4 
REMARK    2  A    between atoms: N1_14  and  O2_16 
REMARK    3  A    between atoms: O2_16  and  C13_17 
REMARK    4  A    between atoms: C13_17  and  C14_18 
REMARK       I    between atoms: C14_18  and  N2_20 
REMARK    5  A    between atoms: N2_20  and  C15_21 
REMARK    6  A    between atoms: C15_21  and  C16_22 
REMARK    7  A    between atoms: C15_21  and  C21_32 
REMARK       I    between atoms: C16_22  and  N3_24 
REMARK    8  A    between atoms: N3_24  and  C17_25 
REMARK    9  A    between atoms: C17_25  and  C18_26 
REMARK   10  A    between atoms: C17_25  and  C19_28 
REMARK   11  A    between atoms: C18_26  and  S1_27 
REMARK   12  A    between atoms: C19_28  and  C20_29 
REMARK   13  A    between atoms: C20_29  and  O6_31 
ROOT
HETATM    1  C1  UNL     1      -6.668   8.009  14.822  1.00  0.00     0.015 C 
HETATM    2  C2  UNL     1      -5.598   7.473  14.725  1.00  0.00    -0.078 C 
HETATM    3  C3  UNL     1      -4.295   6.800  14.616  1.00  0.00     0.128 C 
HETATM    4  C4  UNL     1      -4.316   5.642  13.584  1.00  0.00     0.052 C 
HETATM    5  C5  UNL     1      -2.900   5.575  12.974  1.00  0.00     0.010 C 
HETATM    6  C6  UNL     1      -2.093   6.591  13.777  1.00  0.00     0.002 C 
HETATM    7  C7  UNL     1      -0.723   7.057  13.261  1.00  0.00    -0.004 C 
HETATM    8  C8  UNL     1      -0.684   7.484  11.781  1.00  0.00     0.010 C 
HETATM    9  C9  UNL     1       0.249   8.655  11.495  1.00  0.00     0.035 C 
HETATM   10  C10 UNL     1       1.501   8.505  12.306  1.00  0.00    -0.069 C 
HETATM   11  C11 UNL     1       2.684   8.257  11.710  1.00  0.00     0.030 C 
HETATM   12  C12 UNL     1       3.923   8.044  12.501  1.00  0.00     0.032 C 
HETATM   13  N1  UNL     1       5.053   7.967  11.857  1.00  0.00    -0.271 N 
ATOM     14  H1  UNL     1       5.145   7.999  10.842  1.00  0.00     0.194 HD
HETATM   15  C24 UNL     1       3.810   7.947  14.013  1.00  0.00     0.060 C 
HETATM   16  C25 UNL     1       2.383   7.672  14.474  1.00  0.00     0.020 C 
HETATM   17  C26 UNL     1       1.321   8.597  13.818  1.00  0.00    -0.016 C 
HETATM   18  C27 UNL     1       1.589  10.057  14.246  1.00  0.00     0.020 C 
HETATM   19  C28 UNL     1      -0.111   8.087  14.269  1.00  0.00     0.002 C 
HETATM   20  C29 UNL     1      -1.127   9.188  14.676  1.00  0.00     0.007 C 
HETATM   21  C30 UNL     1      -2.472   8.619  15.169  1.00  0.00     0.014 C 
HETATM   22  C31 UNL     1      -3.120   7.702  14.119  1.00  0.00     0.003 C 
HETATM   23  C32 UNL     1      -3.578   8.563  12.913  1.00  0.00     0.020 C 
ENDROOT
BRANCH   3  24
HETATM   24  O1  UNL     1      -3.982   6.240  15.893  1.00  0.00    -0.377 OA
HETATM   25  H2  UNL     1      -4.759   5.726  16.176  1.00  0.00     0.211 HD
ENDBRANCH   3  24
BRANCH  13  26
HETATM   26  O2  UNL     1       6.128   7.832  12.752  1.00  0.00    -0.271 OA
BRANCH  26  27
HETATM   27  C13 UNL     1       6.281   9.036  13.488  1.00  0.00     0.303 C 
BRANCH  27  28
HETATM   28  C14 UNL     1       7.644   9.649  13.189  1.00  0.00     0.244 C 
HETATM   29  O3  UNL     1       8.056   9.914  12.060  1.00  0.00    -0.271 OA
HETATM   30  N2  UNL     1       8.407   9.905  14.314  1.00  0.00    -0.346 N 
HETATM   31  H16 UNL     1       7.932   9.995  15.204  1.00  0.00     0.163 HD
BRANCH  30  32
HETATM   32  C15 UNL     1       9.768  10.450  14.212  1.00  0.00     0.180 C 
BRANCH  32  33
HETATM   33  C16 UNL     1       9.894  11.591  15.254  1.00  0.00     0.241 C 
HETATM   34  O4  UNL     1      10.013  12.778  14.956  1.00  0.00    -0.271 OA
HETATM   35  N3  UNL     1       9.872  11.148  16.563  1.00  0.00    -0.353 N 
HETATM   36  H18 UNL     1       9.977  10.140  16.701  1.00  0.00     0.163 HD
BRANCH  35  37
HETATM   37  C17 UNL     1      10.128  12.037  17.699  1.00  0.00     0.103 C 
BRANCH  37  38
HETATM   38  C18 UNL     1       9.798  13.510  17.356  1.00  0.00     0.096 C 
BRANCH  38  39
HETATM   39  S1  UNL     1       8.372  14.192  18.275  1.00  0.00    -0.180 SA
HETATM   40  H22 UNL     1       8.434  15.426  17.751  1.00  0.00     0.101 HD
ENDBRANCH  38  39
ENDBRANCH  37  38
BRANCH  37  41
HETATM   41  C19 UNL     1      11.564  11.824  18.201  1.00  0.00     0.136 C 
BRANCH  41  42
HETATM   42  C20 UNL     1      11.628  11.737  19.700  1.00  0.00     0.141 C 
HETATM   43  O5  UNL     1      11.365  12.617  20.501  1.00  0.00    -0.650 OA
BRANCH  42  44
HETATM   44  O6  UNL     1      11.996  10.513  20.122  1.00  0.00    -0.776 OA
HETATM   45  H25 UNL     1      11.983  10.574  21.101  1.00  0.00     0.167 HD
ENDBRANCH  42  44
ENDBRANCH  41  42
ENDBRANCH  37  41
ENDBRANCH  35  37
ENDBRANCH  32  33
BRANCH  32  46
HETATM   46  C21 UNL     1      10.826   9.338  14.415  1.00  0.00     0.009 C 
HETATM   47  C22 UNL     1      10.321   7.979  13.909  1.00  0.00     0.012 C 
HETATM   48  C23 UNL     1      12.130   9.675  13.684  1.00  0.00     0.012 C 
ENDBRANCH  32  46
ENDBRANCH  30  32
ENDBRANCH  27  28
ENDBRANCH  26  27
ENDBRANCH  13  26
TORSDOF 13
ENDMDL
