MODEL 1
REMARK minimizedAffinity -7.25342655
REMARK CNNscore 0.516347468
REMARK CNNaffinity 6.87929773
REMARK  11 active torsions:
REMARK  status: ('A' for Active; 'I' for Inactive)
REMARK    1  A    between atoms: C3_3  and  O1_4 
REMARK    2  A    between atoms: N1_14  and  O2_16 
REMARK    3  A    between atoms: O2_16  and  C13_17 
REMARK    4  A    between atoms: C13_17  and  C14_18 
REMARK       I    between atoms: C14_18  and  N2_20 
REMARK    5  A    between atoms: N2_20  and  C15_21 
REMARK    6  A    between atoms: C15_21  and  C16_22 
REMARK    7  A    between atoms: C15_21  and  C19_27 
REMARK    8  A    between atoms: C16_22  and  O5_24 
REMARK    9  A    between atoms: O5_24  and  C17_25 
REMARK   10  A    between atoms: C19_27  and  O6_28 
REMARK   11  A    between atoms: C19_27  and  C20_29 
ROOT
HETATM    1  C1  UNL     1     -16.448  -0.868  27.540  1.00  0.00     0.015 C 
HETATM    2  C2  UNL     1     -16.926  -1.967  27.638  1.00  0.00    -0.078 C 
HETATM    3  C3  UNL     1     -17.532  -3.317  27.743  1.00  0.00     0.128 C 
HETATM    4  C4  UNL     1     -17.306  -4.072  26.432  1.00  0.00     0.052 C 
HETATM    5  C5  UNL     1     -15.926  -4.713  26.569  1.00  0.00     0.010 C 
HETATM    6  C6  UNL     1     -15.582  -4.732  28.076  1.00  0.00     0.002 C 
HETATM    7  C7  UNL     1     -15.050  -6.083  28.599  1.00  0.00    -0.004 C 
HETATM    8  C8  UNL     1     -13.670  -6.412  28.009  1.00  0.00     0.010 C 
HETATM    9  C9  UNL     1     -13.339  -7.892  28.105  1.00  0.00     0.035 C 
HETATM   10  C10 UNL     1     -14.345  -8.602  27.247  1.00  0.00    -0.069 C 
HETATM   11  C11 UNL     1     -13.960  -9.148  26.078  1.00  0.00     0.030 C 
HETATM   12  C12 UNL     1     -14.944  -9.739  25.126  1.00  0.00     0.032 C 
HETATM   13  N1  UNL     1     -14.683 -10.181  23.935  1.00  0.00    -0.271 N 
ATOM     14  H1  UNL     1     -15.392 -10.529  23.290  1.00  0.00     0.194 HD
HETATM   15  C26 UNL     1     -16.382  -9.828  25.582  1.00  0.00     0.060 C 
HETATM   16  C27 UNL     1     -16.738  -8.671  26.508  1.00  0.00     0.020 C 
HETATM   17  C28 UNL     1     -15.789  -8.544  27.733  1.00  0.00    -0.016 C 
HETATM   18  C29 UNL     1     -16.009  -9.779  28.651  1.00  0.00     0.020 C 
HETATM   19  C30 UNL     1     -16.092  -7.246  28.607  1.00  0.00     0.002 C 
HETATM   20  C31 UNL     1     -17.545  -6.732  28.508  1.00  0.00     0.007 C 
HETATM   21  C32 UNL     1     -17.754  -5.434  29.278  1.00  0.00     0.014 C 
HETATM   22  C33 UNL     1     -16.859  -4.238  28.818  1.00  0.00     0.003 C 
HETATM   23  C34 UNL     1     -16.493  -3.457  30.099  1.00  0.00     0.020 C 
ENDROOT
BRANCH   3  24
HETATM   24  O1  UNL     1     -18.923  -3.151  27.972  1.00  0.00    -0.377 OA
HETATM   25  H2  UNL     1     -19.013  -2.559  28.738  1.00  0.00     0.211 HD
ENDBRANCH   3  24
BRANCH  13  26
HETATM   26  O2  UNL     1     -13.311 -10.128  23.636  1.00  0.00    -0.271 OA
BRANCH  26  27
HETATM   27  C13 UNL     1     -13.101 -10.663  22.333  1.00  0.00     0.303 C 
BRANCH  27  28
HETATM   28  C14 UNL     1     -11.646 -11.077  22.149  1.00  0.00     0.244 C 
HETATM   29  O3  UNL     1     -11.292 -12.232  21.904  1.00  0.00    -0.271 OA
HETATM   30  N2  UNL     1     -10.733 -10.050  22.244  1.00  0.00    -0.343 N 
HETATM   31  H16 UNL     1     -10.991  -9.186  22.710  1.00  0.00     0.163 HD
BRANCH  30  32
HETATM   32  C15 UNL     1      -9.286 -10.325  22.195  1.00  0.00     0.217 C 
BRANCH  32  33
HETATM   33  C16 UNL     1      -9.009 -11.449  23.191  1.00  0.00     0.284 C 
HETATM   34  O4  UNL     1      -9.415 -11.466  24.350  1.00  0.00    -0.263 OA
BRANCH  33  35
HETATM   35  O5  UNL     1      -8.200 -12.398  22.641  1.00  0.00    -0.320 OA
BRANCH  35  36
HETATM   36  C17 UNL     1      -8.435 -13.743  23.087  1.00  0.00     0.174 C 
HETATM   37  C18 UNL     1      -7.536 -14.066  24.270  1.00  0.00     0.034 C 
ENDBRANCH  35  36
ENDBRANCH  33  35
ENDBRANCH  32  33
BRANCH  32  38
HETATM   38  C19 UNL     1      -8.829 -10.685  20.766  1.00  0.00     0.183 C 
BRANCH  38  39
HETATM   39  O6  UNL     1      -7.396 -10.664  20.660  1.00  0.00    -0.388 OA
HETATM   40  H24 UNL     1      -7.182 -10.808  19.724  1.00  0.00     0.210 HD
ENDBRANCH  38  39
BRANCH  38  41
HETATM   41  C20 UNL     1      -9.456  -9.839  19.677  1.00  0.00    -0.027 A 
HETATM   42  C21 UNL     1      -8.883  -8.601  19.356  1.00  0.00     0.010 A 
HETATM   43  C22 UNL     1      -9.424  -7.807  18.341  1.00  0.00     0.001 A 
HETATM   44  C23 UNL     1     -10.537  -8.251  17.633  1.00  0.00     0.000 A 
HETATM   45  C24 UNL     1     -11.127  -9.476  17.954  1.00  0.00     0.001 A 
HETATM   46  C25 UNL     1     -10.589 -10.269  18.966  1.00  0.00     0.010 A 
ENDBRANCH  38  41
ENDBRANCH  32  38
ENDBRANCH  30  32
ENDBRANCH  27  28
ENDBRANCH  26  27
ENDBRANCH  13  26
TORSDOF 11
ENDMDL
MODEL 2
REMARK minimizedAffinity -10.3448534
REMARK CNNscore 0.283138096
REMARK CNNaffinity 7.2141118
REMARK  11 active torsions:
REMARK  status: ('A' for Active; 'I' for Inactive)
REMARK    1  A    between atoms: C3_3  and  O1_4 
REMARK    2  A    between atoms: N1_14  and  O2_16 
REMARK    3  A    between atoms: O2_16  and  C13_17 
REMARK    4  A    between atoms: C13_17  and  C14_18 
REMARK       I    between atoms: C14_18  and  N2_20 
REMARK    5  A    between atoms: N2_20  and  C15_21 
REMARK    6  A    between atoms: C15_21  and  C16_22 
REMARK    7  A    between atoms: C15_21  and  C19_27 
REMARK    8  A    between atoms: C16_22  and  O5_24 
REMARK    9  A    between atoms: O5_24  and  C17_25 
REMARK   10  A    between atoms: C19_27  and  O6_28 
REMARK   11  A    between atoms: C19_27  and  C20_29 
ROOT
HETATM    1  C1  UNL     1       2.303   6.123   6.511  1.00  0.00     0.015 C 
HETATM    2  C2  UNL     1       2.399   6.762   7.525  1.00  0.00    -0.078 C 
HETATM    3  C3  UNL     1       2.515   7.572   8.764  1.00  0.00     0.128 C 
HETATM    4  C4  UNL     1       1.190   8.294   9.016  1.00  0.00     0.052 C 
HETATM    5  C5  UNL     1       0.327   7.295   9.785  1.00  0.00     0.010 C 
HETATM    6  C6  UNL     1       1.279   6.229  10.373  1.00  0.00     0.002 C 
HETATM    7  C7  UNL     1       1.045   5.905  11.863  1.00  0.00    -0.004 C 
HETATM    8  C8  UNL     1      -0.305   5.203  12.081  1.00  0.00     0.010 C 
HETATM    9  C9  UNL     1      -0.780   5.302  13.521  1.00  0.00     0.035 C 
HETATM   10  C10 UNL     1      -1.017   6.760  13.784  1.00  0.00    -0.069 C 
HETATM   11  C11 UNL     1      -2.276   7.222  13.908  1.00  0.00     0.030 C 
HETATM   12  C12 UNL     1      -2.569   8.679  14.028  1.00  0.00     0.032 C 
HETATM   13  N1  UNL     1      -3.747   9.222  14.037  1.00  0.00    -0.271 N 
ATOM     14  H1  UNL     1      -3.908  10.229  14.066  1.00  0.00     0.194 HD
HETATM   15  C26 UNL     1      -1.389   9.616  14.145  1.00  0.00     0.060 C 
HETATM   16  C27 UNL     1      -0.189   9.088  13.369  1.00  0.00     0.020 C 
HETATM   17  C28 UNL     1       0.225   7.645  13.774  1.00  0.00    -0.016 C 
HETATM   18  C29 UNL     1       0.766   7.683  15.231  1.00  0.00     0.020 C 
HETATM   19  C30 UNL     1       1.388   7.063  12.854  1.00  0.00     0.002 C 
HETATM   20  C31 UNL     1       2.293   8.136  12.210  1.00  0.00     0.007 C 
HETATM   21  C32 UNL     1       3.321   7.533  11.260  1.00  0.00     0.014 C 
HETATM   22  C33 UNL     1       2.724   6.723  10.064  1.00  0.00     0.003 C 
HETATM   23  C34 UNL     1       3.682   5.534   9.829  1.00  0.00     0.020 C 
ENDROOT
BRANCH   3  24
HETATM   24  O1  UNL     1       3.552   8.519   8.567  1.00  0.00    -0.377 OA
HETATM   25  H2  UNL     1       4.337   8.021   8.282  1.00  0.00     0.211 HD
ENDBRANCH   3  24
BRANCH  13  26
HETATM   26  O2  UNL     1      -4.775   8.265  14.003  1.00  0.00    -0.271 OA
BRANCH  26  27
HETATM   27  C13 UNL     1      -4.963   7.741  15.314  1.00  0.00     0.303 C 
BRANCH  27  28
HETATM   28  C14 UNL     1      -6.221   6.883  15.376  1.00  0.00     0.244 C 
HETATM   29  O3  UNL     1      -6.707   6.463  16.428  1.00  0.00    -0.271 OA
HETATM   30  N2  UNL     1      -6.811   6.627  14.158  1.00  0.00    -0.343 N 
HETATM   31  H16 UNL     1      -6.273   6.730  13.304  1.00  0.00     0.163 HD
BRANCH  30  32
HETATM   32  C15 UNL     1      -7.970   5.721  14.061  1.00  0.00     0.217 C 
BRANCH  32  33
HETATM   33  C16 UNL     1      -9.220   6.597  14.007  1.00  0.00     0.284 C 
HETATM   34  O4  UNL     1     -10.216   6.345  13.334  1.00  0.00    -0.263 OA
BRANCH  33  35
HETATM   35  O5  UNL     1      -9.057   7.724  14.757  1.00  0.00    -0.320 OA
BRANCH  35  36
HETATM   36  C17 UNL     1     -10.270   8.382  15.153  1.00  0.00     0.174 C 
HETATM   37  C18 UNL     1     -10.124   8.949  16.556  1.00  0.00     0.034 C 
ENDBRANCH  35  36
ENDBRANCH  33  35
ENDBRANCH  32  33
BRANCH  32  38
HETATM   38  C19 UNL     1      -7.855   4.790  12.836  1.00  0.00     0.183 C 
BRANCH  38  39
HETATM   39  O6  UNL     1      -8.832   3.737  12.893  1.00  0.00    -0.388 OA
HETATM   40  H24 UNL     1      -8.647   3.142  12.149  1.00  0.00     0.210 HD
ENDBRANCH  38  39
BRANCH  38  41
HETATM   41  C20 UNL     1      -6.469   4.218  12.613  1.00  0.00    -0.027 A 
HETATM   42  C21 UNL     1      -5.378   4.787  13.283  1.00  0.00     0.010 A 
HETATM   43  C22 UNL     1      -4.091   4.268  13.117  1.00  0.00     0.001 A 
HETATM   44  C23 UNL     1      -3.888   3.171  12.284  1.00  0.00     0.000 A 
HETATM   45  C24 UNL     1      -4.966   2.605  11.599  1.00  0.00     0.001 A 
HETATM   46  C25 UNL     1      -6.250   3.121  11.763  1.00  0.00     0.010 A 
ENDBRANCH  38  41
ENDBRANCH  32  38
ENDBRANCH  30  32
ENDBRANCH  27  28
ENDBRANCH  26  27
ENDBRANCH  13  26
TORSDOF 11
ENDMDL
MODEL 3
REMARK minimizedAffinity -7.9757905
REMARK CNNscore 0.274178982
REMARK CNNaffinity 6.37923288
REMARK  11 active torsions:
REMARK  status: ('A' for Active; 'I' for Inactive)
REMARK    1  A    between atoms: C3_3  and  O1_4 
REMARK    2  A    between atoms: N1_14  and  O2_16 
REMARK    3  A    between atoms: O2_16  and  C13_17 
REMARK    4  A    between atoms: C13_17  and  C14_18 
REMARK       I    between atoms: C14_18  and  N2_20 
REMARK    5  A    between atoms: N2_20  and  C15_21 
REMARK    6  A    between atoms: C15_21  and  C16_22 
REMARK    7  A    between atoms: C15_21  and  C19_27 
REMARK    8  A    between atoms: C16_22  and  O5_24 
REMARK    9  A    between atoms: O5_24  and  C17_25 
REMARK   10  A    between atoms: C19_27  and  O6_28 
REMARK   11  A    between atoms: C19_27  and  C20_29 
ROOT
HETATM    1  C1  UNL     1      -8.067  16.509  14.745  1.00  0.00     0.015 C 
HETATM    2  C2  UNL     1      -7.493  16.042  15.693  1.00  0.00    -0.078 C 
HETATM    3  C3  UNL     1      -6.805  15.457  16.871  1.00  0.00     0.128 C 
HETATM    4  C4  UNL     1      -6.860  13.931  16.777  1.00  0.00     0.052 C 
HETATM    5  C5  UNL     1      -5.659  13.538  15.918  1.00  0.00     0.010 C 
HETATM    6  C6  UNL     1      -4.684  14.737  15.924  1.00  0.00     0.002 C 
HETATM    7  C7  UNL     1      -3.212  14.370  16.203  1.00  0.00    -0.004 C 
HETATM    8  C8  UNL     1      -2.608  13.545  15.056  1.00  0.00     0.010 C 
HETATM    9  C9  UNL     1      -1.371  12.776  15.486  1.00  0.00     0.035 C 
HETATM   10  C10 UNL     1      -1.830  11.789  16.519  1.00  0.00    -0.069 C 
HETATM   11  C11 UNL     1      -1.875  10.477  16.218  1.00  0.00     0.030 C 
HETATM   12  C12 UNL     1      -2.454   9.476  17.159  1.00  0.00     0.032 C 
HETATM   13  N1  UNL     1      -2.644   8.217  16.911  1.00  0.00    -0.271 N 
ATOM     14  H1  UNL     1      -3.094   7.572  17.560  1.00  0.00     0.194 HD
HETATM   15  C26 UNL     1      -2.867   9.968  18.526  1.00  0.00     0.060 C 
HETATM   16  C27 UNL     1      -3.358  11.409  18.468  1.00  0.00     0.020 C 
HETATM   17  C28 UNL     1      -2.332  12.387  17.830  1.00  0.00    -0.016 C 
HETATM   18  C29 UNL     1      -1.105  12.495  18.778  1.00  0.00     0.020 C 
HETATM   19  C30 UNL     1      -2.920  13.857  17.650  1.00  0.00     0.002 C 
HETATM   20  C31 UNL     1      -4.050  14.220  18.638  1.00  0.00     0.007 C 
HETATM   21  C32 UNL     1      -4.647  15.594  18.356  1.00  0.00     0.014 C 
HETATM   22  C33 UNL     1      -5.270  15.767  16.934  1.00  0.00     0.003 C 
HETATM   23  C34 UNL     1      -4.956  17.216  16.500  1.00  0.00     0.020 C 
ENDROOT
BRANCH   3  24
HETATM   24  O1  UNL     1      -7.491  15.894  18.034  1.00  0.00    -0.377 OA
HETATM   25  H2  UNL     1      -7.542  16.864  17.982  1.00  0.00     0.211 HD
ENDBRANCH   3  24
BRANCH  13  26
HETATM   26  O2  UNL     1      -2.157   7.843  15.647  1.00  0.00    -0.271 OA
BRANCH  26  27
HETATM   27  C13 UNL     1      -2.580   6.514  15.362  1.00  0.00     0.303 C 
BRANCH  27  28
HETATM   28  C14 UNL     1      -2.703   6.297  13.859  1.00  0.00     0.244 C 
HETATM   29  O3  UNL     1      -2.859   7.214  13.049  1.00  0.00    -0.271 OA
HETATM   30  N2  UNL     1      -2.596   4.986  13.450  1.00  0.00    -0.343 N 
HETATM   31  H16 UNL     1      -2.748   4.235  14.115  1.00  0.00     0.163 HD
BRANCH  30  32
HETATM   32  C15 UNL     1      -2.805   4.621  12.037  1.00  0.00     0.217 C 
BRANCH  32  33
HETATM   33  C16 UNL     1      -1.425   4.410  11.420  1.00  0.00     0.284 C 
HETATM   34  O4  UNL     1      -1.091   3.411  10.789  1.00  0.00    -0.263 OA
BRANCH  33  35
HETATM   35  O5  UNL     1      -0.595   5.451  11.715  1.00  0.00    -0.320 OA
BRANCH  35  36
HETATM   36  C17 UNL     1       0.800   5.218  11.468  1.00  0.00     0.174 C 
HETATM   37  C18 UNL     1       1.627   6.373  12.009  1.00  0.00     0.034 C 
ENDBRANCH  35  36
ENDBRANCH  33  35
ENDBRANCH  32  33
BRANCH  32  38
HETATM   38  C19 UNL     1      -3.703   3.373  11.905  1.00  0.00     0.183 C 
BRANCH  38  39
HETATM   39  O6  UNL     1      -3.696   2.871  10.559  1.00  0.00    -0.388 OA
HETATM   40  H24 UNL     1      -4.344   2.149  10.525  1.00  0.00     0.210 HD
ENDBRANCH  38  39
BRANCH  38  41
HETATM   41  C20 UNL     1      -5.124   3.570  12.393  1.00  0.00    -0.027 A 
HETATM   42  C21 UNL     1      -6.071   2.562  12.168  1.00  0.00     0.010 A 
HETATM   43  C22 UNL     1      -7.383   2.703  12.626  1.00  0.00     0.001 A 
HETATM   44  C23 UNL     1      -7.756   3.850  13.320  1.00  0.00     0.000 A 
HETATM   45  C24 UNL     1      -6.825   4.869  13.538  1.00  0.00     0.001 A 
HETATM   46  C25 UNL     1      -5.515   4.730  13.082  1.00  0.00     0.010 A 
ENDBRANCH  38  41
ENDBRANCH  32  38
ENDBRANCH  30  32
ENDBRANCH  27  28
ENDBRANCH  26  27
ENDBRANCH  13  26
TORSDOF 11
ENDMDL
MODEL 4
REMARK minimizedAffinity -8.93530178
REMARK CNNscore 0.259274244
REMARK CNNaffinity 6.95396996
REMARK  11 active torsions:
REMARK  status: ('A' for Active; 'I' for Inactive)
REMARK    1  A    between atoms: C3_3  and  O1_4 
REMARK    2  A    between atoms: N1_14  and  O2_16 
REMARK    3  A    between atoms: O2_16  and  C13_17 
REMARK    4  A    between atoms: C13_17  and  C14_18 
REMARK       I    between atoms: C14_18  and  N2_20 
REMARK    5  A    between atoms: N2_20  and  C15_21 
REMARK    6  A    between atoms: C15_21  and  C16_22 
REMARK    7  A    between atoms: C15_21  and  C19_27 
REMARK    8  A    between atoms: C16_22  and  O5_24 
REMARK    9  A    between atoms: O5_24  and  C17_25 
REMARK   10  A    between atoms: C19_27  and  O6_28 
REMARK   11  A    between atoms: C19_27  and  C20_29 
ROOT
HETATM    1  C1  UNL     1      -7.306   3.177  13.468  1.00  0.00     0.015 C 
HETATM    2  C2  UNL     1      -7.193   4.169  14.138  1.00  0.00    -0.078 C 
HETATM    3  C3  UNL     1      -7.057   5.380  14.985  1.00  0.00     0.128 C 
HETATM    4  C4  UNL     1      -5.728   5.315  15.741  1.00  0.00     0.052 C 
HETATM    5  C5  UNL     1      -4.692   5.902  14.785  1.00  0.00     0.010 C 
HETATM    6  C6  UNL     1      -5.464   6.714  13.720  1.00  0.00     0.002 C 
HETATM    7  C7  UNL     1      -4.900   8.125  13.450  1.00  0.00    -0.004 C 
HETATM    8  C8  UNL     1      -3.518   8.061  12.781  1.00  0.00     0.010 C 
HETATM    9  C9  UNL     1      -2.741   9.357  12.936  1.00  0.00     0.035 C 
HETATM   10  C10 UNL     1      -2.491   9.521  14.407  1.00  0.00    -0.069 C 
HETATM   11  C11 UNL     1      -1.248   9.353  14.897  1.00  0.00     0.030 C 
HETATM   12  C12 UNL     1      -0.974   9.366  16.363  1.00  0.00     0.032 C 
HETATM   13  N1  UNL     1       0.162   9.101  16.929  1.00  0.00    -0.271 N 
ATOM     14  H1  UNL     1       0.299   9.066  17.939  1.00  0.00     0.194 HD
HETATM   15  C26 UNL     1      -2.124   9.714  17.280  1.00  0.00     0.060 C 
HETATM   16  C27 UNL     1      -3.451   9.236  16.703  1.00  0.00     0.020 C 
HETATM   17  C28 UNL     1      -3.728   9.761  15.267  1.00  0.00    -0.016 C 
HETATM   18  C29 UNL     1      -3.938  11.300  15.341  1.00  0.00     0.020 C 
HETATM   19  C30 UNL     1      -5.049   9.135  14.632  1.00  0.00     0.002 C 
HETATM   20  C31 UNL     1      -6.101   8.676  15.665  1.00  0.00     0.007 C 
HETATM   21  C32 UNL     1      -7.295   7.992  15.011  1.00  0.00     0.014 C 
HETATM   22  C33 UNL     1      -6.954   6.717  14.175  1.00  0.00     0.003 C 
HETATM   23  C34 UNL     1      -7.908   6.731  12.960  1.00  0.00     0.020 C 
ENDROOT
BRANCH   3  24
HETATM   24  O1  UNL     1      -8.136   5.389  15.905  1.00  0.00    -0.377 OA
HETATM   25  H2  UNL     1      -8.952   5.298  15.382  1.00  0.00     0.211 HD
ENDBRANCH   3  24
BRANCH  13  26
HETATM   26  O2  UNL     1       1.183   8.869  15.993  1.00  0.00    -0.271 OA
BRANCH  26  27
HETATM   27  C13 UNL     1       1.326   7.465  15.803  1.00  0.00     0.303 C 
BRANCH  27  28
HETATM   28  C14 UNL     1       1.816   7.158  14.393  1.00  0.00     0.244 C 
HETATM   29  O3  UNL     1       2.901   7.539  13.951  1.00  0.00    -0.271 OA
HETATM   30  N2  UNL     1       0.964   6.383  13.637  1.00  0.00    -0.343 N 
HETATM   31  H16 UNL     1      -0.016   6.312  13.893  1.00  0.00     0.163 HD
BRANCH  30  32
HETATM   32  C15 UNL     1       1.261   6.102  12.221  1.00  0.00     0.217 C 
BRANCH  32  33
HETATM   33  C16 UNL     1       0.202   5.120  11.727  1.00  0.00     0.284 C 
HETATM   34  O4  UNL     1       0.448   4.064  11.150  1.00  0.00    -0.263 OA
BRANCH  33  35
HETATM   35  O5  UNL     1      -1.053   5.601  11.957  1.00  0.00    -0.320 OA
BRANCH  35  36
HETATM   36  C17 UNL     1      -1.935   4.712  12.659  1.00  0.00     0.174 C 
HETATM   37  C18 UNL     1      -3.103   4.322  11.767  1.00  0.00     0.034 C 
ENDBRANCH  35  36
ENDBRANCH  33  35
ENDBRANCH  32  33
BRANCH  32  38
HETATM   38  C19 UNL     1       1.293   7.399  11.385  1.00  0.00     0.183 C 
BRANCH  38  39
HETATM   39  O6  UNL     1       0.090   8.163  11.569  1.00  0.00    -0.388 OA
HETATM   40  H24 UNL     1       0.136   8.911  10.952  1.00  0.00     0.210 HD
ENDBRANCH  38  39
BRANCH  38  41
HETATM   41  C20 UNL     1       1.566   7.185   9.910  1.00  0.00    -0.027 A 
HETATM   42  C21 UNL     1       0.820   7.900   8.964  1.00  0.00     0.010 A 
HETATM   43  C22 UNL     1       1.064   7.742   7.597  1.00  0.00     0.001 A 
HETATM   44  C23 UNL     1       2.064   6.874   7.166  1.00  0.00     0.000 A 
HETATM   45  C24 UNL     1       2.804   6.144   8.100  1.00  0.00     0.001 A 
HETATM   46  C25 UNL     1       2.562   6.299   9.463  1.00  0.00     0.010 A 
ENDBRANCH  38  41
ENDBRANCH  32  38
ENDBRANCH  30  32
ENDBRANCH  27  28
ENDBRANCH  26  27
ENDBRANCH  13  26
TORSDOF 11
ENDMDL
MODEL 5
REMARK minimizedAffinity -8.12309456
REMARK CNNscore 0.252522141
REMARK CNNaffinity 6.16871834
REMARK  11 active torsions:
REMARK  status: ('A' for Active; 'I' for Inactive)
REMARK    1  A    between atoms: C3_3  and  O1_4 
REMARK    2  A    between atoms: N1_14  and  O2_16 
REMARK    3  A    between atoms: O2_16  and  C13_17 
REMARK    4  A    between atoms: C13_17  and  C14_18 
REMARK       I    between atoms: C14_18  and  N2_20 
REMARK    5  A    between atoms: N2_20  and  C15_21 
REMARK    6  A    between atoms: C15_21  and  C16_22 
REMARK    7  A    between atoms: C15_21  and  C19_27 
REMARK    8  A    between atoms: C16_22  and  O5_24 
REMARK    9  A    between atoms: O5_24  and  C17_25 
REMARK   10  A    between atoms: C19_27  and  O6_28 
REMARK   11  A    between atoms: C19_27  and  C20_29 
ROOT
HETATM    1  C1  UNL     1      -3.087  15.560  20.933  1.00  0.00     0.015 C 
HETATM    2  C2  UNL     1      -3.204  15.208  19.789  1.00  0.00    -0.078 C 
HETATM    3  C3  UNL     1      -3.337  14.793  18.371  1.00  0.00     0.128 C 
HETATM    4  C4  UNL     1      -1.955  14.426  17.825  1.00  0.00     0.052 C 
HETATM    5  C5  UNL     1      -1.750  12.960  18.204  1.00  0.00     0.010 C 
HETATM    6  C6  UNL     1      -3.144  12.373  18.523  1.00  0.00     0.002 C 
HETATM    7  C7  UNL     1      -3.443  11.017  17.850  1.00  0.00    -0.004 C 
HETATM    8  C8  UNL     1      -2.551   9.900  18.414  1.00  0.00     0.010 C 
HETATM    9  C9  UNL     1      -2.467   8.703  17.482  1.00  0.00     0.035 C 
HETATM   10  C10 UNL     1      -1.792   9.192  16.234  1.00  0.00    -0.069 C 
HETATM   11  C11 UNL     1      -0.531   8.806  15.961  1.00  0.00     0.030 C 
HETATM   12  C12 UNL     1       0.231   9.372  14.811  1.00  0.00     0.032 C 
HETATM   13  N1  UNL     1       1.479   9.149  14.539  1.00  0.00    -0.271 N 
ATOM     14  H1  UNL     1       1.983   9.598  13.774  1.00  0.00     0.194 HD
HETATM   15  C26 UNL     1      -0.512  10.299  13.877  1.00  0.00     0.060 C 
HETATM   16  C27 UNL     1      -1.574  11.097  14.623  1.00  0.00     0.020 C 
HETATM   17  C28 UNL     1      -2.577  10.209  15.412  1.00  0.00    -0.016 C 
HETATM   18  C29 UNL     1      -3.427   9.405  14.388  1.00  0.00     0.020 C 
HETATM   19  C30 UNL     1      -3.587  11.067  16.296  1.00  0.00     0.002 C 
HETATM   20  C31 UNL     1      -3.835  12.500  15.776  1.00  0.00     0.007 C 
HETATM   21  C32 UNL     1      -4.725  13.309  16.711  1.00  0.00     0.014 C 
HETATM   22  C33 UNL     1      -4.174  13.485  18.163  1.00  0.00     0.003 C 
HETATM   23  C34 UNL     1      -5.402  13.432  19.099  1.00  0.00     0.020 C 
ENDROOT
BRANCH   3  24
HETATM   24  O1  UNL     1      -3.866  15.892  17.646  1.00  0.00    -0.377 OA
HETATM   25  H2  UNL     1      -4.675  16.170  18.108  1.00  0.00     0.211 HD
ENDBRANCH   3  24
BRANCH  13  26
HETATM   26  O2  UNL     1       2.058   8.217  15.417  1.00  0.00    -0.271 OA
BRANCH  26  27
HETATM   27  C13 UNL     1       3.461   8.170  15.182  1.00  0.00     0.303 C 
BRANCH  27  28
HETATM   28  C14 UNL     1       3.776   8.484  13.725  1.00  0.00     0.244 C 
HETATM   29  O3  UNL     1       3.435   9.528  13.164  1.00  0.00    -0.271 OA
HETATM   30  N2  UNL     1       4.509   7.521  13.068  1.00  0.00    -0.343 N 
HETATM   31  H16 UNL     1       4.542   6.574  13.433  1.00  0.00     0.163 HD
BRANCH  30  32
HETATM   32  C15 UNL     1       4.790   7.644  11.626  1.00  0.00     0.217 C 
BRANCH  32  33
HETATM   33  C16 UNL     1       6.307   7.726  11.470  1.00  0.00     0.284 C 
HETATM   34  O4  UNL     1       6.939   7.221  10.547  1.00  0.00    -0.263 OA
BRANCH  33  35
HETATM   35  O5  UNL     1       6.869   8.383  12.525  1.00  0.00    -0.320 OA
BRANCH  35  36
HETATM   36  C17 UNL     1       7.618   7.562  13.434  1.00  0.00     0.174 C 
HETATM   37  C18 UNL     1       8.986   8.175  13.686  1.00  0.00     0.034 C 
ENDBRANCH  35  36
ENDBRANCH  33  35
ENDBRANCH  32  33
BRANCH  32  38
HETATM   38  C19 UNL     1       4.183   6.469  10.831  1.00  0.00     0.183 C 
BRANCH  38  39
HETATM   39  O6  UNL     1       5.162   5.445  10.594  1.00  0.00    -0.388 OA
HETATM   40  H24 UNL     1       4.743   4.785  10.018  1.00  0.00     0.210 HD
ENDBRANCH  38  39
BRANCH  38  41
HETATM   41  C20 UNL     1       3.509   6.873   9.535  1.00  0.00    -0.027 A 
HETATM   42  C21 UNL     1       3.546   8.214   9.133  1.00  0.00     0.010 A 
HETATM   43  C22 UNL     1       2.954   8.614   7.932  1.00  0.00     0.001 A 
HETATM   44  C23 UNL     1       2.329   7.673   7.119  1.00  0.00     0.000 A 
HETATM   45  C24 UNL     1       2.273   6.334   7.517  1.00  0.00     0.001 A 
HETATM   46  C25 UNL     1       2.862   5.933   8.715  1.00  0.00     0.010 A 
ENDBRANCH  38  41
ENDBRANCH  32  38
ENDBRANCH  30  32
ENDBRANCH  27  28
ENDBRANCH  26  27
ENDBRANCH  13  26
TORSDOF 11
ENDMDL
MODEL 6
REMARK minimizedAffinity -8.09208965
REMARK CNNscore 0.236740693
REMARK CNNaffinity 6.57206535
REMARK  11 active torsions:
REMARK  status: ('A' for Active; 'I' for Inactive)
REMARK    1  A    between atoms: C3_3  and  O1_4 
REMARK    2  A    between atoms: N1_14  and  O2_16 
REMARK    3  A    between atoms: O2_16  and  C13_17 
REMARK    4  A    between atoms: C13_17  and  C14_18 
REMARK       I    between atoms: C14_18  and  N2_20 
REMARK    5  A    between atoms: N2_20  and  C15_21 
REMARK    6  A    between atoms: C15_21  and  C16_22 
REMARK    7  A    between atoms: C15_21  and  C19_27 
REMARK    8  A    between atoms: C16_22  and  O5_24 
REMARK    9  A    between atoms: O5_24  and  C17_25 
REMARK   10  A    between atoms: C19_27  and  O6_28 
REMARK   11  A    between atoms: C19_27  and  C20_29 
ROOT
HETATM    1  C1  UNL     1       1.553   6.900   5.942  1.00  0.00     0.015 C 
HETATM    2  C2  UNL     1       1.917   7.337   7.002  1.00  0.00    -0.078 C 
HETATM    3  C3  UNL     1       2.367   7.899   8.300  1.00  0.00     0.128 C 
HETATM    4  C4  UNL     1       1.229   8.719   8.912  1.00  0.00     0.052 C 
HETATM    5  C5  UNL     1       0.374   7.711   9.677  1.00  0.00     0.010 C 
HETATM    6  C6  UNL     1       1.245   6.453   9.902  1.00  0.00     0.002 C 
HETATM    7  C7  UNL     1       1.227   5.905  11.344  1.00  0.00    -0.004 C 
HETATM    8  C8  UNL     1      -0.153   5.340  11.716  1.00  0.00     0.010 C 
HETATM    9  C9  UNL     1      -0.350   5.243  13.219  1.00  0.00     0.035 C 
HETATM   10  C10 UNL     1      -0.317   6.651  13.737  1.00  0.00    -0.069 C 
HETATM   11  C11 UNL     1      -1.452   7.230  14.173  1.00  0.00     0.030 C 
HETATM   12  C12 UNL     1      -1.499   8.668  14.565  1.00  0.00     0.032 C 
HETATM   13  N1  UNL     1      -2.563   9.337  14.885  1.00  0.00    -0.271 N 
ATOM     14  H1  UNL     1      -2.564  10.336  15.095  1.00  0.00     0.194 HD
HETATM   15  C26 UNL     1      -0.190   9.423  14.586  1.00  0.00     0.060 C 
HETATM   16  C27 UNL     1       0.764   8.900  13.520  1.00  0.00     0.020 C 
HETATM   17  C28 UNL     1       1.022   7.370  13.616  1.00  0.00    -0.016 C 
HETATM   18  C29 UNL     1       1.808   7.089  14.928  1.00  0.00     0.020 C 
HETATM   19  C30 UNL     1       1.907   6.823  12.409  1.00  0.00     0.002 C 
HETATM   20  C31 UNL     1       2.836   7.876  11.767  1.00  0.00     0.007 C 
HETATM   21  C32 UNL     1       3.581   7.330  10.555  1.00  0.00     0.014 C 
HETATM   22  C33 UNL     1       2.671   6.818   9.392  1.00  0.00     0.003 C 
HETATM   23  C34 UNL     1       3.384   5.582   8.800  1.00  0.00     0.020 C 
ENDROOT
BRANCH   3  24
HETATM   24  O1  UNL     1       3.484   8.737   8.046  1.00  0.00    -0.377 OA
HETATM   25  H2  UNL     1       4.124   8.206   7.542  1.00  0.00     0.211 HD
ENDBRANCH   3  24
BRANCH  13  26
HETATM   26  O2  UNL     1      -3.712   8.530  14.912  1.00  0.00    -0.271 OA
BRANCH  26  27
HETATM   27  C13 UNL     1      -4.694   9.150  15.737  1.00  0.00     0.303 C 
BRANCH  27  28
HETATM   28  C14 UNL     1      -4.116  10.375  16.434  1.00  0.00     0.244 C 
HETATM   29  O3  UNL     1      -3.986  11.472  15.887  1.00  0.00    -0.271 OA
HETATM   30  N2  UNL     1      -3.770  10.184  17.754  1.00  0.00    -0.343 N 
HETATM   31  H16 UNL     1      -3.618   9.244  18.106  1.00  0.00     0.163 HD
BRANCH  30  32
HETATM   32  C15 UNL     1      -3.099  11.252  18.517  1.00  0.00     0.217 C 
BRANCH  32  33
HETATM   33  C16 UNL     1      -1.596  11.063  18.327  1.00  0.00     0.284 C 
HETATM   34  O4  UNL     1      -1.050  10.880  17.242  1.00  0.00    -0.263 OA
BRANCH  33  35
HETATM   35  O5  UNL     1      -0.950  11.063  19.527  1.00  0.00    -0.320 OA
BRANCH  35  36
HETATM   36  C17 UNL     1       0.405  11.538  19.499  1.00  0.00     0.174 C 
HETATM   37  C18 UNL     1       1.255  10.751  20.483  1.00  0.00     0.034 C 
ENDBRANCH  35  36
ENDBRANCH  33  35
ENDBRANCH  32  33
BRANCH  32  38
HETATM   38  C19 UNL     1      -3.574  12.650  18.066  1.00  0.00     0.183 C 
BRANCH  38  39
HETATM   39  O6  UNL     1      -2.505  13.607  18.135  1.00  0.00    -0.388 OA
HETATM   40  H24 UNL     1      -2.890  14.473  17.927  1.00  0.00     0.210 HD
ENDBRANCH  38  39
BRANCH  38  41
HETATM   41  C20 UNL     1      -4.796  13.162  18.801  1.00  0.00    -0.027 A 
HETATM   42  C21 UNL     1      -5.841  13.743  18.071  1.00  0.00     0.010 A 
HETATM   43  C22 UNL     1      -6.991  14.204  18.717  1.00  0.00     0.001 A 
HETATM   44  C23 UNL     1      -7.108  14.080  20.099  1.00  0.00     0.000 A 
HETATM   45  C24 UNL     1      -6.065  13.517  20.840  1.00  0.00     0.001 A 
HETATM   46  C25 UNL     1      -4.917  13.056  20.197  1.00  0.00     0.010 A 
ENDBRANCH  38  41
ENDBRANCH  32  38
ENDBRANCH  30  32
ENDBRANCH  27  28
ENDBRANCH  26  27
ENDBRANCH  13  26
TORSDOF 11
ENDMDL
MODEL 7
REMARK minimizedAffinity -9.08856773
REMARK CNNscore 0.234222919
REMARK CNNaffinity 7.19712687
REMARK  11 active torsions:
REMARK  status: ('A' for Active; 'I' for Inactive)
REMARK    1  A    between atoms: C3_3  and  O1_4 
REMARK    2  A    between atoms: N1_14  and  O2_16 
REMARK    3  A    between atoms: O2_16  and  C13_17 
REMARK    4  A    between atoms: C13_17  and  C14_18 
REMARK       I    between atoms: C14_18  and  N2_20 
REMARK    5  A    between atoms: N2_20  and  C15_21 
REMARK    6  A    between atoms: C15_21  and  C16_22 
REMARK    7  A    between atoms: C15_21  and  C19_27 
REMARK    8  A    between atoms: C16_22  and  O5_24 
REMARK    9  A    between atoms: O5_24  and  C17_25 
REMARK   10  A    between atoms: C19_27  and  O6_28 
REMARK   11  A    between atoms: C19_27  and  C20_29 
ROOT
HETATM    1  C1  UNL     1       5.983   9.105  10.481  1.00  0.00     0.015 C 
HETATM    2  C2  UNL     1       5.282   8.192  10.827  1.00  0.00    -0.078 C 
HETATM    3  C3  UNL     1       4.432   7.060  11.271  1.00  0.00     0.128 C 
HETATM    4  C4  UNL     1       3.875   7.366  12.663  1.00  0.00     0.052 C 
HETATM    5  C5  UNL     1       2.608   8.184  12.418  1.00  0.00     0.010 C 
HETATM    6  C6  UNL     1       2.188   7.943  10.950  1.00  0.00     0.002 C 
HETATM    7  C7  UNL     1       0.695   7.613  10.751  1.00  0.00    -0.004 C 
HETATM    8  C8  UNL     1      -0.199   8.817  11.087  1.00  0.00     0.010 C 
HETATM    9  C9  UNL     1      -1.635   8.409  11.368  1.00  0.00     0.035 C 
HETATM   10  C10 UNL     1      -1.594   7.557  12.602  1.00  0.00    -0.069 C 
HETATM   11  C11 UNL     1      -2.077   8.038  13.764  1.00  0.00     0.030 C 
HETATM   12  C12 UNL     1      -1.932   7.288  15.045  1.00  0.00     0.032 C 
HETATM   13  N1  UNL     1      -2.260   7.720  16.223  1.00  0.00    -0.271 N 
ATOM     14  H1  UNL     1      -2.096   7.200  17.085  1.00  0.00     0.194 HD
HETATM   15  C26 UNL     1      -1.342   5.899  14.971  1.00  0.00     0.060 C 
HETATM   16  C27 UNL     1      -0.321   5.794  13.845  1.00  0.00     0.020 C 
HETATM   17  C28 UNL     1      -0.882   6.216  12.458  1.00  0.00    -0.016 C 
HETATM   18  C29 UNL     1      -1.954   5.176  12.028  1.00  0.00     0.020 C 
HETATM   19  C30 UNL     1       0.240   6.234  11.327  1.00  0.00     0.002 C 
HETATM   20  C31 UNL     1       1.432   5.288  11.591  1.00  0.00     0.007 C 
HETATM   21  C32 UNL     1       2.521   5.420  10.534  1.00  0.00     0.014 C 
HETATM   22  C33 UNL     1       3.147   6.846  10.400  1.00  0.00     0.003 C 
HETATM   23  C34 UNL     1       3.428   7.053   8.895  1.00  0.00     0.020 C 
ENDROOT
BRANCH   3  24
HETATM   24  O1  UNL     1       5.247   5.900  11.322  1.00  0.00    -0.377 OA
HETATM   25  H2  UNL     1       5.679   5.822  10.454  1.00  0.00     0.211 HD
ENDBRANCH   3  24
BRANCH  13  26
HETATM   26  O2  UNL     1      -2.870   8.985  16.176  1.00  0.00    -0.271 OA
BRANCH  26  27
HETATM   27  C13 UNL     1      -4.194   8.881  16.690  1.00  0.00     0.303 C 
BRANCH  27  28
HETATM   28  C14 UNL     1      -5.191   8.639  15.564  1.00  0.00     0.244 C 
HETATM   29  O3  UNL     1      -5.109   9.170  14.455  1.00  0.00    -0.271 OA
HETATM   30  N2  UNL     1      -6.196   7.744  15.859  1.00  0.00    -0.343 N 
HETATM   31  H16 UNL     1      -6.417   7.534  16.828  1.00  0.00     0.163 HD
BRANCH  30  32
HETATM   32  C15 UNL     1      -7.290   7.499  14.902  1.00  0.00     0.217 C 
BRANCH  32  33
HETATM   33  C16 UNL     1      -6.902   6.270  14.083  1.00  0.00     0.284 C 
HETATM   34  O4  UNL     1      -5.898   6.190  13.382  1.00  0.00    -0.263 OA
BRANCH  33  35
HETATM   35  O5  UNL     1      -7.852   5.297  14.188  1.00  0.00    -0.320 OA
BRANCH  35  36
HETATM   36  C17 UNL     1      -8.056   4.504  13.009  1.00  0.00     0.174 C 
HETATM   37  C18 UNL     1      -7.544   3.091  13.234  1.00  0.00     0.034 C 
ENDBRANCH  35  36
ENDBRANCH  33  35
ENDBRANCH  32  33
BRANCH  32  38
HETATM   38  C19 UNL     1      -8.641   7.319  15.625  1.00  0.00     0.183 C 
BRANCH  38  39
HETATM   39  O6  UNL     1      -8.827   5.957  16.041  1.00  0.00    -0.388 OA
HETATM   40  H24 UNL     1      -9.726   5.895  16.404  1.00  0.00     0.210 HD
ENDBRANCH  38  39
BRANCH  38  41
HETATM   41  C20 UNL     1      -9.841   7.804  14.837  1.00  0.00    -0.027 A 
HETATM   42  C21 UNL     1     -10.075   9.181  14.722  1.00  0.00     0.010 A 
HETATM   43  C22 UNL     1     -11.159   9.660  13.984  1.00  0.00     0.001 A 
HETATM   44  C23 UNL     1     -12.014   8.766  13.346  1.00  0.00     0.000 A 
HETATM   45  C24 UNL     1     -11.801   7.390  13.465  1.00  0.00     0.001 A 
HETATM   46  C25 UNL     1     -10.719   6.909  14.202  1.00  0.00     0.010 A 
ENDBRANCH  38  41
ENDBRANCH  32  38
ENDBRANCH  30  32
ENDBRANCH  27  28
ENDBRANCH  26  27
ENDBRANCH  13  26
TORSDOF 11
ENDMDL
MODEL 8
REMARK minimizedAffinity -7.40124989
REMARK CNNscore 0.230919003
REMARK CNNaffinity 6.21518278
REMARK  11 active torsions:
REMARK  status: ('A' for Active; 'I' for Inactive)
REMARK    1  A    between atoms: C3_3  and  O1_4 
REMARK    2  A    between atoms: N1_14  and  O2_16 
REMARK    3  A    between atoms: O2_16  and  C13_17 
REMARK    4  A    between atoms: C13_17  and  C14_18 
REMARK       I    between atoms: C14_18  and  N2_20 
REMARK    5  A    between atoms: N2_20  and  C15_21 
REMARK    6  A    between atoms: C15_21  and  C16_22 
REMARK    7  A    between atoms: C15_21  and  C19_27 
REMARK    8  A    between atoms: C16_22  and  O5_24 
REMARK    9  A    between atoms: O5_24  and  C17_25 
REMARK   10  A    between atoms: C19_27  and  O6_28 
REMARK   11  A    between atoms: C19_27  and  C20_29 
ROOT
HETATM    1  C1  UNL     1      -1.379  18.006  13.863  1.00  0.00     0.015 C 
HETATM    2  C2  UNL     1      -2.024  17.017  14.092  1.00  0.00    -0.078 C 
HETATM    3  C3  UNL     1      -2.823  15.793  14.351  1.00  0.00     0.128 C 
HETATM    4  C4  UNL     1      -2.069  14.578  13.807  1.00  0.00     0.052 C 
HETATM    5  C5  UNL     1      -1.119  14.159  14.928  1.00  0.00     0.010 C 
HETATM    6  C6  UNL     1      -1.645  14.799  16.233  1.00  0.00     0.002 C 
HETATM    7  C7  UNL     1      -1.729  13.836  17.435  1.00  0.00    -0.004 C 
HETATM    8  C8  UNL     1      -0.333  13.395  17.902  1.00  0.00     0.010 C 
HETATM    9  C9  UNL     1      -0.377  12.122  18.730  1.00  0.00     0.035 C 
HETATM   10  C10 UNL     1      -0.875  11.044  17.811  1.00  0.00    -0.069 C 
HETATM   11  C11 UNL     1      -0.029  10.088  17.381  1.00  0.00     0.030 C 
HETATM   12  C12 UNL     1      -0.437   9.081  16.360  1.00  0.00     0.032 C 
HETATM   13  N1  UNL     1       0.337   8.201  15.804  1.00  0.00    -0.271 N 
ATOM     14  H1  UNL     1       0.034   7.563  15.069  1.00  0.00     0.194 HD
HETATM   15  C26 UNL     1      -1.884   9.083  15.924  1.00  0.00     0.060 C 
HETATM   16  C27 UNL     1      -2.466  10.492  15.957  1.00  0.00     0.020 C 
HETATM   17  C28 UNL     1      -2.317  11.191  17.337  1.00  0.00    -0.016 C 
HETATM   18  C29 UNL     1      -3.211  10.442  18.364  1.00  0.00     0.020 C 
HETATM   19  C30 UNL     1      -2.802  12.709  17.308  1.00  0.00     0.002 C 
HETATM   20  C31 UNL     1      -3.855  13.023  16.223  1.00  0.00     0.007 C 
HETATM   21  C32 UNL     1      -4.207  14.505  16.169  1.00  0.00     0.014 C 
HETATM   22  C33 UNL     1      -3.008  15.462  15.871  1.00  0.00     0.003 C 
HETATM   23  C34 UNL     1      -3.251  16.733  16.714  1.00  0.00     0.020 C 
ENDROOT
BRANCH   3  24
HETATM   24  O1  UNL     1      -4.062  15.934  13.676  1.00  0.00    -0.377 OA
HETATM   25  H2  UNL     1      -4.441  16.785  13.959  1.00  0.00     0.211 HD
ENDBRANCH   3  24
BRANCH  13  26
HETATM   26  O2  UNL     1       1.639   8.227  16.332  1.00  0.00    -0.271 OA
BRANCH  26  27
HETATM   27  C13 UNL     1       2.466   7.359  15.564  1.00  0.00     0.303 C 
BRANCH  27  28
HETATM   28  C14 UNL     1       2.612   7.875  14.138  1.00  0.00     0.244 C 
HETATM   29  O3  UNL     1       2.223   8.986  13.772  1.00  0.00    -0.271 OA
HETATM   30  N2  UNL     1       3.249   7.015  13.271  1.00  0.00    -0.343 N 
HETATM   31  H16 UNL     1       3.311   6.026  13.494  1.00  0.00     0.163 HD
BRANCH  30  32
HETATM   32  C15 UNL     1       3.360   7.340  11.837  1.00  0.00     0.217 C 
BRANCH  32  33
HETATM   33  C16 UNL     1       4.850   7.394  11.505  1.00  0.00     0.284 C 
HETATM   34  O4  UNL     1       5.309   7.364  10.366  1.00  0.00    -0.263 OA
BRANCH  33  35
HETATM   35  O5  UNL     1       5.602   7.419  12.642  1.00  0.00    -0.320 OA
BRANCH  35  36
HETATM   36  C17 UNL     1       6.452   8.566  12.794  1.00  0.00     0.174 C 
HETATM   37  C18 UNL     1       7.839   8.133  13.243  1.00  0.00     0.034 C 
ENDBRANCH  35  36
ENDBRANCH  33  35
ENDBRANCH  32  33
BRANCH  32  38
HETATM   38  C19 UNL     1       2.603   6.315  10.967  1.00  0.00     0.183 C 
BRANCH  38  39
HETATM   39  O6  UNL     1       3.419   5.163  10.696  1.00  0.00    -0.388 OA
HETATM   40  H24 UNL     1       2.921   4.606  10.076  1.00  0.00     0.210 HD
ENDBRANCH  38  39
BRANCH  38  41
HETATM   41  C20 UNL     1       2.040   6.882   9.680  1.00  0.00    -0.027 A 
HETATM   42  C21 UNL     1       2.582   6.472   8.455  1.00  0.00     0.010 A 
HETATM   43  C22 UNL     1       2.069   6.959   7.251  1.00  0.00     0.001 A 
HETATM   44  C23 UNL     1       1.002   7.854   7.262  1.00  0.00     0.000 A 
HETATM   45  C24 UNL     1       0.463   8.282   8.478  1.00  0.00     0.001 A 
HETATM   46  C25 UNL     1       0.974   7.798   9.681  1.00  0.00     0.010 A 
ENDBRANCH  38  41
ENDBRANCH  32  38
ENDBRANCH  30  32
ENDBRANCH  27  28
ENDBRANCH  26  27
ENDBRANCH  13  26
TORSDOF 11
ENDMDL
MODEL 9
REMARK minimizedAffinity -6.84881449
REMARK CNNscore 0.218768775
REMARK CNNaffinity 6.04218102
REMARK  11 active torsions:
REMARK  status: ('A' for Active; 'I' for Inactive)
REMARK    1  A    between atoms: C3_3  and  O1_4 
REMARK    2  A    between atoms: N1_14  and  O2_16 
REMARK    3  A    between atoms: O2_16  and  C13_17 
REMARK    4  A    between atoms: C13_17  and  C14_18 
REMARK       I    between atoms: C14_18  and  N2_20 
REMARK    5  A    between atoms: N2_20  and  C15_21 
REMARK    6  A    between atoms: C15_21  and  C16_22 
REMARK    7  A    between atoms: C15_21  and  C19_27 
REMARK    8  A    between atoms: C16_22  and  O5_24 
REMARK    9  A    between atoms: O5_24  and  C17_25 
REMARK   10  A    between atoms: C19_27  and  O6_28 
REMARK   11  A    between atoms: C19_27  and  C20_29 
ROOT
HETATM    1  C1  UNL     1      -9.942  16.711  13.131  1.00  0.00     0.015 C 
HETATM    2  C2  UNL     1      -9.380  16.523  14.177  1.00  0.00    -0.078 C 
HETATM    3  C3  UNL     1      -8.705  16.278  15.476  1.00  0.00     0.128 C 
HETATM    4  C4  UNL     1      -8.417  14.782  15.618  1.00  0.00     0.052 C 
HETATM    5  C5  UNL     1      -7.078  14.563  14.914  1.00  0.00     0.010 C 
HETATM    6  C6  UNL     1      -6.393  15.943  14.800  1.00  0.00     0.002 C 
HETATM    7  C7  UNL     1      -4.913  15.967  15.233  1.00  0.00    -0.004 C 
HETATM    8  C8  UNL     1      -4.031  15.154  14.272  1.00  0.00     0.010 C 
HETATM    9  C9  UNL     1      -2.706  14.757  14.900  1.00  0.00     0.035 C 
HETATM   10  C10 UNL     1      -3.042  13.841  16.041  1.00  0.00    -0.069 C 
HETATM   11  C11 UNL     1      -2.770  12.526  15.945  1.00  0.00     0.030 C 
HETATM   12  C12 UNL     1      -3.210  11.556  16.988  1.00  0.00     0.032 C 
HETATM   13  N1  UNL     1      -3.095  10.265  16.927  1.00  0.00    -0.271 N 
ATOM     14  H1  UNL     1      -3.458   9.628  17.636  1.00  0.00     0.194 HD
HETATM   15  C26 UNL     1      -3.857  12.121  18.231  1.00  0.00     0.060 C 
HETATM   16  C27 UNL     1      -4.641  13.389  17.915  1.00  0.00     0.020 C 
HETATM   17  C28 UNL     1      -3.793  14.481  17.205  1.00  0.00    -0.016 C 
HETATM   18  C29 UNL     1      -2.722  14.996  18.207  1.00  0.00     0.020 C 
HETATM   19  C30 UNL     1      -4.665  15.737  16.758  1.00  0.00     0.002 C 
HETATM   20  C31 UNL     1      -5.942  15.962  17.598  1.00  0.00     0.007 C 
HETATM   21  C32 UNL     1      -6.791  17.109  17.066  1.00  0.00     0.014 C 
HETATM   22  C33 UNL     1      -7.290  16.939  15.595  1.00  0.00     0.003 C 
HETATM   23  C34 UNL     1      -7.255  18.348  14.962  1.00  0.00     0.020 C 
ENDROOT
BRANCH   3  24
HETATM   24  O1  UNL     1      -9.584  16.700  16.507  1.00  0.00    -0.377 OA
HETATM   25  H2  UNL     1      -9.840  17.615  16.301  1.00  0.00     0.211 HD
ENDBRANCH   3  24
BRANCH  13  26
HETATM   26  O2  UNL     1      -2.412   9.845  15.773  1.00  0.00    -0.271 OA
BRANCH  26  27
HETATM   27  C13 UNL     1      -2.676   8.462  15.558  1.00  0.00     0.303 C 
BRANCH  27  28
HETATM   28  C14 UNL     1      -2.510   8.105  14.086  1.00  0.00     0.244 C 
HETATM   29  O3  UNL     1      -2.975   8.780  13.164  1.00  0.00    -0.271 OA
HETATM   30  N2  UNL     1      -1.764   6.973  13.842  1.00  0.00    -0.343 N 
HETATM   31  H16 UNL     1      -1.629   6.288  14.580  1.00  0.00     0.163 HD
BRANCH  30  32
HETATM   32  C15 UNL     1      -1.616   6.451  12.472  1.00  0.00     0.217 C 
BRANCH  32  33
HETATM   33  C16 UNL     1      -0.244   6.894  11.969  1.00  0.00     0.284 C 
HETATM   34  O4  UNL     1       0.732   7.084  12.689  1.00  0.00    -0.263 OA
BRANCH  33  35
HETATM   35  O5  UNL     1      -0.265   7.108  10.623  1.00  0.00    -0.320 OA
BRANCH  35  36
HETATM   36  C17 UNL     1       0.442   8.273  10.172  1.00  0.00     0.174 C 
HETATM   37  C18 UNL     1       0.429   8.338   8.653  1.00  0.00     0.034 C 
ENDBRANCH  35  36
ENDBRANCH  33  35
ENDBRANCH  32  33
BRANCH  32  38
HETATM   38  C19 UNL     1      -1.788   4.918  12.431  1.00  0.00     0.183 C 
BRANCH  38  39
HETATM   39  O6  UNL     1      -0.943   4.329  11.429  1.00  0.00    -0.388 OA
HETATM   40  H24 UNL     1      -1.164   3.385  11.395  1.00  0.00     0.210 HD
ENDBRANCH  38  39
BRANCH  38  41
HETATM   41  C20 UNL     1      -3.220   4.453  12.261  1.00  0.00    -0.027 A 
HETATM   42  C21 UNL     1      -3.537   3.583  11.209  1.00  0.00     0.010 A 
HETATM   43  C22 UNL     1      -4.843   3.118  11.039  1.00  0.00     0.001 A 
HETATM   44  C23 UNL     1      -5.841   3.512  11.925  1.00  0.00     0.000 A 
HETATM   45  C24 UNL     1      -5.541   4.392  12.969  1.00  0.00     0.001 A 
HETATM   46  C25 UNL     1      -4.238   4.857  13.140  1.00  0.00     0.010 A 
ENDBRANCH  38  41
ENDBRANCH  32  38
ENDBRANCH  30  32
ENDBRANCH  27  28
ENDBRANCH  26  27
ENDBRANCH  13  26
TORSDOF 11
ENDMDL
