MODEL 1
REMARK minimizedAffinity -7.23634052
REMARK CNNscore 0.77072829
REMARK CNNaffinity 6.84355688
REMARK  13 active torsions:
REMARK  status: ('A' for Active; 'I' for Inactive)
REMARK    1  A    between atoms: C4_4  and  C5_5 
REMARK    2  A    between atoms: C5_5  and  C6_6 
REMARK    3  A    between atoms: C6_6  and  C7_7 
REMARK    4  A    between atoms: C9_9  and  C10_10 
REMARK    5  A    between atoms: C11_11  and  C12_12 
REMARK    6  A    between atoms: C14_14  and  C15_15 
REMARK    7  A    between atoms: C18_18  and  C19_19 
REMARK    8  A    between atoms: C19_19  and  C20_20 
REMARK    9  A    between atoms: C20_20  and  C21_21 
REMARK   10  A    between atoms: C21_21  and  O1_22 
REMARK   11  A    between atoms: C23_24  and  C25_26 
REMARK   12  A    between atoms: C28_30  and  O3_32 
REMARK   13  A    between atoms: C30_33  and  O4_34 
ROOT
HETATM    1  C15 UNL     1       1.873  51.002 -13.611  1.00  0.00     0.149 C 
HETATM    2  C16 UNL     1       1.826  52.290 -12.788  1.00  0.00     0.054 C 
HETATM    3  C17 UNL     1       1.216  51.913 -11.405  1.00  0.00     0.050 C 
HETATM    4  C18 UNL     1       2.089  52.549 -10.251  1.00  0.00     0.032 C 
HETATM    5  C22 UNL     1       2.164  54.074 -10.444  1.00  0.00    -0.066 C 
HETATM    6  C23 UNL     1       3.286  54.832 -10.310  1.00  0.00    -0.021 C 
HETATM    7  C24 UNL     1       3.373  56.315 -10.583  1.00  0.00     0.052 C 
HETATM    8  C26 UNL     1       0.875  54.714 -10.944  1.00  0.00     0.038 C 
HETATM    9  C27 UNL     1      -0.394  53.876 -10.819  1.00  0.00     0.042 C 
HETATM   10  C28 UNL     1      -0.281  52.390 -11.242  1.00  0.00     0.067 C 
HETATM   11  C29 UNL     1      -1.181  52.126 -12.457  1.00  0.00     0.047 C 
HETATM   12  C30 UNL     1       1.401  50.377 -11.459  1.00  0.00     0.270 C 
HETATM   13  O5  UNL     1       1.237  49.996 -12.819  1.00  0.00    -0.351 OA
ENDROOT
BRANCH   4  14
HETATM   14  C19 UNL     1       1.634  52.161  -8.819  1.00  0.00     0.012 C 
BRANCH  14  15
HETATM   15  C20 UNL     1       1.768  53.281  -7.784  1.00  0.00     0.027 C 
BRANCH  15  16
HETATM   16  C21 UNL     1       0.501  53.427  -6.951  1.00  0.00     0.164 C 
BRANCH  16  17
HETATM   17  O1  UNL     1      -0.510  52.578  -7.478  1.00  0.00    -0.401 OA
HETATM   18  H32 UNL     1      -0.217  51.659  -7.349  1.00  0.00     0.209 HD
ENDBRANCH  16  17
ENDBRANCH  15  16
ENDBRANCH  14  15
ENDBRANCH   4  14
BRANCH  10  19
HETATM   19  O3  UNL     1      -0.930  51.680 -10.165  1.00  0.00    -0.389 OA
HETATM   20  H44 UNL     1      -0.738  50.725 -10.292  1.00  0.00     0.210 HD
ENDBRANCH  10  19
BRANCH  12  21
HETATM   21  O4  UNL     1       0.471  49.649 -10.688  1.00  0.00    -0.370 OA
HETATM   22  H46 UNL     1       0.744  48.717 -10.793  1.00  0.00     0.212 HD
ENDBRANCH  12  21
BRANCH   1  23
HETATM   23  C14 UNL     1       1.161  51.087 -14.927  1.00  0.00     0.011 C 
HETATM   24  C12 UNL     1       1.595  51.649 -16.076  1.00  0.00    -0.063 C 
HETATM   25  C13 UNL     1       2.914  52.366 -16.219  1.00  0.00     0.048 C 
BRANCH  24  26
HETATM   26  C11 UNL     1       0.719  51.590 -17.251  1.00  0.00     0.006 C 
HETATM   27  C10 UNL     1       0.727  52.437 -18.295  1.00  0.00     0.001 C 
BRANCH  27  28
HETATM   28  C9  UNL     1      -0.181  52.297 -19.414  1.00  0.00     0.002 C 
HETATM   29  C7  UNL     1       0.118  52.422 -20.724  1.00  0.00    -0.084 C 
HETATM   30  C8  UNL     1       1.473  52.776 -21.277  1.00  0.00     0.043 C 
BRANCH  29  31
HETATM   31  C6  UNL     1      -0.978  52.235 -21.763  1.00  0.00     0.037 C 
BRANCH  31  32
HETATM   32  C5  UNL     1      -0.485  51.704 -23.117  1.00  0.00     0.031 C 
BRANCH  32  33
HETATM   33  C4  UNL     1      -0.468  52.741 -24.209  1.00  0.00    -0.024 C 
HETATM   34  C2  UNL     1       0.163  52.686 -25.398  1.00  0.00    -0.091 C 
HETATM   35  C1  UNL     1       0.032  53.813 -26.392  1.00  0.00     0.042 C 
HETATM   36  C3  UNL     1       1.043  51.558 -25.866  1.00  0.00     0.042 C 
ENDBRANCH  32  33
ENDBRANCH  31  32
ENDBRANCH  29  31
ENDBRANCH  27  28
ENDBRANCH  24  26
ENDBRANCH   1  23
BRANCH   6  37
HETATM   37  C25 UNL     1       4.609  54.267  -9.887  1.00  0.00     0.265 C 
HETATM   38  O2  UNL     1       5.658  54.898  -9.975  1.00  0.00    -0.302 OA
ENDBRANCH   6  37
TORSDOF 13
ENDMDL
MODEL 2
REMARK minimizedAffinity -7.76520634
REMARK CNNscore 0.766572118
REMARK CNNaffinity 6.65648603
REMARK  13 active torsions:
REMARK  status: ('A' for Active; 'I' for Inactive)
REMARK    1  A    between atoms: C4_4  and  C5_5 
REMARK    2  A    between atoms: C5_5  and  C6_6 
REMARK    3  A    between atoms: C6_6  and  C7_7 
REMARK    4  A    between atoms: C9_9  and  C10_10 
REMARK    5  A    between atoms: C11_11  and  C12_12 
REMARK    6  A    between atoms: C14_14  and  C15_15 
REMARK    7  A    between atoms: C18_18  and  C19_19 
REMARK    8  A    between atoms: C19_19  and  C20_20 
REMARK    9  A    between atoms: C20_20  and  C21_21 
REMARK   10  A    between atoms: C21_21  and  O1_22 
REMARK   11  A    between atoms: C23_24  and  C25_26 
REMARK   12  A    between atoms: C28_30  and  O3_32 
REMARK   13  A    between atoms: C30_33  and  O4_34 
ROOT
HETATM    1  C15 UNL     1       0.708  51.180 -14.537  1.00  0.00     0.149 C 
HETATM    2  C16 UNL     1      -0.301  51.930 -13.668  1.00  0.00     0.054 C 
HETATM    3  C17 UNL     1      -1.292  50.862 -13.115  1.00  0.00     0.050 C 
HETATM    4  C18 UNL     1      -1.501  51.088 -11.565  1.00  0.00     0.032 C 
HETATM    5  C22 UNL     1      -2.010  52.519 -11.317  1.00  0.00    -0.066 C 
HETATM    6  C23 UNL     1      -1.570  53.354 -10.337  1.00  0.00    -0.021 C 
HETATM    7  C24 UNL     1      -2.011  54.787 -10.151  1.00  0.00     0.052 C 
HETATM    8  C26 UNL     1      -2.995  53.031 -12.360  1.00  0.00     0.038 C 
HETATM    9  C27 UNL     1      -3.641  51.981 -13.259  1.00  0.00     0.042 C 
HETATM   10  C28 UNL     1      -2.698  50.895 -13.835  1.00  0.00     0.067 C 
HETATM   11  C29 UNL     1      -2.640  51.016 -15.364  1.00  0.00     0.047 C 
HETATM   12  C30 UNL     1      -0.460  49.585 -13.384  1.00  0.00     0.270 C 
HETATM   13  O5  UNL     1       0.271  49.820 -14.580  1.00  0.00    -0.351 OA
ENDROOT
BRANCH   4  14
HETATM   14  C19 UNL     1      -2.396  50.021 -10.880  1.00  0.00     0.012 C 
BRANCH  14  15
HETATM   15  C20 UNL     1      -3.370  50.581  -9.840  1.00  0.00     0.027 C 
BRANCH  15  16
HETATM   16  C21 UNL     1      -4.817  50.280 -10.211  1.00  0.00     0.164 C 
BRANCH  16  17
HETATM   17  O1  UNL     1      -5.413  49.495  -9.187  1.00  0.00    -0.401 OA
HETATM   18  H32 UNL     1      -5.458  50.044  -8.386  1.00  0.00     0.209 HD
ENDBRANCH  16  17
ENDBRANCH  15  16
ENDBRANCH  14  15
ENDBRANCH   4  14
BRANCH  10  19
HETATM   19  O3  UNL     1      -3.418  49.665 -13.609  1.00  0.00    -0.389 OA
HETATM   20  H44 UNL     1      -2.796  48.927 -13.796  1.00  0.00     0.210 HD
ENDBRANCH  10  19
BRANCH  12  21
HETATM   21  O4  UNL     1      -1.227  48.415 -13.565  1.00  0.00    -0.370 OA
HETATM   22  H46 UNL     1      -0.567  47.706 -13.680  1.00  0.00     0.212 HD
ENDBRANCH  12  21
BRANCH   1  23
HETATM   23  C14 UNL     1       0.807  51.689 -15.943  1.00  0.00     0.011 C 
HETATM   24  C12 UNL     1       1.887  52.198 -16.574  1.00  0.00    -0.063 C 
HETATM   25  C13 UNL     1       3.230  52.398 -15.918  1.00  0.00     0.048 C 
BRANCH  24  26
HETATM   26  C11 UNL     1       1.741  52.616 -17.972  1.00  0.00     0.006 C 
HETATM   27  C10 UNL     1       0.594  52.667 -18.673  1.00  0.00     0.001 C 
BRANCH  27  28
HETATM   28  C9  UNL     1       0.550  53.095 -20.056  1.00  0.00     0.002 C 
HETATM   29  C7  UNL     1       0.231  52.343 -21.130  1.00  0.00    -0.084 C 
HETATM   30  C8  UNL     1      -0.109  50.876 -21.095  1.00  0.00     0.043 C 
BRANCH  29  31
HETATM   31  C6  UNL     1       0.237  52.974 -22.514  1.00  0.00     0.037 C 
BRANCH  31  32
HETATM   32  C5  UNL     1      -0.054  51.994 -23.661  1.00  0.00     0.031 C 
BRANCH  32  33
HETATM   33  C4  UNL     1       0.930  52.077 -24.798  1.00  0.00    -0.024 C 
HETATM   34  C2  UNL     1       0.816  51.556 -26.035  1.00  0.00    -0.091 C 
HETATM   35  C1  UNL     1       1.896  51.778 -27.065  1.00  0.00     0.042 C 
HETATM   36  C3  UNL     1      -0.334  50.720 -26.526  1.00  0.00     0.042 C 
ENDBRANCH  32  33
ENDBRANCH  31  32
ENDBRANCH  29  31
ENDBRANCH  27  28
ENDBRANCH  24  26
ENDBRANCH   1  23
BRANCH   6  37
HETATM   37  C25 UNL     1      -0.553  52.949  -9.313  1.00  0.00     0.265 C 
HETATM   38  O2  UNL     1      -0.544  53.401  -8.172  1.00  0.00    -0.302 OA
ENDBRANCH   6  37
TORSDOF 13
ENDMDL
MODEL 3
REMARK minimizedAffinity -6.6080308
REMARK CNNscore 0.655031264
REMARK CNNaffinity 6.39456034
REMARK  13 active torsions:
REMARK  status: ('A' for Active; 'I' for Inactive)
REMARK    1  A    between atoms: C4_4  and  C5_5 
REMARK    2  A    between atoms: C5_5  and  C6_6 
REMARK    3  A    between atoms: C6_6  and  C7_7 
REMARK    4  A    between atoms: C9_9  and  C10_10 
REMARK    5  A    between atoms: C11_11  and  C12_12 
REMARK    6  A    between atoms: C14_14  and  C15_15 
REMARK    7  A    between atoms: C18_18  and  C19_19 
REMARK    8  A    between atoms: C19_19  and  C20_20 
REMARK    9  A    between atoms: C20_20  and  C21_21 
REMARK   10  A    between atoms: C21_21  and  O1_22 
REMARK   11  A    between atoms: C23_24  and  C25_26 
REMARK   12  A    between atoms: C28_30  and  O3_32 
REMARK   13  A    between atoms: C30_33  and  O4_34 
ROOT
HETATM    1  C15 UNL     1       1.202  51.688 -14.243  1.00  0.00     0.149 C 
HETATM    2  C16 UNL     1       0.270  52.356 -13.232  1.00  0.00     0.054 C 
HETATM    3  C17 UNL     1       0.083  51.343 -12.062  1.00  0.00     0.050 C 
HETATM    4  C18 UNL     1       0.265  52.090 -10.682  1.00  0.00     0.032 C 
HETATM    5  C22 UNL     1      -0.737  53.255 -10.591  1.00  0.00    -0.066 C 
HETATM    6  C23 UNL     1      -0.455  54.505 -10.135  1.00  0.00    -0.021 C 
HETATM    7  C24 UNL     1      -1.418  55.668 -10.128  1.00  0.00     0.052 C 
HETATM    8  C26 UNL     1      -2.106  52.962 -11.191  1.00  0.00     0.038 C 
HETATM    9  C27 UNL     1      -2.442  51.493 -11.436  1.00  0.00     0.042 C 
HETATM   10  C28 UNL     1      -1.327  50.633 -12.083  1.00  0.00     0.067 C 
HETATM   11  C29 UNL     1      -1.786  50.143 -13.464  1.00  0.00     0.047 C 
HETATM   12  C30 UNL     1       1.281  50.406 -12.349  1.00  0.00     0.270 C 
HETATM   13  O5  UNL     1       1.436  50.363 -13.761  1.00  0.00    -0.351 OA
ENDROOT
BRANCH   4  14
HETATM   14  C19 UNL     1       0.196  51.162  -9.441  1.00  0.00     0.012 C 
BRANCH  14  15
HETATM   15  C20 UNL     1       1.356  51.330  -8.456  1.00  0.00     0.027 C 
BRANCH  15  16
HETATM   16  C21 UNL     1       1.732  50.005  -7.803  1.00  0.00     0.164 C 
BRANCH  16  17
HETATM   17  O1  UNL     1       3.144  49.845  -7.840  1.00  0.00    -0.401 OA
HETATM   18  H32 UNL     1       3.531  50.534  -7.274  1.00  0.00     0.209 HD
ENDBRANCH  16  17
ENDBRANCH  15  16
ENDBRANCH  14  15
ENDBRANCH   4  14
BRANCH  10  19
HETATM   19  O3  UNL     1      -1.310  49.437 -11.276  1.00  0.00    -0.389 OA
HETATM   20  H44 UNL     1      -0.508  48.928 -11.531  1.00  0.00     0.210 HD
ENDBRANCH  10  19
BRANCH  12  21
HETATM   21  O4  UNL     1       1.111  49.083 -11.890  1.00  0.00    -0.370 OA
HETATM   22  H46 UNL     1       1.954  48.640 -12.105  1.00  0.00     0.212 HD
ENDBRANCH  12  21
BRANCH   1  23
HETATM   23  C14 UNL     1       0.638  51.595 -15.629  1.00  0.00     0.011 C 
HETATM   24  C12 UNL     1       1.195  52.008 -16.788  1.00  0.00    -0.063 C 
HETATM   25  C13 UNL     1       2.523  52.717 -16.879  1.00  0.00     0.048 C 
BRANCH  24  26
HETATM   26  C11 UNL     1       0.452  51.787 -18.032  1.00  0.00     0.006 C 
HETATM   27  C10 UNL     1       0.579  52.489 -19.172  1.00  0.00     0.001 C 
BRANCH  27  28
HETATM   28  C9  UNL     1      -0.202  52.195 -20.355  1.00  0.00     0.002 C 
HETATM   29  C7  UNL     1       0.024  52.637 -21.610  1.00  0.00    -0.084 C 
HETATM   30  C8  UNL     1       1.135  53.569 -22.017  1.00  0.00     0.043 C 
BRANCH  29  31
HETATM   31  C6  UNL     1      -0.912  52.215 -22.733  1.00  0.00     0.037 C 
BRANCH  31  32
HETATM   32  C5  UNL     1      -1.954  51.162 -22.329  1.00  0.00     0.031 C 
BRANCH  32  33
HETATM   33  C4  UNL     1      -2.114  50.048 -23.331  1.00  0.00    -0.024 C 
HETATM   34  C2  UNL     1      -3.138  49.835 -24.180  1.00  0.00    -0.091 C 
HETATM   35  C1  UNL     1      -3.106  48.679 -25.149  1.00  0.00     0.042 C 
HETATM   36  C3  UNL     1      -4.388  50.668 -24.265  1.00  0.00     0.042 C 
ENDBRANCH  32  33
ENDBRANCH  31  32
ENDBRANCH  29  31
ENDBRANCH  27  28
ENDBRANCH  24  26
ENDBRANCH   1  23
BRANCH   6  37
HETATM   37  C25 UNL     1       0.888  54.893  -9.591  1.00  0.00     0.265 C 
HETATM   38  O2  UNL     1       1.054  55.255  -8.430  1.00  0.00    -0.302 OA
ENDBRANCH   6  37
TORSDOF 13
ENDMDL
MODEL 4
REMARK minimizedAffinity -6.85691547
REMARK CNNscore 0.508800626
REMARK CNNaffinity 6.35419703
REMARK  13 active torsions:
REMARK  status: ('A' for Active; 'I' for Inactive)
REMARK    1  A    between atoms: C4_4  and  C5_5 
REMARK    2  A    between atoms: C5_5  and  C6_6 
REMARK    3  A    between atoms: C6_6  and  C7_7 
REMARK    4  A    between atoms: C9_9  and  C10_10 
REMARK    5  A    between atoms: C11_11  and  C12_12 
REMARK    6  A    between atoms: C14_14  and  C15_15 
REMARK    7  A    between atoms: C18_18  and  C19_19 
REMARK    8  A    between atoms: C19_19  and  C20_20 
REMARK    9  A    between atoms: C20_20  and  C21_21 
REMARK   10  A    between atoms: C21_21  and  O1_22 
REMARK   11  A    between atoms: C23_24  and  C25_26 
REMARK   12  A    between atoms: C28_30  and  O3_32 
REMARK   13  A    between atoms: C30_33  and  O4_34 
ROOT
HETATM    1  C15 UNL     1      -0.610  50.936 -13.292  1.00  0.00     0.149 C 
HETATM    2  C16 UNL     1      -0.780  52.101 -12.317  1.00  0.00     0.054 C 
HETATM    3  C17 UNL     1      -1.894  51.682 -11.312  1.00  0.00     0.050 C 
HETATM    4  C18 UNL     1      -1.422  51.999  -9.837  1.00  0.00     0.032 C 
HETATM    5  C22 UNL     1      -1.081  53.495  -9.717  1.00  0.00    -0.066 C 
HETATM    6  C23 UNL     1       0.006  54.008  -9.079  1.00  0.00    -0.021 C 
HETATM    7  C24 UNL     1       0.382  55.469  -9.037  1.00  0.00     0.052 C 
HETATM    8  C26 UNL     1      -2.003  54.421 -10.500  1.00  0.00     0.038 C 
HETATM    9  C27 UNL     1      -3.331  53.828 -10.962  1.00  0.00     0.042 C 
HETATM   10  C28 UNL     1      -3.271  52.408 -11.581  1.00  0.00     0.067 C 
HETATM   11  C29 UNL     1      -3.695  52.467 -13.055  1.00  0.00     0.047 C 
HETATM   12  C30 UNL     1      -1.908  50.157 -11.575  1.00  0.00     0.270 C 
HETATM   13  O5  UNL     1      -1.617  49.979 -12.955  1.00  0.00    -0.351 OA
ENDROOT
BRANCH   4  14
HETATM   14  C19 UNL     1      -2.413  51.535  -8.737  1.00  0.00     0.012 C 
BRANCH  14  15
HETATM   15  C20 UNL     1      -1.884  50.417  -7.835  1.00  0.00     0.027 C 
BRANCH  15  16
HETATM   16  C21 UNL     1      -2.696  49.137  -7.997  1.00  0.00     0.164 C 
BRANCH  16  17
HETATM   17  O1  UNL     1      -3.917  49.434  -8.660  1.00  0.00    -0.401 OA
HETATM   18  H32 UNL     1      -3.698  49.720  -9.563  1.00  0.00     0.209 HD
ENDBRANCH  16  17
ENDBRANCH  15  16
ENDBRANCH  14  15
ENDBRANCH   4  14
BRANCH  10  19
HETATM   19  O3  UNL     1      -4.354  51.709 -10.932  1.00  0.00    -0.389 OA
HETATM   20  H44 UNL     1      -4.258  50.757 -11.156  1.00  0.00     0.210 HD
ENDBRANCH  10  19
BRANCH  12  21
HETATM   21  O4  UNL     1      -3.142  49.528 -11.306  1.00  0.00    -0.370 OA
HETATM   22  H46 UNL     1      -2.977  48.582 -11.478  1.00  0.00     0.212 HD
ENDBRANCH  12  21
BRANCH   1  23
HETATM   23  C14 UNL     1      -0.777  51.311 -14.733  1.00  0.00     0.011 C 
HETATM   24  C12 UNL     1      -0.333  50.652 -15.825  1.00  0.00    -0.063 C 
HETATM   25  C13 UNL     1       0.493  49.392 -15.771  1.00  0.00     0.048 C 
BRANCH  24  26
HETATM   26  C11 UNL     1      -0.641  51.211 -17.145  1.00  0.00     0.006 C 
HETATM   27  C10 UNL     1       0.250  51.562 -18.090  1.00  0.00     0.001 C 
BRANCH  27  28
HETATM   28  C9  UNL     1      -0.153  52.108 -19.369  1.00  0.00     0.002 C 
HETATM   29  C7  UNL     1      -0.414  51.420 -20.500  1.00  0.00    -0.084 C 
HETATM   30  C8  UNL     1      -0.297  49.927 -20.657  1.00  0.00     0.043 C 
BRANCH  29  31
HETATM   31  C6  UNL     1      -0.829  52.173 -21.756  1.00  0.00     0.037 C 
BRANCH  31  32
HETATM   32  C5  UNL     1       0.334  52.821 -22.522  1.00  0.00     0.031 C 
BRANCH  32  33
HETATM   33  C4  UNL     1       0.745  52.064 -23.758  1.00  0.00    -0.024 C 
HETATM   34  C2  UNL     1       0.161  52.076 -24.972  1.00  0.00    -0.091 C 
HETATM   35  C1  UNL     1       0.743  51.278 -26.113  1.00  0.00     0.042 C 
HETATM   36  C3  UNL     1      -1.086  52.836 -25.332  1.00  0.00     0.042 C 
ENDBRANCH  32  33
ENDBRANCH  31  32
ENDBRANCH  29  31
ENDBRANCH  27  28
ENDBRANCH  24  26
ENDBRANCH   1  23
BRANCH   6  37
HETATM   37  C25 UNL     1       0.998  53.157  -8.343  1.00  0.00     0.265 C 
HETATM   38  O2  UNL     1       0.903  52.916  -7.143  1.00  0.00    -0.302 OA
ENDBRANCH   6  37
TORSDOF 13
ENDMDL
MODEL 5
REMARK minimizedAffinity -6.74614334
REMARK CNNscore 0.347681969
REMARK CNNaffinity 5.98171568
REMARK  13 active torsions:
REMARK  status: ('A' for Active; 'I' for Inactive)
REMARK    1  A    between atoms: C4_4  and  C5_5 
REMARK    2  A    between atoms: C5_5  and  C6_6 
REMARK    3  A    between atoms: C6_6  and  C7_7 
REMARK    4  A    between atoms: C9_9  and  C10_10 
REMARK    5  A    between atoms: C11_11  and  C12_12 
REMARK    6  A    between atoms: C14_14  and  C15_15 
REMARK    7  A    between atoms: C18_18  and  C19_19 
REMARK    8  A    between atoms: C19_19  and  C20_20 
REMARK    9  A    between atoms: C20_20  and  C21_21 
REMARK   10  A    between atoms: C21_21  and  O1_22 
REMARK   11  A    between atoms: C23_24  and  C25_26 
REMARK   12  A    between atoms: C28_30  and  O3_32 
REMARK   13  A    between atoms: C30_33  and  O4_34 
ROOT
HETATM    1  C15 UNL     1      -8.047  45.864 -27.507  1.00  0.00     0.149 C 
HETATM    2  C16 UNL     1      -9.486  46.243 -27.859  1.00  0.00     0.054 C 
HETATM    3  C17 UNL     1      -9.624  46.076 -29.403  1.00  0.00     0.050 C 
HETATM    4  C18 UNL     1     -10.952  45.285 -29.732  1.00  0.00     0.032 C 
HETATM    5  C22 UNL     1     -12.157  46.029 -29.130  1.00  0.00    -0.066 C 
HETATM    6  C23 UNL     1     -13.192  45.447 -28.465  1.00  0.00    -0.021 C 
HETATM    7  C24 UNL     1     -14.328  46.188 -27.801  1.00  0.00     0.052 C 
HETATM    8  C26 UNL     1     -12.067  47.548 -29.205  1.00  0.00     0.038 C 
HETATM    9  C27 UNL     1     -11.041  48.122 -30.178  1.00  0.00     0.042 C 
HETATM   10  C28 UNL     1      -9.641  47.457 -30.171  1.00  0.00     0.067 C 
HETATM   11  C29 UNL     1      -8.587  48.471 -29.706  1.00  0.00     0.047 C 
HETATM   12  C30 UNL     1      -8.375  45.203 -29.674  1.00  0.00     0.270 C 
HETATM   13  O5  UNL     1      -7.380  45.617 -28.747  1.00  0.00    -0.351 OA
ENDROOT
BRANCH   4  14
HETATM   14  C19 UNL     1     -11.151  44.973 -31.239  1.00  0.00     0.012 C 
BRANCH  14  15
HETATM   15  C20 UNL     1     -10.887  43.515 -31.626  1.00  0.00     0.027 C 
BRANCH  15  16
HETATM   16  C21 UNL     1     -10.921  42.599 -30.410  1.00  0.00     0.164 C 
BRANCH  16  17
HETATM   17  O1  UNL     1      -9.643  42.002 -30.232  1.00  0.00    -0.401 OA
HETATM   18  H32 UNL     1      -9.018  42.712 -30.007  1.00  0.00     0.209 HD
ENDBRANCH  16  17
ENDBRANCH  15  16
ENDBRANCH  14  15
ENDBRANCH   4  14
BRANCH  10  19
HETATM   19  O3  UNL     1      -9.349  47.266 -31.572  1.00  0.00    -0.389 OA
HETATM   20  H44 UNL     1      -8.553  46.692 -31.625  1.00  0.00     0.210 HD
ENDBRANCH  10  19
BRANCH  12  21
HETATM   21  O4  UNL     1      -7.841  45.334 -30.973  1.00  0.00    -0.370 OA
HETATM   22  H46 UNL     1      -7.100  44.700 -30.997  1.00  0.00     0.212 HD
ENDBRANCH  12  21
BRANCH   1  23
HETATM   23  C14 UNL     1      -7.295  46.930 -26.769  1.00  0.00     0.011 C 
HETATM   24  C12 UNL     1      -7.204  47.118 -25.435  1.00  0.00    -0.063 C 
HETATM   25  C13 UNL     1      -7.925  46.274 -24.414  1.00  0.00     0.048 C 
BRANCH  24  26
HETATM   26  C11 UNL     1      -6.383  48.230 -24.945  1.00  0.00     0.006 C 
HETATM   27  C10 UNL     1      -5.062  48.390 -25.137  1.00  0.00     0.001 C 
BRANCH  27  28
HETATM   28  C9  UNL     1      -4.335  49.527 -24.613  1.00  0.00     0.002 C 
HETATM   29  C7  UNL     1      -3.345  49.507 -23.695  1.00  0.00    -0.084 C 
HETATM   30  C8  UNL     1      -2.826  48.274 -23.003  1.00  0.00     0.043 C 
BRANCH  29  31
HETATM   31  C6  UNL     1      -2.695  50.813 -23.266  1.00  0.00     0.037 C 
BRANCH  31  32
HETATM   32  C5  UNL     1      -1.167  50.845 -23.427  1.00  0.00     0.031 C 
BRANCH  32  33
HETATM   33  C4  UNL     1      -0.459  51.629 -22.353  1.00  0.00    -0.024 C 
HETATM   34  C2  UNL     1       0.321  52.718 -22.498  1.00  0.00    -0.091 C 
HETATM   35  C1  UNL     1       0.920  53.401 -21.293  1.00  0.00     0.042 C 
HETATM   36  C3  UNL     1       0.689  53.360 -23.808  1.00  0.00     0.042 C 
ENDBRANCH  32  33
ENDBRANCH  31  32
ENDBRANCH  29  31
ENDBRANCH  27  28
ENDBRANCH  24  26
ENDBRANCH   1  23
BRANCH   6  37
HETATM   37  C25 UNL     1     -13.319  43.963 -28.288  1.00  0.00     0.265 C 
HETATM   38  O2  UNL     1     -14.404  43.395 -28.219  1.00  0.00    -0.302 OA
ENDBRANCH   6  37
TORSDOF 13
ENDMDL
MODEL 6
REMARK minimizedAffinity -6.81724405
REMARK CNNscore 0.3191607
REMARK CNNaffinity 5.7474494
REMARK  13 active torsions:
REMARK  status: ('A' for Active; 'I' for Inactive)
REMARK    1  A    between atoms: C4_4  and  C5_5 
REMARK    2  A    between atoms: C5_5  and  C6_6 
REMARK    3  A    between atoms: C6_6  and  C7_7 
REMARK    4  A    between atoms: C9_9  and  C10_10 
REMARK    5  A    between atoms: C11_11  and  C12_12 
REMARK    6  A    between atoms: C14_14  and  C15_15 
REMARK    7  A    between atoms: C18_18  and  C19_19 
REMARK    8  A    between atoms: C19_19  and  C20_20 
REMARK    9  A    between atoms: C20_20  and  C21_21 
REMARK   10  A    between atoms: C21_21  and  O1_22 
REMARK   11  A    between atoms: C23_24  and  C25_26 
REMARK   12  A    between atoms: C28_30  and  O3_32 
REMARK   13  A    between atoms: C30_33  and  O4_34 
ROOT
HETATM    1  C15 UNL     1       0.921  51.266 -14.521  1.00  0.00     0.149 C 
HETATM    2  C16 UNL     1      -0.100  51.929 -13.597  1.00  0.00     0.054 C 
HETATM    3  C17 UNL     1      -0.693  50.797 -12.704  1.00  0.00     0.050 C 
HETATM    4  C18 UNL     1      -0.712  51.270 -11.196  1.00  0.00     0.032 C 
HETATM    5  C22 UNL     1      -1.523  52.572 -11.076  1.00  0.00    -0.066 C 
HETATM    6  C23 UNL     1      -1.164  53.660 -10.340  1.00  0.00    -0.021 C 
HETATM    7  C24 UNL     1      -1.919  54.967 -10.292  1.00  0.00     0.052 C 
HETATM    8  C26 UNL     1      -2.752  52.640 -11.972  1.00  0.00     0.038 C 
HETATM    9  C27 UNL     1      -3.242  51.318 -12.556  1.00  0.00     0.042 C 
HETATM   10  C28 UNL     1      -2.154  50.377 -13.132  1.00  0.00     0.067 C 
HETATM   11  C29 UNL     1      -2.363  50.206 -14.643  1.00  0.00     0.047 C 
HETATM   12  C30 UNL     1       0.384  49.709 -12.931  1.00  0.00     0.270 C 
HETATM   13  O5  UNL     1       0.841  49.861 -14.269  1.00  0.00    -0.351 OA
ENDROOT
BRANCH   4  14
HETATM   14  C19 UNL     1      -1.194  50.186 -10.195  1.00  0.00     0.012 C 
BRANCH  14  15
HETATM   15  C20 UNL     1      -2.171  50.693  -9.130  1.00  0.00     0.027 C 
BRANCH  15  16
HETATM   16  C21 UNL     1      -3.316  49.712  -8.911  1.00  0.00     0.164 C 
BRANCH  16  17
HETATM   17  O1  UNL     1      -4.521  50.275  -9.412  1.00  0.00    -0.401 OA
HETATM   18  H32 UNL     1      -4.427  50.354 -10.377  1.00  0.00     0.209 HD
ENDBRANCH  16  17
ENDBRANCH  15  16
ENDBRANCH  14  15
ENDBRANCH   4  14
BRANCH  10  19
HETATM   19  O3  UNL     1      -2.497  49.087 -12.584  1.00  0.00    -0.389 OA
HETATM   20  H44 UNL     1      -1.744  48.483 -12.774  1.00  0.00     0.210 HD
ENDBRANCH  10  19
BRANCH  12  21
HETATM   21  O4  UNL     1      -0.081  48.386 -12.778  1.00  0.00    -0.370 OA
HETATM   22  H46 UNL     1       0.712  47.832 -12.910  1.00  0.00     0.212 HD
ENDBRANCH  12  21
BRANCH   1  23
HETATM   23  C14 UNL     1       0.672  51.500 -15.980  1.00  0.00     0.011 C 
HETATM   24  C12 UNL     1       1.444  52.169 -16.864  1.00  0.00    -0.063 C 
HETATM   25  C13 UNL     1       2.727  52.873 -16.498  1.00  0.00     0.048 C 
BRANCH  24  26
HETATM   26  C11 UNL     1       0.996  52.247 -18.257  1.00  0.00     0.006 C 
HETATM   27  C10 UNL     1       0.267  51.326 -18.913  1.00  0.00     0.001 C 
BRANCH  27  28
HETATM   28  C9  UNL     1      -0.130  51.493 -20.295  1.00  0.00     0.002 C 
HETATM   29  C7  UNL     1      -0.546  50.529 -21.144  1.00  0.00    -0.084 C 
HETATM   30  C8  UNL     1      -0.641  49.062 -20.816  1.00  0.00     0.043 C 
BRANCH  29  31
HETATM   31  C6  UNL     1      -0.927  50.900 -22.569  1.00  0.00     0.037 C 
BRANCH  31  32
HETATM   32  C5  UNL     1      -1.531  52.304 -22.721  1.00  0.00     0.031 C 
BRANCH  32  33
HETATM   33  C4  UNL     1      -2.885  52.316 -23.382  1.00  0.00    -0.024 C 
HETATM   34  C2  UNL     1      -4.074  51.978 -22.846  1.00  0.00    -0.091 C 
HETATM   35  C1  UNL     1      -5.342  52.094 -23.654  1.00  0.00     0.042 C 
HETATM   36  C3  UNL     1      -4.284  51.459 -21.449  1.00  0.00     0.042 C 
ENDBRANCH  32  33
ENDBRANCH  31  32
ENDBRANCH  29  31
ENDBRANCH  27  28
ENDBRANCH  24  26
ENDBRANCH   1  23
BRANCH   6  37
HETATM   37  C25 UNL     1       0.067  53.698  -9.484  1.00  0.00     0.265 C 
HETATM   38  O2  UNL     1       0.333  54.642  -8.747  1.00  0.00    -0.302 OA
ENDBRANCH   6  37
TORSDOF 13
ENDMDL
MODEL 7
REMARK minimizedAffinity -7.58158445
REMARK CNNscore 0.282869637
REMARK CNNaffinity 6.17553377
REMARK  13 active torsions:
REMARK  status: ('A' for Active; 'I' for Inactive)
REMARK    1  A    between atoms: C4_4  and  C5_5 
REMARK    2  A    between atoms: C5_5  and  C6_6 
REMARK    3  A    between atoms: C6_6  and  C7_7 
REMARK    4  A    between atoms: C9_9  and  C10_10 
REMARK    5  A    between atoms: C11_11  and  C12_12 
REMARK    6  A    between atoms: C14_14  and  C15_15 
REMARK    7  A    between atoms: C18_18  and  C19_19 
REMARK    8  A    between atoms: C19_19  and  C20_20 
REMARK    9  A    between atoms: C20_20  and  C21_21 
REMARK   10  A    between atoms: C21_21  and  O1_22 
REMARK   11  A    between atoms: C23_24  and  C25_26 
REMARK   12  A    between atoms: C28_30  and  O3_32 
REMARK   13  A    between atoms: C30_33  and  O4_34 
ROOT
HETATM    1  C15 UNL     1      -5.778  46.217 -30.860  1.00  0.00     0.149 C 
HETATM    2  C16 UNL     1      -7.288  46.036 -30.707  1.00  0.00     0.054 C 
HETATM    3  C17 UNL     1      -7.920  46.384 -32.088  1.00  0.00     0.050 C 
HETATM    4  C18 UNL     1      -8.971  45.272 -32.484  1.00  0.00     0.032 C 
HETATM    5  C22 UNL     1     -10.039  45.158 -31.382  1.00  0.00    -0.066 C 
HETATM    6  C23 UNL     1     -10.534  43.994 -30.880  1.00  0.00    -0.021 C 
HETATM    7  C24 UNL     1     -11.519  43.885 -29.741  1.00  0.00     0.052 C 
HETATM    8  C26 UNL     1     -10.447  46.484 -30.754  1.00  0.00     0.038 C 
HETATM    9  C27 UNL     1     -10.069  47.747 -31.524  1.00  0.00     0.042 C 
HETATM   10  C28 UNL     1      -8.632  47.795 -32.101  1.00  0.00     0.067 C 
HETATM   11  C29 UNL     1      -7.841  48.926 -31.430  1.00  0.00     0.047 C 
HETATM   12  C30 UNL     1      -6.654  46.293 -32.973  1.00  0.00     0.270 C 
HETATM   13  O5  UNL     1      -5.566  46.737 -32.174  1.00  0.00    -0.351 OA
ENDROOT
BRANCH   4  14
HETATM   14  C19 UNL     1      -9.599  45.460 -33.891  1.00  0.00     0.012 C 
BRANCH  14  15
HETATM   15  C20 UNL     1     -11.128  45.528 -33.900  1.00  0.00     0.027 C 
BRANCH  15  16
HETATM   16  C21 UNL     1     -11.726  44.523 -34.877  1.00  0.00     0.164 C 
BRANCH  16  17
HETATM   17  O1  UNL     1     -12.222  43.403 -34.157  1.00  0.00    -0.401 OA
HETATM   18  H32 UNL     1     -12.966  43.712 -33.612  1.00  0.00     0.209 HD
ENDBRANCH  16  17
ENDBRANCH  15  16
ENDBRANCH  14  15
ENDBRANCH   4  14
BRANCH  10  19
HETATM   19  O3  UNL     1      -8.825  48.258 -33.455  1.00  0.00    -0.389 OA
HETATM   20  H44 UNL     1      -7.969  48.143 -33.924  1.00  0.00     0.210 HD
ENDBRANCH  10  19
BRANCH  12  21
HETATM   21  O4  UNL     1      -6.694  47.091 -34.136  1.00  0.00    -0.370 OA
HETATM   22  H46 UNL     1      -5.858  46.893 -34.597  1.00  0.00     0.212 HD
ENDBRANCH  12  21
BRANCH   1  23
HETATM   23  C14 UNL     1      -5.169  47.165 -29.872  1.00  0.00     0.011 C 
HETATM   24  C12 UNL     1      -5.598  47.462 -28.625  1.00  0.00    -0.063 C 
HETATM   25  C13 UNL     1      -6.854  46.900 -28.010  1.00  0.00     0.048 C 
BRANCH  24  26
HETATM   26  C11 UNL     1      -4.816  48.415 -27.832  1.00  0.00     0.006 C 
HETATM   27  C10 UNL     1      -3.544  48.258 -27.424  1.00  0.00     0.001 C 
BRANCH  27  28
HETATM   28  C9  UNL     1      -2.853  49.261 -26.640  1.00  0.00     0.002 C 
HETATM   29  C7  UNL     1      -2.854  49.386 -25.296  1.00  0.00    -0.084 C 
HETATM   30  C8  UNL     1      -3.622  48.511 -24.342  1.00  0.00     0.043 C 
BRANCH  29  31
HETATM   31  C6  UNL     1      -2.059  50.510 -24.648  1.00  0.00     0.037 C 
BRANCH  31  32
HETATM   32  C5  UNL     1      -1.352  51.443 -25.642  1.00  0.00     0.031 C 
BRANCH  32  33
HETATM   33  C4  UNL     1       0.148  51.306 -25.645  1.00  0.00    -0.024 C 
HETATM   34  C2  UNL     1       0.989  51.397 -26.694  1.00  0.00    -0.091 C 
HETATM   35  C1  UNL     1       2.479  51.272 -26.498  1.00  0.00     0.042 C 
HETATM   36  C3  UNL     1       0.577  51.612 -28.125  1.00  0.00     0.042 C 
ENDBRANCH  32  33
ENDBRANCH  31  32
ENDBRANCH  29  31
ENDBRANCH  27  28
ENDBRANCH  24  26
ENDBRANCH   1  23
BRANCH   6  37
HETATM   37  C25 UNL     1     -10.133  42.645 -31.398  1.00  0.00     0.265 C 
HETATM   38  O2  UNL     1     -10.369  42.277 -32.544  1.00  0.00    -0.302 OA
ENDBRANCH   6  37
TORSDOF 13
ENDMDL
MODEL 8
REMARK minimizedAffinity -7.35090494
REMARK CNNscore 0.257933408
REMARK CNNaffinity 5.65628195
REMARK  13 active torsions:
REMARK  status: ('A' for Active; 'I' for Inactive)
REMARK    1  A    between atoms: C4_4  and  C5_5 
REMARK    2  A    between atoms: C5_5  and  C6_6 
REMARK    3  A    between atoms: C6_6  and  C7_7 
REMARK    4  A    between atoms: C9_9  and  C10_10 
REMARK    5  A    between atoms: C11_11  and  C12_12 
REMARK    6  A    between atoms: C14_14  and  C15_15 
REMARK    7  A    between atoms: C18_18  and  C19_19 
REMARK    8  A    between atoms: C19_19  and  C20_20 
REMARK    9  A    between atoms: C20_20  and  C21_21 
REMARK   10  A    between atoms: C21_21  and  O1_22 
REMARK   11  A    between atoms: C23_24  and  C25_26 
REMARK   12  A    between atoms: C28_30  and  O3_32 
REMARK   13  A    between atoms: C30_33  and  O4_34 
ROOT
HETATM    1  C15 UNL     1      -6.255  47.768 -28.865  1.00  0.00     0.149 C 
HETATM    2  C16 UNL     1      -6.690  46.369 -29.305  1.00  0.00     0.054 C 
HETATM    3  C17 UNL     1      -8.247  46.354 -29.265  1.00  0.00     0.050 C 
HETATM    4  C18 UNL     1      -8.804  45.711 -30.596  1.00  0.00     0.032 C 
HETATM    5  C22 UNL     1      -8.226  44.296 -30.766  1.00  0.00    -0.066 C 
HETATM    6  C23 UNL     1      -7.746  43.773 -31.927  1.00  0.00    -0.021 C 
HETATM    7  C24 UNL     1      -7.101  42.415 -32.071  1.00  0.00     0.052 C 
HETATM    8  C26 UNL     1      -8.089  43.507 -29.470  1.00  0.00     0.038 C 
HETATM    9  C27 UNL     1      -8.874  44.028 -28.270  1.00  0.00     0.042 C 
HETATM   10  C28 UNL     1      -8.823  45.558 -28.027  1.00  0.00     0.067 C 
HETATM   11  C29 UNL     1      -8.128  45.848 -26.690  1.00  0.00     0.047 C 
HETATM   12  C30 UNL     1      -8.513  47.878 -29.230  1.00  0.00     0.270 C 
HETATM   13  O5  UNL     1      -7.448  48.460 -28.488  1.00  0.00    -0.351 OA
ENDROOT
BRANCH   4  14
HETATM   14  C19 UNL     1     -10.352  45.729 -30.714  1.00  0.00     0.012 C 
BRANCH  14  15
HETATM   15  C20 UNL     1     -10.899  46.713 -31.751  1.00  0.00     0.027 C 
BRANCH  15  16
HETATM   16  C21 UNL     1     -10.861  46.124 -33.156  1.00  0.00     0.164 C 
BRANCH  16  17
HETATM   17  O1  UNL     1     -12.031  45.347 -33.373  1.00  0.00    -0.401 OA
HETATM   18  H32 UNL     1     -12.791  45.954 -33.366  1.00  0.00     0.209 HD
ENDBRANCH  16  17
ENDBRANCH  15  16
ENDBRANCH  14  15
ENDBRANCH   4  14
BRANCH  10  19
HETATM   19  O3  UNL     1     -10.202  45.910 -27.788  1.00  0.00    -0.389 OA
HETATM   20  H44 UNL     1     -10.255  46.891 -27.799  1.00  0.00     0.210 HD
ENDBRANCH  10  19
BRANCH  12  21
HETATM   21  O4  UNL     1      -9.725  48.247 -28.611  1.00  0.00    -0.370 OA
HETATM   22  H46 UNL     1      -9.763  49.217 -28.706  1.00  0.00     0.212 HD
ENDBRANCH  12  21
BRANCH   1  23
HETATM   23  C14 UNL     1      -5.314  47.779 -27.699  1.00  0.00     0.011 C 
HETATM   24  C12 UNL     1      -4.245  48.580 -27.496  1.00  0.00    -0.063 C 
HETATM   25  C13 UNL     1      -3.765  49.612 -28.485  1.00  0.00     0.048 C 
BRANCH  24  26
HETATM   26  C11 UNL     1      -3.480  48.415 -26.256  1.00  0.00     0.006 C 
HETATM   27  C10 UNL     1      -3.844  48.838 -25.033  1.00  0.00     0.001 C 
BRANCH  27  28
HETATM   28  C9  UNL     1      -3.019  48.627 -23.862  1.00  0.00     0.002 C 
HETATM   29  C7  UNL     1      -2.470  49.575 -23.073  1.00  0.00    -0.084 C 
HETATM   30  C8  UNL     1      -2.585  51.061 -23.289  1.00  0.00     0.043 C 
BRANCH  29  31
HETATM   31  C6  UNL     1      -1.628  49.158 -21.877  1.00  0.00     0.037 C 
BRANCH  31  32
HETATM   32  C5  UNL     1      -0.741  50.273 -21.303  1.00  0.00     0.031 C 
BRANCH  32  33
HETATM   33  C4  UNL     1      -0.490  50.151 -19.823  1.00  0.00    -0.024 C 
HETATM   34  C2  UNL     1      -0.153  51.125 -18.954  1.00  0.00    -0.091 C 
HETATM   35  C1  UNL     1       0.019  50.820 -17.487  1.00  0.00     0.042 C 
HETATM   36  C3  UNL     1       0.094  52.565 -19.313  1.00  0.00     0.042 C 
ENDBRANCH  32  33
ENDBRANCH  31  32
ENDBRANCH  29  31
ENDBRANCH  27  28
ENDBRANCH  24  26
ENDBRANCH   1  23
BRANCH   6  37
HETATM   37  C25 UNL     1      -7.782  44.511 -33.232  1.00  0.00     0.265 C 
HETATM   38  O2  UNL     1      -8.293  44.042 -34.245  1.00  0.00    -0.302 OA
ENDBRANCH   6  37
TORSDOF 13
ENDMDL
MODEL 9
REMARK minimizedAffinity -6.81885147
REMARK CNNscore 0.245296761
REMARK CNNaffinity 5.40937185
REMARK  13 active torsions:
REMARK  status: ('A' for Active; 'I' for Inactive)
REMARK    1  A    between atoms: C4_4  and  C5_5 
REMARK    2  A    between atoms: C5_5  and  C6_6 
REMARK    3  A    between atoms: C6_6  and  C7_7 
REMARK    4  A    between atoms: C9_9  and  C10_10 
REMARK    5  A    between atoms: C11_11  and  C12_12 
REMARK    6  A    between atoms: C14_14  and  C15_15 
REMARK    7  A    between atoms: C18_18  and  C19_19 
REMARK    8  A    between atoms: C19_19  and  C20_20 
REMARK    9  A    between atoms: C20_20  and  C21_21 
REMARK   10  A    between atoms: C21_21  and  O1_22 
REMARK   11  A    between atoms: C23_24  and  C25_26 
REMARK   12  A    between atoms: C28_30  and  O3_32 
REMARK   13  A    between atoms: C30_33  and  O4_34 
ROOT
HETATM    1  C15 UNL     1     -10.963  46.240 -26.663  1.00  0.00     0.149 C 
HETATM    2  C16 UNL     1     -10.650  45.807 -28.096  1.00  0.00     0.054 C 
HETATM    3  C17 UNL     1      -9.855  46.977 -28.750  1.00  0.00     0.050 C 
HETATM    4  C18 UNL     1      -8.592  46.400 -29.505  1.00  0.00     0.032 C 
HETATM    5  C22 UNL     1      -9.046  45.366 -30.551  1.00  0.00    -0.066 C 
HETATM    6  C23 UNL     1      -8.453  44.163 -30.780  1.00  0.00    -0.021 C 
HETATM    7  C24 UNL     1      -8.952  43.115 -31.747  1.00  0.00     0.052 C 
HETATM    8  C26 UNL     1     -10.342  45.718 -31.270  1.00  0.00     0.038 C 
HETATM    9  C27 UNL     1     -10.804  47.169 -31.169  1.00  0.00     0.042 C 
HETATM   10  C28 UNL     1     -10.724  47.819 -29.765  1.00  0.00     0.067 C 
HETATM   11  C29 UNL     1     -12.135  48.170 -29.275  1.00  0.00     0.047 C 
HETATM   12  C30 UNL     1      -9.436  47.742 -27.472  1.00  0.00     0.270 C 
HETATM   13  O5  UNL     1     -10.496  47.585 -26.538  1.00  0.00    -0.351 OA
ENDROOT
BRANCH   4  14
HETATM   14  C19 UNL     1      -7.666  47.484 -30.119  1.00  0.00     0.012 C 
BRANCH  14  15
HETATM   15  C20 UNL     1      -6.176  47.284 -29.830  1.00  0.00     0.027 C 
BRANCH  15  16
HETATM   16  C21 UNL     1      -5.809  47.764 -28.431  1.00  0.00     0.164 C 
BRANCH  16  17
HETATM   17  O1  UNL     1      -5.000  48.929 -28.529  1.00  0.00    -0.401 OA
HETATM   18  H32 UNL     1      -5.549  49.635 -28.911  1.00  0.00     0.209 HD
ENDBRANCH  16  17
ENDBRANCH  15  16
ENDBRANCH  14  15
ENDBRANCH   4  14
BRANCH  10  19
HETATM   19  O3  UNL     1     -10.113  49.102 -30.020  1.00  0.00    -0.389 OA
HETATM   20  H44 UNL     1      -9.878  49.489 -29.147  1.00  0.00     0.210 HD
ENDBRANCH  10  19
BRANCH  12  21
HETATM   21  O4  UNL     1      -9.223  49.123 -27.660  1.00  0.00    -0.370 OA
HETATM   22  H46 UNL     1      -8.929  49.446 -26.787  1.00  0.00     0.212 HD
ENDBRANCH  12  21
BRANCH   1  23
HETATM   23  C14 UNL     1     -12.421  46.210 -26.318  1.00  0.00     0.011 C 
HETATM   24  C12 UNL     1     -12.989  46.020 -25.107  1.00  0.00    -0.063 C 
HETATM   25  C13 UNL     1     -12.212  45.739 -23.846  1.00  0.00     0.048 C 
BRANCH  24  26
HETATM   26  C11 UNL     1     -14.452  46.054 -25.015  1.00  0.00     0.006 C 
HETATM   27  C10 UNL     1     -15.198  47.077 -24.561  1.00  0.00     0.001 C 
BRANCH  27  28
HETATM   28  C9  UNL     1     -16.644  47.017 -24.508  1.00  0.00     0.002 C 
HETATM   29  C7  UNL     1     -17.403  46.599 -23.473  1.00  0.00    -0.084 C 
HETATM   30  C8  UNL     1     -16.875  46.068 -22.166  1.00  0.00     0.043 C 
BRANCH  29  31
HETATM   31  C6  UNL     1     -18.919  46.610 -23.604  1.00  0.00     0.037 C 
BRANCH  31  32
HETATM   32  C5  UNL     1     -19.448  46.031 -24.924  1.00  0.00     0.031 C 
BRANCH  32  33
HETATM   33  C4  UNL     1     -19.298  44.536 -25.036  1.00  0.00    -0.024 C 
HETATM   34  C2  UNL     1     -19.872  43.584 -24.274  1.00  0.00    -0.091 C 
HETATM   35  C1  UNL     1     -19.636  42.122 -24.564  1.00  0.00     0.042 C 
HETATM   36  C3  UNL     1     -20.767  43.836 -23.091  1.00  0.00     0.042 C 
ENDBRANCH  32  33
ENDBRANCH  31  32
ENDBRANCH  29  31
ENDBRANCH  27  28
ENDBRANCH  24  26
ENDBRANCH   1  23
BRANCH   6  37
HETATM   37  C25 UNL     1      -7.214  43.713 -30.065  1.00  0.00     0.265 C 
HETATM   38  O2  UNL     1      -7.077  43.811 -28.850  1.00  0.00    -0.302 OA
ENDBRANCH   6  37
TORSDOF 13
ENDMDL
