MODEL 1
REMARK minimizedAffinity -8.91708183
REMARK CNNscore 0.430857837
REMARK CNNaffinity 6.62700033
REMARK  13 active torsions:
REMARK  status: ('A' for Active; 'I' for Inactive)
REMARK    1  A    between atoms: C3_3  and  O1_4 
REMARK    2  A    between atoms: N1_14  and  O2_16 
REMARK    3  A    between atoms: O2_16  and  C13_17 
REMARK    4  A    between atoms: C13_17  and  C14_18 
REMARK       I    between atoms: C14_18  and  N2_20 
REMARK    5  A    between atoms: N2_20  and  C15_21 
REMARK    6  A    between atoms: C15_21  and  C16_22 
REMARK    7  A    between atoms: C15_21  and  C21_33 
REMARK       I    between atoms: C16_22  and  N3_24 
REMARK    8  A    between atoms: N3_24  and  C17_25 
REMARK    9  A    between atoms: C17_25  and  C18_26 
REMARK   10  A    between atoms: C17_25  and  C20_30 
REMARK   11  A    between atoms: C18_26  and  C19_27 
REMARK   12  A    between atoms: C19_27  and  O6_29 
REMARK   13  A    between atoms: C20_30  and  O8_32 
ROOT
HETATM    1  C1  UNL     1      -8.977   6.744  14.417  1.00  0.00     0.015 C 
HETATM    2  C2  UNL     1      -7.846   6.346  14.402  1.00  0.00    -0.078 C 
HETATM    3  C3  UNL     1      -6.462   5.839  14.390  1.00  0.00     0.128 C 
HETATM    4  C4  UNL     1      -6.259   4.777  13.304  1.00  0.00     0.052 C 
HETATM    5  C5  UNL     1      -4.742   4.679  13.213  1.00  0.00     0.010 C 
HETATM    6  C6  UNL     1      -4.295   6.147  13.218  1.00  0.00     0.002 C 
HETATM    7  C7  UNL     1      -2.800   6.402  13.539  1.00  0.00    -0.004 C 
HETATM    8  C8  UNL     1      -2.151   5.479  14.585  1.00  0.00     0.010 C 
HETATM    9  C9  UNL     1      -0.662   5.775  14.760  1.00  0.00     0.035 C 
HETATM   10  C10 UNL     1      -0.349   7.239  14.984  1.00  0.00    -0.069 C 
HETATM   11  C11 UNL     1       0.530   7.593  15.936  1.00  0.00     0.030 C 
HETATM   12  C12 UNL     1       0.988   8.997  16.107  1.00  0.00     0.032 C 
HETATM   13  N1  UNL     1       1.776   9.241  17.114  1.00  0.00    -0.271 N 
ATOM     14  H1  UNL     1       2.072   8.530  17.783  1.00  0.00     0.194 HD
HETATM   15  C24 UNL     1       0.550  10.018  15.077  1.00  0.00     0.060 C 
HETATM   16  C25 UNL     1      -0.862   9.699  14.587  1.00  0.00     0.020 C 
HETATM   17  C26 UNL     1      -1.033   8.243  14.058  1.00  0.00    -0.016 C 
HETATM   18  C27 UNL     1      -0.347   8.168  12.671  1.00  0.00     0.020 C 
HETATM   19  C28 UNL     1      -2.566   7.890  13.904  1.00  0.00     0.002 C 
HETATM   20  C29 UNL     1      -3.429   8.301  15.127  1.00  0.00     0.007 C 
HETATM   21  C30 UNL     1      -4.701   7.478  15.363  1.00  0.00     0.014 C 
HETATM   22  C31 UNL     1      -5.349   6.916  14.086  1.00  0.00     0.003 C 
HETATM   23  C32 UNL     1      -5.912   8.092  13.243  1.00  0.00     0.020 C 
ENDROOT
BRANCH   3  24
HETATM   24  O1  UNL     1      -6.220   5.200  15.646  1.00  0.00    -0.377 OA
HETATM   25  H2  UNL     1      -7.013   4.684  15.865  1.00  0.00     0.211 HD
ENDBRANCH   3  24
BRANCH  13  26
HETATM   26  O2  UNL     1       2.176  10.583  17.181  1.00  0.00    -0.271 OA
BRANCH  26  27
HETATM   27  C13 UNL     1       1.793  11.077  18.460  1.00  0.00     0.303 C 
BRANCH  27  28
HETATM   28  C14 UNL     1       2.674  10.578  19.596  1.00  0.00     0.244 C 
HETATM   29  O3  UNL     1       2.633   9.408  19.983  1.00  0.00    -0.271 OA
HETATM   30  N2  UNL     1       3.560  11.488  20.128  1.00  0.00    -0.346 N 
HETATM   31  H16 UNL     1       3.741  12.329  19.587  1.00  0.00     0.163 HD
BRANCH  30  32
HETATM   32  C15 UNL     1       4.515  11.106  21.174  1.00  0.00     0.180 C 
BRANCH  32  33
HETATM   33  C16 UNL     1       5.879  11.735  20.788  1.00  0.00     0.241 C 
HETATM   34  O4  UNL     1       6.381  11.646  19.669  1.00  0.00    -0.271 OA
HETATM   35  N3  UNL     1       6.507  12.393  21.833  1.00  0.00    -0.344 N 
HETATM   36  H18 UNL     1       6.142  12.189  22.765  1.00  0.00     0.163 HD
BRANCH  35  37
HETATM   37  C17 UNL     1       7.929  12.746  21.734  1.00  0.00     0.192 C 
BRANCH  37  38
HETATM   38  C18 UNL     1       8.074  14.233  21.430  1.00  0.00     0.146 C 
BRANCH  38  39
HETATM   39  C19 UNL     1       8.411  15.016  22.667  1.00  0.00     0.141 C 
HETATM   40  O5  UNL     1       7.637  15.318  23.561  1.00  0.00    -0.650 OA
BRANCH  39  41
HETATM   41  O6  UNL     1       9.693  15.409  22.706  1.00  0.00    -0.776 OA
HETATM   42  H22 UNL     1       9.769  15.879  23.566  1.00  0.00     0.167 HD
ENDBRANCH  39  41
ENDBRANCH  38  39
ENDBRANCH  37  38
BRANCH  37  43
HETATM   43  C20 UNL     1       8.667  12.424  23.045  1.00  0.00     0.164 C 
HETATM   44  O7  UNL     1       9.026  11.316  23.411  1.00  0.00    -0.648 OA
BRANCH  43  45
HETATM   45  O8  UNL     1       8.995  13.504  23.783  1.00  0.00    -0.775 OA
HETATM   46  H23 UNL     1       9.494  13.126  24.538  1.00  0.00     0.167 HD
ENDBRANCH  43  45
ENDBRANCH  37  43
ENDBRANCH  35  37
ENDBRANCH  32  33
BRANCH  32  47
HETATM   47  C21 UNL     1       4.030  11.551  22.574  1.00  0.00     0.009 C 
HETATM   48  C22 UNL     1       3.410  10.376  23.343  1.00  0.00     0.012 C 
HETATM   49  C23 UNL     1       2.992  12.677  22.467  1.00  0.00     0.012 C 
ENDBRANCH  32  47
ENDBRANCH  30  32
ENDBRANCH  27  28
ENDBRANCH  26  27
ENDBRANCH  13  26
TORSDOF 13
ENDMDL
MODEL 2
REMARK minimizedAffinity -9.21220589
REMARK CNNscore 0.327118874
REMARK CNNaffinity 6.7138443
REMARK  13 active torsions:
REMARK  status: ('A' for Active; 'I' for Inactive)
REMARK    1  A    between atoms: C3_3  and  O1_4 
REMARK    2  A    between atoms: N1_14  and  O2_16 
REMARK    3  A    between atoms: O2_16  and  C13_17 
REMARK    4  A    between atoms: C13_17  and  C14_18 
REMARK       I    between atoms: C14_18  and  N2_20 
REMARK    5  A    between atoms: N2_20  and  C15_21 
REMARK    6  A    between atoms: C15_21  and  C16_22 
REMARK    7  A    between atoms: C15_21  and  C21_33 
REMARK       I    between atoms: C16_22  and  N3_24 
REMARK    8  A    between atoms: N3_24  and  C17_25 
REMARK    9  A    between atoms: C17_25  and  C18_26 
REMARK   10  A    between atoms: C17_25  and  C20_30 
REMARK   11  A    between atoms: C18_26  and  C19_27 
REMARK   12  A    between atoms: C19_27  and  O6_29 
REMARK   13  A    between atoms: C20_30  and  O8_32 
ROOT
HETATM    1  C1  UNL     1      -7.518   8.113  15.405  1.00  0.00     0.015 C 
HETATM    2  C2  UNL     1      -6.561   7.444  15.128  1.00  0.00    -0.078 C 
HETATM    3  C3  UNL     1      -5.393   6.608  14.798  1.00  0.00     0.128 C 
HETATM    4  C4  UNL     1      -5.783   5.418  13.915  1.00  0.00     0.052 C 
HETATM    5  C5  UNL     1      -4.435   4.933  13.397  1.00  0.00     0.010 C 
HETATM    6  C6  UNL     1      -3.724   6.233  12.999  1.00  0.00     0.002 C 
HETATM    7  C7  UNL     1      -2.188   6.138  12.808  1.00  0.00    -0.004 C 
HETATM    8  C8  UNL     1      -1.430   5.201  13.765  1.00  0.00     0.010 C 
HETATM    9  C9  UNL     1       0.060   5.131  13.431  1.00  0.00     0.035 C 
HETATM   10  C10 UNL     1       0.719   6.485  13.279  1.00  0.00    -0.069 C 
HETATM   11  C11 UNL     1       1.917   6.708  13.844  1.00  0.00     0.030 C 
HETATM   12  C12 UNL     1       2.681   7.963  13.611  1.00  0.00     0.032 C 
HETATM   13  N1  UNL     1       3.791   8.109  14.275  1.00  0.00    -0.271 N 
ATOM     14  H1  UNL     1       4.141   7.424  14.945  1.00  0.00     0.194 HD
HETATM   15  C24 UNL     1       2.142   8.943  12.588  1.00  0.00     0.060 C 
HETATM   16  C25 UNL     1       0.614   8.936  12.608  1.00  0.00     0.020 C 
HETATM   17  C26 UNL     1      -0.015   7.522  12.431  1.00  0.00    -0.016 C 
HETATM   18  C27 UNL     1       0.141   7.126  10.941  1.00  0.00     0.020 C 
HETATM   19  C28 UNL     1      -1.550   7.550  12.807  1.00  0.00     0.002 C 
HETATM   20  C29 UNL     1      -1.855   8.296  14.134  1.00  0.00     0.007 C 
HETATM   21  C30 UNL     1      -3.115   7.848  14.885  1.00  0.00     0.014 C 
HETATM   22  C31 UNL     1      -4.251   7.332  13.985  1.00  0.00     0.003 C 
HETATM   23  C32 UNL     1      -4.811   8.513  13.146  1.00  0.00     0.020 C 
ENDROOT
BRANCH   3  24
HETATM   24  O1  UNL     1      -4.883   6.070  16.020  1.00  0.00    -0.377 OA
HETATM   25  H2  UNL     1      -5.645   5.797  16.556  1.00  0.00     0.211 HD
ENDBRANCH   3  24
BRANCH  13  26
HETATM   26  O2  UNL     1       4.453   9.307  13.972  1.00  0.00    -0.271 OA
BRANCH  26  27
HETATM   27  C13 UNL     1       5.044   9.783  15.177  1.00  0.00     0.303 C 
BRANCH  27  28
HETATM   28  C14 UNL     1       6.435   9.222  15.437  1.00  0.00     0.244 C 
HETATM   29  O3  UNL     1       6.605   8.168  16.054  1.00  0.00    -0.271 OA
HETATM   30  N2  UNL     1       7.488   9.925  14.896  1.00  0.00    -0.346 N 
HETATM   31  H16 UNL     1       7.269  10.608  14.176  1.00  0.00     0.163 HD
BRANCH  30  32
HETATM   32  C15 UNL     1       8.870   9.445  15.013  1.00  0.00     0.180 C 
BRANCH  32  33
HETATM   33  C16 UNL     1       9.219   9.446  16.524  1.00  0.00     0.241 C 
HETATM   34  O4  UNL     1       9.178   8.443  17.236  1.00  0.00    -0.271 OA
HETATM   35  N3  UNL     1       9.560  10.693  17.019  1.00  0.00    -0.344 N 
HETATM   36  H18 UNL     1       9.314  11.485  16.423  1.00  0.00     0.163 HD
BRANCH  35  37
HETATM   37  C17 UNL     1       9.589  10.929  18.468  1.00  0.00     0.192 C 
BRANCH  37  38
HETATM   38  C18 UNL     1      10.555  12.064  18.789  1.00  0.00     0.146 C 
BRANCH  38  39
HETATM   39  C19 UNL     1      11.254  11.837  20.099  1.00  0.00     0.141 C 
HETATM   40  O5  UNL     1      12.185  11.071  20.295  1.00  0.00    -0.650 OA
BRANCH  39  41
HETATM   41  O6  UNL     1      10.732  12.554  21.104  1.00  0.00    -0.776 OA
HETATM   42  H22 UNL     1      11.296  12.324  21.876  1.00  0.00     0.167 HD
ENDBRANCH  39  41
ENDBRANCH  38  39
ENDBRANCH  37  38
BRANCH  37  43
HETATM   43  C20 UNL     1       8.190  11.295  18.993  1.00  0.00     0.164 C 
HETATM   44  O7  UNL     1       7.887  12.331  19.563  1.00  0.00    -0.648 OA
BRANCH  43  45
HETATM   45  O8  UNL     1       7.229  10.393  18.703  1.00  0.00    -0.775 OA
HETATM   46  H23 UNL     1       6.411  10.803  19.058  1.00  0.00     0.167 HD
ENDBRANCH  43  45
ENDBRANCH  37  43
ENDBRANCH  35  37
ENDBRANCH  32  33
BRANCH  32  47
HETATM   47  C21 UNL     1       9.043   8.052  14.363  1.00  0.00     0.009 C 
HETATM   48  C22 UNL     1      10.510   7.796  13.989  1.00  0.00     0.012 C 
HETATM   49  C23 UNL     1       8.180   7.921  13.100  1.00  0.00     0.012 C 
ENDBRANCH  32  47
ENDBRANCH  30  32
ENDBRANCH  27  28
ENDBRANCH  26  27
ENDBRANCH  13  26
TORSDOF 13
ENDMDL
MODEL 3
REMARK minimizedAffinity -8.0827322
REMARK CNNscore 0.309837639
REMARK CNNaffinity 6.86143351
REMARK  13 active torsions:
REMARK  status: ('A' for Active; 'I' for Inactive)
REMARK    1  A    between atoms: C3_3  and  O1_4 
REMARK    2  A    between atoms: N1_14  and  O2_16 
REMARK    3  A    between atoms: O2_16  and  C13_17 
REMARK    4  A    between atoms: C13_17  and  C14_18 
REMARK       I    between atoms: C14_18  and  N2_20 
REMARK    5  A    between atoms: N2_20  and  C15_21 
REMARK    6  A    between atoms: C15_21  and  C16_22 
REMARK    7  A    between atoms: C15_21  and  C21_33 
REMARK       I    between atoms: C16_22  and  N3_24 
REMARK    8  A    between atoms: N3_24  and  C17_25 
REMARK    9  A    between atoms: C17_25  and  C18_26 
REMARK   10  A    between atoms: C17_25  and  C20_30 
REMARK   11  A    between atoms: C18_26  and  C19_27 
REMARK   12  A    between atoms: C19_27  and  O6_29 
REMARK   13  A    between atoms: C20_30  and  O8_32 
ROOT
HETATM    1  C1  UNL     1       0.059   9.819  14.410  1.00  0.00     0.015 C 
HETATM    2  C2  UNL     1      -0.684   8.923  14.121  1.00  0.00    -0.078 C 
HETATM    3  C3  UNL     1      -1.585   7.816  13.752  1.00  0.00     0.128 C 
HETATM    4  C4  UNL     1      -0.965   6.453  14.074  1.00  0.00     0.052 C 
HETATM    5  C5  UNL     1      -2.160   5.513  13.981  1.00  0.00     0.010 C 
HETATM    6  C6  UNL     1      -3.261   6.270  14.735  1.00  0.00     0.002 C 
HETATM    7  C7  UNL     1      -4.712   5.784  14.490  1.00  0.00    -0.004 C 
HETATM    8  C8  UNL     1      -5.050   5.312  13.065  1.00  0.00     0.010 C 
HETATM    9  C9  UNL     1      -6.482   4.786  12.965  1.00  0.00     0.035 C 
HETATM   10  C10 UNL     1      -7.522   5.721  13.543  1.00  0.00    -0.069 C 
HETATM   11  C11 UNL     1      -8.661   5.947  12.869  1.00  0.00     0.030 C 
HETATM   12  C12 UNL     1      -9.780   6.736  13.448  1.00  0.00     0.032 C 
HETATM   13  N1  UNL     1     -10.803   6.963  12.675  1.00  0.00    -0.271 N 
ATOM     14  H1  UNL     1     -10.860   6.645  11.708  1.00  0.00     0.194 HD
HETATM   15  C24 UNL     1      -9.670   7.168  14.897  1.00  0.00     0.060 C 
HETATM   16  C25 UNL     1      -8.215   7.482  15.242  1.00  0.00     0.020 C 
HETATM   17  C26 UNL     1      -7.224   6.326  14.913  1.00  0.00    -0.016 C 
HETATM   18  C27 UNL     1      -7.422   5.224  15.983  1.00  0.00     0.020 C 
HETATM   19  C28 UNL     1      -5.732   6.848  14.968  1.00  0.00     0.002 C 
HETATM   20  C29 UNL     1      -5.513   8.196  14.231  1.00  0.00     0.007 C 
HETATM   21  C30 UNL     1      -4.102   8.445  13.686  1.00  0.00     0.014 C 
HETATM   22  C31 UNL     1      -2.972   7.794  14.503  1.00  0.00     0.003 C 
HETATM   23  C32 UNL     1      -2.881   8.490  15.888  1.00  0.00     0.020 C 
ENDROOT
BRANCH   3  24
HETATM   24  O1  UNL     1      -1.775   7.862  12.336  1.00  0.00    -0.377 OA
HETATM   25  H2  UNL     1      -0.911   8.052  11.935  1.00  0.00     0.211 HD
ENDBRANCH   3  24
BRANCH  13  26
HETATM   26  O2  UNL     1     -11.818   7.691  13.313  1.00  0.00    -0.271 OA
BRANCH  26  27
HETATM   27  C13 UNL     1     -12.072   8.848  12.523  1.00  0.00     0.303 C 
BRANCH  27  28
HETATM   28  C14 UNL     1     -13.003   9.850  13.190  1.00  0.00     0.244 C 
HETATM   29  O3  UNL     1     -13.656   9.559  14.196  1.00  0.00    -0.271 OA
HETATM   30  N2  UNL     1     -13.032  11.114  12.646  1.00  0.00    -0.346 N 
HETATM   31  H16 UNL     1     -12.277  11.364  12.014  1.00  0.00     0.163 HD
BRANCH  30  32
HETATM   32  C15 UNL     1     -13.831  12.189  13.246  1.00  0.00     0.180 C 
BRANCH  32  33
HETATM   33  C16 UNL     1     -15.304  11.704  13.249  1.00  0.00     0.241 C 
HETATM   34  O4  UNL     1     -15.957  11.507  14.273  1.00  0.00    -0.271 OA
HETATM   35  N3  UNL     1     -15.823  11.482  11.984  1.00  0.00    -0.344 N 
HETATM   36  H18 UNL     1     -15.135  11.423  11.231  1.00  0.00     0.163 HD
BRANCH  35  37
HETATM   37  C17 UNL     1     -17.063  10.715  11.820  1.00  0.00     0.192 C 
BRANCH  37  38
HETATM   38  C18 UNL     1     -18.068  11.522  11.005  1.00  0.00     0.146 C 
BRANCH  38  39
HETATM   39  C19 UNL     1     -17.788  12.995  11.091  1.00  0.00     0.141 C 
HETATM   40  O5  UNL     1     -18.040  13.722  12.039  1.00  0.00    -0.650 OA
BRANCH  39  41
HETATM   41  O6  UNL     1     -17.237  13.491   9.973  1.00  0.00    -0.776 OA
HETATM   42  H22 UNL     1     -17.092  14.440  10.183  1.00  0.00     0.167 HD
ENDBRANCH  39  41
ENDBRANCH  38  39
ENDBRANCH  37  38
BRANCH  37  43
HETATM   43  C20 UNL     1     -16.792   9.379  11.107  1.00  0.00     0.164 C 
HETATM   44  O7  UNL     1     -15.708   8.827  11.008  1.00  0.00    -0.648 OA
BRANCH  43  45
HETATM   45  O8  UNL     1     -17.895   8.762  10.633  1.00  0.00    -0.775 OA
HETATM   46  H23 UNL     1     -17.550   7.920  10.266  1.00  0.00     0.167 HD
ENDBRANCH  43  45
ENDBRANCH  37  43
ENDBRANCH  35  37
ENDBRANCH  32  33
BRANCH  32  47
HETATM   47  C21 UNL     1     -13.321  12.552  14.661  1.00  0.00     0.009 C 
HETATM   48  C22 UNL     1     -13.871  13.912  15.113  1.00  0.00     0.012 C 
HETATM   49  C23 UNL     1     -11.787  12.599  14.700  1.00  0.00     0.012 C 
ENDBRANCH  32  47
ENDBRANCH  30  32
ENDBRANCH  27  28
ENDBRANCH  26  27
ENDBRANCH  13  26
TORSDOF 13
ENDMDL
MODEL 4
REMARK minimizedAffinity -7.88953018
REMARK CNNscore 0.284695864
REMARK CNNaffinity 6.72835588
REMARK  13 active torsions:
REMARK  status: ('A' for Active; 'I' for Inactive)
REMARK    1  A    between atoms: C3_3  and  O1_4 
REMARK    2  A    between atoms: N1_14  and  O2_16 
REMARK    3  A    between atoms: O2_16  and  C13_17 
REMARK    4  A    between atoms: C13_17  and  C14_18 
REMARK       I    between atoms: C14_18  and  N2_20 
REMARK    5  A    between atoms: N2_20  and  C15_21 
REMARK    6  A    between atoms: C15_21  and  C16_22 
REMARK    7  A    between atoms: C15_21  and  C21_33 
REMARK       I    between atoms: C16_22  and  N3_24 
REMARK    8  A    between atoms: N3_24  and  C17_25 
REMARK    9  A    between atoms: C17_25  and  C18_26 
REMARK   10  A    between atoms: C17_25  and  C20_30 
REMARK   11  A    between atoms: C18_26  and  C19_27 
REMARK   12  A    between atoms: C19_27  and  O6_29 
REMARK   13  A    between atoms: C20_30  and  O8_32 
ROOT
HETATM    1  C1  UNL     1      -7.366   8.086  15.526  1.00  0.00     0.015 C 
HETATM    2  C2  UNL     1      -6.431   7.405  15.207  1.00  0.00    -0.078 C 
HETATM    3  C3  UNL     1      -5.291   6.554  14.825  1.00  0.00     0.128 C 
HETATM    4  C4  UNL     1      -5.738   5.360  13.975  1.00  0.00     0.052 C 
HETATM    5  C5  UNL     1      -4.423   4.856  13.392  1.00  0.00     0.010 C 
HETATM    6  C6  UNL     1      -3.721   6.144  12.945  1.00  0.00     0.002 C 
HETATM    7  C7  UNL     1      -2.198   6.032  12.676  1.00  0.00    -0.004 C 
HETATM    8  C8  UNL     1      -1.402   5.095  13.602  1.00  0.00     0.010 C 
HETATM    9  C9  UNL     1       0.068   5.007  13.192  1.00  0.00     0.035 C 
HETATM   10  C10 UNL     1       0.733   6.352  12.993  1.00  0.00    -0.069 C 
HETATM   11  C11 UNL     1       1.960   6.568  13.493  1.00  0.00     0.030 C 
HETATM   12  C12 UNL     1       2.724   7.812  13.208  1.00  0.00     0.032 C 
HETATM   13  N1  UNL     1       3.868   7.953  13.813  1.00  0.00    -0.271 N 
ATOM     14  H1  UNL     1       4.246   7.270  14.470  1.00  0.00     0.194 HD
HETATM   15  C24 UNL     1       2.142   8.788  12.205  1.00  0.00     0.060 C 
HETATM   16  C25 UNL     1       0.617   8.798  12.304  1.00  0.00     0.020 C 
HETATM   17  C26 UNL     1      -0.034   7.388  12.173  1.00  0.00    -0.016 C 
HETATM   18  C27 UNL     1       0.041   6.978  10.682  1.00  0.00     0.020 C 
HETATM   19  C28 UNL     1      -1.547   7.436  12.629  1.00  0.00     0.002 C 
HETATM   20  C29 UNL     1      -1.775   8.198  13.963  1.00  0.00     0.007 C 
HETATM   21  C30 UNL     1      -2.999   7.771  14.781  1.00  0.00     0.014 C 
HETATM   22  C31 UNL     1      -4.185   7.257  13.946  1.00  0.00     0.003 C 
HETATM   23  C32 UNL     1      -4.776   8.437  13.126  1.00  0.00     0.020 C 
ENDROOT
BRANCH   3  24
HETATM   24  O1  UNL     1      -4.723   6.021  16.024  1.00  0.00    -0.377 OA
HETATM   25  H2  UNL     1      -5.460   5.762  16.601  1.00  0.00     0.211 HD
ENDBRANCH   3  24
BRANCH  13  26
HETATM   26  O2  UNL     1       4.526   9.140  13.465  1.00  0.00    -0.271 OA
BRANCH  26  27
HETATM   27  C13 UNL     1       5.267   8.884  12.277  1.00  0.00     0.303 C 
BRANCH  27  28
HETATM   28  C14 UNL     1       6.775   8.968  12.468  1.00  0.00     0.244 C 
HETATM   29  O3  UNL     1       7.562   8.587  11.598  1.00  0.00    -0.271 OA
HETATM   30  N2  UNL     1       7.211   9.546  13.639  1.00  0.00    -0.346 N 
HETATM   31  H16 UNL     1       6.533  10.086  14.170  1.00  0.00     0.163 HD
BRANCH  30  32
HETATM   32  C15 UNL     1       8.639   9.754  13.905  1.00  0.00     0.180 C 
BRANCH  32  33
HETATM   33  C16 UNL     1       8.761  11.095  14.676  1.00  0.00     0.241 C 
HETATM   34  O4  UNL     1       8.158  12.120  14.365  1.00  0.00    -0.271 OA
HETATM   35  N3  UNL     1       9.640  11.046  15.746  1.00  0.00    -0.344 N 
HETATM   36  H18 UNL     1      10.273  10.244  15.759  1.00  0.00     0.163 HD
BRANCH  35  37
HETATM   37  C17 UNL     1      10.121  12.289  16.361  1.00  0.00     0.192 C 
BRANCH  37  38
HETATM   38  C18 UNL     1       9.899  12.241  17.869  1.00  0.00     0.146 C 
BRANCH  38  39
HETATM   39  C19 UNL     1       9.617  10.842  18.338  1.00  0.00     0.141 C 
HETATM   40  O5  UNL     1       8.523  10.387  18.632  1.00  0.00    -0.650 OA
BRANCH  39  41
HETATM   41  O6  UNL     1      10.724  10.093  18.448  1.00  0.00    -0.776 OA
HETATM   42  H22 UNL     1      10.387   9.215  18.735  1.00  0.00     0.167 HD
ENDBRANCH  39  41
ENDBRANCH  38  39
ENDBRANCH  37  38
BRANCH  37  43
HETATM   43  C20 UNL     1      11.619  12.498  16.079  1.00  0.00     0.164 C 
HETATM   44  O7  UNL     1      12.351  11.722  15.486  1.00  0.00    -0.648 OA
BRANCH  43  45
HETATM   45  O8  UNL     1      12.102  13.696  16.471  1.00  0.00    -0.775 OA
HETATM   46  H23 UNL     1      13.036  13.678  16.173  1.00  0.00     0.167 HD
ENDBRANCH  43  45
ENDBRANCH  37  43
ENDBRANCH  35  37
ENDBRANCH  32  33
BRANCH  32  47
HETATM   47  C21 UNL     1       9.250   8.564  14.682  1.00  0.00     0.009 C 
HETATM   48  C22 UNL     1      10.196   7.749  13.788  1.00  0.00     0.012 C 
HETATM   49  C23 UNL     1       8.154   7.634  15.220  1.00  0.00     0.012 C 
ENDBRANCH  32  47
ENDBRANCH  30  32
ENDBRANCH  27  28
ENDBRANCH  26  27
ENDBRANCH  13  26
TORSDOF 13
ENDMDL
MODEL 5
REMARK minimizedAffinity -8.448946
REMARK CNNscore 0.268716156
REMARK CNNaffinity 6.69131041
REMARK  13 active torsions:
REMARK  status: ('A' for Active; 'I' for Inactive)
REMARK    1  A    between atoms: C3_3  and  O1_4 
REMARK    2  A    between atoms: N1_14  and  O2_16 
REMARK    3  A    between atoms: O2_16  and  C13_17 
REMARK    4  A    between atoms: C13_17  and  C14_18 
REMARK       I    between atoms: C14_18  and  N2_20 
REMARK    5  A    between atoms: N2_20  and  C15_21 
REMARK    6  A    between atoms: C15_21  and  C16_22 
REMARK    7  A    between atoms: C15_21  and  C21_33 
REMARK       I    between atoms: C16_22  and  N3_24 
REMARK    8  A    between atoms: N3_24  and  C17_25 
REMARK    9  A    between atoms: C17_25  and  C18_26 
REMARK   10  A    between atoms: C17_25  and  C20_30 
REMARK   11  A    between atoms: C18_26  and  C19_27 
REMARK   12  A    between atoms: C19_27  and  O6_29 
REMARK   13  A    between atoms: C20_30  and  O8_32 
ROOT
HETATM    1  C1  UNL     1      -7.386   8.327  15.360  1.00  0.00     0.015 C 
HETATM    2  C2  UNL     1      -6.468   7.605  15.085  1.00  0.00    -0.078 C 
HETATM    3  C3  UNL     1      -5.348   6.705  14.759  1.00  0.00     0.128 C 
HETATM    4  C4  UNL     1      -5.823   5.468  13.990  1.00  0.00     0.052 C 
HETATM    5  C5  UNL     1      -4.521   4.897  13.441  1.00  0.00     0.010 C 
HETATM    6  C6  UNL     1      -3.791   6.137  12.910  1.00  0.00     0.002 C 
HETATM    7  C7  UNL     1      -2.272   5.973  12.648  1.00  0.00    -0.004 C 
HETATM    8  C8  UNL     1      -1.495   5.082  13.632  1.00  0.00     0.010 C 
HETATM    9  C9  UNL     1      -0.028   4.934  13.228  1.00  0.00     0.035 C 
HETATM   10  C10 UNL     1       0.666   6.248  12.941  1.00  0.00    -0.069 C 
HETATM   11  C11 UNL     1       1.899   6.468  13.425  1.00  0.00     0.030 C 
HETATM   12  C12 UNL     1       2.690   7.673  13.058  1.00  0.00     0.032 C 
HETATM   13  N1  UNL     1       3.838   7.828  13.651  1.00  0.00    -0.271 N 
ATOM     14  H1  UNL     1       4.202   7.182  14.352  1.00  0.00     0.194 HD
HETATM   15  C24 UNL     1       2.128   8.594  11.993  1.00  0.00     0.060 C 
HETATM   16  C25 UNL     1       0.604   8.645  12.093  1.00  0.00     0.020 C 
HETATM   17  C26 UNL     1      -0.079   7.245  12.055  1.00  0.00    -0.016 C 
HETATM   18  C27 UNL     1      -0.016   6.736  10.594  1.00  0.00     0.020 C 
HETATM   19  C28 UNL     1      -1.589   7.357  12.508  1.00  0.00     0.002 C 
HETATM   20  C29 UNL     1      -1.798   8.209  13.789  1.00  0.00     0.007 C 
HETATM   21  C30 UNL     1      -3.029   7.864  14.635  1.00  0.00     0.014 C 
HETATM   22  C31 UNL     1      -4.228   7.324  13.836  1.00  0.00     0.003 C 
HETATM   23  C32 UNL     1      -4.794   8.460  12.940  1.00  0.00     0.020 C 
ENDROOT
BRANCH   3  24
HETATM   24  O1  UNL     1      -4.789   6.240  15.991  1.00  0.00    -0.377 OA
HETATM   25  H2  UNL     1      -5.530   6.035  16.584  1.00  0.00     0.211 HD
ENDBRANCH   3  24
BRANCH  13  26
HETATM   26  O2  UNL     1       4.522   8.975  13.225  1.00  0.00    -0.271 OA
BRANCH  26  27
HETATM   27  C13 UNL     1       5.890   8.813  13.584  1.00  0.00     0.303 C 
BRANCH  27  28
HETATM   28  C14 UNL     1       6.153   8.976  15.074  1.00  0.00     0.244 C 
HETATM   29  O3  UNL     1       5.755   8.148  15.898  1.00  0.00    -0.271 OA
HETATM   30  N2  UNL     1       6.909  10.065  15.446  1.00  0.00    -0.346 N 
HETATM   31  H16 UNL     1       7.434  10.536  14.714  1.00  0.00     0.163 HD
BRANCH  30  32
HETATM   32  C15 UNL     1       7.295  10.289  16.844  1.00  0.00     0.180 C 
BRANCH  32  33
HETATM   33  C16 UNL     1       8.826  10.538  16.852  1.00  0.00     0.241 C 
HETATM   34  O4  UNL     1       9.608  10.019  16.057  1.00  0.00    -0.271 OA
HETATM   35  N3  UNL     1       9.249  11.386  17.862  1.00  0.00    -0.344 N 
HETATM   36  H18 UNL     1       8.574  11.550  18.611  1.00  0.00     0.163 HD
BRANCH  35  37
HETATM   37  C17 UNL     1      10.672  11.459  18.216  1.00  0.00     0.192 C 
BRANCH  37  38
HETATM   38  C18 UNL     1      11.216  12.846  17.893  1.00  0.00     0.146 C 
BRANCH  38  39
HETATM   39  C19 UNL     1      11.920  13.450  19.074  1.00  0.00     0.141 C 
HETATM   40  O5  UNL     1      13.127  13.482  19.254  1.00  0.00    -0.650 OA
BRANCH  39  41
HETATM   41  O6  UNL     1      11.076  13.953  19.987  1.00  0.00    -0.776 OA
HETATM   42  H22 UNL     1      11.670  14.327  20.676  1.00  0.00     0.167 HD
ENDBRANCH  39  41
ENDBRANCH  38  39
ENDBRANCH  37  38
BRANCH  37  43
HETATM   43  C20 UNL     1      10.881  11.172  19.713  1.00  0.00     0.164 C 
HETATM   44  O7  UNL     1      10.063  11.361  20.599  1.00  0.00    -0.648 OA
BRANCH  43  45
HETATM   45  O8  UNL     1      12.059  10.586  20.012  1.00  0.00    -0.775 OA
HETATM   46  H23 UNL     1      12.001  10.430  20.979  1.00  0.00     0.167 HD
ENDBRANCH  43  45
ENDBRANCH  37  43
ENDBRANCH  35  37
ENDBRANCH  32  33
BRANCH  32  47
HETATM   47  C21 UNL     1       6.499  11.457  17.472  1.00  0.00     0.009 C 
HETATM   48  C22 UNL     1       6.906  12.800  16.849  1.00  0.00     0.012 C 
HETATM   49  C23 UNL     1       6.725  11.526  18.989  1.00  0.00     0.012 C 
ENDBRANCH  32  47
ENDBRANCH  30  32
ENDBRANCH  27  28
ENDBRANCH  26  27
ENDBRANCH  13  26
TORSDOF 13
ENDMDL
MODEL 6
REMARK minimizedAffinity -7.32187128
REMARK CNNscore 0.261490196
REMARK CNNaffinity 6.83367157
REMARK  13 active torsions:
REMARK  status: ('A' for Active; 'I' for Inactive)
REMARK    1  A    between atoms: C3_3  and  O1_4 
REMARK    2  A    between atoms: N1_14  and  O2_16 
REMARK    3  A    between atoms: O2_16  and  C13_17 
REMARK    4  A    between atoms: C13_17  and  C14_18 
REMARK       I    between atoms: C14_18  and  N2_20 
REMARK    5  A    between atoms: N2_20  and  C15_21 
REMARK    6  A    between atoms: C15_21  and  C16_22 
REMARK    7  A    between atoms: C15_21  and  C21_33 
REMARK       I    between atoms: C16_22  and  N3_24 
REMARK    8  A    between atoms: N3_24  and  C17_25 
REMARK    9  A    between atoms: C17_25  and  C18_26 
REMARK   10  A    between atoms: C17_25  and  C20_30 
REMARK   11  A    between atoms: C18_26  and  C19_27 
REMARK   12  A    between atoms: C19_27  and  O6_29 
REMARK   13  A    between atoms: C20_30  and  O8_32 
ROOT
HETATM    1  C1  UNL     1      -8.922   7.699  16.842  1.00  0.00     0.015 C 
HETATM    2  C2  UNL     1      -8.082   7.161  16.175  1.00  0.00    -0.078 C 
HETATM    3  C3  UNL     1      -7.061   6.484  15.356  1.00  0.00     0.128 C 
HETATM    4  C4  UNL     1      -7.638   5.996  14.024  1.00  0.00     0.052 C 
HETATM    5  C5  UNL     1      -6.386   5.690  13.211  1.00  0.00     0.010 C 
HETATM    6  C6  UNL     1      -5.487   6.903  13.482  1.00  0.00     0.002 C 
HETATM    7  C7  UNL     1      -3.986   6.730  13.134  1.00  0.00    -0.004 C 
HETATM    8  C8  UNL     1      -3.373   5.342  13.395  1.00  0.00     0.010 C 
HETATM    9  C9  UNL     1      -1.915   5.271  12.942  1.00  0.00     0.035 C 
HETATM   10  C10 UNL     1      -1.056   6.407  13.455  1.00  0.00    -0.069 C 
HETATM   11  C11 UNL     1       0.167   6.146  13.945  1.00  0.00     0.030 C 
HETATM   12  C12 UNL     1       1.113   7.228  14.328  1.00  0.00     0.032 C 
HETATM   13  N1  UNL     1       2.239   6.862  14.869  1.00  0.00    -0.271 N 
ATOM     14  H1  UNL     1       2.486   5.889  15.053  1.00  0.00     0.194 HD
HETATM   15  C24 UNL     1       0.722   8.658  14.013  1.00  0.00     0.060 C 
HETATM   16  C25 UNL     1      -0.788   8.835  14.163  1.00  0.00     0.020 C 
HETATM   17  C26 UNL     1      -1.629   7.818  13.336  1.00  0.00    -0.016 C 
HETATM   18  C27 UNL     1      -1.551   8.248  11.850  1.00  0.00     0.020 C 
HETATM   19  C28 UNL     1      -3.138   7.837  13.808  1.00  0.00     0.002 C 
HETATM   20  C29 UNL     1      -3.312   7.805  15.351  1.00  0.00     0.007 C 
HETATM   21  C30 UNL     1      -4.618   7.194  15.869  1.00  0.00     0.014 C 
HETATM   22  C31 UNL     1      -5.829   7.376  14.937  1.00  0.00     0.003 C 
HETATM   23  C32 UNL     1      -6.208   8.881  14.886  1.00  0.00     0.020 C 
ENDROOT
BRANCH   3  24
HETATM   24  O1  UNL     1      -6.628   5.324  16.072  1.00  0.00    -0.377 OA
HETATM   25  H2  UNL     1      -7.418   4.909  16.454  1.00  0.00     0.211 HD
ENDBRANCH   3  24
BRANCH  13  26
HETATM   26  O2  UNL     1       3.075   7.945  15.173  1.00  0.00    -0.271 OA
BRANCH  26  27
HETATM   27  C13 UNL     1       4.417   7.470  15.135  1.00  0.00     0.303 C 
BRANCH  27  28
HETATM   28  C14 UNL     1       5.440   8.557  14.838  1.00  0.00     0.244 C 
HETATM   29  O3  UNL     1       5.116   9.632  14.329  1.00  0.00    -0.271 OA
HETATM   30  N2  UNL     1       6.737   8.297  15.223  1.00  0.00    -0.346 N 
HETATM   31  H16 UNL     1       6.882   7.535  15.879  1.00  0.00     0.163 HD
BRANCH  30  32
HETATM   32  C15 UNL     1       7.799   9.296  15.061  1.00  0.00     0.180 C 
BRANCH  32  33
HETATM   33  C16 UNL     1       7.881   9.622  13.546  1.00  0.00     0.241 C 
HETATM   34  O4  UNL     1       8.301   8.835  12.699  1.00  0.00    -0.271 OA
HETATM   35  N3  UNL     1       7.459  10.901  13.225  1.00  0.00    -0.344 N 
HETATM   36  H18 UNL     1       7.380  11.549  14.012  1.00  0.00     0.163 HD
BRANCH  35  37
HETATM   37  C17 UNL     1       7.782  11.477  11.914  1.00  0.00     0.192 C 
BRANCH  37  38
HETATM   38  C18 UNL     1       9.294  11.576  11.749  1.00  0.00     0.146 C 
BRANCH  38  39
HETATM   39  C19 UNL     1       9.668  12.582  10.699  1.00  0.00     0.141 C 
HETATM   40  O5  UNL     1       9.422  13.777  10.726  1.00  0.00    -0.650 OA
BRANCH  39  41
HETATM   41  O6  UNL     1      10.304  12.035   9.652  1.00  0.00    -0.776 OA
HETATM   42  H22 UNL     1      10.503  12.803   9.070  1.00  0.00     0.167 HD
ENDBRANCH  39  41
ENDBRANCH  38  39
ENDBRANCH  37  38
BRANCH  37  43
HETATM   43  C20 UNL     1       7.205  10.615  10.778  1.00  0.00     0.164 C 
HETATM   44  O7  UNL     1       7.854   9.976   9.964  1.00  0.00    -0.648 OA
BRANCH  43  45
HETATM   45  O8  UNL     1       5.859  10.524  10.771  1.00  0.00    -0.775 OA
HETATM   46  H23 UNL     1       5.673   9.908  10.031  1.00  0.00     0.167 HD
ENDBRANCH  43  45
ENDBRANCH  37  43
ENDBRANCH  35  37
ENDBRANCH  32  33
BRANCH  32  47
HETATM   47  C21 UNL     1       7.533  10.552  15.924  1.00  0.00     0.009 C 
HETATM   48  C22 UNL     1       8.548  11.661  15.613  1.00  0.00     0.012 C 
HETATM   49  C23 UNL     1       7.608  10.217  17.421  1.00  0.00     0.012 C 
ENDBRANCH  32  47
ENDBRANCH  30  32
ENDBRANCH  27  28
ENDBRANCH  26  27
ENDBRANCH  13  26
TORSDOF 13
ENDMDL
MODEL 7
REMARK minimizedAffinity -7.40762711
REMARK CNNscore 0.257201195
REMARK CNNaffinity 5.84092951
REMARK  13 active torsions:
REMARK  status: ('A' for Active; 'I' for Inactive)
REMARK    1  A    between atoms: C3_3  and  O1_4 
REMARK    2  A    between atoms: N1_14  and  O2_16 
REMARK    3  A    between atoms: O2_16  and  C13_17 
REMARK    4  A    between atoms: C13_17  and  C14_18 
REMARK       I    between atoms: C14_18  and  N2_20 
REMARK    5  A    between atoms: N2_20  and  C15_21 
REMARK    6  A    between atoms: C15_21  and  C16_22 
REMARK    7  A    between atoms: C15_21  and  C21_33 
REMARK       I    between atoms: C16_22  and  N3_24 
REMARK    8  A    between atoms: N3_24  and  C17_25 
REMARK    9  A    between atoms: C17_25  and  C18_26 
REMARK   10  A    between atoms: C17_25  and  C20_30 
REMARK   11  A    between atoms: C18_26  and  C19_27 
REMARK   12  A    between atoms: C19_27  and  O6_29 
REMARK   13  A    between atoms: C20_30  and  O8_32 
ROOT
HETATM    1  C1  UNL     1      -5.265   5.003  13.248  1.00  0.00     0.015 C 
HETATM    2  C2  UNL     1      -4.901   6.119  13.497  1.00  0.00    -0.078 C 
HETATM    3  C3  UNL     1      -4.466   7.496  13.791  1.00  0.00     0.128 C 
HETATM    4  C4  UNL     1      -5.566   8.295  14.498  1.00  0.00     0.052 C 
HETATM    5  C5  UNL     1      -4.808   9.504  15.033  1.00  0.00     0.010 C 
HETATM    6  C6  UNL     1      -3.536   8.885  15.627  1.00  0.00     0.002 C 
HETATM    7  C7  UNL     1      -2.364   9.863  15.896  1.00  0.00    -0.004 C 
HETATM    8  C8  UNL     1      -2.168  11.001  14.878  1.00  0.00     0.010 C 
HETATM    9  C9  UNL     1      -1.035  11.942  15.288  1.00  0.00     0.035 C 
HETATM   10  C10 UNL     1       0.254  11.234  15.642  1.00  0.00    -0.069 C 
HETATM   11  C11 UNL     1       1.422  11.709  15.180  1.00  0.00     0.030 C 
HETATM   12  C12 UNL     1       2.730  11.147  15.609  1.00  0.00     0.032 C 
HETATM   13  N1  UNL     1       3.795  11.627  15.035  1.00  0.00    -0.271 N 
ATOM     14  H1  UNL     1       3.769  12.343  14.308  1.00  0.00     0.194 HD
HETATM   15  C24 UNL     1       2.729  10.105  16.710  1.00  0.00     0.060 C 
HETATM   16  C25 UNL     1       1.486   9.224  16.599  1.00  0.00     0.020 C 
HETATM   17  C26 UNL     1       0.147  10.022  16.566  1.00  0.00    -0.016 C 
HETATM   18  C27 UNL     1      -0.127  10.531  18.003  1.00  0.00     0.020 C 
HETATM   19  C28 UNL     1      -1.040   9.085  16.105  1.00  0.00     0.002 C 
HETATM   20  C29 UNL     1      -0.707   8.216  14.863  1.00  0.00     0.007 C 
HETATM   21  C30 UNL     1      -1.897   7.801  13.991  1.00  0.00     0.014 C 
HETATM   22  C31 UNL     1      -3.222   7.622  14.753  1.00  0.00     0.003 C 
HETATM   23  C32 UNL     1      -3.103   6.393  15.694  1.00  0.00     0.020 C 
ENDROOT
BRANCH   3  24
HETATM   24  O1  UNL     1      -4.214   8.149  12.545  1.00  0.00    -0.377 OA
HETATM   25  H2  UNL     1      -4.926   7.894  11.936  1.00  0.00     0.211 HD
ENDBRANCH   3  24
BRANCH  13  26
HETATM   26  O2  UNL     1       4.981  11.057  15.519  1.00  0.00    -0.271 OA
BRANCH  26  27
HETATM   27  C13 UNL     1       5.840  12.124  15.904  1.00  0.00     0.303 C 
BRANCH  27  28
HETATM   28  C14 UNL     1       7.319  11.812  15.723  1.00  0.00     0.244 C 
HETATM   29  O3  UNL     1       8.192  12.653  15.951  1.00  0.00    -0.271 OA
HETATM   30  N2  UNL     1       7.631  10.525  15.348  1.00  0.00    -0.346 N 
HETATM   31  H16 UNL     1       6.904   9.823  15.453  1.00  0.00     0.163 HD
BRANCH  30  32
HETATM   32  C15 UNL     1       9.023  10.081  15.216  1.00  0.00     0.180 C 
BRANCH  32  33
HETATM   33  C16 UNL     1       9.522   9.740  16.644  1.00  0.00     0.241 C 
HETATM   34  O4  UNL     1       9.123   8.776  17.296  1.00  0.00    -0.271 OA
HETATM   35  N3  UNL     1      10.450  10.640  17.143  1.00  0.00    -0.344 N 
HETATM   36  H18 UNL     1      10.515  11.527  16.641  1.00  0.00     0.163 HD
BRANCH  35  37
HETATM   37  C17 UNL     1      10.765  10.657  18.576  1.00  0.00     0.192 C 
BRANCH  37  38
HETATM   38  C18 UNL     1      12.130  11.299  18.800  1.00  0.00     0.146 C 
BRANCH  38  39
HETATM   39  C19 UNL     1      12.168  12.077  20.084  1.00  0.00     0.141 C 
HETATM   40  O5  UNL     1      11.280  12.793  20.519  1.00  0.00    -0.650 OA
BRANCH  39  41
HETATM   41  O6  UNL     1      13.328  11.945  20.743  1.00  0.00    -0.776 OA
HETATM   42  H22 UNL     1      13.198  12.479  21.558  1.00  0.00     0.167 HD
ENDBRANCH  39  41
ENDBRANCH  38  39
ENDBRANCH  37  38
BRANCH  37  43
HETATM   43  C20 UNL     1       9.702  11.444  19.363  1.00  0.00     0.164 C 
HETATM   44  O7  UNL     1       9.314  11.189  20.492  1.00  0.00    -0.648 OA
BRANCH  43  45
HETATM   45  O8  UNL     1       9.247  12.550  18.739  1.00  0.00    -0.775 OA
HETATM   46  H23 UNL     1       8.632  12.947  19.391  1.00  0.00     0.167 HD
ENDBRANCH  43  45
ENDBRANCH  37  43
ENDBRANCH  35  37
ENDBRANCH  32  33
BRANCH  32  47
HETATM   47  C21 UNL     1       9.149   8.887  14.241  1.00  0.00     0.009 C 
HETATM   48  C22 UNL     1       8.100   7.809  14.551  1.00  0.00     0.012 C 
HETATM   49  C23 UNL     1      10.546   8.256  14.319  1.00  0.00     0.012 C 
ENDBRANCH  32  47
ENDBRANCH  30  32
ENDBRANCH  27  28
ENDBRANCH  26  27
ENDBRANCH  13  26
TORSDOF 13
ENDMDL
MODEL 8
REMARK minimizedAffinity -7.7553091
REMARK CNNscore 0.227333277
REMARK CNNaffinity 5.83187437
REMARK  13 active torsions:
REMARK  status: ('A' for Active; 'I' for Inactive)
REMARK    1  A    between atoms: C3_3  and  O1_4 
REMARK    2  A    between atoms: N1_14  and  O2_16 
REMARK    3  A    between atoms: O2_16  and  C13_17 
REMARK    4  A    between atoms: C13_17  and  C14_18 
REMARK       I    between atoms: C14_18  and  N2_20 
REMARK    5  A    between atoms: N2_20  and  C15_21 
REMARK    6  A    between atoms: C15_21  and  C16_22 
REMARK    7  A    between atoms: C15_21  and  C21_33 
REMARK       I    between atoms: C16_22  and  N3_24 
REMARK    8  A    between atoms: N3_24  and  C17_25 
REMARK    9  A    between atoms: C17_25  and  C18_26 
REMARK   10  A    between atoms: C17_25  and  C20_30 
REMARK   11  A    between atoms: C18_26  and  C19_27 
REMARK   12  A    between atoms: C19_27  and  O6_29 
REMARK   13  A    between atoms: C20_30  and  O8_32 
ROOT
HETATM    1  C1  UNL     1      -1.956   3.865  11.007  1.00  0.00     0.015 C 
HETATM    2  C2  UNL     1      -1.170   4.727  11.288  1.00  0.00    -0.078 C 
HETATM    3  C3  UNL     1      -0.192   5.778  11.621  1.00  0.00     0.128 C 
HETATM    4  C4  UNL     1       0.154   6.635  10.399  1.00  0.00     0.052 C 
HETATM    5  C5  UNL     1       0.845   7.841  11.024  1.00  0.00     0.010 C 
HETATM    6  C6  UNL     1      -0.058   8.185  12.215  1.00  0.00     0.002 C 
HETATM    7  C7  UNL     1       0.563   9.106  13.297  1.00  0.00    -0.004 C 
HETATM    8  C8  UNL     1       2.058   8.905  13.598  1.00  0.00     0.010 C 
HETATM    9  C9  UNL     1       2.573   9.918  14.621  1.00  0.00     0.035 C 
HETATM   10  C10 UNL     1       1.723  10.017  15.869  1.00  0.00    -0.069 C 
HETATM   11  C11 UNL     1       2.314  10.060  17.075  1.00  0.00     0.030 C 
HETATM   12  C12 UNL     1       1.546  10.302  18.324  1.00  0.00     0.032 C 
HETATM   13  N1  UNL     1       2.207  10.240  19.444  1.00  0.00    -0.271 N 
ATOM     14  H1  UNL     1       3.202  10.020  19.500  1.00  0.00     0.194 HD
HETATM   15  C24 UNL     1       0.077  10.653  18.199  1.00  0.00     0.060 C 
HETATM   16  C25 UNL     1      -0.543   9.905  17.019  1.00  0.00     0.020 C 
HETATM   17  C26 UNL     1       0.211  10.113  15.672  1.00  0.00    -0.016 C 
HETATM   18  C27 UNL     1      -0.121  11.539  15.168  1.00  0.00     0.020 C 
HETATM   19  C28 UNL     1      -0.269   9.053  14.602  1.00  0.00     0.002 C 
HETATM   20  C29 UNL     1      -0.348   7.602  15.150  1.00  0.00     0.007 C 
HETATM   21  C30 UNL     1      -0.168   6.482  14.119  1.00  0.00     0.014 C 
HETATM   22  C31 UNL     1      -0.664   6.824  12.703  1.00  0.00     0.003 C 
HETATM   23  C32 UNL     1      -2.212   6.959  12.726  1.00  0.00     0.020 C 
ENDROOT
BRANCH   3  24
HETATM   24  O1  UNL     1       1.017   5.134  12.032  1.00  0.00    -0.377 OA
HETATM   25  H2  UNL     1       1.166   4.388  11.429  1.00  0.00     0.211 HD
ENDBRANCH   3  24
BRANCH  13  26
HETATM   26  O2  UNL     1       1.409  10.507  20.565  1.00  0.00    -0.271 OA
BRANCH  26  27
HETATM   27  C13 UNL     1       1.950   9.772  21.657  1.00  0.00     0.303 C 
BRANCH  27  28
HETATM   28  C14 UNL     1       2.938  10.567  22.498  1.00  0.00     0.244 C 
HETATM   29  O3  UNL     1       3.482  10.081  23.493  1.00  0.00    -0.271 OA
HETATM   30  N2  UNL     1       3.235  11.837  22.055  1.00  0.00    -0.346 N 
HETATM   31  H16 UNL     1       2.980  12.065  21.098  1.00  0.00     0.163 HD
BRANCH  30  32
HETATM   32  C15 UNL     1       4.229  12.673  22.737  1.00  0.00     0.180 C 
BRANCH  32  33
HETATM   33  C16 UNL     1       5.571  12.478  21.983  1.00  0.00     0.241 C 
HETATM   34  O4  UNL     1       5.786  11.557  21.197  1.00  0.00    -0.271 OA
HETATM   35  N3  UNL     1       6.530  13.428  22.293  1.00  0.00    -0.344 N 
HETATM   36  H18 UNL     1       6.346  13.981  23.132  1.00  0.00     0.163 HD
BRANCH  35  37
HETATM   37  C17 UNL     1       7.935  13.202  21.935  1.00  0.00     0.192 C 
BRANCH  37  38
HETATM   38  C18 UNL     1       8.584  14.518  21.524  1.00  0.00     0.146 C 
BRANCH  38  39
HETATM   39  C19 UNL     1       9.723  14.296  20.570  1.00  0.00     0.141 C 
HETATM   40  O5  UNL     1      10.682  15.033  20.409  1.00  0.00    -0.650 OA
BRANCH  39  41
HETATM   41  O6  UNL     1       9.586  13.179  19.841  1.00  0.00    -0.776 OA
HETATM   42  H22 UNL     1      10.401  13.154  19.292  1.00  0.00     0.167 HD
ENDBRANCH  39  41
ENDBRANCH  38  39
ENDBRANCH  37  38
BRANCH  37  43
HETATM   43  C20 UNL     1       8.714  12.603  23.120  1.00  0.00     0.164 C 
HETATM   44  O7  UNL     1       8.971  11.421  23.284  1.00  0.00    -0.648 OA
BRANCH  43  45
HETATM   45  O8  UNL     1       9.204  13.514  23.986  1.00  0.00    -0.775 OA
HETATM   46  H23 UNL     1       9.705  12.973  24.633  1.00  0.00     0.167 HD
ENDBRANCH  43  45
ENDBRANCH  37  43
ENDBRANCH  35  37
ENDBRANCH  32  33
BRANCH  32  47
HETATM   47  C21 UNL     1       3.786  14.154  22.788  1.00  0.00     0.009 C 
HETATM   48  C22 UNL     1       2.761  14.385  23.908  1.00  0.00     0.012 C 
HETATM   49  C23 UNL     1       3.168  14.592  21.453  1.00  0.00     0.012 C 
ENDBRANCH  32  47
ENDBRANCH  30  32
ENDBRANCH  27  28
ENDBRANCH  26  27
ENDBRANCH  13  26
TORSDOF 13
ENDMDL
MODEL 9
REMARK minimizedAffinity -7.04828548
REMARK CNNscore 0.221202835
REMARK CNNaffinity 6.24937439
REMARK  13 active torsions:
REMARK  status: ('A' for Active; 'I' for Inactive)
REMARK    1  A    between atoms: C3_3  and  O1_4 
REMARK    2  A    between atoms: N1_14  and  O2_16 
REMARK    3  A    between atoms: O2_16  and  C13_17 
REMARK    4  A    between atoms: C13_17  and  C14_18 
REMARK       I    between atoms: C14_18  and  N2_20 
REMARK    5  A    between atoms: N2_20  and  C15_21 
REMARK    6  A    between atoms: C15_21  and  C16_22 
REMARK    7  A    between atoms: C15_21  and  C21_33 
REMARK       I    between atoms: C16_22  and  N3_24 
REMARK    8  A    between atoms: N3_24  and  C17_25 
REMARK    9  A    between atoms: C17_25  and  C18_26 
REMARK   10  A    between atoms: C17_25  and  C20_30 
REMARK   11  A    between atoms: C18_26  and  C19_27 
REMARK   12  A    between atoms: C19_27  and  O6_29 
REMARK   13  A    between atoms: C20_30  and  O8_32 
ROOT
HETATM    1  C1  UNL     1      -6.276   6.284  14.276  1.00  0.00     0.015 C 
HETATM    2  C2  UNL     1      -5.207   6.822  14.180  1.00  0.00    -0.078 C 
HETATM    3  C3  UNL     1      -3.891   7.471  14.046  1.00  0.00     0.128 C 
HETATM    4  C4  UNL     1      -3.784   8.265  12.740  1.00  0.00     0.052 C 
HETATM    5  C5  UNL     1      -2.552   9.130  12.977  1.00  0.00     0.010 C 
HETATM    6  C6  UNL     1      -2.759   9.651  14.404  1.00  0.00     0.002 C 
HETATM    7  C7  UNL     1      -1.505  10.234  15.105  1.00  0.00    -0.004 C 
HETATM    8  C8  UNL     1      -0.164   9.538  14.810  1.00  0.00     0.010 C 
HETATM    9  C9  UNL     1       1.006  10.246  15.493  1.00  0.00     0.035 C 
HETATM   10  C10 UNL     1       0.787  10.514  16.966  1.00  0.00    -0.069 C 
HETATM   11  C11 UNL     1       1.776  10.269  17.841  1.00  0.00     0.030 C 
HETATM   12  C12 UNL     1       1.676  10.646  19.276  1.00  0.00     0.032 C 
HETATM   13  N1  UNL     1       2.657  10.285  20.050  1.00  0.00    -0.271 N 
ATOM     14  H1  UNL     1       3.465   9.753  19.726  1.00  0.00     0.194 HD
HETATM   15  C24 UNL     1       0.475  11.460  19.714  1.00  0.00     0.060 C 
HETATM   16  C25 UNL     1      -0.760  11.048  18.913  1.00  0.00     0.020 C 
HETATM   17  C26 UNL     1      -0.561  11.108  17.369  1.00  0.00    -0.016 C 
HETATM   18  C27 UNL     1      -0.576  12.601  16.955  1.00  0.00     0.020 C 
HETATM   19  C28 UNL     1      -1.736  10.348  16.633  1.00  0.00     0.002 C 
HETATM   20  C29 UNL     1      -2.067   8.962  17.248  1.00  0.00     0.007 C 
HETATM   21  C30 UNL     1      -2.677   7.929  16.293  1.00  0.00     0.014 C 
HETATM   22  C31 UNL     1      -3.539   8.524  15.166  1.00  0.00     0.003 C 
HETATM   23  C32 UNL     1      -4.820   9.148  15.783  1.00  0.00     0.020 C 
ENDROOT
BRANCH   3  24
HETATM   24  O1  UNL     1      -2.901   6.441  13.988  1.00  0.00    -0.377 OA
HETATM   25  H2  UNL     1      -3.250   5.737  13.417  1.00  0.00     0.211 HD
ENDBRANCH   3  24
BRANCH  13  26
HETATM   26  O2  UNL     1       2.489  10.705  21.377  1.00  0.00    -0.271 OA
BRANCH  26  27
HETATM   27  C13 UNL     1       3.438  10.001  22.170  1.00  0.00     0.303 C 
BRANCH  27  28
HETATM   28  C14 UNL     1       4.722  10.780  22.419  1.00  0.00     0.244 C 
HETATM   29  O3  UNL     1       5.407  10.595  23.428  1.00  0.00    -0.271 OA
HETATM   30  N2  UNL     1       5.107  11.657  21.430  1.00  0.00    -0.346 N 
HETATM   31  H16 UNL     1       4.664  11.553  20.521  1.00  0.00     0.163 HD
BRANCH  30  32
HETATM   32  C15 UNL     1       6.364  12.407  21.519  1.00  0.00     0.180 C 
BRANCH  32  33
HETATM   33  C16 UNL     1       7.174  12.078  20.237  1.00  0.00     0.241 C 
HETATM   34  O4  UNL     1       6.680  11.589  19.222  1.00  0.00    -0.271 OA
HETATM   35  N3  UNL     1       8.526  12.360  20.343  1.00  0.00    -0.344 N 
HETATM   36  H18 UNL     1       8.871  12.512  21.292  1.00  0.00     0.163 HD
BRANCH  35  37
HETATM   37  C17 UNL     1       9.473  11.807  19.367  1.00  0.00     0.192 C 
BRANCH  37  38
HETATM   38  C18 UNL     1       9.484  12.668  18.109  1.00  0.00     0.146 C 
BRANCH  38  39
HETATM   39  C19 UNL     1      10.339  12.060  17.034  1.00  0.00     0.141 C 
HETATM   40  O5  UNL     1       9.948  11.363  16.111  1.00  0.00    -0.650 OA
BRANCH  39  41
HETATM   41  O6  UNL     1      11.644  12.329  17.187  1.00  0.00    -0.776 OA
HETATM   42  H22 UNL     1      12.066  11.895  16.412  1.00  0.00     0.167 HD
ENDBRANCH  39  41
ENDBRANCH  38  39
ENDBRANCH  37  38
BRANCH  37  43
HETATM   43  C20 UNL     1      10.895  11.751  19.953  1.00  0.00     0.164 C 
HETATM   44  O7  UNL     1      11.618  10.767  19.984  1.00  0.00    -0.648 OA
BRANCH  43  45
HETATM   45  O8  UNL     1      11.371  12.937  20.385  1.00  0.00    -0.775 OA
HETATM   46  H23 UNL     1      12.286  12.729  20.669  1.00  0.00     0.167 HD
ENDBRANCH  43  45
ENDBRANCH  37  43
ENDBRANCH  35  37
ENDBRANCH  32  33
BRANCH  32  47
HETATM   47  C21 UNL     1       6.109  13.924  21.687  1.00  0.00     0.009 C 
HETATM   48  C22 UNL     1       7.001  14.742  20.742  1.00  0.00     0.012 C 
HETATM   49  C23 UNL     1       6.376  14.371  23.132  1.00  0.00     0.012 C 
ENDBRANCH  32  47
ENDBRANCH  30  32
ENDBRANCH  27  28
ENDBRANCH  26  27
ENDBRANCH  13  26
TORSDOF 13
ENDMDL
