MODEL 1
REMARK minimizedAffinity -10.8798122
REMARK  7 active torsions:
REMARK  status: ('A' for Active; 'I' for Inactive)
REMARK    1  A    between atoms: C4_4  and  C5_5 
REMARK    2  A    between atoms: C5_5  and  C6_6 
REMARK    3  A    between atoms: C6_6  and  C7_7 
REMARK    4  A    between atoms: C7_7  and  C9_9 
REMARK    5  A    between atoms: C18_18  and  O1_19 
REMARK    6  A    between atoms: O1_19  and  C19_20 
REMARK    7  A    between atoms: C19_20  and  C20_22 
ROOT
HETATM    1  C9  UNL     1      -0.769  51.075 -25.759  1.00  0.00    -0.002 C 
HETATM    2  C10 UNL     1       0.384  52.113 -25.763  1.00  0.00     0.006 C 
HETATM    3  C11 UNL     1       0.691  52.468 -24.302  1.00  0.00     0.010 C 
HETATM    4  C12 UNL     1      -0.164  51.502 -23.492  1.00  0.00     0.023 C 
HETATM    5  C13 UNL     1      -0.468  51.787 -22.043  1.00  0.00    -0.070 C 
HETATM    6  C14 UNL     1       0.235  52.630 -21.270  1.00  0.00     0.004 C 
HETATM    7  C15 UNL     1      -0.017  52.755 -19.857  1.00  0.00     0.004 C 
HETATM    8  C16 UNL     1      -0.783  51.872 -19.192  1.00  0.00    -0.069 C 
HETATM    9  C17 UNL     1      -0.723  51.774 -17.689  1.00  0.00     0.067 C 
HETATM   10  C18 UNL     1      -0.072  50.439 -17.287  1.00  0.00     0.136 C 
HETATM   11  C26 UNL     1      -0.707  49.241 -18.012  1.00  0.00     0.034 C 
HETATM   12  C27 UNL     1      -0.851  49.444 -19.530  1.00  0.00     0.017 C 
HETATM   13  C28 UNL     1      -1.572  50.765 -19.904  1.00  0.00    -0.013 C 
HETATM   14  C29 UNL     1      -3.037  50.722 -19.393  1.00  0.00     0.021 C 
HETATM   15  C30 UNL     1      -1.652  51.023 -21.462  1.00  0.00     0.027 C 
HETATM   16  C31 UNL     1      -1.945  49.769 -22.314  1.00  0.00     0.011 C 
HETATM   17  C32 UNL     1      -2.222  50.087 -23.802  1.00  0.00     0.011 C 
HETATM   18  C33 UNL     1      -1.437  51.303 -24.359  1.00  0.00    -0.033 C 
HETATM   19  C34 UNL     1      -2.347  52.559 -24.386  1.00  0.00     0.016 C 
ENDROOT
BRANCH  10  20
HETATM   20  O1  UNL     1      -0.252  50.293 -15.863  1.00  0.00    -0.312 OA
BRANCH  20  21
HETATM   21  C19 UNL     1       0.157  51.329 -15.089  1.00  0.00     0.293 C 
HETATM   22  O2  UNL     1      -0.535  51.957 -14.304  1.00  0.00    -0.259 OA
BRANCH  21  23
HETATM   23  C20 UNL     1       1.594  51.622 -15.336  1.00  0.00     0.039 A 
HETATM   24  C21 UNL     1       2.552  50.933 -14.579  1.00  0.00     0.017 A 
HETATM   25  C22 UNL     1       3.913  51.176 -14.774  1.00  0.00     0.001 A 
HETATM   26  C23 UNL     1       4.326  52.108 -15.727  1.00  0.00     0.000 A 
HETATM   27  C24 UNL     1       3.379  52.797 -16.487  1.00  0.00     0.001 A 
HETATM   28  C25 UNL     1       2.017  52.557 -16.293  1.00  0.00     0.017 A 
ENDBRANCH  21  23
ENDBRANCH  20  21
ENDBRANCH  10  20
BRANCH   1  29
HETATM   29  C7  UNL     1      -1.661  51.146 -27.035  1.00  0.00    -0.014 C 
HETATM   30  C8  UNL     1      -1.948  52.597 -27.449  1.00  0.00     0.010 C 
BRANCH  29  31
HETATM   31  C6  UNL     1      -3.035  50.436 -26.856  1.00  0.00     0.008 C 
BRANCH  31  32
HETATM   32  C5  UNL     1      -2.973  48.902 -26.834  1.00  0.00     0.028 C 
BRANCH  32  33
HETATM   33  C4  UNL     1      -4.348  48.315 -26.652  1.00  0.00    -0.025 C 
HETATM   34  C2  UNL     1      -5.261  48.023 -27.599  1.00  0.00    -0.091 C 
HETATM   35  C1  UNL     1      -6.607  47.459 -27.217  1.00  0.00     0.042 C 
HETATM   36  C3  UNL     1      -5.079  48.213 -29.080  1.00  0.00     0.042 C 
ENDBRANCH  32  33
ENDBRANCH  31  32
ENDBRANCH  29  31
ENDBRANCH   1  29
TORSDOF 7
ENDMDL
MODEL 2
REMARK minimizedAffinity -10.2994747
REMARK  7 active torsions:
REMARK  status: ('A' for Active; 'I' for Inactive)
REMARK    1  A    between atoms: C4_4  and  C5_5 
REMARK    2  A    between atoms: C5_5  and  C6_6 
REMARK    3  A    between atoms: C6_6  and  C7_7 
REMARK    4  A    between atoms: C7_7  and  C9_9 
REMARK    5  A    between atoms: C18_18  and  O1_19 
REMARK    6  A    between atoms: O1_19  and  C19_20 
REMARK    7  A    between atoms: C19_20  and  C20_22 
ROOT
HETATM    1  C9  UNL     1      -1.060  50.722 -25.710  1.00  0.00    -0.002 C 
HETATM    2  C10 UNL     1       0.152  51.630 -26.043  1.00  0.00     0.006 C 
HETATM    3  C11 UNL     1       0.686  52.193 -24.718  1.00  0.00     0.010 C 
HETATM    4  C12 UNL     1      -0.115  51.461 -23.648  1.00  0.00     0.023 C 
HETATM    5  C13 UNL     1      -0.192  52.011 -22.247  1.00  0.00    -0.070 C 
HETATM    6  C14 UNL     1       0.671  52.900 -21.730  1.00  0.00     0.004 C 
HETATM    7  C15 UNL     1       0.629  53.282 -20.342  1.00  0.00     0.004 C 
HETATM    8  C16 UNL     1      -0.098  52.599 -19.440  1.00  0.00    -0.069 C 
HETATM    9  C17 UNL     1       0.165  52.748 -17.963  1.00  0.00     0.067 C 
HETATM   10  C18 UNL     1       0.767  51.443 -17.415  1.00  0.00     0.136 C 
HETATM   11  C26 UNL     1      -0.047  50.206 -17.830  1.00  0.00     0.034 C 
HETATM   12  C27 UNL     1      -0.387  50.167 -19.330  1.00  0.00     0.017 C 
HETATM   13  C28 UNL     1      -1.056  51.469 -19.839  1.00  0.00    -0.013 C 
HETATM   14  C29 UNL     1      -2.435  51.651 -19.149  1.00  0.00     0.021 C 
HETATM   15  C30 UNL     1      -1.335  51.471 -21.396  1.00  0.00     0.027 C 
HETATM   16  C31 UNL     1      -1.833  50.126 -21.967  1.00  0.00     0.011 C 
HETATM   17  C32 UNL     1      -2.292  50.216 -23.441  1.00  0.00     0.011 C 
HETATM   18  C33 UNL     1      -1.507  51.243 -24.300  1.00  0.00    -0.033 C 
HETATM   19  C34 UNL     1      -2.319  52.557 -24.436  1.00  0.00     0.016 C 
ENDROOT
BRANCH  10  20
HETATM   20  O1  UNL     1       0.778  51.554 -15.977  1.00  0.00    -0.312 OA
BRANCH  20  21
HETATM   21  C19 UNL     1       0.139  50.576 -15.288  1.00  0.00     0.293 C 
HETATM   22  O2  UNL     1      -1.059  50.517 -15.066  1.00  0.00    -0.259 OA
BRANCH  21  23
HETATM   23  C20 UNL     1       1.115  49.561 -14.806  1.00  0.00     0.039 A 
HETATM   24  C21 UNL     1       0.853  48.210 -15.074  1.00  0.00     0.017 A 
HETATM   25  C22 UNL     1       1.739  47.221 -14.641  1.00  0.00     0.001 A 
HETATM   26  C23 UNL     1       2.892  47.576 -13.940  1.00  0.00     0.000 A 
HETATM   27  C24 UNL     1       3.161  48.918 -13.671  1.00  0.00     0.001 A 
HETATM   28  C25 UNL     1       2.277  49.910 -14.102  1.00  0.00     0.017 A 
ENDBRANCH  21  23
ENDBRANCH  20  21
ENDBRANCH  10  20
BRANCH   1  29
HETATM   29  C7  UNL     1      -2.114  50.663 -26.856  1.00  0.00    -0.014 C 
HETATM   30  C8  UNL     1      -2.444  52.062 -27.398  1.00  0.00     0.010 C 
BRANCH  29  31
HETATM   31  C6  UNL     1      -3.456  50.011 -26.414  1.00  0.00     0.008 C 
BRANCH  31  32
HETATM   32  C5  UNL     1      -3.578  48.511 -26.719  1.00  0.00     0.028 C 
BRANCH  32  33
HETATM   33  C4  UNL     1      -4.216  48.289 -28.065  1.00  0.00    -0.025 C 
HETATM   34  C2  UNL     1      -5.473  47.886 -28.335  1.00  0.00    -0.091 C 
HETATM   35  C1  UNL     1      -5.926  47.694 -29.760  1.00  0.00     0.042 C 
HETATM   36  C3  UNL     1      -6.534  47.582 -27.313  1.00  0.00     0.042 C 
ENDBRANCH  32  33
ENDBRANCH  31  32
ENDBRANCH  29  31
ENDBRANCH   1  29
TORSDOF 7
ENDMDL
MODEL 3
REMARK minimizedAffinity -10.2778215
REMARK  7 active torsions:
REMARK  status: ('A' for Active; 'I' for Inactive)
REMARK    1  A    between atoms: C4_4  and  C5_5 
REMARK    2  A    between atoms: C5_5  and  C6_6 
REMARK    3  A    between atoms: C6_6  and  C7_7 
REMARK    4  A    between atoms: C7_7  and  C9_9 
REMARK    5  A    between atoms: C18_18  and  O1_19 
REMARK    6  A    between atoms: O1_19  and  C19_20 
REMARK    7  A    between atoms: C19_20  and  C20_22 
ROOT
HETATM    1  C9  UNL     1      -1.050  50.734 -25.704  1.00  0.00    -0.002 C 
HETATM    2  C10 UNL     1       0.151  51.640 -26.082  1.00  0.00     0.006 C 
HETATM    3  C11 UNL     1       0.708  52.235 -24.781  1.00  0.00     0.010 C 
HETATM    4  C12 UNL     1      -0.068  51.524 -23.679  1.00  0.00     0.023 C 
HETATM    5  C13 UNL     1      -0.121  52.107 -22.290  1.00  0.00    -0.070 C 
HETATM    6  C14 UNL     1       0.748  53.012 -21.811  1.00  0.00     0.004 C 
HETATM    7  C15 UNL     1       0.730  53.425 -20.431  1.00  0.00     0.004 C 
HETATM    8  C16 UNL     1       0.024  52.760 -19.499  1.00  0.00    -0.069 C 
HETATM    9  C17 UNL     1       0.315  52.944 -18.031  1.00  0.00     0.067 C 
HETATM   10  C18 UNL     1       0.936  51.655 -17.466  1.00  0.00     0.136 C 
HETATM   11  C26 UNL     1       0.120  50.405 -17.836  1.00  0.00     0.034 C 
HETATM   12  C27 UNL     1      -0.249  50.329 -19.328  1.00  0.00     0.017 C 
HETATM   13  C28 UNL     1      -0.935  51.616 -19.854  1.00  0.00    -0.013 C 
HETATM   14  C29 UNL     1      -2.301  51.807 -19.141  1.00  0.00     0.021 C 
HETATM   15  C30 UNL     1      -1.244  51.581 -21.404  1.00  0.00     0.027 C 
HETATM   16  C31 UNL     1      -1.746  50.220 -21.935  1.00  0.00     0.011 C 
HETATM   17  C32 UNL     1      -2.235  50.274 -23.401  1.00  0.00     0.011 C 
HETATM   18  C33 UNL     1      -1.472  51.284 -24.298  1.00  0.00    -0.033 C 
HETATM   19  C34 UNL     1      -2.293  52.591 -24.449  1.00  0.00     0.016 C 
ENDROOT
BRANCH  10  20
HETATM   20  O1  UNL     1       0.974  51.799 -16.031  1.00  0.00    -0.312 OA
BRANCH  20  21
HETATM   21  C19 UNL     1       0.482  50.766 -15.303  1.00  0.00     0.293 C 
HETATM   22  O2  UNL     1       0.964  49.647 -15.226  1.00  0.00    -0.259 OA
BRANCH  21  23
HETATM   23  C20 UNL     1      -0.765  51.173 -14.603  1.00  0.00     0.039 A 
HETATM   24  C21 UNL     1      -0.648  51.836 -13.372  1.00  0.00     0.017 A 
HETATM   25  C22 UNL     1      -1.791  52.237 -12.676  1.00  0.00     0.001 A 
HETATM   26  C23 UNL     1      -3.056  51.980 -13.206  1.00  0.00     0.000 A 
HETATM   27  C24 UNL     1      -3.181  51.323 -14.431  1.00  0.00     0.001 A 
HETATM   28  C25 UNL     1      -2.040  50.920 -15.129  1.00  0.00     0.017 A 
ENDBRANCH  21  23
ENDBRANCH  20  21
ENDBRANCH  10  20
BRANCH   1  29
HETATM   29  C7  UNL     1      -2.125  50.643 -26.828  1.00  0.00    -0.014 C 
HETATM   30  C8  UNL     1      -2.492  52.030 -27.377  1.00  0.00     0.010 C 
BRANCH  29  31
HETATM   31  C6  UNL     1      -3.446  49.970 -26.352  1.00  0.00     0.008 C 
BRANCH  31  32
HETATM   32  C5  UNL     1      -3.553  48.469 -26.656  1.00  0.00     0.028 C 
BRANCH  32  33
HETATM   33  C4  UNL     1      -4.314  48.237 -27.935  1.00  0.00    -0.025 C 
HETATM   34  C2  UNL     1      -5.594  47.843 -28.084  1.00  0.00    -0.091 C 
HETATM   35  C1  UNL     1      -6.177  47.638 -29.459  1.00  0.00     0.042 C 
HETATM   36  C3  UNL     1      -6.560  47.563 -26.965  1.00  0.00     0.042 C 
ENDBRANCH  32  33
ENDBRANCH  31  32
ENDBRANCH  29  31
ENDBRANCH   1  29
TORSDOF 7
ENDMDL
MODEL 4
REMARK minimizedAffinity -10.2675161
REMARK  7 active torsions:
REMARK  status: ('A' for Active; 'I' for Inactive)
REMARK    1  A    between atoms: C4_4  and  C5_5 
REMARK    2  A    between atoms: C5_5  and  C6_6 
REMARK    3  A    between atoms: C6_6  and  C7_7 
REMARK    4  A    between atoms: C7_7  and  C9_9 
REMARK    5  A    between atoms: C18_18  and  O1_19 
REMARK    6  A    between atoms: O1_19  and  C19_20 
REMARK    7  A    between atoms: C19_20  and  C20_22 
ROOT
HETATM    1  C9  UNL     1      -0.974  50.753 -25.955  1.00  0.00    -0.002 C 
HETATM    2  C10 UNL     1       0.234  51.672 -26.277  1.00  0.00     0.006 C 
HETATM    3  C11 UNL     1       0.747  52.243 -24.948  1.00  0.00     0.010 C 
HETATM    4  C12 UNL     1      -0.059  51.506 -23.885  1.00  0.00     0.023 C 
HETATM    5  C13 UNL     1      -0.157  52.060 -22.487  1.00  0.00    -0.070 C 
HETATM    6  C14 UNL     1       0.692  52.958 -21.962  1.00  0.00     0.004 C 
HETATM    7  C15 UNL     1       0.630  53.344 -20.576  1.00  0.00     0.004 C 
HETATM    8  C16 UNL     1      -0.101  52.657 -19.680  1.00  0.00    -0.069 C 
HETATM    9  C17 UNL     1       0.143  52.812 -18.201  1.00  0.00     0.067 C 
HETATM   10  C18 UNL     1       0.752  51.514 -17.642  1.00  0.00     0.136 C 
HETATM   11  C26 UNL     1      -0.046  50.269 -18.063  1.00  0.00     0.034 C 
HETATM   12  C27 UNL     1      -0.369  50.222 -19.567  1.00  0.00     0.017 C 
HETATM   13  C28 UNL     1      -1.044  51.517 -20.087  1.00  0.00    -0.013 C 
HETATM   14  C29 UNL     1      -2.432  51.688 -19.414  1.00  0.00     0.021 C 
HETATM   15  C30 UNL     1      -1.305  51.512 -21.647  1.00  0.00     0.027 C 
HETATM   16  C31 UNL     1      -1.784  50.161 -22.220  1.00  0.00     0.011 C 
HETATM   17  C32 UNL     1      -2.227  50.243 -23.700  1.00  0.00     0.011 C 
HETATM   18  C33 UNL     1      -1.441  51.274 -24.552  1.00  0.00    -0.033 C 
HETATM   19  C34 UNL     1      -2.264  52.580 -24.702  1.00  0.00     0.016 C 
ENDROOT
BRANCH  10  20
HETATM   20  O1  UNL     1       0.745  51.629 -16.204  1.00  0.00    -0.312 OA
BRANCH  20  21
HETATM   21  C19 UNL     1       1.943  51.843 -15.606  1.00  0.00     0.293 C 
HETATM   22  O2  UNL     1       2.684  52.792 -15.800  1.00  0.00    -0.259 OA
BRANCH  21  23
HETATM   23  C20 UNL     1       2.257  50.732 -14.667  1.00  0.00     0.039 A 
HETATM   24  C21 UNL     1       3.521  50.715 -14.059  1.00  0.00     0.017 A 
HETATM   25  C22 UNL     1       3.863  49.692 -13.172  1.00  0.00     0.001 A 
HETATM   26  C23 UNL     1       2.943  48.682 -12.885  1.00  0.00     0.000 A 
HETATM   27  C24 UNL     1       1.683  48.693 -13.484  1.00  0.00     0.001 A 
HETATM   28  C25 UNL     1       1.339  49.714 -14.373  1.00  0.00     0.017 A 
ENDBRANCH  21  23
ENDBRANCH  20  21
ENDBRANCH  10  20
BRANCH   1  29
HETATM   29  C7  UNL     1      -2.014  50.682 -27.113  1.00  0.00    -0.014 C 
HETATM   30  C8  UNL     1      -2.373  52.079 -27.642  1.00  0.00     0.010 C 
BRANCH  29  31
HETATM   31  C6  UNL     1      -3.343  49.990 -26.694  1.00  0.00     0.008 C 
BRANCH  31  32
HETATM   32  C5  UNL     1      -3.485  48.530 -27.149  1.00  0.00     0.028 C 
BRANCH  32  33
HETATM   33  C4  UNL     1      -4.929  48.102 -27.124  1.00  0.00    -0.025 C 
HETATM   34  C2  UNL     1      -5.732  47.818 -28.168  1.00  0.00    -0.091 C 
HETATM   35  C1  UNL     1      -7.171  47.427 -27.943  1.00  0.00     0.042 C 
HETATM   36  C3  UNL     1      -5.331  47.855 -29.617  1.00  0.00     0.042 C 
ENDBRANCH  32  33
ENDBRANCH  31  32
ENDBRANCH  29  31
ENDBRANCH   1  29
TORSDOF 7
ENDMDL
MODEL 5
REMARK minimizedAffinity -9.44565773
REMARK  7 active torsions:
REMARK  status: ('A' for Active; 'I' for Inactive)
REMARK    1  A    between atoms: C4_4  and  C5_5 
REMARK    2  A    between atoms: C5_5  and  C6_6 
REMARK    3  A    between atoms: C6_6  and  C7_7 
REMARK    4  A    between atoms: C7_7  and  C9_9 
REMARK    5  A    between atoms: C18_18  and  O1_19 
REMARK    6  A    between atoms: O1_19  and  C19_20 
REMARK    7  A    between atoms: C19_20  and  C20_22 
ROOT
HETATM    1  C9  UNL     1      -3.277  51.270 -25.036  1.00  0.00    -0.002 C 
HETATM    2  C10 UNL     1      -4.472  52.174 -24.636  1.00  0.00     0.006 C 
HETATM    3  C11 UNL     1      -4.547  52.189 -23.103  1.00  0.00     0.010 C 
HETATM    4  C12 UNL     1      -3.295  51.443 -22.657  1.00  0.00     0.023 C 
HETATM    5  C13 UNL     1      -3.201  50.883 -21.261  1.00  0.00    -0.070 C 
HETATM    6  C14 UNL     1      -3.963  51.280 -20.229  1.00  0.00     0.004 C 
HETATM    7  C15 UNL     1      -3.731  50.808 -18.887  1.00  0.00     0.004 C 
HETATM    8  C16 UNL     1      -2.606  50.152 -18.550  1.00  0.00    -0.069 C 
HETATM    9  C17 UNL     1      -2.194  50.016 -17.107  1.00  0.00     0.067 C 
HETATM   10  C18 UNL     1      -0.936  50.862 -16.849  1.00  0.00     0.136 C 
HETATM   11  C26 UNL     1       0.166  50.598 -17.888  1.00  0.00     0.034 C 
HETATM   12  C27 UNL     1      -0.336  50.633 -19.343  1.00  0.00     0.017 C 
HETATM   13  C28 UNL     1      -1.563  49.718 -19.588  1.00  0.00    -0.013 C 
HETATM   14  C29 UNL     1      -1.159  48.236 -19.371  1.00  0.00     0.021 C 
HETATM   15  C30 UNL     1      -2.137  49.810 -21.059  1.00  0.00     0.027 C 
HETATM   16  C31 UNL     1      -1.068  49.907 -22.168  1.00  0.00     0.011 C 
HETATM   17  C32 UNL     1      -1.651  49.786 -23.596  1.00  0.00     0.011 C 
HETATM   18  C33 UNL     1      -3.076  50.377 -23.763  1.00  0.00    -0.033 C 
HETATM   19  C34 UNL     1      -4.132  49.242 -23.722  1.00  0.00     0.016 C 
ENDROOT
BRANCH  10  20
HETATM   20  O1  UNL     1      -0.454  50.514 -15.535  1.00  0.00    -0.312 OA
BRANCH  20  21
HETATM   21  C19 UNL     1       0.050  51.525 -14.785  1.00  0.00     0.293 C 
HETATM   22  O2  UNL     1      -0.558  52.172 -13.948  1.00  0.00    -0.259 OA
BRANCH  21  23
HETATM   23  C20 UNL     1       1.477  51.764 -15.133  1.00  0.00     0.039 A 
HETATM   24  C21 UNL     1       2.458  51.030 -14.451  1.00  0.00     0.017 A 
HETATM   25  C22 UNL     1       3.811  51.222 -14.742  1.00  0.00     0.001 A 
HETATM   26  C23 UNL     1       4.191  52.146 -15.715  1.00  0.00     0.000 A 
HETATM   27  C24 UNL     1       3.221  52.880 -16.400  1.00  0.00     0.001 A 
HETATM   28  C25 UNL     1       1.867  52.691 -16.111  1.00  0.00     0.017 A 
ENDBRANCH  21  23
ENDBRANCH  20  21
ENDBRANCH  10  20
BRANCH   1  29
HETATM   29  C7  UNL     1      -3.470  50.575 -26.417  1.00  0.00    -0.014 C 
HETATM   30  C8  UNL     1      -3.003  49.111 -26.388  1.00  0.00     0.010 C 
BRANCH  29  31
HETATM   31  C6  UNL     1      -2.696  51.283 -27.567  1.00  0.00     0.008 C 
BRANCH  31  32
HETATM   32  C5  UNL     1      -1.855  52.492 -27.132  1.00  0.00     0.028 C 
BRANCH  32  33
HETATM   33  C4  UNL     1      -0.586  52.044 -26.456  1.00  0.00    -0.025 C 
HETATM   34  C2  UNL     1       0.595  51.730 -27.025  1.00  0.00    -0.091 C 
HETATM   35  C1  UNL     1       1.755  51.272 -26.177  1.00  0.00     0.042 C 
HETATM   36  C3  UNL     1       0.901  51.785 -28.496  1.00  0.00     0.042 C 
ENDBRANCH  32  33
ENDBRANCH  31  32
ENDBRANCH  29  31
ENDBRANCH   1  29
TORSDOF 7
ENDMDL
MODEL 6
REMARK minimizedAffinity -9.34374714
REMARK  7 active torsions:
REMARK  status: ('A' for Active; 'I' for Inactive)
REMARK    1  A    between atoms: C4_4  and  C5_5 
REMARK    2  A    between atoms: C5_5  and  C6_6 
REMARK    3  A    between atoms: C6_6  and  C7_7 
REMARK    4  A    between atoms: C7_7  and  C9_9 
REMARK    5  A    between atoms: C18_18  and  O1_19 
REMARK    6  A    between atoms: O1_19  and  C19_20 
REMARK    7  A    between atoms: C19_20  and  C20_22 
ROOT
HETATM    1  C9  UNL     1      -1.376  52.085 -22.324  1.00  0.00    -0.002 C 
HETATM    2  C10 UNL     1      -2.891  51.881 -22.589  1.00  0.00     0.006 C 
HETATM    3  C11 UNL     1      -3.504  51.271 -21.321  1.00  0.00     0.010 C 
HETATM    4  C12 UNL     1      -2.371  51.302 -20.303  1.00  0.00     0.023 C 
HETATM    5  C13 UNL     1      -2.430  50.430 -19.075  1.00  0.00    -0.070 C 
HETATM    6  C14 UNL     1      -3.552  49.879 -18.584  1.00  0.00     0.004 C 
HETATM    7  C15 UNL     1      -3.565  49.172 -17.330  1.00  0.00     0.004 C 
HETATM    8  C16 UNL     1      -2.535  49.234 -16.468  1.00  0.00    -0.069 C 
HETATM    9  C17 UNL     1      -2.708  48.834 -15.025  1.00  0.00     0.067 C 
HETATM   10  C18 UNL     1      -2.613  50.082 -14.131  1.00  0.00     0.136 C 
HETATM   11  C26 UNL     1      -1.369  50.930 -14.447  1.00  0.00     0.034 C 
HETATM   12  C27 UNL     1      -1.178  51.209 -15.948  1.00  0.00     0.017 C 
HETATM   13  C28 UNL     1      -1.210  49.925 -16.817  1.00  0.00    -0.013 C 
HETATM   14  C29 UNL     1      -0.006  49.018 -16.450  1.00  0.00     0.021 C 
HETATM   15  C30 UNL     1      -1.097  50.208 -18.369  1.00  0.00     0.027 C 
HETATM   16  C31 UNL     1      -0.100  51.323 -18.754  1.00  0.00     0.011 C 
HETATM   17  C32 UNL     1       0.141  51.432 -20.278  1.00  0.00     0.011 C 
HETATM   18  C33 UNL     1      -1.091  51.083 -21.153  1.00  0.00    -0.033 C 
HETATM   19  C34 UNL     1      -0.970  49.633 -21.692  1.00  0.00     0.016 C 
ENDROOT
BRANCH  10  20
HETATM   20  O1  UNL     1      -2.548  49.620 -12.766  1.00  0.00    -0.312 OA
BRANCH  20  21
HETATM   21  C19 UNL     1      -3.560  50.001 -11.947  1.00  0.00     0.293 C 
HETATM   22  O2  UNL     1      -4.586  49.376 -11.734  1.00  0.00    -0.259 OA
BRANCH  21  23
HETATM   23  C20 UNL     1      -3.260  51.323 -11.336  1.00  0.00     0.039 A 
HETATM   24  C21 UNL     1      -1.997  51.517 -10.758  1.00  0.00     0.017 A 
HETATM   25  C22 UNL     1      -1.670  52.741 -10.170  1.00  0.00     0.001 A 
HETATM   26  C23 UNL     1      -2.602  53.779 -10.158  1.00  0.00     0.000 A 
HETATM   27  C24 UNL     1      -3.861  53.596 -10.732  1.00  0.00     0.001 A 
HETATM   28  C25 UNL     1      -4.191  52.373 -11.320  1.00  0.00     0.017 A 
ENDBRANCH  21  23
ENDBRANCH  20  21
ENDBRANCH  10  20
BRANCH   1  29
HETATM   29  C7  UNL     1      -0.511  51.993 -23.617  1.00  0.00    -0.014 C 
HETATM   30  C8  UNL     1       0.422  53.205 -23.763  1.00  0.00     0.010 C 
BRANCH  29  31
HETATM   31  C6  UNL     1      -1.365  51.909 -24.915  1.00  0.00     0.008 C 
BRANCH  31  32
HETATM   32  C5  UNL     1      -0.963  50.785 -25.881  1.00  0.00     0.028 C 
BRANCH  32  33
HETATM   33  C4  UNL     1       0.488  50.905 -26.267  1.00  0.00    -0.025 C 
HETATM   34  C2  UNL     1       1.032  51.667 -27.237  1.00  0.00    -0.091 C 
HETATM   35  C1  UNL     1       2.517  51.634 -27.493  1.00  0.00     0.042 C 
HETATM   36  C3  UNL     1       0.277  52.595 -28.148  1.00  0.00     0.042 C 
ENDBRANCH  32  33
ENDBRANCH  31  32
ENDBRANCH  29  31
ENDBRANCH   1  29
TORSDOF 7
ENDMDL
MODEL 7
REMARK minimizedAffinity -9.28601456
REMARK  7 active torsions:
REMARK  status: ('A' for Active; 'I' for Inactive)
REMARK    1  A    between atoms: C4_4  and  C5_5 
REMARK    2  A    between atoms: C5_5  and  C6_6 
REMARK    3  A    between atoms: C6_6  and  C7_7 
REMARK    4  A    between atoms: C7_7  and  C9_9 
REMARK    5  A    between atoms: C18_18  and  O1_19 
REMARK    6  A    between atoms: O1_19  and  C19_20 
REMARK    7  A    between atoms: C19_20  and  C20_22 
ROOT
HETATM    1  C9  UNL     1      -0.978  52.324 -21.879  1.00  0.00    -0.002 C 
HETATM    2  C10 UNL     1      -0.278  52.299 -23.263  1.00  0.00     0.006 C 
HETATM    3  C11 UNL     1      -1.142  51.448 -24.203  1.00  0.00     0.010 C 
HETATM    4  C12 UNL     1      -2.400  51.153 -23.394  1.00  0.00     0.023 C 
HETATM    5  C13 UNL     1      -3.309  50.018 -23.791  1.00  0.00    -0.070 C 
HETATM    6  C14 UNL     1      -3.329  49.447 -25.006  1.00  0.00     0.004 C 
HETATM    7  C15 UNL     1      -4.316  48.462 -25.367  1.00  0.00     0.004 C 
HETATM    8  C16 UNL     1      -5.408  48.242 -24.613  1.00  0.00    -0.069 C 
HETATM    9  C17 UNL     1      -6.605  47.521 -25.179  1.00  0.00     0.067 C 
HETATM   10  C18 UNL     1      -7.775  48.508 -25.329  1.00  0.00     0.136 C 
HETATM   11  C26 UNL     1      -8.024  49.316 -24.045  1.00  0.00     0.034 C 
HETATM   12  C27 UNL     1      -6.747  49.932 -23.446  1.00  0.00     0.017 C 
HETATM   13  C28 UNL     1      -5.608  48.900 -23.242  1.00  0.00    -0.013 C 
HETATM   14  C29 UNL     1      -6.043  47.847 -22.188  1.00  0.00     0.021 C 
HETATM   15  C30 UNL     1      -4.265  49.538 -22.705  1.00  0.00     0.027 C 
HETATM   16  C31 UNL     1      -4.450  50.638 -21.637  1.00  0.00     0.011 C 
HETATM   17  C32 UNL     1      -3.123  51.092 -20.985  1.00  0.00     0.011 C 
HETATM   18  C33 UNL     1      -1.894  51.053 -21.930  1.00  0.00    -0.033 C 
HETATM   19  C34 UNL     1      -1.061  49.770 -21.669  1.00  0.00     0.016 C 
ENDROOT
BRANCH  10  20
HETATM   20  O1  UNL     1      -8.947  47.729 -25.644  1.00  0.00    -0.312 OA
BRANCH  20  21
HETATM   21  C19 UNL     1      -9.879  48.324 -26.430  1.00  0.00     0.293 C 
HETATM   22  O2  UNL     1     -10.781  49.053 -26.049  1.00  0.00    -0.259 OA
BRANCH  21  23
HETATM   23  C20 UNL     1      -9.668  47.952 -27.855  1.00  0.00     0.039 A 
HETATM   24  C21 UNL     1     -10.785  47.575 -28.615  1.00  0.00     0.017 A 
HETATM   25  C22 UNL     1     -10.636  47.217 -29.956  1.00  0.00     0.001 A 
HETATM   26  C23 UNL     1      -9.371  47.234 -30.547  1.00  0.00     0.000 A 
HETATM   27  C24 UNL     1      -8.255  47.610 -29.798  1.00  0.00     0.001 A 
HETATM   28  C25 UNL     1      -8.401  47.968 -28.456  1.00  0.00     0.017 A 
ENDBRANCH  21  23
ENDBRANCH  20  21
ENDBRANCH  10  20
BRANCH   1  29
HETATM   29  C7  UNL     1       0.018  52.484 -20.691  1.00  0.00    -0.014 C 
HETATM   30  C8  UNL     1       1.477  52.498 -21.171  1.00  0.00     0.010 C 
BRANCH  29  31
HETATM   31  C6  UNL     1      -0.110  51.349 -19.634  1.00  0.00     0.008 C 
BRANCH  31  32
HETATM   32  C5  UNL     1      -0.185  51.827 -18.177  1.00  0.00     0.028 C 
BRANCH  32  33
HETATM   33  C4  UNL     1       1.148  52.361 -17.722  1.00  0.00    -0.025 C 
HETATM   34  C2  UNL     1       1.844  52.031 -16.616  1.00  0.00    -0.091 C 
HETATM   35  C1  UNL     1       3.162  52.699 -16.313  1.00  0.00     0.042 C 
HETATM   36  C3  UNL     1       1.426  51.016 -15.587  1.00  0.00     0.042 C 
ENDBRANCH  32  33
ENDBRANCH  31  32
ENDBRANCH  29  31
ENDBRANCH   1  29
TORSDOF 7
ENDMDL
MODEL 8
REMARK minimizedAffinity -9.22694206
REMARK  7 active torsions:
REMARK  status: ('A' for Active; 'I' for Inactive)
REMARK    1  A    between atoms: C4_4  and  C5_5 
REMARK    2  A    between atoms: C5_5  and  C6_6 
REMARK    3  A    between atoms: C6_6  and  C7_7 
REMARK    4  A    between atoms: C7_7  and  C9_9 
REMARK    5  A    between atoms: C18_18  and  O1_19 
REMARK    6  A    between atoms: O1_19  and  C19_20 
REMARK    7  A    between atoms: C19_20  and  C20_22 
ROOT
HETATM    1  C9  UNL     1      -1.369  50.563 -24.719  1.00  0.00    -0.002 C 
HETATM    2  C10 UNL     1      -0.266  51.629 -24.949  1.00  0.00     0.006 C 
HETATM    3  C11 UNL     1       0.237  52.079 -23.571  1.00  0.00     0.010 C 
HETATM    4  C12 UNL     1      -0.457  51.140 -22.592  1.00  0.00     0.023 C 
HETATM    5  C13 UNL     1      -0.557  51.503 -21.133  1.00  0.00    -0.070 C 
HETATM    6  C14 UNL     1       0.220  52.409 -20.518  1.00  0.00     0.004 C 
HETATM    7  C15 UNL     1       0.171  52.610 -19.093  1.00  0.00     0.004 C 
HETATM    8  C16 UNL     1      -0.458  51.748 -18.275  1.00  0.00    -0.069 C 
HETATM    9  C17 UNL     1      -0.177  51.742 -16.794  1.00  0.00     0.067 C 
HETATM   10  C18 UNL     1       0.572  50.452 -16.420  1.00  0.00     0.136 C 
HETATM   11  C26 UNL     1      -0.118  49.195 -16.976  1.00  0.00     0.034 C 
HETATM   12  C27 UNL     1      -0.488  49.304 -18.466  1.00  0.00     0.017 C 
HETATM   13  C28 UNL     1      -1.302  50.580 -18.802  1.00  0.00    -0.013 C 
HETATM   14  C29 UNL     1      -2.675  50.527 -18.080  1.00  0.00     0.021 C 
HETATM   15  C30 UNL     1      -1.617  50.743 -20.343  1.00  0.00     0.027 C 
HETATM   16  C31 UNL     1      -1.985  49.433 -21.072  1.00  0.00     0.011 C 
HETATM   17  C32 UNL     1      -2.486  49.654 -22.518  1.00  0.00     0.011 C 
HETATM   18  C33 UNL     1      -1.834  50.856 -23.251  1.00  0.00    -0.033 C 
HETATM   19  C34 UNL     1      -2.782  52.083 -23.214  1.00  0.00     0.016 C 
ENDROOT
BRANCH  10  20
HETATM   20  O1  UNL     1       0.606  50.386 -14.979  1.00  0.00    -0.312 OA
BRANCH  20  21
HETATM   21  C19 UNL     1       1.153  51.446 -14.335  1.00  0.00     0.293 C 
HETATM   22  O2  UNL     1       2.266  51.909 -14.527  1.00  0.00    -0.259 OA
BRANCH  21  23
HETATM   23  C20 UNL     1       0.203  51.982 -13.322  1.00  0.00     0.039 A 
HETATM   24  C21 UNL     1       0.722  52.737 -12.261  1.00  0.00     0.017 A 
HETATM   25  C22 UNL     1      -0.130  53.259 -11.285  1.00  0.00     0.001 A 
HETATM   26  C23 UNL     1      -1.505  53.032 -11.365  1.00  0.00     0.000 A 
HETATM   27  C24 UNL     1      -2.029  52.284 -12.420  1.00  0.00     0.001 A 
HETATM   28  C25 UNL     1      -1.180  51.759 -13.396  1.00  0.00     0.017 A 
ENDBRANCH  21  23
ENDBRANCH  20  21
ENDBRANCH  10  20
BRANCH   1  29
HETATM   29  C7  UNL     1      -2.438  50.533 -25.852  1.00  0.00    -0.014 C 
HETATM   30  C8  UNL     1      -3.551  51.564 -25.612  1.00  0.00     0.010 C 
BRANCH  29  31
HETATM   31  C6  UNL     1      -3.122  49.143 -26.006  1.00  0.00     0.008 C 
BRANCH  31  32
HETATM   32  C5  UNL     1      -3.590  48.806 -27.429  1.00  0.00     0.028 C 
BRANCH  32  33
HETATM   33  C4  UNL     1      -4.967  48.195 -27.407  1.00  0.00    -0.025 C 
HETATM   34  C2  UNL     1      -5.714  47.787 -28.451  1.00  0.00    -0.091 C 
HETATM   35  C1  UNL     1      -7.093  47.219 -28.230  1.00  0.00     0.042 C 
HETATM   36  C3  UNL     1      -5.304  47.844 -29.897  1.00  0.00     0.042 C 
ENDBRANCH  32  33
ENDBRANCH  31  32
ENDBRANCH  29  31
ENDBRANCH   1  29
TORSDOF 7
ENDMDL
MODEL 9
REMARK minimizedAffinity -9.03781891
REMARK  7 active torsions:
REMARK  status: ('A' for Active; 'I' for Inactive)
REMARK    1  A    between atoms: C4_4  and  C5_5 
REMARK    2  A    between atoms: C5_5  and  C6_6 
REMARK    3  A    between atoms: C6_6  and  C7_7 
REMARK    4  A    between atoms: C7_7  and  C9_9 
REMARK    5  A    between atoms: C18_18  and  O1_19 
REMARK    6  A    between atoms: O1_19  and  C19_20 
REMARK    7  A    between atoms: C19_20  and  C20_22 
ROOT
HETATM    1  C9  UNL     1      -3.425  48.868 -25.885  1.00  0.00    -0.002 C 
HETATM    2  C10 UNL     1      -2.267  49.592 -26.620  1.00  0.00     0.006 C 
HETATM    3  C11 UNL     1      -1.456  50.356 -25.564  1.00  0.00     0.010 C 
HETATM    4  C12 UNL     1      -2.058  49.915 -24.235  1.00  0.00     0.023 C 
HETATM    5  C13 UNL     1      -1.830  50.733 -22.990  1.00  0.00    -0.070 C 
HETATM    6  C14 UNL     1      -0.844  51.632 -22.839  1.00  0.00     0.004 C 
HETATM    7  C15 UNL     1      -0.593  52.279 -21.577  1.00  0.00     0.004 C 
HETATM    8  C16 UNL     1      -1.153  51.847 -20.433  1.00  0.00    -0.069 C 
HETATM    9  C17 UNL     1      -0.595  52.259 -19.095  1.00  0.00     0.067 C 
HETATM   10  C18 UNL     1       0.050  51.042 -18.411  1.00  0.00     0.136 C 
HETATM   11  C26 UNL     1      -0.882  49.819 -18.401  1.00  0.00     0.034 C 
HETATM   12  C27 UNL     1      -1.516  49.515 -19.770  1.00  0.00     0.017 C 
HETATM   13  C28 UNL     1      -2.218  50.743 -20.404  1.00  0.00    -0.013 C 
HETATM   14  C29 UNL     1      -3.422  51.168 -19.521  1.00  0.00     0.021 C 
HETATM   15  C30 UNL     1      -2.802  50.464 -21.847  1.00  0.00     0.027 C 
HETATM   16  C31 UNL     1      -3.460  49.078 -22.024  1.00  0.00     0.011 C 
HETATM   17  C32 UNL     1      -4.200  48.917 -23.372  1.00  0.00     0.011 C 
HETATM   18  C33 UNL     1      -3.559  49.688 -24.556  1.00  0.00    -0.033 C 
HETATM   19  C34 UNL     1      -4.327  51.013 -24.807  1.00  0.00     0.016 C 
ENDROOT
BRANCH  10  20
HETATM   20  O1  UNL     1       0.352  51.430 -17.055  1.00  0.00    -0.312 OA
BRANCH  20  21
HETATM   21  C19 UNL     1       1.527  52.077 -16.856  1.00  0.00     0.293 C 
HETATM   22  O2  UNL     1       1.948  53.020 -17.507  1.00  0.00    -0.259 OA
BRANCH  21  23
HETATM   23  C20 UNL     1       2.268  51.466 -15.720  1.00  0.00     0.039 A 
HETATM   24  C21 UNL     1       1.558  50.650 -14.827  1.00  0.00     0.017 A 
HETATM   25  C22 UNL     1       2.211  50.056 -13.744  1.00  0.00     0.001 A 
HETATM   26  C23 UNL     1       3.575  50.271 -13.549  1.00  0.00     0.000 A 
HETATM   27  C24 UNL     1       4.289  51.080 -14.433  1.00  0.00     0.001 A 
HETATM   28  C25 UNL     1       3.640  51.677 -15.516  1.00  0.00     0.017 A 
ENDBRANCH  21  23
ENDBRANCH  20  21
ENDBRANCH  10  20
BRANCH   1  29
HETATM   29  C7  UNL     1      -4.688  48.673 -26.777  1.00  0.00    -0.014 C 
HETATM   30  C8  UNL     1      -5.703  47.721 -26.124  1.00  0.00     0.010 C 
BRANCH  29  31
HETATM   31  C6  UNL     1      -4.356  48.099 -28.184  1.00  0.00     0.008 C 
BRANCH  31  32
HETATM   32  C5  UNL     1      -5.577  47.794 -29.064  1.00  0.00     0.028 C 
BRANCH  32  33
HETATM   33  C4  UNL     1      -5.312  48.180 -30.496  1.00  0.00    -0.025 C 
HETATM   34  C2  UNL     1      -5.118  47.370 -31.555  1.00  0.00    -0.091 C 
HETATM   35  C1  UNL     1      -4.839  47.948 -32.920  1.00  0.00     0.042 C 
HETATM   36  C3  UNL     1      -5.145  45.867 -31.524  1.00  0.00     0.042 C 
ENDBRANCH  32  33
ENDBRANCH  31  32
ENDBRANCH  29  31
ENDBRANCH   1  29
TORSDOF 7
ENDMDL
