MODEL 1
REMARK minimizedAffinity -8.72575092
REMARK  5 active torsions:
REMARK  status: ('A' for Active; 'I' for Inactive)
REMARK    1  A    between atoms: C4_4  and  C5_5 
REMARK    2  A    between atoms: C5_5  and  C6_6 
REMARK    3  A    between atoms: C6_6  and  C7_7 
REMARK    4  A    between atoms: C7_7  and  C9_9 
REMARK    5  A    between atoms: C24_24  and  O1_26 
ROOT
HETATM    1  C9  UNL     1      -6.438   6.995  14.276  1.00  0.00    -0.002 C 
HETATM    2  C10 UNL     1      -6.407   8.362  15.010  1.00  0.00     0.007 C 
HETATM    3  C11 UNL     1      -4.939   8.846  14.995  1.00  0.00     0.015 C 
HETATM    4  C12 UNL     1      -4.233   7.937  13.970  1.00  0.00    -0.013 C 
HETATM    5  C13 UNL     1      -4.501   8.553  12.560  1.00  0.00     0.021 C 
HETATM    6  C14 UNL     1      -2.723   7.754  14.033  1.00  0.00    -0.068 C 
HETATM    7  C15 UNL     1      -2.164   6.613  13.543  1.00  0.00    -0.068 C 
HETATM    8  C16 UNL     1      -3.016   5.451  13.029  1.00  0.00     0.036 C 
HETATM    9  C17 UNL     1      -4.550   5.582  13.153  1.00  0.00     0.015 C 
HETATM   10  C18 UNL     1      -4.943   6.567  14.260  1.00  0.00    -0.029 C 
HETATM   11  C19 UNL     1      -4.543   5.937  15.628  1.00  0.00     0.016 C 
HETATM   12  C20 UNL     1      -0.626   6.429  13.583  1.00  0.00    -0.016 C 
HETATM   13  C21 UNL     1      -0.341   5.865  15.002  1.00  0.00     0.020 C 
HETATM   14  C22 UNL     1      -0.035   5.407  12.570  1.00  0.00     0.017 C 
HETATM   15  C23 UNL     1       0.351   6.046  11.246  1.00  0.00     0.039 C 
HETATM   16  C24 UNL     1       1.493   7.091  11.388  1.00  0.00     0.061 C 
HETATM   17  C25 UNL     1       1.405   8.010  10.152  1.00  0.00     0.046 C 
HETATM   18  C26 UNL     1       1.463   7.866  12.785  1.00  0.00    -0.012 C 
HETATM   19  C27 UNL     1       2.441   7.245  13.811  1.00  0.00     0.018 C 
HETATM   20  C28 UNL     1       1.961   9.327  12.616  1.00  0.00     0.018 C 
HETATM   21  C29 UNL     1      -0.021   7.859  13.294  1.00  0.00     0.009 C 
HETATM   22  C30 UNL     1      -0.386   8.812  14.440  1.00  0.00     0.011 C 
HETATM   23  C31 UNL     1      -1.913   8.911  14.592  1.00  0.00     0.036 C 
ENDROOT
BRANCH   1  24
HETATM   24  C7  UNL     1      -7.501   5.963  14.755  1.00  0.00    -0.014 C 
HETATM   25  C8  UNL     1      -8.942   6.253  14.313  1.00  0.00     0.010 C 
BRANCH  24  26
HETATM   26  C6  UNL     1      -7.078   4.544  14.286  1.00  0.00     0.008 C 
BRANCH  26  27
HETATM   27  C5  UNL     1      -7.718   4.105  12.964  1.00  0.00     0.028 C 
BRANCH  27  28
HETATM   28  C4  UNL     1      -7.237   2.736  12.562  1.00  0.00    -0.025 C 
HETATM   29  C2  UNL     1      -6.309   2.424  11.638  1.00  0.00    -0.091 C 
HETATM   30  C1  UNL     1      -5.923   0.986  11.395  1.00  0.00     0.042 C 
HETATM   31  C3  UNL     1      -5.579   3.414  10.772  1.00  0.00     0.042 C 
ENDBRANCH  27  28
ENDBRANCH  26  27
ENDBRANCH  24  26
ENDBRANCH   1  24
BRANCH  16  32
HETATM   32  O1  UNL     1       2.745   6.397  11.277  1.00  0.00    -0.389 OA
HETATM   33  H41 UNL     1       2.776   5.961  10.409  1.00  0.00     0.210 HD
ENDBRANCH  16  32
TORSDOF 5
ENDMDL
MODEL 2
REMARK minimizedAffinity -8.59780598
REMARK  5 active torsions:
REMARK  status: ('A' for Active; 'I' for Inactive)
REMARK    1  A    between atoms: C4_4  and  C5_5 
REMARK    2  A    between atoms: C5_5  and  C6_6 
REMARK    3  A    between atoms: C6_6  and  C7_7 
REMARK    4  A    between atoms: C7_7  and  C9_9 
REMARK    5  A    between atoms: C24_24  and  O1_26 
ROOT
HETATM    1  C9  UNL     1      -3.306   6.778  14.972  1.00  0.00    -0.002 C 
HETATM    2  C10 UNL     1      -3.646   5.382  14.386  1.00  0.00     0.007 C 
HETATM    3  C11 UNL     1      -2.564   5.064  13.329  1.00  0.00     0.015 C 
HETATM    4  C12 UNL     1      -1.453   6.103  13.573  1.00  0.00    -0.013 C 
HETATM    5  C13 UNL     1      -0.558   5.546  14.726  1.00  0.00     0.021 C 
HETATM    6  C14 UNL     1      -0.478   6.447  12.456  1.00  0.00    -0.068 C 
HETATM    7  C15 UNL     1       0.122   7.669  12.441  1.00  0.00    -0.068 C 
HETATM    8  C16 UNL     1      -0.237   8.759  13.453  1.00  0.00     0.036 C 
HETATM    9  C17 UNL     1      -1.369   8.453  14.459  1.00  0.00     0.015 C 
HETATM   10  C18 UNL     1      -2.313   7.368  13.930  1.00  0.00    -0.029 C 
HETATM   11  C19 UNL     1      -3.088   7.956  12.713  1.00  0.00     0.016 C 
HETATM   12  C20 UNL     1       1.134   8.019  11.320  1.00  0.00    -0.016 C 
HETATM   13  C21 UNL     1       0.249   8.526  10.147  1.00  0.00     0.020 C 
HETATM   14  C22 UNL     1       2.143   9.157  11.643  1.00  0.00     0.017 C 
HETATM   15  C23 UNL     1       3.430   8.643  12.267  1.00  0.00     0.039 C 
HETATM   16  C24 UNL     1       4.241   7.723  11.311  1.00  0.00     0.061 C 
HETATM   17  C25 UNL     1       5.171   6.875  12.202  1.00  0.00     0.046 C 
HETATM   18  C26 UNL     1       3.315   6.869  10.328  1.00  0.00    -0.012 C 
HETATM   19  C27 UNL     1       3.184   7.532   8.936  1.00  0.00     0.018 C 
HETATM   20  C28 UNL     1       3.953   5.484  10.034  1.00  0.00     0.018 C 
HETATM   21  C29 UNL     1       1.927   6.683  11.035  1.00  0.00     0.009 C 
HETATM   22  C30 UNL     1       0.970   5.630  10.461  1.00  0.00     0.011 C 
HETATM   23  C31 UNL     1      -0.181   5.355  11.443  1.00  0.00     0.036 C 
ENDROOT
BRANCH   1  24
HETATM   24  C7  UNL     1      -4.504   7.657  15.437  1.00  0.00    -0.014 C 
HETATM   25  C8  UNL     1      -4.811   8.869  14.547  1.00  0.00     0.010 C 
BRANCH  24  26
HETATM   26  C6  UNL     1      -5.767   6.764  15.572  1.00  0.00     0.008 C 
BRANCH  26  27
HETATM   27  C5  UNL     1      -6.618   6.686  14.299  1.00  0.00     0.028 C 
BRANCH  27  28
HETATM   28  C4  UNL     1      -6.981   5.260  13.982  1.00  0.00    -0.025 C 
HETATM   29  C2  UNL     1      -7.848   4.814  13.053  1.00  0.00    -0.091 C 
HETATM   30  C1  UNL     1      -8.057   3.335  12.847  1.00  0.00     0.042 C 
HETATM   31  C3  UNL     1      -8.678   5.686  12.152  1.00  0.00     0.042 C 
ENDBRANCH  27  28
ENDBRANCH  26  27
ENDBRANCH  24  26
ENDBRANCH   1  24
BRANCH  16  32
HETATM   32  O1  UNL     1       5.102   8.556  10.519  1.00  0.00    -0.389 OA
HETATM   33  H41 UNL     1       5.691   9.043  11.119  1.00  0.00     0.210 HD
ENDBRANCH  16  32
TORSDOF 5
ENDMDL
MODEL 3
REMARK minimizedAffinity -8.38641739
REMARK  5 active torsions:
REMARK  status: ('A' for Active; 'I' for Inactive)
REMARK    1  A    between atoms: C4_4  and  C5_5 
REMARK    2  A    between atoms: C5_5  and  C6_6 
REMARK    3  A    between atoms: C6_6  and  C7_7 
REMARK    4  A    between atoms: C7_7  and  C9_9 
REMARK    5  A    between atoms: C24_24  and  O1_26 
ROOT
HETATM    1  C9  UNL     1       0.782   6.126  13.241  1.00  0.00    -0.002 C 
HETATM    2  C10 UNL     1       1.167   7.015  14.453  1.00  0.00     0.007 C 
HETATM    3  C11 UNL     1      -0.154   7.463  15.118  1.00  0.00     0.015 C 
HETATM    4  C12 UNL     1      -1.237   6.557  14.499  1.00  0.00    -0.013 C 
HETATM    5  C13 UNL     1      -1.226   5.221  15.308  1.00  0.00     0.021 C 
HETATM    6  C14 UNL     1      -2.692   7.003  14.504  1.00  0.00    -0.068 C 
HETATM    7  C15 UNL     1      -3.541   6.537  13.547  1.00  0.00    -0.068 C 
HETATM    8  C16 UNL     1      -3.053   5.662  12.390  1.00  0.00     0.036 C 
HETATM    9  C17 UNL     1      -1.537   5.381  12.299  1.00  0.00     0.015 C 
HETATM   10  C18 UNL     1      -0.721   6.460  13.019  1.00  0.00    -0.029 C 
HETATM   11  C19 UNL     1      -0.870   7.790  12.220  1.00  0.00     0.016 C 
HETATM   12  C20 UNL     1      -5.029   6.968  13.559  1.00  0.00    -0.016 C 
HETATM   13  C21 UNL     1      -5.044   8.324  12.800  1.00  0.00     0.020 C 
HETATM   14  C22 UNL     1      -6.018   6.028  12.812  1.00  0.00     0.017 C 
HETATM   15  C23 UNL     1      -6.605   4.954  13.714  1.00  0.00     0.039 C 
HETATM   16  C24 UNL     1      -7.481   5.538  14.857  1.00  0.00     0.061 C 
HETATM   17  C25 UNL     1      -7.548   4.457  15.956  1.00  0.00     0.046 C 
HETATM   18  C26 UNL     1      -6.974   6.965  15.370  1.00  0.00    -0.012 C 
HETATM   19  C27 UNL     1      -7.759   8.126  14.713  1.00  0.00     0.018 C 
HETATM   20  C28 UNL     1      -7.244   7.132  16.890  1.00  0.00     0.018 C 
HETATM   21  C29 UNL     1      -5.434   7.045  15.083  1.00  0.00     0.009 C 
HETATM   22  C30 UNL     1      -4.640   8.165  15.769  1.00  0.00     0.011 C 
HETATM   23  C31 UNL     1      -3.129   7.908  15.643  1.00  0.00     0.036 C 
ENDROOT
BRANCH   1  24
HETATM   24  C7  UNL     1       1.739   6.158  12.013  1.00  0.00    -0.014 C 
HETATM   25  C8  UNL     1       1.554   5.012  11.009  1.00  0.00     0.010 C 
BRANCH  24  26
HETATM   26  C6  UNL     1       1.593   7.525  11.291  1.00  0.00     0.008 C 
BRANCH  26  27
HETATM   27  C5  UNL     1       2.850   7.970  10.534  1.00  0.00     0.028 C 
BRANCH  27  28
HETATM   28  C4  UNL     1       2.787   7.548   9.090  1.00  0.00    -0.025 C 
HETATM   29  C2  UNL     1       1.770   7.714   8.223  1.00  0.00    -0.091 C 
HETATM   30  C1  UNL     1       1.901   7.258   6.792  1.00  0.00     0.042 C 
HETATM   31  C3  UNL     1       0.442   8.339   8.553  1.00  0.00     0.042 C 
ENDBRANCH  27  28
ENDBRANCH  26  27
ENDBRANCH  24  26
ENDBRANCH   1  24
BRANCH  16  32
HETATM   32  O1  UNL     1      -8.821   5.681  14.361  1.00  0.00    -0.389 OA
HETATM   33  H41 UNL     1      -9.140   4.804  14.088  1.00  0.00     0.210 HD
ENDBRANCH  16  32
TORSDOF 5
ENDMDL
MODEL 4
REMARK minimizedAffinity -8.36713505
REMARK  5 active torsions:
REMARK  status: ('A' for Active; 'I' for Inactive)
REMARK    1  A    between atoms: C4_4  and  C5_5 
REMARK    2  A    between atoms: C5_5  and  C6_6 
REMARK    3  A    between atoms: C6_6  and  C7_7 
REMARK    4  A    between atoms: C7_7  and  C9_9 
REMARK    5  A    between atoms: C24_24  and  O1_26 
ROOT
HETATM    1  C9  UNL     1      -4.325   7.927  13.904  1.00  0.00    -0.002 C 
HETATM    2  C10 UNL     1      -4.067   9.359  14.445  1.00  0.00     0.007 C 
HETATM    3  C11 UNL     1      -2.576   9.672  14.189  1.00  0.00     0.015 C 
HETATM    4  C12 UNL     1      -2.101   8.578  13.213  1.00  0.00    -0.013 C 
HETATM    5  C13 UNL     1      -2.496   9.050  11.777  1.00  0.00     0.021 C 
HETATM    6  C14 UNL     1      -0.621   8.237  13.116  1.00  0.00    -0.068 C 
HETATM    7  C15 UNL     1      -0.243   6.993  12.716  1.00  0.00    -0.068 C 
HETATM    8  C16 UNL     1      -1.262   5.880  12.464  1.00  0.00     0.036 C 
HETATM    9  C17 UNL     1      -2.747   6.193  12.754  1.00  0.00     0.015 C 
HETATM   10  C18 UNL     1      -2.892   7.337  13.763  1.00  0.00    -0.029 C 
HETATM   11  C19 UNL     1      -2.374   6.832  15.143  1.00  0.00     0.016 C 
HETATM   12  C20 UNL     1       1.263   6.646  12.592  1.00  0.00    -0.016 C 
HETATM   13  C21 UNL     1       1.680   6.224  14.029  1.00  0.00     0.020 C 
HETATM   14  C22 UNL     1       1.614   5.453  11.658  1.00  0.00     0.017 C 
HETATM   15  C23 UNL     1       1.878   5.887  10.225  1.00  0.00     0.039 C 
HETATM   16  C24 UNL     1       3.122   6.809  10.091  1.00  0.00     0.061 C 
HETATM   17  C25 UNL     1       2.957   7.581   8.765  1.00  0.00     0.046 C 
HETATM   18  C26 UNL     1       3.352   7.740  11.368  1.00  0.00    -0.012 C 
HETATM   19  C27 UNL     1       4.396   7.140  12.341  1.00  0.00     0.018 C 
HETATM   20  C28 UNL     1       3.960   9.107  10.952  1.00  0.00     0.018 C 
HETATM   21  C29 UNL     1       1.956   7.957  12.049  1.00  0.00     0.009 C 
HETATM   22  C30 UNL     1       1.839   9.071  13.097  1.00  0.00     0.011 C 
HETATM   23  C31 UNL     1       0.362   9.356  13.418  1.00  0.00     0.036 C 
ENDROOT
BRANCH   1  24
HETATM   24  C7  UNL     1      -5.407   7.081  14.638  1.00  0.00    -0.014 C 
HETATM   25  C8  UNL     1      -6.295   7.861  15.617  1.00  0.00     0.010 C 
BRANCH  24  26
HETATM   26  C6  UNL     1      -6.289   6.359  13.583  1.00  0.00     0.008 C 
BRANCH  26  27
HETATM   27  C5  UNL     1      -6.480   4.861  13.848  1.00  0.00     0.028 C 
BRANCH  27  28
HETATM   28  C4  UNL     1      -5.874   4.038  12.742  1.00  0.00    -0.025 C 
HETATM   29  C2  UNL     1      -6.342   2.891  12.212  1.00  0.00    -0.091 C 
HETATM   30  C1  UNL     1      -5.616   2.222  11.073  1.00  0.00     0.042 C 
HETATM   31  C3  UNL     1      -7.580   2.168  12.666  1.00  0.00     0.042 C 
ENDBRANCH  27  28
ENDBRANCH  26  27
ENDBRANCH  24  26
ENDBRANCH   1  24
BRANCH  16  32
HETATM   32  O1  UNL     1       4.277   5.972   9.920  1.00  0.00    -0.389 OA
HETATM   33  H41 UNL     1       4.150   5.437   9.119  1.00  0.00     0.210 HD
ENDBRANCH  16  32
TORSDOF 5
ENDMDL
MODEL 5
REMARK minimizedAffinity -8.35644054
REMARK  5 active torsions:
REMARK  status: ('A' for Active; 'I' for Inactive)
REMARK    1  A    between atoms: C4_4  and  C5_5 
REMARK    2  A    between atoms: C5_5  and  C6_6 
REMARK    3  A    between atoms: C6_6  and  C7_7 
REMARK    4  A    between atoms: C7_7  and  C9_9 
REMARK    5  A    between atoms: C24_24  and  O1_26 
ROOT
HETATM    1  C9  UNL     1       3.390   8.056   9.928  1.00  0.00    -0.002 C 
HETATM    2  C10 UNL     1       3.125   6.833   9.011  1.00  0.00     0.007 C 
HETATM    3  C11 UNL     1       1.840   6.151   9.533  1.00  0.00     0.015 C 
HETATM    4  C12 UNL     1       1.213   7.174  10.500  1.00  0.00    -0.013 C 
HETATM    5  C13 UNL     1       0.386   8.172   9.628  1.00  0.00     0.021 C 
HETATM    6  C14 UNL     1       0.245   6.706  11.577  1.00  0.00    -0.068 C 
HETATM    7  C15 UNL     1       0.109   7.431  12.721  1.00  0.00    -0.068 C 
HETATM    8  C16 UNL     1       0.986   8.651  13.013  1.00  0.00     0.036 C 
HETATM    9  C17 UNL     1       2.093   8.995  11.992  1.00  0.00     0.015 C 
HETATM   10  C18 UNL     1       2.503   7.766  11.173  1.00  0.00    -0.029 C 
HETATM   11  C19 UNL     1       3.219   6.766  12.130  1.00  0.00     0.016 C 
HETATM   12  C20 UNL     1      -0.891   6.973  13.812  1.00  0.00    -0.016 C 
HETATM   13  C21 UNL     1      -0.095   5.939  14.656  1.00  0.00     0.020 C 
HETATM   14  C22 UNL     1      -1.377   8.074  14.798  1.00  0.00     0.017 C 
HETATM   15  C23 UNL     1      -2.639   8.774  14.322  1.00  0.00     0.039 C 
HETATM   16  C24 UNL     1      -3.864   7.821  14.237  1.00  0.00     0.061 C 
HETATM   17  C25 UNL     1      -4.868   8.482  13.270  1.00  0.00     0.046 C 
HETATM   18  C26 UNL     1      -3.468   6.323  13.849  1.00  0.00    -0.012 C 
HETATM   19  C27 UNL     1      -3.350   5.415  15.096  1.00  0.00     0.018 C 
HETATM   20  C28 UNL     1      -4.584   5.660  12.997  1.00  0.00     0.018 C 
HETATM   21  C29 UNL     1      -2.132   6.389  13.029  1.00  0.00     0.009 C 
HETATM   22  C30 UNL     1      -1.707   5.133  12.257  1.00  0.00     0.011 C 
HETATM   23  C31 UNL     1      -0.575   5.464  11.270  1.00  0.00     0.036 C 
ENDROOT
BRANCH   1  24
HETATM   24  C7  UNL     1       4.878   8.458  10.154  1.00  0.00    -0.014 C 
HETATM   25  C8  UNL     1       5.094   9.721  10.998  1.00  0.00     0.010 C 
BRANCH  24  26
HETATM   26  C6  UNL     1       5.636   7.260  10.789  1.00  0.00     0.008 C 
BRANCH  26  27
HETATM   27  C5  UNL     1       6.923   7.653  11.524  1.00  0.00     0.028 C 
BRANCH  27  28
HETATM   28  C4  UNL     1       6.682   7.767  13.006  1.00  0.00    -0.025 C 
HETATM   29  C2  UNL     1       7.596   7.929  13.982  1.00  0.00    -0.091 C 
HETATM   30  C1  UNL     1       7.164   8.065  15.420  1.00  0.00     0.042 C 
HETATM   31  C3  UNL     1       9.084   7.990  13.776  1.00  0.00     0.042 C 
ENDBRANCH  27  28
ENDBRANCH  26  27
ENDBRANCH  24  26
ENDBRANCH   1  24
BRANCH  16  32
HETATM   32  O1  UNL     1      -4.505   7.807  15.522  1.00  0.00    -0.389 OA
HETATM   33  H41 UNL     1      -4.781   8.714  15.736  1.00  0.00     0.210 HD
ENDBRANCH  16  32
TORSDOF 5
ENDMDL
MODEL 6
REMARK minimizedAffinity -8.35508633
REMARK  5 active torsions:
REMARK  status: ('A' for Active; 'I' for Inactive)
REMARK    1  A    between atoms: C4_4  and  C5_5 
REMARK    2  A    between atoms: C5_5  and  C6_6 
REMARK    3  A    between atoms: C6_6  and  C7_7 
REMARK    4  A    between atoms: C7_7  and  C9_9 
REMARK    5  A    between atoms: C24_24  and  O1_26 
ROOT
HETATM    1  C9  UNL     1      -3.487   5.431  13.318  1.00  0.00    -0.002 C 
HETATM    2  C10 UNL     1      -2.297   5.561  12.331  1.00  0.00     0.007 C 
HETATM    3  C11 UNL     1      -1.528   6.843  12.722  1.00  0.00     0.015 C 
HETATM    4  C12 UNL     1      -2.074   7.225  14.112  1.00  0.00    -0.013 C 
HETATM    5  C13 UNL     1      -1.284   6.375  15.157  1.00  0.00     0.021 C 
HETATM    6  C14 UNL     1      -1.952   8.660  14.606  1.00  0.00    -0.068 C 
HETATM    7  C15 UNL     1      -2.847   9.135  15.515  1.00  0.00    -0.068 C 
HETATM    8  C16 UNL     1      -4.048   8.306  15.977  1.00  0.00     0.036 C 
HETATM    9  C17 UNL     1      -4.259   6.925  15.317  1.00  0.00     0.015 C 
HETATM   10  C18 UNL     1      -3.590   6.854  13.939  1.00  0.00    -0.029 C 
HETATM   11  C19 UNL     1      -4.360   7.811  12.981  1.00  0.00     0.016 C 
HETATM   12  C20 UNL     1      -2.717  10.587  16.041  1.00  0.00    -0.016 C 
HETATM   13  C21 UNL     1      -3.456  11.449  14.980  1.00  0.00     0.020 C 
HETATM   14  C22 UNL     1      -3.398  10.881  17.408  1.00  0.00     0.017 C 
HETATM   15  C23 UNL     1      -2.466  10.661  18.589  1.00  0.00     0.039 C 
HETATM   16  C24 UNL     1      -1.252  11.632  18.591  1.00  0.00     0.061 C 
HETATM   17  C25 UNL     1      -0.164  10.974  19.465  1.00  0.00     0.046 C 
HETATM   18  C26 UNL     1      -0.763  12.028  17.122  1.00  0.00    -0.012 C 
HETATM   19  C27 UNL     1      -1.344  13.388  16.667  1.00  0.00     0.018 C 
HETATM   20  C28 UNL     1       0.775  12.239  17.091  1.00  0.00     0.018 C 
HETATM   21  C29 UNL     1      -1.165  10.854  16.162  1.00  0.00     0.009 C 
HETATM   22  C30 UNL     1      -0.529  10.826  14.766  1.00  0.00     0.011 C 
HETATM   23  C31 UNL     1      -0.773   9.466  14.090  1.00  0.00     0.036 C 
ENDROOT
BRANCH   1  24
HETATM   24  C7  UNL     1      -4.784   4.763  12.774  1.00  0.00    -0.014 C 
HETATM   25  C8  UNL     1      -4.589   3.386  12.126  1.00  0.00     0.010 C 
BRANCH  24  26
HETATM   26  C6  UNL     1      -5.826   4.666  13.922  1.00  0.00     0.008 C 
BRANCH  26  27
HETATM   27  C5  UNL     1      -7.090   3.881  13.556  1.00  0.00     0.028 C 
BRANCH  27  28
HETATM   28  C4  UNL     1      -7.810   4.527  12.402  1.00  0.00    -0.025 C 
HETATM   29  C2  UNL     1      -8.613   5.609  12.429  1.00  0.00    -0.091 C 
HETATM   30  C1  UNL     1      -9.221   6.143  11.157  1.00  0.00     0.042 C 
HETATM   31  C3  UNL     1      -8.989   6.378  13.665  1.00  0.00     0.042 C 
ENDBRANCH  27  28
ENDBRANCH  26  27
ENDBRANCH  24  26
ENDBRANCH   1  24
BRANCH  16  32
HETATM   32  O1  UNL     1      -1.643  12.829  19.281  1.00  0.00    -0.389 OA
HETATM   33  H41 UNL     1      -1.901  12.588  20.187  1.00  0.00     0.210 HD
ENDBRANCH  16  32
TORSDOF 5
ENDMDL
MODEL 7
REMARK minimizedAffinity -8.33590889
REMARK  5 active torsions:
REMARK  status: ('A' for Active; 'I' for Inactive)
REMARK    1  A    between atoms: C4_4  and  C5_5 
REMARK    2  A    between atoms: C5_5  and  C6_6 
REMARK    3  A    between atoms: C6_6  and  C7_7 
REMARK    4  A    between atoms: C7_7  and  C9_9 
REMARK    5  A    between atoms: C24_24  and  O1_26 
ROOT
HETATM    1  C9  UNL     1      -6.568   7.190  14.558  1.00  0.00    -0.002 C 
HETATM    2  C10 UNL     1      -6.371   8.581  15.218  1.00  0.00     0.007 C 
HETATM    3  C11 UNL     1      -4.886   8.962  15.024  1.00  0.00     0.015 C 
HETATM    4  C12 UNL     1      -4.354   7.967  13.975  1.00  0.00    -0.013 C 
HETATM    5  C13 UNL     1      -4.734   8.541  12.573  1.00  0.00     0.021 C 
HETATM    6  C14 UNL     1      -2.861   7.683  13.887  1.00  0.00    -0.068 C 
HETATM    7  C15 UNL     1      -2.432   6.488  13.397  1.00  0.00    -0.068 C 
HETATM    8  C16 UNL     1      -3.407   5.367  13.032  1.00  0.00     0.036 C 
HETATM    9  C17 UNL     1      -4.907   5.607  13.310  1.00  0.00     0.015 C 
HETATM   10  C18 UNL     1      -5.114   6.661  14.404  1.00  0.00    -0.029 C 
HETATM   11  C19 UNL     1      -4.608   6.062  15.751  1.00  0.00     0.016 C 
HETATM   12  C20 UNL     1      -0.913   6.201  13.282  1.00  0.00    -0.016 C 
HETATM   13  C21 UNL     1      -0.513   5.677  14.690  1.00  0.00     0.020 C 
HETATM   14  C22 UNL     1      -0.502   5.101  12.263  1.00  0.00     0.017 C 
HETATM   15  C23 UNL     1      -0.222   5.657  10.877  1.00  0.00     0.039 C 
HETATM   16  C24 UNL     1       0.992   6.627  10.848  1.00  0.00     0.061 C 
HETATM   17  C25 UNL     1       0.829   7.498   9.585  1.00  0.00     0.046 C 
HETATM   18  C26 UNL     1       1.163   7.459  12.201  1.00  0.00    -0.012 C 
HETATM   19  C27 UNL     1       2.206   6.815  13.147  1.00  0.00     0.018 C 
HETATM   20  C28 UNL     1       1.732   8.874  11.910  1.00  0.00     0.018 C 
HETATM   21  C29 UNL     1      -0.254   7.574  12.863  1.00  0.00     0.009 C 
HETATM   22  C30 UNL     1      -0.431   8.595  13.994  1.00  0.00     0.011 C 
HETATM   23  C31 UNL     1      -1.924   8.805  14.301  1.00  0.00     0.036 C 
ENDROOT
BRANCH   1  24
HETATM   24  C7  UNL     1      -7.636   6.253  15.195  1.00  0.00    -0.014 C 
HETATM   25  C8  UNL     1      -8.444   6.869  16.345  1.00  0.00     0.010 C 
BRANCH  24  26
HETATM   26  C6  UNL     1      -8.596   5.747  14.084  1.00  0.00     0.008 C 
BRANCH  26  27
HETATM   27  C5  UNL     1      -9.393   6.858  13.392  1.00  0.00     0.028 C 
BRANCH  27  28
HETATM   28  C4  UNL     1     -10.873   6.664  13.594  1.00  0.00    -0.025 C 
HETATM   29  C2  UNL     1     -11.875   7.471  13.196  1.00  0.00    -0.091 C 
HETATM   30  C1  UNL     1     -13.312   7.091  13.453  1.00  0.00     0.042 C 
HETATM   31  C3  UNL     1     -11.701   8.785  12.487  1.00  0.00     0.042 C 
ENDBRANCH  27  28
ENDBRANCH  26  27
ENDBRANCH  24  26
ENDBRANCH   1  24
BRANCH  16  32
HETATM   32  O1  UNL     1       2.179   5.845  10.638  1.00  0.00    -0.389 OA
HETATM   33  H41 UNL     1       2.087   5.373   9.794  1.00  0.00     0.210 HD
ENDBRANCH  16  32
TORSDOF 5
ENDMDL
MODEL 8
REMARK minimizedAffinity -8.01773071
REMARK  5 active torsions:
REMARK  status: ('A' for Active; 'I' for Inactive)
REMARK    1  A    between atoms: C4_4  and  C5_5 
REMARK    2  A    between atoms: C5_5  and  C6_6 
REMARK    3  A    between atoms: C6_6  and  C7_7 
REMARK    4  A    between atoms: C7_7  and  C9_9 
REMARK    5  A    between atoms: C24_24  and  O1_26 
ROOT
HETATM    1  C9  UNL     1      -2.801   5.816  12.940  1.00  0.00    -0.002 C 
HETATM    2  C10 UNL     1      -3.237   5.077  14.233  1.00  0.00     0.007 C 
HETATM    3  C11 UNL     1      -3.175   6.111  15.381  1.00  0.00     0.015 C 
HETATM    4  C12 UNL     1      -3.046   7.477  14.680  1.00  0.00    -0.013 C 
HETATM    5  C13 UNL     1      -4.491   7.924  14.291  1.00  0.00     0.021 C 
HETATM    6  C14 UNL     1      -2.461   8.663  15.432  1.00  0.00    -0.068 C 
HETATM    7  C15 UNL     1      -1.853   9.665  14.739  1.00  0.00    -0.068 C 
HETATM    8  C16 UNL     1      -1.635   9.585  13.227  1.00  0.00     0.036 C 
HETATM    9  C17 UNL     1      -2.066   8.285  12.511  1.00  0.00     0.015 C 
HETATM   10  C18 UNL     1      -2.105   7.098  13.480  1.00  0.00    -0.029 C 
HETATM   11  C19 UNL     1      -0.642   6.781  13.913  1.00  0.00     0.016 C 
HETATM   12  C20 UNL     1      -1.276  10.888  15.496  1.00  0.00    -0.016 C 
HETATM   13  C21 UNL     1       0.145  10.435  15.933  1.00  0.00     0.020 C 
HETATM   14  C22 UNL     1      -1.092  12.185  14.658  1.00  0.00     0.017 C 
HETATM   15  C23 UNL     1      -2.315  13.086  14.693  1.00  0.00     0.039 C 
HETATM   16  C24 UNL     1      -2.622  13.634  16.115  1.00  0.00     0.061 C 
HETATM   17  C25 UNL     1      -4.109  14.047  16.116  1.00  0.00     0.046 C 
HETATM   18  C26 UNL     1      -2.223  12.616  17.279  1.00  0.00    -0.012 C 
HETATM   19  C27 UNL     1      -0.837  12.944  17.884  1.00  0.00     0.018 C 
HETATM   20  C28 UNL     1      -3.202  12.737  18.478  1.00  0.00     0.018 C 
HETATM   21  C29 UNL     1      -2.285  11.168  16.678  1.00  0.00     0.009 C 
HETATM   22  C30 UNL     1      -2.269   9.988  17.658  1.00  0.00     0.011 C 
HETATM   23  C31 UNL     1      -2.657   8.685  16.939  1.00  0.00     0.036 C 
ENDROOT
BRANCH   1  24
HETATM   24  C7  UNL     1      -2.063   4.969  11.861  1.00  0.00    -0.014 C 
HETATM   25  C8  UNL     1      -0.558   4.780  12.094  1.00  0.00     0.010 C 
BRANCH  24  26
HETATM   26  C6  UNL     1      -2.758   3.587  11.737  1.00  0.00     0.008 C 
BRANCH  26  27
HETATM   27  C5  UNL     1      -4.002   3.590  10.840  1.00  0.00     0.028 C 
BRANCH  27  28
HETATM   28  C4  UNL     1      -5.260   3.562  11.665  1.00  0.00    -0.025 C 
HETATM   29  C2  UNL     1      -6.107   2.530  11.849  1.00  0.00    -0.091 C 
HETATM   30  C1  UNL     1      -7.307   2.675  12.750  1.00  0.00     0.042 C 
HETATM   31  C3  UNL     1      -5.975   1.175  11.209  1.00  0.00     0.042 C 
ENDBRANCH  27  28
ENDBRANCH  26  27
ENDBRANCH  24  26
ENDBRANCH   1  24
BRANCH  16  32
HETATM   32  O1  UNL     1      -1.875  14.848  16.293  1.00  0.00    -0.389 OA
HETATM   33  H41 UNL     1      -2.151  15.479  15.607  1.00  0.00     0.210 HD
ENDBRANCH  16  32
TORSDOF 5
ENDMDL
MODEL 9
REMARK minimizedAffinity -8.00474453
REMARK  5 active torsions:
REMARK  status: ('A' for Active; 'I' for Inactive)
REMARK    1  A    between atoms: C4_4  and  C5_5 
REMARK    2  A    between atoms: C5_5  and  C6_6 
REMARK    3  A    between atoms: C6_6  and  C7_7 
REMARK    4  A    between atoms: C7_7  and  C9_9 
REMARK    5  A    between atoms: C24_24  and  O1_26 
ROOT
HETATM    1  C9  UNL     1      -1.493   5.835  13.024  1.00  0.00    -0.002 C 
HETATM    2  C10 UNL     1      -0.160   6.090  12.272  1.00  0.00     0.007 C 
HETATM    3  C11 UNL     1       0.430   7.401  12.838  1.00  0.00     0.015 C 
HETATM    4  C12 UNL     1      -0.380   7.681  14.119  1.00  0.00    -0.013 C 
HETATM    5  C13 UNL     1       0.273   6.839  15.260  1.00  0.00     0.021 C 
HETATM    6  C14 UNL     1      -0.455   9.096  14.674  1.00  0.00    -0.068 C 
HETATM    7  C15 UNL     1      -1.530   9.468  15.422  1.00  0.00    -0.068 C 
HETATM    8  C16 UNL     1      -2.729   8.540  15.632  1.00  0.00     0.036 C 
HETATM    9  C17 UNL     1      -2.716   7.180  14.900  1.00  0.00     0.015 C 
HETATM   10  C18 UNL     1      -1.810   7.217  13.663  1.00  0.00    -0.029 C 
HETATM   11  C19 UNL     1      -2.466   8.164  12.614  1.00  0.00     0.016 C 
HETATM   12  C20 UNL     1      -1.603  10.899  16.011  1.00  0.00    -0.016 C 
HETATM   13  C21 UNL     1      -2.205  11.758  14.864  1.00  0.00     0.020 C 
HETATM   14  C22 UNL     1      -2.536  11.084  17.243  1.00  0.00     0.017 C 
HETATM   15  C23 UNL     1      -1.815  10.873  18.564  1.00  0.00     0.039 C 
HETATM   16  C24 UNL     1      -0.696  11.922  18.817  1.00  0.00     0.061 C 
HETATM   17  C25 UNL     1       0.265  11.299  19.851  1.00  0.00     0.046 C 
HETATM   18  C26 UNL     1       0.015  12.417  17.475  1.00  0.00    -0.012 C 
HETATM   19  C27 UNL     1      -0.575  13.755  16.968  1.00  0.00     0.018 C 
HETATM   20  C28 UNL     1       1.514  12.732  17.728  1.00  0.00     0.018 C 
HETATM   21  C29 UNL     1      -0.122  11.265  16.419  1.00  0.00     0.009 C 
HETATM   22  C30 UNL     1       0.752  11.344  15.161  1.00  0.00     0.011 C 
HETATM   23  C31 UNL     1       0.733  10.003  14.407  1.00  0.00     0.036 C 
ENDROOT
BRANCH   1  24
HETATM   24  C7  UNL     1      -2.620   5.107  12.233  1.00  0.00    -0.014 C 
HETATM   25  C8  UNL     1      -2.139   4.216  11.079  1.00  0.00     0.010 C 
BRANCH  24  26
HETATM   26  C6  UNL     1      -3.479   4.275  13.223  1.00  0.00     0.008 C 
BRANCH  26  27
HETATM   27  C5  UNL     1      -4.636   3.516  12.563  1.00  0.00     0.028 C 
BRANCH  27  28
HETATM   28  C4  UNL     1      -5.916   4.304  12.651  1.00  0.00    -0.025 C 
HETATM   29  C2  UNL     1      -7.173   3.831  12.760  1.00  0.00    -0.091 C 
HETATM   30  C1  UNL     1      -8.339   4.779  12.877  1.00  0.00     0.042 C 
HETATM   31  C3  UNL     1      -7.554   2.377  12.774  1.00  0.00     0.042 C 
ENDBRANCH  27  28
ENDBRANCH  26  27
ENDBRANCH  24  26
ENDBRANCH   1  24
BRANCH  16  32
HETATM   32  O1  UNL     1      -1.292  13.057  19.465  1.00  0.00    -0.389 OA
HETATM   33  H41 UNL     1      -1.687  12.758  20.301  1.00  0.00     0.210 HD
ENDBRANCH  16  32
TORSDOF 5
ENDMDL
