MODEL 1
REMARK minimizedAffinity -9.82354927
REMARK  5 active torsions:
REMARK  status: ('A' for Active; 'I' for Inactive)
REMARK    1  A    between atoms: C2_2  and  C25_28 
REMARK    2  A    between atoms: C3_3  and  C4_4 
REMARK    3  A    between atoms: C4_4  and  C6_6 
REMARK    4  A    between atoms: C20_20  and  O1_21 
REMARK    5  A    between atoms: C25_28  and  C27_30 
ROOT
HETATM    1  C6  UNL     1      -1.211  49.252 -19.718  1.00  0.00     0.001 C 
HETATM    2  C7  UNL     1      -2.601  48.654 -20.089  1.00  0.00     0.006 C 
HETATM    3  C8  UNL     1      -2.916  49.098 -21.528  1.00  0.00     0.009 C 
HETATM    4  C9  UNL     1      -1.647  49.819 -21.972  1.00  0.00     0.036 C 
HETATM    5  C10 UNL     1      -1.099  50.483 -20.683  1.00  0.00    -0.033 C 
HETATM    6  C11 UNL     1      -1.940  51.670 -20.166  1.00  0.00     0.016 C 
HETATM    7  C12 UNL     1       0.336  50.949 -21.001  1.00  0.00     0.010 C 
HETATM    8  C13 UNL     1       0.389  51.905 -22.206  1.00  0.00     0.010 C 
HETATM    9  C14 UNL     1      -0.260  51.312 -23.473  1.00  0.00     0.039 C 
HETATM   10  C15 UNL     1      -1.679  50.691 -23.230  1.00  0.00     0.123 C 
HETATM   11  C16 UNL     1      -2.791  51.700 -23.351  1.00  0.00     0.014 C 
HETATM   12  C17 UNL     1      -2.822  52.314 -24.544  1.00  0.00     0.014 C 
HETATM   13  C18 UNL     1      -1.667  51.947 -25.458  1.00  0.00     0.124 C 
HETATM   14  C19 UNL     1      -1.799  52.591 -26.844  1.00  0.00     0.078 C 
HETATM   15  C20 UNL     1      -0.524  52.509 -27.691  1.00  0.00     0.121 C 
HETATM   16  C21 UNL     1       0.567  51.620 -27.101  1.00  0.00     0.033 C 
HETATM   17  C22 UNL     1       0.921  52.003 -25.661  1.00  0.00     0.015 C 
HETATM   18  C23 UNL     1      -0.307  52.274 -24.735  1.00  0.00     0.001 C 
HETATM   19  C24 UNL     1      -0.258  53.775 -24.339  1.00  0.00     0.019 C 
HETATM   20  O2  UNL     1      -1.713  50.505 -25.647  1.00  0.00    -0.223 OA
HETATM   21  O3  UNL     1      -1.917  49.793 -24.353  1.00  0.00    -0.224 OA
ENDROOT
BRANCH   1  22
HETATM   22  C4  UNL     1      -1.047  49.455 -18.188  1.00  0.00     0.009 C 
HETATM   23  C5  UNL     1      -2.372  49.628 -17.437  1.00  0.00     0.014 C 
BRANCH  22  24
HETATM   24  C3  UNL     1      -0.101  50.564 -17.739  1.00  0.00    -0.019 C 
HETATM   25  C2  UNL     1       0.661  50.708 -16.633  1.00  0.00    -0.083 C 
HETATM   26  C1  UNL     1       0.760  49.672 -15.543  1.00  0.00     0.043 C 
BRANCH  25  27
HETATM   27  C25 UNL     1       1.521  51.964 -16.399  1.00  0.00     0.013 C 
HETATM   28  C26 UNL     1       1.735  52.761 -17.705  1.00  0.00     0.015 C 
BRANCH  27  29
HETATM   29  C27 UNL     1       2.874  51.644 -15.686  1.00  0.00    -0.015 C 
HETATM   30  C28 UNL     1       4.050  52.427 -16.286  1.00  0.00     0.010 C 
HETATM   31  C29 UNL     1       2.826  51.920 -14.178  1.00  0.00     0.010 C 
ENDBRANCH  27  29
ENDBRANCH  25  27
ENDBRANCH  22  24
ENDBRANCH   1  22
BRANCH  15  32
HETATM   32  O1  UNL     1      -0.019  53.838 -27.856  1.00  0.00    -0.395 OA
HETATM   33  H28 UNL     1       0.842  53.780 -28.310  1.00  0.00     0.210 HD
ENDBRANCH  15  32
TORSDOF 5
ENDMDL
MODEL 2
REMARK minimizedAffinity -9.57746792
REMARK  5 active torsions:
REMARK  status: ('A' for Active; 'I' for Inactive)
REMARK    1  A    between atoms: C2_2  and  C25_28 
REMARK    2  A    between atoms: C3_3  and  C4_4 
REMARK    3  A    between atoms: C4_4  and  C6_6 
REMARK    4  A    between atoms: C20_20  and  O1_21 
REMARK    5  A    between atoms: C25_28  and  C27_30 
ROOT
HETATM    1  C6  UNL     1      -2.119  48.564 -20.525  1.00  0.00     0.001 C 
HETATM    2  C7  UNL     1      -3.474  48.052 -21.098  1.00  0.00     0.006 C 
HETATM    3  C8  UNL     1      -3.628  48.654 -22.505  1.00  0.00     0.009 C 
HETATM    4  C9  UNL     1      -2.305  49.378 -22.738  1.00  0.00     0.036 C 
HETATM    5  C10 UNL     1      -1.882  49.886 -21.336  1.00  0.00    -0.033 C 
HETATM    6  C11 UNL     1      -2.749  51.038 -20.783  1.00  0.00     0.016 C 
HETATM    7  C12 UNL     1      -0.413  50.339 -21.453  1.00  0.00     0.010 C 
HETATM    8  C13 UNL     1      -0.215  51.414 -22.537  1.00  0.00     0.010 C 
HETATM    9  C14 UNL     1      -0.739  50.977 -23.920  1.00  0.00     0.039 C 
HETATM   10  C15 UNL     1      -2.188  50.378 -23.892  1.00  0.00     0.123 C 
HETATM   11  C16 UNL     1      -3.260  51.427 -24.016  1.00  0.00     0.014 C 
HETATM   12  C17 UNL     1      -3.155  52.163 -25.134  1.00  0.00     0.014 C 
HETATM   13  C18 UNL     1      -1.917  51.859 -25.959  1.00  0.00     0.124 C 
HETATM   14  C19 UNL     1      -1.891  52.649 -27.274  1.00  0.00     0.078 C 
HETATM   15  C20 UNL     1      -0.536  52.616 -27.991  1.00  0.00     0.121 C 
HETATM   16  C21 UNL     1       0.469  51.637 -27.391  1.00  0.00     0.033 C 
HETATM   17  C22 UNL     1       0.678  51.856 -25.890  1.00  0.00     0.015 C 
HETATM   18  C23 UNL     1      -0.635  52.066 -25.070  1.00  0.00     0.001 C 
HETATM   19  C24 UNL     1      -0.598  53.515 -24.512  1.00  0.00     0.019 C 
HETATM   20  O2  UNL     1      -1.972  50.447 -26.305  1.00  0.00    -0.223 OA
HETATM   21  O3  UNL     1      -2.324  49.610 -25.122  1.00  0.00    -0.224 OA
ENDROOT
BRANCH   1  22
HETATM   22  C4  UNL     1      -2.113  48.601 -18.973  1.00  0.00     0.009 C 
HETATM   23  C5  UNL     1      -3.352  49.262 -18.360  1.00  0.00     0.014 C 
BRANCH  22  24
HETATM   24  C3  UNL     1      -0.879  49.200 -18.305  1.00  0.00    -0.019 C 
HETATM   25  C2  UNL     1      -0.740  50.133 -17.337  1.00  0.00    -0.083 C 
HETATM   26  C1  UNL     1      -1.900  50.792 -16.636  1.00  0.00     0.043 C 
BRANCH  25  27
HETATM   27  C25 UNL     1       0.646  50.596 -16.851  1.00  0.00     0.013 C 
HETATM   28  C26 UNL     1       0.894  50.207 -15.378  1.00  0.00     0.015 C 
BRANCH  27  29
HETATM   29  C27 UNL     1       0.893  52.120 -17.098  1.00  0.00    -0.015 C 
HETATM   30  C28 UNL     1       2.317  52.549 -16.725  1.00  0.00     0.010 C 
HETATM   31  C29 UNL     1       0.625  52.533 -18.551  1.00  0.00     0.010 C 
ENDBRANCH  27  29
ENDBRANCH  25  27
ENDBRANCH  22  24
ENDBRANCH   1  22
BRANCH  15  32
HETATM   32  O1  UNL     1       0.010  53.939 -27.959  1.00  0.00    -0.395 OA
HETATM   33  H28 UNL     1       0.912  53.902 -28.327  1.00  0.00     0.210 HD
ENDBRANCH  15  32
TORSDOF 5
ENDMDL
MODEL 3
REMARK minimizedAffinity -9.34383202
REMARK  5 active torsions:
REMARK  status: ('A' for Active; 'I' for Inactive)
REMARK    1  A    between atoms: C2_2  and  C25_28 
REMARK    2  A    between atoms: C3_3  and  C4_4 
REMARK    3  A    between atoms: C4_4  and  C6_6 
REMARK    4  A    between atoms: C20_20  and  O1_21 
REMARK    5  A    between atoms: C25_28  and  C27_30 
ROOT
HETATM    1  C6  UNL     1      -0.216  51.412 -20.584  1.00  0.00     0.001 C 
HETATM    2  C7  UNL     1      -0.779  52.209 -19.370  1.00  0.00     0.006 C 
HETATM    3  C8  UNL     1      -2.169  51.630 -19.052  1.00  0.00     0.009 C 
HETATM    4  C9  UNL     1      -2.296  50.445 -20.004  1.00  0.00     0.036 C 
HETATM    5  C10 UNL     1      -1.517  50.875 -21.274  1.00  0.00    -0.033 C 
HETATM    6  C11 UNL     1      -2.204  51.984 -22.101  1.00  0.00     0.016 C 
HETATM    7  C12 UNL     1      -1.339  49.608 -22.135  1.00  0.00     0.010 C 
HETATM    8  C13 UNL     1      -2.682  48.940 -22.482  1.00  0.00     0.010 C 
HETATM    9  C14 UNL     1      -3.529  48.611 -21.237  1.00  0.00     0.039 C 
HETATM   10  C15 UNL     1      -3.667  49.802 -20.227  1.00  0.00     0.123 C 
HETATM   11  C16 UNL     1      -4.820  50.715 -20.549  1.00  0.00     0.014 C 
HETATM   12  C17 UNL     1      -6.004  50.082 -20.584  1.00  0.00     0.014 C 
HETATM   13  C18 UNL     1      -5.904  48.577 -20.413  1.00  0.00     0.124 C 
HETATM   14  C19 UNL     1      -7.285  47.910 -20.357  1.00  0.00     0.078 C 
HETATM   15  C20 UNL     1      -7.242  46.383 -20.495  1.00  0.00     0.121 C 
HETATM   16  C21 UNL     1      -5.839  45.786 -20.444  1.00  0.00     0.033 C 
HETATM   17  C22 UNL     1      -4.890  46.429 -21.459  1.00  0.00     0.015 C 
HETATM   18  C23 UNL     1      -4.961  47.988 -21.526  1.00  0.00     0.001 C 
HETATM   19  C24 UNL     1      -5.496  48.361 -22.935  1.00  0.00     0.019 C 
HETATM   20  O2  UNL     1      -5.256  48.335 -19.133  1.00  0.00    -0.223 OA
HETATM   21  O3  UNL     1      -4.057  49.203 -18.958  1.00  0.00    -0.224 OA
ENDROOT
BRANCH   1  22
HETATM   22  C4  UNL     1       0.808  52.238 -21.406  1.00  0.00     0.009 C 
HETATM   23  C5  UNL     1       0.917  53.705 -20.973  1.00  0.00     0.014 C 
BRANCH  22  24
HETATM   24  C3  UNL     1       0.658  52.204 -22.924  1.00  0.00    -0.019 C 
HETATM   25  C2  UNL     1       0.786  53.165 -23.865  1.00  0.00    -0.083 C 
HETATM   26  C1  UNL     1       1.181  54.587 -23.563  1.00  0.00     0.043 C 
BRANCH  25  27
HETATM   27  C25 UNL     1       0.546  52.873 -25.358  1.00  0.00     0.013 C 
HETATM   28  C26 UNL     1      -0.945  53.018 -25.736  1.00  0.00     0.015 C 
BRANCH  27  29
HETATM   29  C27 UNL     1       1.124  51.490 -25.803  1.00  0.00    -0.015 C 
HETATM   30  C28 UNL     1       0.080  50.621 -26.514  1.00  0.00     0.010 C 
HETATM   31  C29 UNL     1       2.347  51.630 -26.719  1.00  0.00     0.010 C 
ENDBRANCH  27  29
ENDBRANCH  25  27
ENDBRANCH  22  24
ENDBRANCH   1  22
BRANCH  15  32
HETATM   32  O1  UNL     1      -7.862  46.037 -21.738  1.00  0.00    -0.395 OA
HETATM   33  H28 UNL     1      -7.750  45.078 -21.874  1.00  0.00     0.210 HD
ENDBRANCH  15  32
TORSDOF 5
ENDMDL
MODEL 4
REMARK minimizedAffinity -9.33709145
REMARK  5 active torsions:
REMARK  status: ('A' for Active; 'I' for Inactive)
REMARK    1  A    between atoms: C2_2  and  C25_28 
REMARK    2  A    between atoms: C3_3  and  C4_4 
REMARK    3  A    between atoms: C4_4  and  C6_6 
REMARK    4  A    between atoms: C20_20  and  O1_21 
REMARK    5  A    between atoms: C25_28  and  C27_30 
ROOT
HETATM    1  C6  UNL     1      -0.198  50.707 -19.098  1.00  0.00     0.001 C 
HETATM    2  C7  UNL     1      -1.641  50.121 -19.035  1.00  0.00     0.006 C 
HETATM    3  C8  UNL     1      -2.221  50.192 -20.458  1.00  0.00     0.009 C 
HETATM    4  C9  UNL     1      -1.053  50.690 -21.304  1.00  0.00     0.036 C 
HETATM    5  C10 UNL     1      -0.260  51.633 -20.363  1.00  0.00    -0.033 C 
HETATM    6  C11 UNL     1      -0.972  52.964 -20.041  1.00  0.00     0.016 C 
HETATM    7  C12 UNL     1       1.093  51.909 -21.050  1.00  0.00     0.010 C 
HETATM    8  C13 UNL     1       0.925  52.510 -22.457  1.00  0.00     0.010 C 
HETATM    9  C14 UNL     1       0.037  51.648 -23.377  1.00  0.00     0.039 C 
HETATM   10  C15 UNL     1      -1.316  51.202 -22.722  1.00  0.00     0.123 C 
HETATM   11  C16 UNL     1      -2.418  52.212 -22.905  1.00  0.00     0.014 C 
HETATM   12  C17 UNL     1      -2.671  52.492 -24.194  1.00  0.00     0.014 C 
HETATM   13  C18 UNL     1      -1.717  51.827 -25.169  1.00  0.00     0.124 C 
HETATM   14  C19 UNL     1      -2.106  52.093 -26.629  1.00  0.00     0.078 C 
HETATM   15  C20 UNL     1      -1.018  51.711 -27.641  1.00  0.00     0.121 C 
HETATM   16  C21 UNL     1       0.155  50.942 -27.042  1.00  0.00     0.033 C 
HETATM   17  C22 UNL     1       0.784  51.665 -25.848  1.00  0.00     0.015 C 
HETATM   18  C23 UNL     1      -0.240  52.246 -24.821  1.00  0.00     0.001 C 
HETATM   19  C24 UNL     1      -0.099  53.792 -24.859  1.00  0.00     0.019 C 
HETATM   20  O2  UNL     1      -1.815  50.392 -24.951  1.00  0.00    -0.223 OA
HETATM   21  O3  UNL     1      -1.775  50.059 -23.499  1.00  0.00    -0.224 OA
ENDROOT
BRANCH   1  22
HETATM   22  C4  UNL     1       0.258  51.293 -17.735  1.00  0.00     0.009 C 
HETATM   23  C5  UNL     1       1.481  52.213 -17.830  1.00  0.00     0.014 C 
BRANCH  22  24
HETATM   24  C3  UNL     1       0.504  50.297 -16.607  1.00  0.00    -0.019 C 
HETATM   25  C2  UNL     1       0.934  50.460 -15.336  1.00  0.00    -0.083 C 
HETATM   26  C1  UNL     1       1.243  51.801 -14.722  1.00  0.00     0.043 C 
BRANCH  25  27
HETATM   27  C25 UNL     1       1.133  49.263 -14.388  1.00  0.00     0.013 C 
HETATM   28  C26 UNL     1       2.504  49.319 -13.679  1.00  0.00     0.015 C 
BRANCH  27  29
HETATM   29  C27 UNL     1       0.902  47.889 -15.095  1.00  0.00    -0.015 C 
HETATM   30  C28 UNL     1       2.067  46.915 -14.877  1.00  0.00     0.010 C 
HETATM   31  C29 UNL     1      -0.394  47.204 -14.644  1.00  0.00     0.010 C 
ENDBRANCH  27  29
ENDBRANCH  25  27
ENDBRANCH  22  24
ENDBRANCH   1  22
BRANCH  15  32
HETATM   32  O1  UNL     1      -0.538  52.917 -28.246  1.00  0.00    -0.395 OA
HETATM   33  H28 UNL     1       0.218  52.687 -28.817  1.00  0.00     0.210 HD
ENDBRANCH  15  32
TORSDOF 5
ENDMDL
MODEL 5
REMARK minimizedAffinity -9.28414822
REMARK  5 active torsions:
REMARK  status: ('A' for Active; 'I' for Inactive)
REMARK    1  A    between atoms: C2_2  and  C25_28 
REMARK    2  A    between atoms: C3_3  and  C4_4 
REMARK    3  A    between atoms: C4_4  and  C6_6 
REMARK    4  A    between atoms: C20_20  and  O1_21 
REMARK    5  A    between atoms: C25_28  and  C27_30 
ROOT
HETATM    1  C6  UNL     1      -1.373  52.041 -22.148  1.00  0.00     0.001 C 
HETATM    2  C7  UNL     1      -2.904  51.790 -22.283  1.00  0.00     0.006 C 
HETATM    3  C8  UNL     1      -3.412  51.331 -20.905  1.00  0.00     0.009 C 
HETATM    4  C9  UNL     1      -2.187  51.460 -20.004  1.00  0.00     0.036 C 
HETATM    5  C10 UNL     1      -0.984  51.137 -20.927  1.00  0.00    -0.033 C 
HETATM    6  C11 UNL     1      -0.879  49.655 -21.346  1.00  0.00     0.016 C 
HETATM    7  C12 UNL     1       0.287  51.562 -20.163  1.00  0.00     0.010 C 
HETATM    8  C13 UNL     1       0.409  50.867 -18.795  1.00  0.00     0.010 C 
HETATM    9  C14 UNL     1      -0.831  51.075 -17.902  1.00  0.00     0.039 C 
HETATM   10  C15 UNL     1      -2.192  50.792 -18.627  1.00  0.00     0.123 C 
HETATM   11  C16 UNL     1      -2.606  49.346 -18.556  1.00  0.00     0.014 C 
HETATM   12  C17 UNL     1      -2.720  48.888 -17.299  1.00  0.00     0.014 C 
HETATM   13  C18 UNL     1      -2.292  49.886 -16.238  1.00  0.00     0.124 C 
HETATM   14  C19 UNL     1      -2.536  49.358 -14.818  1.00  0.00     0.078 C 
HETATM   15  C20 UNL     1      -1.848  50.182 -13.723  1.00  0.00     0.121 C 
HETATM   16  C21 UNL     1      -1.232  51.489 -14.213  1.00  0.00     0.033 C 
HETATM   17  C22 UNL     1      -0.275  51.283 -15.390  1.00  0.00     0.015 C 
HETATM   18  C23 UNL     1      -0.805  50.324 -16.504  1.00  0.00     0.001 C 
HETATM   19  C24 UNL     1       0.126  49.081 -16.517  1.00  0.00     0.019 C 
HETATM   20  O2  UNL     1      -3.122  51.069 -16.406  1.00  0.00    -0.223 OA
HETATM   21  O3  UNL     1      -3.211  51.472 -17.838  1.00  0.00    -0.224 OA
ENDROOT
BRANCH   1  22
HETATM   22  C4  UNL     1      -0.628  51.874 -23.499  1.00  0.00     0.009 C 
HETATM   23  C5  UNL     1       0.051  53.153 -24.000  1.00  0.00     0.014 C 
BRANCH  22  24
HETATM   24  C3  UNL     1      -1.427  51.279 -24.654  1.00  0.00    -0.019 C 
HETATM   25  C2  UNL     1      -1.046  50.766 -25.845  1.00  0.00    -0.083 C 
HETATM   26  C1  UNL     1       0.390  50.634 -26.280  1.00  0.00     0.043 C 
BRANCH  25  27
HETATM   27  C25 UNL     1      -2.074  50.249 -26.870  1.00  0.00     0.013 C 
HETATM   28  C26 UNL     1      -3.233  51.250 -27.070  1.00  0.00     0.015 C 
BRANCH  27  29
HETATM   29  C27 UNL     1      -2.597  48.817 -26.530  1.00  0.00    -0.015 C 
HETATM   30  C28 UNL     1      -3.102  48.707 -25.085  1.00  0.00     0.010 C 
HETATM   31  C29 UNL     1      -3.717  48.359 -27.472  1.00  0.00     0.010 C 
ENDBRANCH  27  29
ENDBRANCH  25  27
ENDBRANCH  22  24
ENDBRANCH   1  22
BRANCH  15  32
HETATM   32  O1  UNL     1      -0.828  49.366 -13.134  1.00  0.00    -0.395 OA
HETATM   33  H28 UNL     1      -0.326  49.918 -12.507  1.00  0.00     0.210 HD
ENDBRANCH  15  32
TORSDOF 5
ENDMDL
MODEL 6
REMARK minimizedAffinity -9.13875389
REMARK  5 active torsions:
REMARK  status: ('A' for Active; 'I' for Inactive)
REMARK    1  A    between atoms: C2_2  and  C25_28 
REMARK    2  A    between atoms: C3_3  and  C4_4 
REMARK    3  A    between atoms: C4_4  and  C6_6 
REMARK    4  A    between atoms: C20_20  and  O1_21 
REMARK    5  A    between atoms: C25_28  and  C27_30 
ROOT
HETATM    1  C6  UNL     1       0.320  52.056 -22.646  1.00  0.00     0.001 C 
HETATM    2  C7  UNL     1       0.290  52.803 -21.279  1.00  0.00     0.006 C 
HETATM    3  C8  UNL     1      -0.866  52.203 -20.461  1.00  0.00     0.009 C 
HETATM    4  C9  UNL     1      -1.370  51.054 -21.329  1.00  0.00     0.036 C 
HETATM    5  C10 UNL     1      -1.153  51.538 -22.786  1.00  0.00    -0.033 C 
HETATM    6  C11 UNL     1      -2.100  52.674 -23.231  1.00  0.00     0.016 C 
HETATM    7  C12 UNL     1      -1.341  50.306 -23.695  1.00  0.00     0.010 C 
HETATM    8  C13 UNL     1      -2.718  49.644 -23.508  1.00  0.00     0.010 C 
HETATM    9  C14 UNL     1      -3.007  49.261 -22.043  1.00  0.00     0.039 C 
HETATM   10  C15 UNL     1      -2.724  50.412 -21.016  1.00  0.00     0.123 C 
HETATM   11  C16 UNL     1      -3.902  51.329 -20.821  1.00  0.00     0.014 C 
HETATM   12  C17 UNL     1      -5.009  50.690 -20.409  1.00  0.00     0.014 C 
HETATM   13  C18 UNL     1      -4.863  49.180 -20.348  1.00  0.00     0.124 C 
HETATM   14  C19 UNL     1      -6.115  48.502 -19.777  1.00  0.00     0.078 C 
HETATM   15  C20 UNL     1      -6.144  46.982 -19.978  1.00  0.00     0.121 C 
HETATM   16  C21 UNL     1      -4.840  46.393 -20.508  1.00  0.00     0.033 C 
HETATM   17  C22 UNL     1      -4.364  47.080 -21.791  1.00  0.00     0.015 C 
HETATM   18  C23 UNL     1      -4.442  48.640 -21.765  1.00  0.00     0.001 C 
HETATM   19  C24 UNL     1      -5.487  49.063 -22.833  1.00  0.00     0.019 C 
HETATM   20  O2  UNL     1      -3.764  48.893 -19.439  1.00  0.00    -0.223 OA
HETATM   21  O3  UNL     1      -2.585  49.762 -19.720  1.00  0.00    -0.224 OA
ENDROOT
BRANCH   1  22
HETATM   22  C4  UNL     1       0.943  52.921 -23.775  1.00  0.00     0.009 C 
HETATM   23  C5  UNL     1       1.093  54.403 -23.414  1.00  0.00     0.014 C 
BRANCH  22  24
HETATM   24  C3  UNL     1       0.287  52.833 -25.149  1.00  0.00    -0.019 C 
HETATM   25  C2  UNL     1       0.679  52.243 -26.300  1.00  0.00    -0.083 C 
HETATM   26  C1  UNL     1       1.948  51.444 -26.443  1.00  0.00     0.043 C 
BRANCH  25  27
HETATM   27  C25 UNL     1      -0.169  52.330 -27.584  1.00  0.00     0.013 C 
HETATM   28  C26 UNL     1      -0.476  53.794 -27.967  1.00  0.00     0.015 C 
BRANCH  27  29
HETATM   29  C27 UNL     1      -1.468  51.465 -27.507  1.00  0.00    -0.015 C 
HETATM   30  C28 UNL     1      -1.233  50.116 -26.816  1.00  0.00     0.010 C 
HETATM   31  C29 UNL     1      -2.615  52.186 -26.788  1.00  0.00     0.010 C 
ENDBRANCH  27  29
ENDBRANCH  25  27
ENDBRANCH  22  24
ENDBRANCH   1  22
BRANCH  15  32
HETATM   32  O1  UNL     1      -7.209  46.679 -20.887  1.00  0.00    -0.395 OA
HETATM   33  H28 UNL     1      -7.168  45.727 -21.092  1.00  0.00     0.210 HD
ENDBRANCH  15  32
TORSDOF 5
ENDMDL
MODEL 7
REMARK minimizedAffinity -9.12304592
REMARK  5 active torsions:
REMARK  status: ('A' for Active; 'I' for Inactive)
REMARK    1  A    between atoms: C2_2  and  C25_28 
REMARK    2  A    between atoms: C3_3  and  C4_4 
REMARK    3  A    between atoms: C4_4  and  C6_6 
REMARK    4  A    between atoms: C20_20  and  O1_21 
REMARK    5  A    between atoms: C25_28  and  C27_30 
ROOT
HETATM    1  C6  UNL     1      -3.706  47.821 -21.586  1.00  0.00     0.001 C 
HETATM    2  C7  UNL     1      -4.949  47.565 -22.490  1.00  0.00     0.006 C 
HETATM    3  C8  UNL     1      -4.736  48.361 -23.789  1.00  0.00     0.009 C 
HETATM    4  C9  UNL     1      -3.331  48.936 -23.638  1.00  0.00     0.036 C 
HETATM    5  C10 UNL     1      -3.174  49.197 -22.118  1.00  0.00    -0.033 C 
HETATM    6  C11 UNL     1      -4.024  50.367 -21.577  1.00  0.00     0.016 C 
HETATM    7  C12 UNL     1      -1.677  49.471 -21.868  1.00  0.00     0.010 C 
HETATM    8  C13 UNL     1      -1.147  50.646 -22.711  1.00  0.00     0.010 C 
HETATM    9  C14 UNL     1      -1.401  50.465 -24.221  1.00  0.00     0.039 C 
HETATM   10  C15 UNL     1      -2.872  50.056 -24.576  1.00  0.00     0.123 C 
HETATM   11  C16 UNL     1      -3.786  51.240 -24.747  1.00  0.00     0.014 C 
HETATM   12  C17 UNL     1      -3.371  52.098 -25.693  1.00  0.00     0.014 C 
HETATM   13  C18 UNL     1      -2.020  51.750 -26.291  1.00  0.00     0.124 C 
HETATM   14  C19 UNL     1      -1.635  52.696 -27.436  1.00  0.00     0.078 C 
HETATM   15  C20 UNL     1      -0.167  52.586 -27.864  1.00  0.00     0.121 C 
HETATM   16  C21 UNL     1       0.586  51.418 -27.235  1.00  0.00     0.033 C 
HETATM   17  C22 UNL     1       0.487  51.409 -25.708  1.00  0.00     0.015 C 
HETATM   18  C23 UNL     1      -0.946  51.674 -25.144  1.00  0.00     0.001 C 
HETATM   19  C24 UNL     1      -0.891  53.020 -24.371  1.00  0.00     0.019 C 
HETATM   20  O2  UNL     1      -2.135  50.414 -26.857  1.00  0.00    -0.223 OA
HETATM   21  O3  UNL     1      -2.813  49.481 -25.913  1.00  0.00    -0.224 OA
ENDROOT
BRANCH   1  22
HETATM   22  C4  UNL     1      -4.031  47.652 -20.078  1.00  0.00     0.009 C 
HETATM   23  C5  UNL     1      -5.522  47.776 -19.743  1.00  0.00     0.014 C 
BRANCH  22  24
HETATM   24  C3  UNL     1      -3.255  48.533 -19.104  1.00  0.00    -0.019 C 
HETATM   25  C2  UNL     1      -2.795  48.309 -17.854  1.00  0.00    -0.083 C 
HETATM   26  C1  UNL     1      -2.944  46.996 -17.129  1.00  0.00     0.043 C 
BRANCH  25  27
HETATM   27  C25 UNL     1      -2.052  49.397 -17.056  1.00  0.00     0.013 C 
HETATM   28  C26 UNL     1      -2.647  50.799 -17.314  1.00  0.00     0.015 C 
BRANCH  27  29
HETATM   29  C27 UNL     1      -0.507  49.370 -17.294  1.00  0.00    -0.015 C 
HETATM   30  C28 UNL     1       0.049  50.746 -17.683  1.00  0.00     0.010 C 
HETATM   31  C29 UNL     1       0.268  48.860 -16.073  1.00  0.00     0.010 C 
ENDBRANCH  27  29
ENDBRANCH  25  27
ENDBRANCH  22  24
ENDBRANCH   1  22
BRANCH  15  32
HETATM   32  O1  UNL     1       0.485  53.814 -27.519  1.00  0.00    -0.395 OA
HETATM   33  H28 UNL     1       1.437  53.711 -27.701  1.00  0.00     0.210 HD
ENDBRANCH  15  32
TORSDOF 5
ENDMDL
MODEL 8
REMARK minimizedAffinity -9.04940987
REMARK  5 active torsions:
REMARK  status: ('A' for Active; 'I' for Inactive)
REMARK    1  A    between atoms: C2_2  and  C25_28 
REMARK    2  A    between atoms: C3_3  and  C4_4 
REMARK    3  A    between atoms: C4_4  and  C6_6 
REMARK    4  A    between atoms: C20_20  and  O1_21 
REMARK    5  A    between atoms: C25_28  and  C27_30 
ROOT
HETATM    1  C6  UNL     1      -3.033  51.183 -24.490  1.00  0.00     0.001 C 
HETATM    2  C7  UNL     1      -4.377  51.913 -24.191  1.00  0.00     0.006 C 
HETATM    3  C8  UNL     1      -4.579  51.884 -22.667  1.00  0.00     0.009 C 
HETATM    4  C9  UNL     1      -3.291  51.259 -22.140  1.00  0.00     0.036 C 
HETATM    5  C10 UNL     1      -2.865  50.252 -23.239  1.00  0.00    -0.033 C 
HETATM    6  C11 UNL     1      -3.768  49.005 -23.351  1.00  0.00     0.016 C 
HETATM    7  C12 UNL     1      -1.417  49.830 -22.916  1.00  0.00     0.010 C 
HETATM    8  C13 UNL     1      -1.282  49.231 -21.504  1.00  0.00     0.010 C 
HETATM    9  C14 UNL     1      -1.812  50.167 -20.400  1.00  0.00     0.039 C 
HETATM   10  C15 UNL     1      -3.235  50.757 -20.694  1.00  0.00     0.123 C 
HETATM   11  C16 UNL     1      -4.351  49.864 -20.223  1.00  0.00     0.014 C 
HETATM   12  C17 UNL     1      -4.295  49.594 -18.908  1.00  0.00     0.014 C 
HETATM   13  C18 UNL     1      -3.060  50.145 -18.218  1.00  0.00     0.124 C 
HETATM   14  C19 UNL     1      -3.089  49.902 -16.703  1.00  0.00     0.078 C 
HETATM   15  C20 UNL     1      -1.746  50.158 -16.008  1.00  0.00     0.121 C 
HETATM   16  C21 UNL     1      -0.692  50.810 -16.897  1.00  0.00     0.033 C 
HETATM   17  C22 UNL     1      -0.466  50.042 -18.202  1.00  0.00     0.015 C 
HETATM   18  C23 UNL     1      -1.772  49.582 -18.925  1.00  0.00     0.001 C 
HETATM   19  C24 UNL     1      -1.784  48.029 -18.903  1.00  0.00     0.019 C 
HETATM   20  O2  UNL     1      -3.063  51.586 -18.423  1.00  0.00    -0.223 OA
HETATM   21  O3  UNL     1      -3.361  51.932 -19.842  1.00  0.00    -0.224 OA
ENDROOT
BRANCH   1  22
HETATM   22  C4  UNL     1      -3.002  50.570 -25.916  1.00  0.00     0.009 C 
HETATM   23  C5  UNL     1      -2.738  49.061 -25.941  1.00  0.00     0.014 C 
BRANCH  22  24
HETATM   24  C3  UNL     1      -2.068  51.229 -26.926  1.00  0.00    -0.019 C 
HETATM   25  C2  UNL     1      -0.723  51.358 -26.962  1.00  0.00    -0.083 C 
HETATM   26  C1  UNL     1       0.202  50.778 -25.923  1.00  0.00     0.043 C 
BRANCH  25  27
HETATM   27  C25 UNL     1      -0.011  52.112 -28.100  1.00  0.00     0.013 C 
HETATM   28  C26 UNL     1       1.463  51.673 -28.242  1.00  0.00     0.015 C 
BRANCH  27  29
HETATM   29  C27 UNL     1      -0.143  53.664 -27.970  1.00  0.00    -0.015 C 
HETATM   30  C28 UNL     1      -1.504  54.178 -28.458  1.00  0.00     0.010 C 
HETATM   31  C29 UNL     1       0.075  54.156 -26.533  1.00  0.00     0.010 C 
ENDBRANCH  27  29
ENDBRANCH  25  27
ENDBRANCH  22  24
ENDBRANCH   1  22
BRANCH  15  32
HETATM   32  O1  UNL     1      -1.254  48.901 -15.528  1.00  0.00    -0.395 OA
HETATM   33  H28 UNL     1      -0.357  49.045 -15.173  1.00  0.00     0.210 HD
ENDBRANCH  15  32
TORSDOF 5
ENDMDL
MODEL 9
REMARK minimizedAffinity -8.98312187
REMARK  5 active torsions:
REMARK  status: ('A' for Active; 'I' for Inactive)
REMARK    1  A    between atoms: C2_2  and  C25_28 
REMARK    2  A    between atoms: C3_3  and  C4_4 
REMARK    3  A    between atoms: C4_4  and  C6_6 
REMARK    4  A    between atoms: C20_20  and  O1_21 
REMARK    5  A    between atoms: C25_28  and  C27_30 
ROOT
HETATM    1  C6  UNL     1      -2.028  51.773 -22.907  1.00  0.00     0.001 C 
HETATM    2  C7  UNL     1      -2.795  52.531 -24.032  1.00  0.00     0.006 C 
HETATM    3  C8  UNL     1      -4.205  51.921 -24.110  1.00  0.00     0.009 C 
HETATM    4  C9  UNL     1      -4.239  50.932 -22.949  1.00  0.00     0.036 C 
HETATM    5  C10 UNL     1      -2.786  50.402 -22.842  1.00  0.00    -0.033 C 
HETATM    6  C11 UNL     1      -2.355  49.475 -23.999  1.00  0.00     0.016 C 
HETATM    7  C12 UNL     1      -2.686  49.651 -21.498  1.00  0.00     0.010 C 
HETATM    8  C13 UNL     1      -3.722  48.518 -21.380  1.00  0.00     0.010 C 
HETATM    9  C14 UNL     1      -5.169  49.001 -21.604  1.00  0.00     0.039 C 
HETATM   10  C15 UNL     1      -5.355  49.886 -22.884  1.00  0.00     0.123 C 
HETATM   11  C16 UNL     1      -5.624  49.076 -24.125  1.00  0.00     0.014 C 
HETATM   12  C17 UNL     1      -6.710  48.292 -24.021  1.00  0.00     0.014 C 
HETATM   13  C18 UNL     1      -7.349  48.304 -22.644  1.00  0.00     0.124 C 
HETATM   14  C19 UNL     1      -8.641  47.476 -22.601  1.00  0.00     0.078 C 
HETATM   15  C20 UNL     1      -9.154  47.202 -21.182  1.00  0.00     0.121 C 
HETATM   16  C21 UNL     1      -8.424  47.974 -20.088  1.00  0.00     0.033 C 
HETATM   17  C22 UNL     1      -6.907  47.775 -20.141  1.00  0.00     0.015 C 
HETATM   18  C23 UNL     1      -6.284  47.871 -21.570  1.00  0.00     0.001 C 
HETATM   19  C24 UNL     1      -5.714  46.468 -21.916  1.00  0.00     0.019 C 
HETATM   20  O2  UNL     1      -7.711  49.683 -22.353  1.00  0.00    -0.223 OA
HETATM   21  O3  UNL     1      -6.599  50.618 -22.684  1.00  0.00    -0.224 OA
ENDROOT
BRANCH   1  22
HETATM   22  C4  UNL     1      -0.491  51.795 -23.125  1.00  0.00     0.009 C 
HETATM   23  C5  UNL     1       0.255  52.770 -22.208  1.00  0.00     0.014 C 
BRANCH  22  24
HETATM   24  C3  UNL     1      -0.004  52.023 -24.553  1.00  0.00    -0.019 C 
HETATM   25  C2  UNL     1       0.312  53.149 -25.229  1.00  0.00    -0.083 C 
HETATM   26  C1  UNL     1       0.277  54.528 -24.624  1.00  0.00     0.043 C 
BRANCH  25  27
HETATM   27  C25 UNL     1       0.758  53.110 -26.703  1.00  0.00     0.013 C 
HETATM   28  C26 UNL     1      -0.324  53.688 -27.642  1.00  0.00     0.015 C 
BRANCH  27  29
HETATM   29  C27 UNL     1       1.218  51.687 -27.157  1.00  0.00    -0.015 C 
HETATM   30  C28 UNL     1       2.530  51.256 -26.488  1.00  0.00     0.010 C 
HETATM   31  C29 UNL     1       0.159  50.611 -26.887  1.00  0.00     0.010 C 
ENDBRANCH  27  29
ENDBRANCH  25  27
ENDBRANCH  22  24
ENDBRANCH   1  22
BRANCH  15  32
HETATM   32  O1  UNL     1      -9.034  45.796 -20.935  1.00  0.00    -0.395 OA
HETATM   33  H28 UNL     1      -9.268  45.633 -20.003  1.00  0.00     0.210 HD
ENDBRANCH  15  32
TORSDOF 5
ENDMDL
