MODEL 1
REMARK minimizedAffinity -9.44551754
REMARK  5 active torsions:
REMARK  status: ('A' for Active; 'I' for Inactive)
REMARK    1  A    between atoms: C2_2  and  C4_4 
REMARK    2  A    between atoms: C7_7  and  C8_8 
REMARK    3  A    between atoms: C8_8  and  O2_10 
REMARK    4  A    between atoms: C11_13  and  C12_14 
REMARK    5  A    between atoms: C12_14  and  O4_16 
ROOT
HETATM    1  C4  UNL     1      -6.106  47.957 -24.814  1.00  0.00     0.019 C 
HETATM    2  C5  UNL     1      -7.539  48.495 -24.787  1.00  0.00     0.011 C 
HETATM    3  C6  UNL     1      -8.122  47.823 -23.552  1.00  0.00     0.021 C 
HETATM    4  C7  UNL     1      -7.009  47.926 -22.481  1.00  0.00     0.050 C 
HETATM    5  C9  UNL     1      -7.216  49.205 -21.653  1.00  0.00     0.022 C 
HETATM    6  C10 UNL     1      -5.982  49.647 -20.871  1.00  0.00     0.023 C 
HETATM    7  C11 UNL     1      -4.712  49.847 -21.733  1.00  0.00     0.057 C 
HETATM    8  C13 UNL     1      -4.461  48.595 -22.642  1.00  0.00     0.011 C 
HETATM    9  C14 UNL     1      -3.221  48.786 -23.526  1.00  0.00     0.007 C 
HETATM   10  C15 UNL     1      -1.952  49.139 -22.738  1.00  0.00     0.006 C 
HETATM   11  C16 UNL     1      -2.149  50.322 -21.760  1.00  0.00     0.003 C 
HETATM   12  C17 UNL     1      -0.816  50.863 -21.075  1.00  0.00    -0.035 C 
HETATM   13  C18 UNL     1      -0.089  49.760 -20.274  1.00  0.00     0.016 C 
HETATM   14  C19 UNL     1       0.152  51.355 -22.196  1.00  0.00     0.017 C 
HETATM   15  C20 UNL     1       1.360  52.132 -21.691  1.00  0.00     0.080 C 
HETATM   16  C21 UNL     1       0.957  53.282 -20.803  1.00  0.00     0.135 C 
HETATM   17  O5  UNL     1       1.494  54.382 -20.952  1.00  0.00    -0.297 OA
HETATM   18  C22 UNL     1      -0.034  52.996 -19.662  1.00  0.00     0.017 C 
HETATM   19  C23 UNL     1       0.740  52.370 -18.492  1.00  0.00     0.023 C 
HETATM   20  C24 UNL     1      -0.580  54.360 -19.168  1.00  0.00     0.023 C 
HETATM   21  C25 UNL     1      -1.214  52.125 -20.218  1.00  0.00     0.009 C 
HETATM   22  C26 UNL     1      -2.276  51.766 -19.161  1.00  0.00     0.007 C 
HETATM   23  C27 UNL     1      -3.568  51.248 -19.800  1.00  0.00     0.011 C 
HETATM   24  C28 UNL     1      -3.381  50.067 -20.799  1.00  0.00    -0.022 C 
HETATM   25  C29 UNL     1      -3.125  48.816 -19.893  1.00  0.00     0.017 C 
HETATM   26  C30 UNL     1      -5.675  47.870 -23.309  1.00  0.00     0.018 C 
ENDROOT
BRANCH   4  27
HETATM   27  C8  UNL     1      -7.083  46.740 -21.518  1.00  0.00     0.149 C 
HETATM   28  O1  UNL     1      -8.096  46.260 -21.035  1.00  0.00    -0.649 OA
BRANCH  27  29
HETATM   29  O2  UNL     1      -5.889  46.168 -21.269  1.00  0.00    -0.776 OA
HETATM   30  H11 UNL     1      -6.103  45.418 -20.676  1.00  0.00     0.167 HD
ENDBRANCH  27  29
ENDBRANCH   4  27
BRANCH   1  31
HETATM   31  C2  UNL     1      -5.205  48.440 -25.932  1.00  0.00    -0.088 C 
HETATM   32  C1  UNL     1      -4.235  49.339 -25.677  1.00  0.00     0.014 C 
HETATM   33  C3  UNL     1      -5.301  47.832 -27.304  1.00  0.00     0.043 C 
ENDBRANCH   1  31
BRANCH   7  34
HETATM   34  C12 UNL     1      -4.969  51.111 -22.595  1.00  0.00     0.149 C 
HETATM   35  O3  UNL     1      -4.176  51.975 -22.933  1.00  0.00    -0.649 OA
BRANCH  34  36
HETATM   36  O4  UNL     1      -6.247  51.276 -22.962  1.00  0.00    -0.776 OA
HETATM   37  H16 UNL     1      -6.231  52.123 -23.456  1.00  0.00     0.167 HD
ENDBRANCH  34  36
ENDBRANCH   7  34
TORSDOF 5
ENDMDL
MODEL 2
REMARK minimizedAffinity -9.3337965
REMARK  5 active torsions:
REMARK  status: ('A' for Active; 'I' for Inactive)
REMARK    1  A    between atoms: C2_2  and  C4_4 
REMARK    2  A    between atoms: C7_7  and  C8_8 
REMARK    3  A    between atoms: C8_8  and  O2_10 
REMARK    4  A    between atoms: C11_13  and  C12_14 
REMARK    5  A    between atoms: C12_14  and  O4_16 
ROOT
HETATM    1  C4  UNL     1      -2.855  48.169 -17.194  1.00  0.00     0.019 C 
HETATM    2  C5  UNL     1      -2.925  46.642 -17.131  1.00  0.00     0.011 C 
HETATM    3  C6  UNL     1      -4.361  46.359 -17.552  1.00  0.00     0.021 C 
HETATM    4  C7  UNL     1      -4.620  47.311 -18.744  1.00  0.00     0.050 C 
HETATM    5  C9  UNL     1      -4.290  46.583 -20.058  1.00  0.00     0.022 C 
HETATM    6  C10 UNL     1      -4.088  47.512 -21.252  1.00  0.00     0.023 C 
HETATM    7  C11 UNL     1      -3.014  48.607 -21.039  1.00  0.00     0.057 C 
HETATM    8  C13 UNL     1      -3.261  49.366 -19.690  1.00  0.00     0.011 C 
HETATM    9  C14 UNL     1      -2.189  50.437 -19.448  1.00  0.00     0.007 C 
HETATM   10  C15 UNL     1      -2.044  51.435 -20.605  1.00  0.00     0.006 C 
HETATM   11  C16 UNL     1      -1.874  50.753 -21.984  1.00  0.00     0.003 C 
HETATM   12  C17 UNL     1      -1.509  51.734 -23.185  1.00  0.00    -0.035 C 
HETATM   13  C18 UNL     1      -2.579  52.832 -23.379  1.00  0.00     0.016 C 
HETATM   14  C19 UNL     1      -0.157  52.439 -22.855  1.00  0.00     0.017 C 
HETATM   15  C20 UNL     1       0.451  53.214 -24.016  1.00  0.00     0.080 C 
HETATM   16  C21 UNL     1       0.591  52.358 -25.250  1.00  0.00     0.135 C 
HETATM   17  O5  UNL     1       1.635  52.402 -25.904  1.00  0.00    -0.297 OA
HETATM   18  C22 UNL     1      -0.634  51.548 -25.706  1.00  0.00     0.017 C 
HETATM   19  C23 UNL     1      -1.580  52.486 -26.470  1.00  0.00     0.023 C 
HETATM   20  C24 UNL     1      -0.137  50.483 -26.716  1.00  0.00     0.023 C 
HETATM   21  C25 UNL     1      -1.268  50.838 -24.459  1.00  0.00     0.009 C 
HETATM   22  C26 UNL     1      -2.514  49.994 -24.789  1.00  0.00     0.007 C 
HETATM   23  C27 UNL     1      -2.878  49.039 -23.648  1.00  0.00     0.011 C 
HETATM   24  C28 UNL     1      -3.037  49.713 -22.252  1.00  0.00    -0.022 C 
HETATM   25  C29 UNL     1      -4.423  50.439 -22.315  1.00  0.00     0.017 C 
HETATM   26  C30 UNL     1      -3.732  48.568 -18.431  1.00  0.00     0.018 C 
ENDROOT
BRANCH   4  27
HETATM   27  C8  UNL     1      -6.096  47.708 -18.800  1.00  0.00     0.149 C 
HETATM   28  O1  UNL     1      -6.833  47.623 -19.769  1.00  0.00    -0.649 OA
BRANCH  27  29
HETATM   29  O2  UNL     1      -6.592  48.119 -17.617  1.00  0.00    -0.776 OA
HETATM   30  H11 UNL     1      -7.537  48.300 -17.806  1.00  0.00     0.167 HD
ENDBRANCH  27  29
ENDBRANCH   4  27
BRANCH   1  31
HETATM   31  C2  UNL     1      -1.531  48.817 -16.843  1.00  0.00    -0.088 C 
HETATM   32  C1  UNL     1      -1.084  48.796 -15.572  1.00  0.00     0.014 C 
HETATM   33  C3  UNL     1      -0.647  49.376 -17.922  1.00  0.00     0.043 C 
ENDBRANCH   1  31
BRANCH   7  34
HETATM   34  C12 UNL     1      -1.647  47.874 -21.017  1.00  0.00     0.149 C 
HETATM   35  O3  UNL     1      -0.615  48.205 -20.457  1.00  0.00    -0.649 OA
BRANCH  34  36
HETATM   36  O4  UNL     1      -1.609  46.758 -21.759  1.00  0.00    -0.776 OA
HETATM   37  H16 UNL     1      -0.682  46.455 -21.660  1.00  0.00     0.167 HD
ENDBRANCH  34  36
ENDBRANCH   7  34
TORSDOF 5
ENDMDL
MODEL 3
REMARK minimizedAffinity -8.84623623
REMARK  5 active torsions:
REMARK  status: ('A' for Active; 'I' for Inactive)
REMARK    1  A    between atoms: C2_2  and  C4_4 
REMARK    2  A    between atoms: C7_7  and  C8_8 
REMARK    3  A    between atoms: C8_8  and  O2_10 
REMARK    4  A    between atoms: C11_13  and  C12_14 
REMARK    5  A    between atoms: C12_14  and  O4_16 
ROOT
HETATM    1  C4  UNL     1       0.572  52.886 -23.861  1.00  0.00     0.019 C 
HETATM    2  C5  UNL     1       0.173  54.128 -24.661  1.00  0.00     0.011 C 
HETATM    3  C6  UNL     1       0.013  53.577 -26.071  1.00  0.00     0.021 C 
HETATM    4  C7  UNL     1      -0.739  52.236 -25.890  1.00  0.00     0.050 C 
HETATM    5  C9  UNL     1      -2.251  52.480 -26.016  1.00  0.00     0.022 C 
HETATM    6  C10 UNL     1      -3.113  51.357 -25.443  1.00  0.00     0.023 C 
HETATM    7  C11 UNL     1      -2.815  51.009 -23.965  1.00  0.00     0.057 C 
HETATM    8  C13 UNL     1      -1.278  50.789 -23.750  1.00  0.00     0.011 C 
HETATM    9  C14 UNL     1      -0.959  50.471 -22.283  1.00  0.00     0.007 C 
HETATM   10  C15 UNL     1      -1.754  49.282 -21.725  1.00  0.00     0.006 C 
HETATM   11  C16 UNL     1      -3.277  49.394 -21.971  1.00  0.00     0.003 C 
HETATM   12  C17 UNL     1      -4.165  48.298 -21.232  1.00  0.00    -0.035 C 
HETATM   13  C18 UNL     1      -3.769  46.861 -21.642  1.00  0.00     0.016 C 
HETATM   14  C19 UNL     1      -3.941  48.433 -19.694  1.00  0.00     0.017 C 
HETATM   15  C20 UNL     1      -4.910  47.625 -18.841  1.00  0.00     0.080 C 
HETATM   16  C21 UNL     1      -6.347  47.921 -19.190  1.00  0.00     0.135 C 
HETATM   17  O5  UNL     1      -7.169  48.093 -18.288  1.00  0.00    -0.297 OA
HETATM   18  C22 UNL     1      -6.748  47.879 -20.674  1.00  0.00     0.017 C 
HETATM   19  C23 UNL     1      -6.956  46.413 -21.080  1.00  0.00     0.023 C 
HETATM   20  C24 UNL     1      -8.122  48.586 -20.804  1.00  0.00     0.023 C 
HETATM   21  C25 UNL     1      -5.674  48.654 -21.515  1.00  0.00     0.009 C 
HETATM   22  C26 UNL     1      -5.966  48.678 -23.028  1.00  0.00     0.007 C 
HETATM   23  C27 UNL     1      -5.125  49.731 -23.756  1.00  0.00     0.011 C 
HETATM   24  C28 UNL     1      -3.590  49.638 -23.504  1.00  0.00    -0.022 C 
HETATM   25  C29 UNL     1      -3.118  48.417 -24.364  1.00  0.00     0.017 C 
HETATM   26  C30 UNL     1      -0.256  51.712 -24.490  1.00  0.00     0.018 C 
ENDROOT
BRANCH   4  27
HETATM   27  C8  UNL     1      -0.342  51.248 -26.989  1.00  0.00     0.149 C 
HETATM   28  O1  UNL     1       0.324  50.235 -26.847  1.00  0.00    -0.649 OA
BRANCH  27  29
HETATM   29  O2  UNL     1      -0.866  51.540 -28.195  1.00  0.00    -0.776 OA
HETATM   30  H11 UNL     1      -0.555  50.811 -28.772  1.00  0.00     0.167 HD
ENDBRANCH  27  29
ENDBRANCH   4  27
BRANCH   1  31
HETATM   31  C2  UNL     1       0.804  53.064 -22.374  1.00  0.00    -0.088 C 
HETATM   32  C1  UNL     1       1.294  52.046 -21.641  1.00  0.00     0.014 C 
HETATM   33  C3  UNL     1       0.611  54.408 -21.729  1.00  0.00     0.043 C 
ENDBRANCH   1  31
BRANCH   7  34
HETATM   34  C12 UNL     1      -3.323  52.211 -23.126  1.00  0.00     0.149 C 
HETATM   35  O3  UNL     1      -3.913  52.198 -22.058  1.00  0.00    -0.649 OA
BRANCH  34  36
HETATM   36  O4  UNL     1      -3.117  53.406 -23.697  1.00  0.00    -0.776 OA
HETATM   37  H16 UNL     1      -3.524  54.032 -23.061  1.00  0.00     0.167 HD
ENDBRANCH  34  36
ENDBRANCH   7  34
TORSDOF 5
ENDMDL
MODEL 4
REMARK minimizedAffinity -8.79439163
REMARK  5 active torsions:
REMARK  status: ('A' for Active; 'I' for Inactive)
REMARK    1  A    between atoms: C2_2  and  C4_4 
REMARK    2  A    between atoms: C7_7  and  C8_8 
REMARK    3  A    between atoms: C8_8  and  O2_10 
REMARK    4  A    between atoms: C11_13  and  C12_14 
REMARK    5  A    between atoms: C12_14  and  O4_16 
ROOT
HETATM    1  C4  UNL     1      -1.367  51.875 -22.270  1.00  0.00     0.019 C 
HETATM    2  C5  UNL     1       0.071  51.477 -21.928  1.00  0.00     0.011 C 
HETATM    3  C6  UNL     1       0.073  51.518 -20.407  1.00  0.00     0.021 C 
HETATM    4  C7  UNL     1      -1.261  50.852 -19.990  1.00  0.00     0.050 C 
HETATM    5  C9  UNL     1      -1.030  49.349 -19.763  1.00  0.00     0.022 C 
HETATM    6  C10 UNL     1      -2.308  48.514 -19.772  1.00  0.00     0.023 C 
HETATM    7  C11 UNL     1      -3.168  48.670 -21.050  1.00  0.00     0.057 C 
HETATM    8  C13 UNL     1      -3.408  50.185 -21.372  1.00  0.00     0.011 C 
HETATM    9  C14 UNL     1      -4.235  50.360 -22.653  1.00  0.00     0.007 C 
HETATM   10  C15 UNL     1      -5.568  49.599 -22.633  1.00  0.00     0.006 C 
HETATM   11  C16 UNL     1      -5.416  48.108 -22.246  1.00  0.00     0.003 C 
HETATM   12  C17 UNL     1      -6.732  47.227 -22.415  1.00  0.00    -0.035 C 
HETATM   13  C18 UNL     1      -7.905  47.772 -21.569  1.00  0.00     0.016 C 
HETATM   14  C19 UNL     1      -7.166  47.267 -23.913  1.00  0.00     0.017 C 
HETATM   15  C20 UNL     1      -8.257  46.271 -24.281  1.00  0.00     0.080 C 
HETATM   16  C21 UNL     1      -7.894  44.865 -23.877  1.00  0.00     0.135 C 
HETATM   17  O5  UNL     1      -8.090  43.936 -24.664  1.00  0.00    -0.297 OA
HETATM   18  C22 UNL     1      -7.398  44.637 -22.439  1.00  0.00     0.017 C 
HETATM   19  C23 UNL     1      -8.618  44.585 -21.507  1.00  0.00     0.023 C 
HETATM   20  C24 UNL     1      -6.732  43.237 -22.394  1.00  0.00     0.023 C 
HETATM   21  C25 UNL     1      -6.338  45.737 -22.085  1.00  0.00     0.009 C 
HETATM   22  C26 UNL     1      -5.768  45.616 -20.658  1.00  0.00     0.007 C 
HETATM   23  C27 UNL     1      -4.497  46.453 -20.477  1.00  0.00     0.011 C 
HETATM   24  C28 UNL     1      -4.634  47.952 -20.879  1.00  0.00    -0.022 C 
HETATM   25  C29 UNL     1      -5.439  48.607 -19.705  1.00  0.00     0.017 C 
HETATM   26  C30 UNL     1      -2.249  51.212 -21.156  1.00  0.00     0.018 C 
ENDROOT
BRANCH   4  27
HETATM   27  C8  UNL     1      -1.763  51.442 -18.671  1.00  0.00     0.149 C 
HETATM   28  O1  UNL     1      -2.886  51.863 -18.447  1.00  0.00    -0.649 OA
BRANCH  27  29
HETATM   29  O2  UNL     1      -0.854  51.401 -17.678  1.00  0.00    -0.776 OA
HETATM   30  H11 UNL     1      -1.329  51.774 -16.906  1.00  0.00     0.167 HD
ENDBRANCH  27  29
ENDBRANCH   4  27
BRANCH   1  31
HETATM   31  C2  UNL     1      -1.742  51.925 -23.738  1.00  0.00    -0.088 C 
HETATM   32  C1  UNL     1      -1.134  51.107 -24.618  1.00  0.00     0.014 C 
HETATM   33  C3  UNL     1      -2.876  52.794 -24.205  1.00  0.00     0.043 C 
ENDBRANCH   1  31
BRANCH   7  34
HETATM   34  C12 UNL     1      -2.373  47.983 -22.193  1.00  0.00     0.149 C 
HETATM   35  O3  UNL     1      -2.341  48.273 -23.377  1.00  0.00    -0.649 OA
BRANCH  34  36
HETATM   36  O4  UNL     1      -1.679  46.903 -21.807  1.00  0.00    -0.776 OA
HETATM   37  H16 UNL     1      -1.279  46.584 -22.644  1.00  0.00     0.167 HD
ENDBRANCH  34  36
ENDBRANCH   7  34
TORSDOF 5
ENDMDL
MODEL 5
REMARK minimizedAffinity -8.48172569
REMARK  5 active torsions:
REMARK  status: ('A' for Active; 'I' for Inactive)
REMARK    1  A    between atoms: C2_2  and  C4_4 
REMARK    2  A    between atoms: C7_7  and  C8_8 
REMARK    3  A    between atoms: C8_8  and  O2_10 
REMARK    4  A    between atoms: C11_13  and  C12_14 
REMARK    5  A    between atoms: C12_14  and  O4_16 
ROOT
HETATM    1  C4  UNL     1      -1.189  50.792 -22.383  1.00  0.00     0.019 C 
HETATM    2  C5  UNL     1      -1.276  52.313 -22.531  1.00  0.00     0.011 C 
HETATM    3  C6  UNL     1      -1.663  52.482 -23.994  1.00  0.00     0.021 C 
HETATM    4  C7  UNL     1      -2.743  51.402 -24.246  1.00  0.00     0.050 C 
HETATM    5  C9  UNL     1      -4.135  52.008 -24.003  1.00  0.00     0.022 C 
HETATM    6  C10 UNL     1      -5.238  50.973 -23.797  1.00  0.00     0.023 C 
HETATM    7  C11 UNL     1      -4.962  49.959 -22.660  1.00  0.00     0.057 C 
HETATM    8  C13 UNL     1      -3.535  49.329 -22.817  1.00  0.00     0.011 C 
HETATM    9  C14 UNL     1      -3.232  48.342 -21.682  1.00  0.00     0.007 C 
HETATM   10  C15 UNL     1      -4.289  47.240 -21.527  1.00  0.00     0.006 C 
HETATM   11  C16 UNL     1      -5.735  47.786 -21.444  1.00  0.00     0.003 C 
HETATM   12  C17 UNL     1      -6.846  46.707 -21.072  1.00  0.00    -0.035 C 
HETATM   13  C18 UNL     1      -6.885  45.544 -22.090  1.00  0.00     0.016 C 
HETATM   14  C19 UNL     1      -6.505  46.105 -19.674  1.00  0.00     0.017 C 
HETATM   15  C20 UNL     1      -7.607  45.247 -19.070  1.00  0.00     0.080 C 
HETATM   16  C21 UNL     1      -8.925  45.978 -19.019  1.00  0.00     0.135 C 
HETATM   17  O5  UNL     1      -9.615  45.919 -17.999  1.00  0.00    -0.297 OA
HETATM   18  C22 UNL     1      -9.407  46.677 -20.301  1.00  0.00     0.017 C 
HETATM   19  C23 UNL     1     -10.034  45.622 -21.224  1.00  0.00     0.023 C 
HETATM   20  C24 UNL     1     -10.539  47.657 -19.898  1.00  0.00     0.023 C 
HETATM   21  C25 UNL     1      -8.212  47.479 -20.925  1.00  0.00     0.009 C 
HETATM   22  C26 UNL     1      -8.573  48.223 -22.226  1.00  0.00     0.007 C 
HETATM   23  C27 UNL     1      -7.518  49.270 -22.597  1.00  0.00     0.011 C 
HETATM   24  C28 UNL     1      -6.056  48.735 -22.669  1.00  0.00    -0.022 C 
HETATM   25  C29 UNL     1      -5.989  47.940 -24.016  1.00  0.00     0.017 C 
HETATM   26  C30 UNL     1      -2.343  50.228 -23.282  1.00  0.00     0.018 C 
ENDROOT
BRANCH   4  27
HETATM   27  C8  UNL     1      -2.697  50.930 -25.700  1.00  0.00     0.149 C 
HETATM   28  O1  UNL     1      -3.263  51.449 -26.649  1.00  0.00    -0.649 OA
BRANCH  27  29
HETATM   29  O2  UNL     1      -1.881  49.877 -25.904  1.00  0.00    -0.776 OA
HETATM   30  H11 UNL     1      -1.932  49.720 -26.870  1.00  0.00     0.167 HD
ENDBRANCH  27  29
ENDBRANCH   4  27
BRANCH   1  31
HETATM   31  C2  UNL     1      -0.831  50.249 -21.014  1.00  0.00    -0.088 C 
HETATM   32  C1  UNL     1      -1.016  51.008 -19.917  1.00  0.00     0.014 C 
HETATM   33  C3  UNL     1      -0.387  48.822 -20.854  1.00  0.00     0.043 C 
ENDBRANCH   1  31
BRANCH   7  34
HETATM   34  C12 UNL     1      -5.071  50.756 -21.333  1.00  0.00     0.149 C 
HETATM   35  O3  UNL     1      -4.175  51.252 -20.669  1.00  0.00    -0.649 OA
BRANCH  34  36
HETATM   36  O4  UNL     1      -6.317  50.855 -20.852  1.00  0.00    -0.776 OA
HETATM   37  H16 UNL     1      -6.195  51.345 -20.012  1.00  0.00     0.167 HD
ENDBRANCH  34  36
ENDBRANCH   7  34
TORSDOF 5
ENDMDL
MODEL 6
REMARK minimizedAffinity -8.33686256
REMARK  5 active torsions:
REMARK  status: ('A' for Active; 'I' for Inactive)
REMARK    1  A    between atoms: C2_2  and  C4_4 
REMARK    2  A    between atoms: C7_7  and  C8_8 
REMARK    3  A    between atoms: C8_8  and  O2_10 
REMARK    4  A    between atoms: C11_13  and  C12_14 
REMARK    5  A    between atoms: C12_14  and  O4_16 
ROOT
HETATM    1  C4  UNL     1      -0.589  51.567 -23.445  1.00  0.00     0.019 C 
HETATM    2  C5  UNL     1      -0.833  52.929 -24.099  1.00  0.00     0.011 C 
HETATM    3  C6  UNL     1      -1.264  52.547 -25.508  1.00  0.00     0.021 C 
HETATM    4  C7  UNL     1      -2.234  51.356 -25.317  1.00  0.00     0.050 C 
HETATM    5  C9  UNL     1      -3.675  51.882 -25.221  1.00  0.00     0.022 C 
HETATM    6  C10 UNL     1      -4.662  50.889 -24.613  1.00  0.00     0.023 C 
HETATM    7  C11 UNL     1      -4.262  50.360 -23.215  1.00  0.00     0.057 C 
HETATM    8  C13 UNL     1      -2.782  49.844 -23.224  1.00  0.00     0.011 C 
HETATM    9  C14 UNL     1      -2.357  49.340 -21.838  1.00  0.00     0.007 C 
HETATM   10  C15 UNL     1      -3.294  48.271 -21.259  1.00  0.00     0.006 C 
HETATM   11  C16 UNL     1      -4.785  48.682 -21.289  1.00  0.00     0.003 C 
HETATM   12  C17 UNL     1      -5.773  47.704 -20.512  1.00  0.00    -0.035 C 
HETATM   13  C18 UNL     1      -5.714  46.262 -21.066  1.00  0.00     0.016 C 
HETATM   14  C19 UNL     1      -5.344  47.655 -19.012  1.00  0.00     0.017 C 
HETATM   15  C20 UNL     1      -6.341  46.965 -18.092  1.00  0.00     0.080 C 
HETATM   16  C21 UNL     1      -7.725  47.549 -18.224  1.00  0.00     0.135 C 
HETATM   17  O5  UNL     1      -8.384  47.785 -17.209  1.00  0.00    -0.297 OA
HETATM   18  C22 UNL     1      -8.302  47.716 -19.640  1.00  0.00     0.017 C 
HETATM   19  C23 UNL     1      -8.837  46.356 -20.110  1.00  0.00     0.023 C 
HETATM   20  C24 UNL     1      -9.519  48.671 -19.535  1.00  0.00     0.023 C 
HETATM   21  C25 UNL     1      -7.207  48.355 -20.564  1.00  0.00     0.009 C 
HETATM   22  C26 UNL     1      -7.668  48.569 -22.019  1.00  0.00     0.007 C 
HETATM   23  C27 UNL     1      -6.733  49.512 -22.782  1.00  0.00     0.011 C 
HETATM   24  C28 UNL     1      -5.226  49.117 -22.746  1.00  0.00    -0.022 C 
HETATM   25  C29 UNL     1      -5.106  47.914 -23.742  1.00  0.00     0.017 C 
HETATM   26  C30 UNL     1      -1.697  50.627 -24.033  1.00  0.00     0.018 C 
ENDROOT
BRANCH   4  27
HETATM   27  C8  UNL     1      -2.170  50.416 -26.522  1.00  0.00     0.149 C 
HETATM   28  O1  UNL     1      -2.141  49.196 -26.490  1.00  0.00    -0.649 OA
BRANCH  27  29
HETATM   29  O2  UNL     1      -2.224  51.052 -27.709  1.00  0.00    -0.776 OA
HETATM   30  H11 UNL     1      -2.209  50.326 -28.368  1.00  0.00     0.167 HD
ENDBRANCH  27  29
ENDBRANCH   4  27
BRANCH   1  31
HETATM   31  C2  UNL     1      -0.150  51.565 -21.994  1.00  0.00    -0.088 C 
HETATM   32  C1  UNL     1      -0.244  52.688 -21.258  1.00  0.00     0.014 C 
HETATM   33  C3  UNL     1       0.275  50.285 -21.329  1.00  0.00     0.043 C 
ENDBRANCH   1  31
BRANCH   7  34
HETATM   34  C12 UNL     1      -4.424  51.553 -22.237  1.00  0.00     0.149 C 
HETATM   35  O3  UNL     1      -3.792  51.796 -21.222  1.00  0.00    -0.649 OA
BRANCH  34  36
HETATM   36  O4  UNL     1      -5.429  52.384 -22.546  1.00  0.00    -0.776 OA
HETATM   37  H16 UNL     1      -5.408  53.042 -21.819  1.00  0.00     0.167 HD
ENDBRANCH  34  36
ENDBRANCH   7  34
TORSDOF 5
ENDMDL
MODEL 7
REMARK minimizedAffinity -8.31050396
REMARK  5 active torsions:
REMARK  status: ('A' for Active; 'I' for Inactive)
REMARK    1  A    between atoms: C2_2  and  C4_4 
REMARK    2  A    between atoms: C7_7  and  C8_8 
REMARK    3  A    between atoms: C8_8  and  O2_10 
REMARK    4  A    between atoms: C11_13  and  C12_14 
REMARK    5  A    between atoms: C12_14  and  O4_16 
ROOT
HETATM    1  C4  UNL     1      -1.981  52.016 -23.274  1.00  0.00     0.019 C 
HETATM    2  C5  UNL     1      -0.556  51.731 -23.755  1.00  0.00     0.011 C 
HETATM    3  C6  UNL     1       0.285  52.119 -22.547  1.00  0.00     0.021 C 
HETATM    4  C7  UNL     1      -0.480  51.545 -21.330  1.00  0.00     0.050 C 
HETATM    5  C9  UNL     1       0.052  50.139 -21.011  1.00  0.00     0.022 C 
HETATM    6  C10 UNL     1      -0.879  49.303 -20.136  1.00  0.00     0.023 C 
HETATM    7  C11 UNL     1      -2.315  49.148 -20.693  1.00  0.00     0.057 C 
HETATM    8  C13 UNL     1      -2.910  50.545 -21.083  1.00  0.00     0.011 C 
HETATM    9  C14 UNL     1      -4.323  50.408 -21.664  1.00  0.00     0.007 C 
HETATM   10  C15 UNL     1      -5.294  49.650 -20.747  1.00  0.00     0.006 C 
HETATM   11  C16 UNL     1      -4.739  48.291 -20.258  1.00  0.00     0.003 C 
HETATM   12  C17 UNL     1      -5.783  47.373 -19.481  1.00  0.00    -0.035 C 
HETATM   13  C18 UNL     1      -6.353  48.079 -18.229  1.00  0.00     0.016 C 
HETATM   14  C19 UNL     1      -6.977  47.061 -20.437  1.00  0.00     0.017 C 
HETATM   15  C20 UNL     1      -7.931  45.990 -19.926  1.00  0.00     0.080 C 
HETATM   16  C21 UNL     1      -7.206  44.720 -19.560  1.00  0.00     0.135 C 
HETATM   17  O5  UNL     1      -7.669  43.632 -19.910  1.00  0.00    -0.297 OA
HETATM   18  C22 UNL     1      -5.968  44.836 -18.654  1.00  0.00     0.017 C 
HETATM   19  C23 UNL     1      -6.442  44.980 -17.200  1.00  0.00     0.023 C 
HETATM   20  C24 UNL     1      -5.196  43.495 -18.750  1.00  0.00     0.023 C 
HETATM   21  C25 UNL     1      -5.063  46.005 -19.176  1.00  0.00     0.009 C 
HETATM   22  C26 UNL     1      -3.785  46.224 -18.341  1.00  0.00     0.007 C 
HETATM   23  C27 UNL     1      -2.765  47.100 -19.075  1.00  0.00     0.011 C 
HETATM   24  C28 UNL     1      -3.317  48.465 -19.586  1.00  0.00    -0.022 C 
HETATM   25  C29 UNL     1      -3.419  49.359 -18.303  1.00  0.00     0.017 C 
HETATM   26  C30 UNL     1      -1.989  51.612 -21.759  1.00  0.00     0.018 C 
ENDROOT
BRANCH   4  27
HETATM   27  C8  UNL     1      -0.244  52.414 -20.093  1.00  0.00     0.149 C 
HETATM   28  O1  UNL     1      -0.978  52.507 -19.122  1.00  0.00    -0.649 OA
BRANCH  27  29
HETATM   29  O2  UNL     1       0.937  53.061 -20.101  1.00  0.00    -0.776 OA
HETATM   30  H11 UNL     1       0.955  53.536 -19.245  1.00  0.00     0.167 HD
ENDBRANCH  27  29
ENDBRANCH   4  27
BRANCH   1  31
HETATM   31  C2  UNL     1      -3.110  51.722 -24.241  1.00  0.00    -0.088 C 
HETATM   32  C1  UNL     1      -3.166  52.357 -25.428  1.00  0.00     0.014 C 
HETATM   33  C3  UNL     1      -4.104  50.635 -23.944  1.00  0.00     0.043 C 
ENDBRANCH   1  31
BRANCH   7  34
HETATM   34  C12 UNL     1      -2.200  48.230 -21.938  1.00  0.00     0.149 C 
HETATM   35  O3  UNL     1      -2.681  48.390 -23.048  1.00  0.00    -0.649 OA
BRANCH  34  36
HETATM   36  O4  UNL     1      -1.517  47.097 -21.725  1.00  0.00    -0.776 OA
HETATM   37  H16 UNL     1      -1.576  46.634 -22.587  1.00  0.00     0.167 HD
ENDBRANCH  34  36
ENDBRANCH   7  34
TORSDOF 5
ENDMDL
MODEL 8
REMARK minimizedAffinity -8.21812725
REMARK  5 active torsions:
REMARK  status: ('A' for Active; 'I' for Inactive)
REMARK    1  A    between atoms: C2_2  and  C4_4 
REMARK    2  A    between atoms: C7_7  and  C8_8 
REMARK    3  A    between atoms: C8_8  and  O2_10 
REMARK    4  A    between atoms: C11_13  and  C12_14 
REMARK    5  A    between atoms: C12_14  and  O4_16 
ROOT
HETATM    1  C4  UNL     1      -4.614  48.747 -23.014  1.00  0.00     0.019 C 
HETATM    2  C5  UNL     1      -3.694  48.432 -24.196  1.00  0.00     0.011 C 
HETATM    3  C6  UNL     1      -3.179  49.809 -24.591  1.00  0.00     0.021 C 
HETATM    4  C7  UNL     1      -2.858  50.512 -23.250  1.00  0.00     0.050 C 
HETATM    5  C9  UNL     1      -1.383  50.271 -22.889  1.00  0.00     0.022 C 
HETATM    6  C10 UNL     1      -1.050  50.531 -21.422  1.00  0.00     0.023 C 
HETATM    7  C11 UNL     1      -1.916  49.734 -20.416  1.00  0.00     0.057 C 
HETATM    8  C13 UNL     1      -3.438  49.897 -20.750  1.00  0.00     0.011 C 
HETATM    9  C14 UNL     1      -4.313  49.090 -19.781  1.00  0.00     0.007 C 
HETATM   10  C15 UNL     1      -4.050  49.413 -18.303  1.00  0.00     0.006 C 
HETATM   11  C16 UNL     1      -2.553  49.348 -17.918  1.00  0.00     0.003 C 
HETATM   12  C17 UNL     1      -2.249  49.466 -16.359  1.00  0.00    -0.035 C 
HETATM   13  C18 UNL     1      -2.787  50.787 -15.764  1.00  0.00     0.016 C 
HETATM   14  C19 UNL     1      -2.960  48.288 -15.624  1.00  0.00     0.017 C 
HETATM   15  C20 UNL     1      -2.557  48.117 -14.166  1.00  0.00     0.080 C 
HETATM   16  C21 UNL     1      -1.062  48.010 -14.005  1.00  0.00     0.135 C 
HETATM   17  O5  UNL     1      -0.591  47.151 -13.256  1.00  0.00    -0.297 OA
HETATM   18  C22 UNL     1      -0.187  49.066 -14.702  1.00  0.00     0.017 C 
HETATM   19  C23 UNL     1      -0.184  50.338 -13.841  1.00  0.00     0.023 C 
HETATM   20  C24 UNL     1       1.266  48.527 -14.720  1.00  0.00     0.023 C 
HETATM   21  C25 UNL     1      -0.697  49.261 -16.172  1.00  0.00     0.009 C 
HETATM   22  C26 UNL     1       0.102  50.305 -16.975  1.00  0.00     0.007 C 
HETATM   23  C27 UNL     1      -0.173  50.204 -18.479  1.00  0.00     0.011 C 
HETATM   24  C28 UNL     1      -1.679  50.253 -18.877  1.00  0.00    -0.022 C 
HETATM   25  C29 UNL     1      -2.080  51.760 -18.731  1.00  0.00     0.017 C 
HETATM   26  C30 UNL     1      -3.903  49.913 -22.243  1.00  0.00     0.018 C 
ENDROOT
BRANCH   4  27
HETATM   27  C8  UNL     1      -3.056  52.024 -23.378  1.00  0.00     0.149 C 
HETATM   28  O1  UNL     1      -2.324  52.803 -23.968  1.00  0.00    -0.649 OA
BRANCH  27  29
HETATM   29  O2  UNL     1      -4.202  52.470 -22.827  1.00  0.00    -0.776 OA
HETATM   30  H11 UNL     1      -4.200  53.431 -23.019  1.00  0.00     0.167 HD
ENDBRANCH  27  29
ENDBRANCH   4  27
BRANCH   1  31
HETATM   31  C2  UNL     1      -5.305  47.577 -22.343  1.00  0.00    -0.088 C 
HETATM   32  C1  UNL     1      -6.643  47.446 -22.426  1.00  0.00     0.014 C 
HETATM   33  C3  UNL     1      -4.500  46.490 -21.689  1.00  0.00     0.043 C 
ENDBRANCH   1  31
BRANCH   7  34
HETATM   34  C12 UNL     1      -1.478  48.251 -20.548  1.00  0.00     0.149 C 
HETATM   35  O3  UNL     1      -1.389  47.571 -21.557  1.00  0.00    -0.649 OA
BRANCH  34  36
HETATM   36  O4  UNL     1      -1.216  47.650 -19.379  1.00  0.00    -0.776 OA
HETATM   37  H16 UNL     1      -0.997  46.731 -19.644  1.00  0.00     0.167 HD
ENDBRANCH  34  36
ENDBRANCH   7  34
TORSDOF 5
ENDMDL
MODEL 9
REMARK minimizedAffinity -8.05841732
REMARK  5 active torsions:
REMARK  status: ('A' for Active; 'I' for Inactive)
REMARK    1  A    between atoms: C2_2  and  C4_4 
REMARK    2  A    between atoms: C7_7  and  C8_8 
REMARK    3  A    between atoms: C8_8  and  O2_10 
REMARK    4  A    between atoms: C11_13  and  C12_14 
REMARK    5  A    between atoms: C12_14  and  O4_16 
ROOT
HETATM    1  C4  UNL     1      -3.028  49.633 -23.302  1.00  0.00     0.019 C 
HETATM    2  C5  UNL     1      -4.436  50.100 -23.679  1.00  0.00     0.011 C 
HETATM    3  C6  UNL     1      -5.289  48.887 -23.337  1.00  0.00     0.021 C 
HETATM    4  C7  UNL     1      -4.745  48.389 -21.976  1.00  0.00     0.050 C 
HETATM    5  C9  UNL     1      -5.549  49.040 -20.838  1.00  0.00     0.022 C 
HETATM    6  C10 UNL     1      -4.861  48.981 -19.477  1.00  0.00     0.023 C 
HETATM    7  C11 UNL     1      -3.436  49.585 -19.450  1.00  0.00     0.057 C 
HETATM    8  C13 UNL     1      -2.567  48.998 -20.616  1.00  0.00     0.011 C 
HETATM    9  C14 UNL     1      -1.159  49.607 -20.624  1.00  0.00     0.007 C 
HETATM   10  C15 UNL     1      -0.422  49.468 -19.284  1.00  0.00     0.006 C 
HETATM   11  C16 UNL     1      -1.253  49.958 -18.075  1.00  0.00     0.003 C 
HETATM   12  C17 UNL     1      -0.461  50.033 -16.695  1.00  0.00    -0.035 C 
HETATM   13  C18 UNL     1       0.122  48.661 -16.287  1.00  0.00     0.016 C 
HETATM   14  C19 UNL     1       0.731  51.026 -16.861  1.00  0.00     0.017 C 
HETATM   15  C20 UNL     1       1.429  51.398 -15.560  1.00  0.00     0.080 C 
HETATM   16  C21 UNL     1       0.457  51.912 -14.528  1.00  0.00     0.135 C 
HETATM   17  O5  UNL     1       0.743  52.915 -13.870  1.00  0.00    -0.297 OA
HETATM   18  C22 UNL     1      -0.810  51.082 -14.259  1.00  0.00     0.017 C 
HETATM   19  C23 UNL     1      -0.440  49.920 -13.326  1.00  0.00     0.023 C 
HETATM   20  C24 UNL     1      -1.802  51.988 -13.485  1.00  0.00     0.023 C 
HETATM   21  C25 UNL     1      -1.441  50.657 -15.630  1.00  0.00     0.009 C 
HETATM   22  C26 UNL     1      -2.722  49.812 -15.491  1.00  0.00     0.007 C 
HETATM   23  C27 UNL     1      -3.501  49.732 -16.808  1.00  0.00     0.011 C 
HETATM   24  C28 UNL     1      -2.670  49.255 -18.036  1.00  0.00    -0.022 C 
HETATM   25  C29 UNL     1      -2.515  47.709 -17.836  1.00  0.00     0.017 C 
HETATM   26  C30 UNL     1      -3.219  48.756 -22.016  1.00  0.00     0.018 C 
ENDROOT
BRANCH   4  27
HETATM   27  C8  UNL     1      -4.921  46.875 -21.852  1.00  0.00     0.149 C 
HETATM   28  O1  UNL     1      -4.132  46.092 -21.348  1.00  0.00    -0.649 OA
BRANCH  27  29
HETATM   29  O2  UNL     1      -6.113  46.429 -22.295  1.00  0.00    -0.776 OA
HETATM   30  H11 UNL     1      -6.087  45.465 -22.119  1.00  0.00     0.167 HD
ENDBRANCH  27  29
ENDBRANCH   4  27
BRANCH   1  31
HETATM   31  C2  UNL     1      -1.894  50.619 -23.501  1.00  0.00    -0.088 C 
HETATM   32  C1  UNL     1      -1.925  51.484 -24.533  1.00  0.00     0.014 C 
HETATM   33  C3  UNL     1      -0.792  50.727 -22.485  1.00  0.00     0.043 C 
ENDBRANCH   1  31
BRANCH   7  34
HETATM   34  C12 UNL     1      -3.612  51.118 -19.612  1.00  0.00     0.149 C 
HETATM   35  O3  UNL     1      -4.157  51.729 -20.516  1.00  0.00    -0.649 OA
BRANCH  34  36
HETATM   36  O4  UNL     1      -3.039  51.842 -18.641  1.00  0.00    -0.776 OA
HETATM   37  H16 UNL     1      -3.214  52.766 -18.918  1.00  0.00     0.167 HD
ENDBRANCH  34  36
ENDBRANCH   7  34
TORSDOF 5
ENDMDL
