MODEL 1
REMARK minimizedAffinity -5.92126322
REMARK CNNscore 0.339314371
REMARK CNNaffinity 5.24090052
REMARK  6 active torsions:
REMARK  status: ('A' for Active; 'I' for Inactive)
REMARK    1  A    between atoms: C9_10  and  C10_11 
REMARK    2  A    between atoms: C11_13  and  O3_14 
REMARK    3  A    between atoms: C12_15  and  C13_16 
REMARK    4  A    between atoms: C14_18  and  O5_19 
REMARK    5  A    between atoms: C16_21  and  C17_22 
REMARK    6  A    between atoms: C17_22  and  C18_23 
ROOT
HETATM    1  C1  UNL     1      -8.401  48.573 -17.774  1.00  0.00     0.043 C 
HETATM    2  C2  UNL     1      -8.595  47.694 -18.990  1.00  0.00    -0.087 C 
HETATM    3  C3  UNL     1      -8.845  48.274 -20.181  1.00  0.00    -0.024 C 
HETATM    4  C4  UNL     1      -9.037  47.701 -21.557  1.00  0.00     0.030 C 
HETATM    5  C5  UNL     1      -9.675  46.322 -21.736  1.00  0.00     0.042 C 
HETATM    6  C6  UNL     1     -11.230  46.232 -21.712  1.00  0.00     0.069 C 
HETATM    7  C7  UNL     1     -11.589  44.739 -21.866  1.00  0.00     0.047 C 
HETATM    8  O1  UNL     1     -11.554  46.896 -22.989  1.00  0.00    -0.338 OA
HETATM    9  C8  UNL     1     -12.868  46.860 -23.361  1.00  0.00     0.095 A 
HETATM   10  C9  UNL     1     -13.161  46.762 -24.730  1.00  0.00     0.070 A 
HETATM   11  C11 UNL     1     -14.488  46.612 -25.156  1.00  0.00     0.097 A 
HETATM   12  C12 UNL     1     -15.511  46.552 -24.209  1.00  0.00     0.069 A 
HETATM   13  C14 UNL     1     -15.206  46.681 -22.843  1.00  0.00     0.091 A 
HETATM   14  C15 UNL     1     -13.885  46.893 -22.406  1.00  0.00     0.015 A 
HETATM   15  C16 UNL     1     -13.543  47.126 -20.946  1.00  0.00     0.032 C 
HETATM   16  C21 UNL     1     -11.996  47.024 -20.614  1.00  0.00     0.034 C 
HETATM   17  C22 UNL     1     -11.824  46.863 -19.107  1.00  0.00     0.006 A 
HETATM   18  C23 UNL     1     -10.891  46.139 -18.153  1.00  0.00    -0.001 A 
HETATM   19  C24 UNL     1      -9.694  45.357 -18.553  1.00  0.00     0.010 C 
HETATM   20  C25 UNL     1      -8.418  46.211 -18.720  1.00  0.00     0.034 C 
HETATM   21  C26 UNL     1     -12.346  45.692 -18.256  1.00  0.00    -0.039 A 
HETATM   22  C27 UNL     1     -12.649  44.314 -18.778  1.00  0.00     0.015 C 
HETATM   23  C28 UNL     1     -13.286  46.085 -17.133  1.00  0.00     0.015 C 
ENDROOT
BRANCH  15  24
HETATM   24  C17 UNL     1     -14.234  48.396 -20.343  1.00  0.00     0.014 C 
BRANCH  24  25
HETATM   25  C18 UNL     1     -14.886  48.405 -18.936  1.00  0.00    -0.022 C 
HETATM   26  C19 UNL     1     -16.181  47.597 -18.841  1.00  0.00     0.009 C 
HETATM   27  C20 UNL     1     -15.081  49.780 -18.308  1.00  0.00     0.009 C 
ENDBRANCH  24  25
ENDBRANCH  15  24
BRANCH  13  28
HETATM   28  O5  UNL     1     -16.184  46.593 -21.882  1.00  0.00    -0.359 OA
HETATM   29  H15 UNL     1     -17.055  46.469 -22.327  1.00  0.00     0.217 HD
ENDBRANCH  13  28
BRANCH  10  30
HETATM   30  C10 UNL     1     -12.058  46.791 -25.711  1.00  0.00     0.275 C 
HETATM   31  O2  UNL     1     -11.911  45.864 -26.505  1.00  0.00    -0.301 OA
ENDBRANCH  10  30
BRANCH  12  32
HETATM   32  C13 UNL     1     -16.906  46.354 -24.656  1.00  0.00     0.275 C 
HETATM   33  O4  UNL     1     -17.751  47.228 -24.469  1.00  0.00    -0.301 OA
ENDBRANCH  12  32
BRANCH  11  34
HETATM   34  O3  UNL     1     -14.813  46.501 -26.486  1.00  0.00    -0.359 OA
HETATM   35  H13 UNL     1     -13.986  46.544 -27.019  1.00  0.00     0.217 HD
ENDBRANCH  11  34
TORSDOF 6
ENDMDL
MODEL 2
REMARK minimizedAffinity -6.48351049
REMARK CNNscore 0.318633944
REMARK CNNaffinity 5.49759436
REMARK  6 active torsions:
REMARK  status: ('A' for Active; 'I' for Inactive)
REMARK    1  A    between atoms: C9_10  and  C10_11 
REMARK    2  A    between atoms: C11_13  and  O3_14 
REMARK    3  A    between atoms: C12_15  and  C13_16 
REMARK    4  A    between atoms: C14_18  and  O5_19 
REMARK    5  A    between atoms: C16_21  and  C17_22 
REMARK    6  A    between atoms: C17_22  and  C18_23 
ROOT
HETATM    1  C1  UNL     1       6.988  52.510  -8.851  1.00  0.00     0.043 C 
HETATM    2  C2  UNL     1       6.679  53.955  -8.524  1.00  0.00    -0.087 C 
HETATM    3  C3  UNL     1       6.650  54.340  -7.232  1.00  0.00    -0.024 C 
HETATM    4  C4  UNL     1       6.424  55.677  -6.587  1.00  0.00     0.030 C 
HETATM    5  C5  UNL     1       5.499  56.704  -7.243  1.00  0.00     0.042 C 
HETATM    6  C6  UNL     1       3.967  56.565  -6.997  1.00  0.00     0.069 C 
HETATM    7  C7  UNL     1       3.286  57.688  -7.805  1.00  0.00     0.047 C 
HETATM    8  O1  UNL     1       3.893  56.940  -5.572  1.00  0.00    -0.338 OA
HETATM    9  C8  UNL     1       2.634  57.066  -5.056  1.00  0.00     0.095 A 
HETATM   10  C9  UNL     1       2.420  58.049  -4.079  1.00  0.00     0.070 A 
HETATM   11  C11 UNL     1       1.125  58.292  -3.597  1.00  0.00     0.097 A 
HETATM   12  C12 UNL     1       0.054  57.555  -4.103  1.00  0.00     0.069 A 
HETATM   13  C14 UNL     1       0.288  56.551  -5.060  1.00  0.00     0.091 A 
HETATM   14  C15 UNL     1       1.590  56.257  -5.508  1.00  0.00     0.015 A 
HETATM   15  C16 UNL     1       1.877  55.120  -6.470  1.00  0.00     0.032 C 
HETATM   16  C21 UNL     1       3.333  55.148  -7.099  1.00  0.00     0.034 C 
HETATM   17  C22 UNL     1       3.361  54.238  -8.321  1.00  0.00     0.006 A 
HETATM   18  C23 UNL     1       4.034  54.202  -9.681  1.00  0.00    -0.001 A 
HETATM   19  C24 UNL     1       5.043  55.179 -10.163  1.00  0.00     0.010 C 
HETATM   20  C25 UNL     1       6.490  54.842  -9.741  1.00  0.00     0.034 C 
HETATM   21  C26 UNL     1       2.527  54.417  -9.602  1.00  0.00    -0.039 A 
HETATM   22  C27 UNL     1       1.950  55.721 -10.082  1.00  0.00     0.015 C 
HETATM   23  C28 UNL     1       1.629  53.245  -9.950  1.00  0.00     0.015 C 
ENDROOT
BRANCH  15  24
HETATM   24  C17 UNL     1       1.458  53.716  -5.914  1.00  0.00     0.014 C 
BRANCH  24  25
HETATM   25  C18 UNL     1       0.276  52.903  -6.502  1.00  0.00    -0.022 C 
HETATM   26  C19 UNL     1      -0.494  53.628  -7.607  1.00  0.00     0.009 C 
HETATM   27  C20 UNL     1      -0.697  52.323  -5.482  1.00  0.00     0.009 C 
ENDBRANCH  24  25
ENDBRANCH  15  24
BRANCH  13  28
HETATM   28  O5  UNL     1      -0.746  55.830  -5.605  1.00  0.00    -0.359 OA
HETATM   29  H15 UNL     1      -1.590  56.122  -5.188  1.00  0.00     0.217 HD
ENDBRANCH  13  28
BRANCH  10  30
HETATM   30  C10 UNL     1       3.563  58.842  -3.586  1.00  0.00     0.275 C 
HETATM   31  O2  UNL     1       3.567  60.066  -3.707  1.00  0.00    -0.301 OA
ENDBRANCH  10  30
BRANCH  12  32
HETATM   32  C13 UNL     1      -1.315  57.837  -3.624  1.00  0.00     0.275 C 
HETATM   33  O4  UNL     1      -2.111  56.920  -3.434  1.00  0.00    -0.301 OA
ENDBRANCH  12  32
BRANCH  11  34
HETATM   34  O3  UNL     1       0.874  59.254  -2.650  1.00  0.00    -0.359 OA
HETATM   35  H13 UNL     1       1.724  59.693  -2.410  1.00  0.00     0.217 HD
ENDBRANCH  11  34
TORSDOF 6
ENDMDL
MODEL 3
REMARK minimizedAffinity -7.94820881
REMARK CNNscore 0.285520196
REMARK CNNaffinity 6.60061407
REMARK  6 active torsions:
REMARK  status: ('A' for Active; 'I' for Inactive)
REMARK    1  A    between atoms: C9_10  and  C10_11 
REMARK    2  A    between atoms: C11_13  and  O3_14 
REMARK    3  A    between atoms: C12_15  and  C13_16 
REMARK    4  A    between atoms: C14_18  and  O5_19 
REMARK    5  A    between atoms: C16_21  and  C17_22 
REMARK    6  A    between atoms: C17_22  and  C18_23 
ROOT
HETATM    1  C1  UNL     1      -6.677  46.538 -23.934  1.00  0.00     0.043 C 
HETATM    2  C2  UNL     1      -6.277  47.952 -24.298  1.00  0.00    -0.087 C 
HETATM    3  C3  UNL     1      -5.144  48.149 -25.001  1.00  0.00    -0.024 C 
HETATM    4  C4  UNL     1      -4.505  49.393 -25.547  1.00  0.00     0.030 C 
HETATM    5  C5  UNL     1      -4.654  50.725 -24.810  1.00  0.00     0.042 C 
HETATM    6  C6  UNL     1      -3.692  51.008 -23.618  1.00  0.00     0.069 C 
HETATM    7  C7  UNL     1      -4.094  52.381 -23.041  1.00  0.00     0.047 C 
HETATM    8  O1  UNL     1      -2.420  51.192 -24.343  1.00  0.00    -0.338 OA
HETATM    9  C8  UNL     1      -1.361  51.610 -23.588  1.00  0.00     0.095 A 
HETATM   10  C9  UNL     1      -0.427  52.471 -24.184  1.00  0.00     0.070 A 
HETATM   11  C11 UNL     1       0.616  53.014 -23.422  1.00  0.00     0.097 A 
HETATM   12  C12 UNL     1       0.713  52.699 -22.066  1.00  0.00     0.069 A 
HETATM   13  C14 UNL     1      -0.212  51.811 -21.488  1.00  0.00     0.091 A 
HETATM   14  C15 UNL     1      -1.228  51.212 -22.257  1.00  0.00     0.015 A 
HETATM   15  C16 UNL     1      -2.180  50.182 -21.677  1.00  0.00     0.032 C 
HETATM   16  C21 UNL     1      -3.437  49.867 -22.592  1.00  0.00     0.034 C 
HETATM   17  C22 UNL     1      -4.496  49.163 -21.751  1.00  0.00     0.006 A 
HETATM   18  C23 UNL     1      -6.010  49.117 -21.659  1.00  0.00    -0.001 A 
HETATM   19  C24 UNL     1      -6.946  49.811 -22.579  1.00  0.00     0.010 C 
HETATM   20  C25 UNL     1      -7.272  49.011 -23.860  1.00  0.00     0.034 C 
HETATM   21  C26 UNL     1      -5.214  49.751 -20.523  1.00  0.00    -0.039 A 
HETATM   22  C27 UNL     1      -5.386  51.219 -20.244  1.00  0.00     0.015 C 
HETATM   23  C28 UNL     1      -5.053  48.952 -19.244  1.00  0.00     0.015 C 
ENDROOT
BRANCH  15  24
HETATM   24  C17 UNL     1      -1.455  48.901 -21.141  1.00  0.00     0.014 C 
BRANCH  24  25
HETATM   25  C18 UNL     1      -1.496  48.480 -19.648  1.00  0.00    -0.022 C 
HETATM   26  C19 UNL     1      -2.340  47.235 -19.373  1.00  0.00     0.009 C 
HETATM   27  C20 UNL     1      -1.859  49.585 -18.663  1.00  0.00     0.009 C 
ENDBRANCH  24  25
ENDBRANCH  15  24
BRANCH  13  28
HETATM   28  O5  UNL     1      -0.167  51.505 -20.150  1.00  0.00    -0.359 OA
HETATM   29  H15 UNL     1       0.600  51.972 -19.744  1.00  0.00     0.217 HD
ENDBRANCH  13  28
BRANCH  10  30
HETATM   30  C10 UNL     1      -0.572  52.820 -25.612  1.00  0.00     0.275 C 
HETATM   31  O2  UNL     1      -1.641  53.252 -26.038  1.00  0.00    -0.301 OA
ENDBRANCH  10  30
BRANCH  12  32
HETATM   32  C13 UNL     1       1.789  53.302 -21.253  1.00  0.00     0.275 C 
HETATM   33  O4  UNL     1       1.884  54.524 -21.152  1.00  0.00    -0.301 OA
ENDBRANCH  12  32
BRANCH  11  34
HETATM   34  O3  UNL     1       1.542  53.870 -23.967  1.00  0.00    -0.359 OA
HETATM   35  H13 UNL     1       1.327  54.004 -24.919  1.00  0.00     0.217 HD
ENDBRANCH  11  34
TORSDOF 6
ENDMDL
MODEL 4
REMARK minimizedAffinity -5.9346981
REMARK CNNscore 0.25582689
REMARK CNNaffinity 4.97293091
REMARK  6 active torsions:
REMARK  status: ('A' for Active; 'I' for Inactive)
REMARK    1  A    between atoms: C9_10  and  C10_11 
REMARK    2  A    between atoms: C11_13  and  O3_14 
REMARK    3  A    between atoms: C12_15  and  C13_16 
REMARK    4  A    between atoms: C14_18  and  O5_19 
REMARK    5  A    between atoms: C16_21  and  C17_22 
REMARK    6  A    between atoms: C17_22  and  C18_23 
ROOT
HETATM    1  C1  UNL     1      -8.738  44.493 -24.640  1.00  0.00     0.043 C 
HETATM    2  C2  UNL     1      -9.873  45.464 -24.883  1.00  0.00    -0.087 C 
HETATM    3  C3  UNL     1     -10.985  45.369 -24.127  1.00  0.00    -0.024 C 
HETATM    4  C4  UNL     1     -12.244  46.188 -24.084  1.00  0.00     0.030 C 
HETATM    5  C5  UNL     1     -12.783  46.841 -25.358  1.00  0.00     0.042 C 
HETATM    6  C6  UNL     1     -13.639  45.963 -26.319  1.00  0.00     0.069 C 
HETATM    7  C7  UNL     1     -14.003  46.853 -27.525  1.00  0.00     0.047 C 
HETATM    8  O1  UNL     1     -14.861  45.798 -25.510  1.00  0.00    -0.338 OA
HETATM    9  C8  UNL     1     -15.908  45.180 -26.133  1.00  0.00     0.095 A 
HETATM   10  C9  UNL     1     -17.206  45.603 -25.812  1.00  0.00     0.070 A 
HETATM   11  C11 UNL     1     -18.308  45.078 -26.502  1.00  0.00     0.097 A 
HETATM   12  C12 UNL     1     -18.101  44.140 -27.515  1.00  0.00     0.069 A 
HETATM   13  C14 UNL     1     -16.797  43.703 -27.805  1.00  0.00     0.091 A 
HETATM   14  C15 UNL     1     -15.688  44.178 -27.079  1.00  0.00     0.015 A 
HETATM   15  C16 UNL     1     -14.284  43.654 -27.313  1.00  0.00     0.032 C 
HETATM   16  C21 UNL     1     -13.142  44.524 -26.638  1.00  0.00     0.034 C 
HETATM   17  C22 UNL     1     -11.803  44.156 -27.269  1.00  0.00     0.006 A 
HETATM   18  C23 UNL     1     -10.507  44.852 -27.643  1.00  0.00    -0.001 A 
HETATM   19  C24 UNL     1     -10.184  46.273 -27.354  1.00  0.00     0.010 C 
HETATM   20  C25 UNL     1      -9.585  46.504 -25.950  1.00  0.00     0.034 C 
HETATM   21  C26 UNL     1     -11.420  44.334 -28.749  1.00  0.00    -0.039 A 
HETATM   22  C27 UNL     1     -12.054  45.320 -29.692  1.00  0.00     0.015 C 
HETATM   23  C28 UNL     1     -11.010  43.060 -29.462  1.00  0.00     0.015 C 
ENDROOT
BRANCH  15  24
HETATM   24  C17 UNL     1     -14.143  42.116 -27.046  1.00  0.00     0.014 C 
BRANCH  24  25
HETATM   25  C18 UNL     1     -14.178  41.064 -28.185  1.00  0.00    -0.022 C 
HETATM   26  C19 UNL     1     -15.200  39.946 -27.973  1.00  0.00     0.009 C 
HETATM   27  C20 UNL     1     -12.829  40.471 -28.575  1.00  0.00     0.009 C 
ENDBRANCH  24  25
ENDBRANCH  15  24
BRANCH  13  28
HETATM   28  O5  UNL     1     -16.554  42.807 -28.817  1.00  0.00    -0.359 OA
HETATM   29  H15 UNL     1     -17.413  42.544 -29.221  1.00  0.00     0.217 HD
ENDBRANCH  13  28
BRANCH  10  30
HETATM   30  C10 UNL     1     -17.397  46.624 -24.763  1.00  0.00     0.275 C 
HETATM   31  O2  UNL     1     -18.298  47.455 -24.864  1.00  0.00    -0.301 OA
ENDBRANCH  10  30
BRANCH  12  32
HETATM   32  C13 UNL     1     -19.259  43.615 -28.269  1.00  0.00     0.275 C 
HETATM   33  O4  UNL     1     -20.141  42.980 -27.695  1.00  0.00    -0.301 OA
ENDBRANCH  12  32
BRANCH  11  34
HETATM   34  O3  UNL     1     -19.593  45.476 -26.225  1.00  0.00    -0.359 OA
HETATM   35  H13 UNL     1     -19.568  46.148 -25.505  1.00  0.00     0.217 HD
ENDBRANCH  11  34
TORSDOF 6
ENDMDL
MODEL 5
REMARK minimizedAffinity -8.33902264
REMARK CNNscore 0.25370729
REMARK CNNaffinity 6.26993799
REMARK  6 active torsions:
REMARK  status: ('A' for Active; 'I' for Inactive)
REMARK    1  A    between atoms: C9_10  and  C10_11 
REMARK    2  A    between atoms: C11_13  and  O3_14 
REMARK    3  A    between atoms: C12_15  and  C13_16 
REMARK    4  A    between atoms: C14_18  and  O5_19 
REMARK    5  A    between atoms: C16_21  and  C17_22 
REMARK    6  A    between atoms: C17_22  and  C18_23 
ROOT
HETATM    1  C1  UNL     1      -2.731  48.287 -27.055  1.00  0.00     0.043 C 
HETATM    2  C2  UNL     1      -2.456  49.607 -26.367  1.00  0.00    -0.087 C 
HETATM    3  C3  UNL     1      -1.215  49.854 -25.903  1.00  0.00    -0.024 C 
HETATM    4  C4  UNL     1      -0.616  51.056 -25.229  1.00  0.00     0.030 C 
HETATM    5  C5  UNL     1      -1.474  51.940 -24.323  1.00  0.00     0.042 C 
HETATM    6  C6  UNL     1      -1.685  51.482 -22.849  1.00  0.00     0.069 C 
HETATM    7  C7  UNL     1      -2.616  52.523 -22.192  1.00  0.00     0.047 C 
HETATM    8  O1  UNL     1      -0.331  51.699 -22.307  1.00  0.00    -0.338 OA
HETATM    9  C8  UNL     1      -0.195  51.529 -20.959  1.00  0.00     0.095 A 
HETATM   10  C9  UNL     1       0.712  52.355 -20.279  1.00  0.00     0.070 A 
HETATM   11  C11 UNL     1       0.809  52.295 -18.882  1.00  0.00     0.097 A 
HETATM   12  C12 UNL     1      -0.010  51.414 -18.174  1.00  0.00     0.069 A 
HETATM   13  C14 UNL     1      -0.894  50.570 -18.870  1.00  0.00     0.091 A 
HETATM   14  C15 UNL     1      -0.957  50.579 -20.276  1.00  0.00     0.015 A 
HETATM   15  C16 UNL     1      -1.835  49.616 -21.053  1.00  0.00     0.032 C 
HETATM   16  C21 UNL     1      -2.016  49.985 -22.584  1.00  0.00     0.034 C 
HETATM   17  C22 UNL     1      -3.209  49.218 -23.141  1.00  0.00     0.006 A 
HETATM   18  C23 UNL     1      -4.318  49.442 -24.154  1.00  0.00    -0.001 A 
HETATM   19  C24 UNL     1      -4.454  50.638 -25.023  1.00  0.00     0.010 C 
HETATM   20  C25 UNL     1      -3.644  50.550 -26.336  1.00  0.00     0.034 C 
HETATM   21  C26 UNL     1      -4.670  49.351 -22.673  1.00  0.00    -0.039 A 
HETATM   22  C27 UNL     1      -5.249  50.557 -21.985  1.00  0.00     0.015 C 
HETATM   23  C28 UNL     1      -5.302  48.065 -22.177  1.00  0.00     0.015 C 
ENDROOT
BRANCH  15  24
HETATM   24  C17 UNL     1      -1.473  48.111 -20.807  1.00  0.00     0.014 C 
BRANCH  24  25
HETATM   25  C18 UNL     1      -2.449  47.117 -20.126  1.00  0.00    -0.022 C 
HETATM   26  C19 UNL     1      -3.044  46.076 -21.075  1.00  0.00     0.009 C 
HETATM   27  C20 UNL     1      -3.552  47.748 -19.284  1.00  0.00     0.009 C 
ENDBRANCH  24  25
ENDBRANCH  15  24
BRANCH  13  28
HETATM   28  O5  UNL     1      -1.738  49.717 -18.204  1.00  0.00    -0.359 OA
HETATM   29  H15 UNL     1      -1.572  49.798 -17.236  1.00  0.00     0.217 HD
ENDBRANCH  13  28
BRANCH  10  30
HETATM   30  C10 UNL     1       1.542  53.305 -21.047  1.00  0.00     0.275 C 
HETATM   31  O2  UNL     1       1.635  54.477 -20.687  1.00  0.00    -0.301 OA
ENDBRANCH  10  30
BRANCH  12  32
HETATM   32  C13 UNL     1       0.063  51.378 -16.698  1.00  0.00     0.275 C 
HETATM   33  O4  UNL     1       0.188  50.308 -16.106  1.00  0.00    -0.301 OA
ENDBRANCH  12  32
BRANCH  11  34
HETATM   34  O3  UNL     1       1.676  53.095 -18.181  1.00  0.00    -0.359 OA
HETATM   35  H13 UNL     1       2.166  53.667 -18.818  1.00  0.00     0.217 HD
ENDBRANCH  11  34
TORSDOF 6
ENDMDL
MODEL 6
REMARK minimizedAffinity -7.8407259
REMARK CNNscore 0.243766665
REMARK CNNaffinity 5.93881559
REMARK  6 active torsions:
REMARK  status: ('A' for Active; 'I' for Inactive)
REMARK    1  A    between atoms: C9_10  and  C10_11 
REMARK    2  A    between atoms: C11_13  and  O3_14 
REMARK    3  A    between atoms: C12_15  and  C13_16 
REMARK    4  A    between atoms: C14_18  and  O5_19 
REMARK    5  A    between atoms: C16_21  and  C17_22 
REMARK    6  A    between atoms: C17_22  and  C18_23 
ROOT
HETATM    1  C1  UNL     1      -7.666  44.537 -20.107  1.00  0.00     0.043 C 
HETATM    2  C2  UNL     1      -7.839  45.486 -21.272  1.00  0.00    -0.087 C 
HETATM    3  C3  UNL     1      -7.243  45.195 -22.446  1.00  0.00    -0.024 C 
HETATM    4  C4  UNL     1      -7.254  45.889 -23.778  1.00  0.00     0.030 C 
HETATM    5  C5  UNL     1      -7.371  47.413 -23.853  1.00  0.00     0.042 C 
HETATM    6  C6  UNL     1      -6.073  48.253 -23.664  1.00  0.00     0.069 C 
HETATM    7  C7  UNL     1      -6.491  49.736 -23.740  1.00  0.00     0.047 C 
HETATM    8  O1  UNL     1      -5.365  47.930 -24.917  1.00  0.00    -0.338 OA
HETATM    9  C8  UNL     1      -4.217  48.634 -25.149  1.00  0.00     0.095 A 
HETATM   10  C9  UNL     1      -3.906  48.965 -26.476  1.00  0.00     0.070 A 
HETATM   11  C11 UNL     1      -2.799  49.779 -26.758  1.00  0.00     0.097 A 
HETATM   12  C12 UNL     1      -2.017  50.263 -25.708  1.00  0.00     0.069 A 
HETATM   13  C14 UNL     1      -2.323  49.898 -24.384  1.00  0.00     0.091 A 
HETATM   14  C15 UNL     1      -3.395  49.034 -24.094  1.00  0.00     0.015 A 
HETATM   15  C16 UNL     1      -3.689  48.554 -22.685  1.00  0.00     0.032 C 
HETATM   16  C21 UNL     1      -5.104  47.858 -22.513  1.00  0.00     0.034 C 
HETATM   17  C22 UNL     1      -5.449  47.801 -21.029  1.00  0.00     0.006 A 
HETATM   18  C23 UNL     1      -6.689  47.901 -20.158  1.00  0.00    -0.001 A 
HETATM   19  C24 UNL     1      -8.081  48.022 -20.661  1.00  0.00     0.010 C 
HETATM   20  C25 UNL     1      -8.748  46.666 -20.982  1.00  0.00     0.034 C 
HETATM   21  C26 UNL     1      -5.644  49.010 -20.097  1.00  0.00    -0.039 A 
HETATM   22  C27 UNL     1      -6.025  50.394 -20.548  1.00  0.00     0.015 C 
HETATM   23  C28 UNL     1      -4.723  49.046 -18.893  1.00  0.00     0.015 C 
ENDROOT
BRANCH  15  24
HETATM   24  C17 UNL     1      -2.508  47.745 -22.047  1.00  0.00     0.014 C 
BRANCH  24  25
HETATM   25  C18 UNL     1      -1.645  48.302 -20.884  1.00  0.00    -0.022 C 
HETATM   26  C19 UNL     1      -2.439  48.636 -19.621  1.00  0.00     0.009 C 
HETATM   27  C20 UNL     1      -0.725  49.463 -21.245  1.00  0.00     0.009 C 
ENDBRANCH  24  25
ENDBRANCH  15  24
BRANCH  13  28
HETATM   28  O5  UNL     1      -1.596  50.383 -23.325  1.00  0.00    -0.359 OA
HETATM   29  H15 UNL     1      -0.870  50.951 -23.673  1.00  0.00     0.217 HD
ENDBRANCH  13  28
BRANCH  10  30
HETATM   30  C10 UNL     1      -4.770  48.473 -27.568  1.00  0.00     0.275 C 
HETATM   31  O2  UNL     1      -4.288  48.204 -28.666  1.00  0.00    -0.301 OA
ENDBRANCH  10  30
BRANCH  12  32
HETATM   32  C13 UNL     1      -0.874  51.152 -26.001  1.00  0.00     0.275 C 
HETATM   33  O4  UNL     1      -1.062  52.282 -26.447  1.00  0.00    -0.301 OA
ENDBRANCH  12  32
BRANCH  11  34
HETATM   34  O3  UNL     1      -2.470  50.135 -28.042  1.00  0.00    -0.359 OA
HETATM   35  H13 UNL     1      -3.123  49.731 -28.661  1.00  0.00     0.217 HD
ENDBRANCH  11  34
TORSDOF 6
ENDMDL
MODEL 7
REMARK minimizedAffinity -8.3252573
REMARK CNNscore 0.229746386
REMARK CNNaffinity 6.30980635
REMARK  6 active torsions:
REMARK  status: ('A' for Active; 'I' for Inactive)
REMARK    1  A    between atoms: C9_10  and  C10_11 
REMARK    2  A    between atoms: C11_13  and  O3_14 
REMARK    3  A    between atoms: C12_15  and  C13_16 
REMARK    4  A    between atoms: C14_18  and  O5_19 
REMARK    5  A    between atoms: C16_21  and  C17_22 
REMARK    6  A    between atoms: C17_22  and  C18_23 
ROOT
HETATM    1  C1  UNL     1      -7.754  47.821 -20.356  1.00  0.00     0.043 C 
HETATM    2  C2  UNL     1      -6.394  47.703 -19.702  1.00  0.00    -0.087 C 
HETATM    3  C3  UNL     1      -5.996  48.665 -18.846  1.00  0.00    -0.024 C 
HETATM    4  C4  UNL     1      -4.754  48.820 -18.015  1.00  0.00     0.030 C 
HETATM    5  C5  UNL     1      -3.417  48.270 -18.517  1.00  0.00     0.042 C 
HETATM    6  C6  UNL     1      -2.601  49.143 -19.517  1.00  0.00     0.069 C 
HETATM    7  C7  UNL     1      -1.341  48.333 -19.885  1.00  0.00     0.047 C 
HETATM    8  O1  UNL     1      -2.176  50.239 -18.626  1.00  0.00    -0.338 OA
HETATM    9  C8  UNL     1      -1.295  51.134 -19.164  1.00  0.00     0.095 A 
HETATM   10  C9  UNL     1      -0.324  51.691 -18.318  1.00  0.00     0.070 A 
HETATM   11  C11 UNL     1       0.669  52.530 -18.843  1.00  0.00     0.097 A 
HETATM   12  C12 UNL     1       0.688  52.798 -20.213  1.00  0.00     0.069 A 
HETATM   13  C14 UNL     1      -0.309  52.257 -21.044  1.00  0.00     0.091 A 
HETATM   14  C15 UNL     1      -1.345  51.463 -20.520  1.00  0.00     0.015 A 
HETATM   15  C16 UNL     1      -2.482  50.944 -21.381  1.00  0.00     0.032 C 
HETATM   16  C21 UNL     1      -3.363  49.820 -20.692  1.00  0.00     0.034 C 
HETATM   17  C22 UNL     1      -4.178  49.105 -21.764  1.00  0.00     0.006 A 
HETATM   18  C23 UNL     1      -4.685  47.701 -22.041  1.00  0.00    -0.001 A 
HETATM   19  C24 UNL     1      -4.532  46.539 -21.129  1.00  0.00     0.010 C 
HETATM   20  C25 UNL     1      -5.641  46.435 -20.059  1.00  0.00     0.034 C 
HETATM   21  C26 UNL     1      -3.610  48.296 -22.944  1.00  0.00    -0.039 A 
HETATM   22  C27 UNL     1      -2.249  47.656 -22.976  1.00  0.00     0.015 C 
HETATM   23  C28 UNL     1      -4.033  48.784 -24.317  1.00  0.00     0.015 C 
ENDROOT
BRANCH  15  24
HETATM   24  C17 UNL     1      -3.325  52.085 -22.048  1.00  0.00     0.014 C 
BRANCH  24  25
HETATM   25  C18 UNL     1      -3.401  52.279 -23.585  1.00  0.00    -0.022 C 
HETATM   26  C19 UNL     1      -4.791  52.044 -24.177  1.00  0.00     0.009 C 
HETATM   27  C20 UNL     1      -2.353  51.526 -24.396  1.00  0.00     0.009 C 
ENDBRANCH  24  25
ENDBRANCH  15  24
BRANCH  13  28
HETATM   28  O5  UNL     1      -0.300  52.472 -22.400  1.00  0.00    -0.359 OA
HETATM   29  H15 UNL     1       0.460  53.058 -22.624  1.00  0.00     0.217 HD
ENDBRANCH  13  28
BRANCH  10  30
HETATM   30  C10 UNL     1      -0.343  51.363 -16.879  1.00  0.00     0.275 C 
HETATM   31  O2  UNL     1       0.702  51.095 -16.291  1.00  0.00    -0.301 OA
ENDBRANCH  10  30
BRANCH  12  32
HETATM   32  C13 UNL     1       1.758  53.650 -20.773  1.00  0.00     0.275 C 
HETATM   33  O4  UNL     1       1.479  54.663 -21.410  1.00  0.00    -0.301 OA
ENDBRANCH  12  32
BRANCH  11  34
HETATM   34  O3  UNL     1       1.643  53.084 -18.050  1.00  0.00    -0.359 OA
HETATM   35  H13 UNL     1       1.501  52.787 -17.120  1.00  0.00     0.217 HD
ENDBRANCH  11  34
TORSDOF 6
ENDMDL
MODEL 8
REMARK minimizedAffinity -7.26240206
REMARK CNNscore 0.216712564
REMARK CNNaffinity 6.13650131
REMARK  6 active torsions:
REMARK  status: ('A' for Active; 'I' for Inactive)
REMARK    1  A    between atoms: C9_10  and  C10_11 
REMARK    2  A    between atoms: C11_13  and  O3_14 
REMARK    3  A    between atoms: C12_15  and  C13_16 
REMARK    4  A    between atoms: C14_18  and  O5_19 
REMARK    5  A    between atoms: C16_21  and  C17_22 
REMARK    6  A    between atoms: C17_22  and  C18_23 
ROOT
HETATM    1  C1  UNL     1      -7.199  46.518 -24.340  1.00  0.00     0.043 C 
HETATM    2  C2  UNL     1      -6.609  47.911 -24.337  1.00  0.00    -0.087 C 
HETATM    3  C3  UNL     1      -5.295  48.064 -24.599  1.00  0.00    -0.024 C 
HETATM    4  C4  UNL     1      -4.429  49.286 -24.715  1.00  0.00     0.030 C 
HETATM    5  C5  UNL     1      -4.730  50.527 -23.873  1.00  0.00     0.042 C 
HETATM    6  C6  UNL     1      -4.206  50.555 -22.406  1.00  0.00     0.069 C 
HETATM    7  C7  UNL     1      -4.689  51.885 -21.790  1.00  0.00     0.047 C 
HETATM    8  O1  UNL     1      -2.756  50.682 -22.645  1.00  0.00    -0.338 OA
HETATM    9  C8  UNL     1      -1.987  50.885 -21.535  1.00  0.00     0.095 A 
HETATM   10  C9  UNL     1      -0.853  51.702 -21.661  1.00  0.00     0.070 A 
HETATM   11  C11 UNL     1      -0.092  52.029 -20.529  1.00  0.00     0.097 A 
HETATM   12  C12 UNL     1      -0.477  51.544 -19.279  1.00  0.00     0.069 A 
HETATM   13  C14 UNL     1      -1.598  50.701 -19.172  1.00  0.00     0.091 A 
HETATM   14  C15 UNL     1      -2.334  50.317 -20.308  1.00  0.00     0.015 A 
HETATM   15  C16 UNL     1      -3.490  49.337 -20.230  1.00  0.00     0.032 C 
HETATM   16  C21 UNL     1      -4.386  49.278 -21.538  1.00  0.00     0.034 C 
HETATM   17  C22 UNL     1      -5.709  48.600 -21.200  1.00  0.00     0.006 A 
HETATM   18  C23 UNL     1      -7.166  48.712 -21.610  1.00  0.00    -0.001 A 
HETATM   19  C24 UNL     1      -7.692  49.613 -22.667  1.00  0.00     0.010 C 
HETATM   20  C25 UNL     1      -7.621  49.014 -24.089  1.00  0.00     0.034 C 
HETATM   21  C26 UNL     1      -6.758  49.111 -20.196  1.00  0.00    -0.039 A 
HETATM   22  C27 UNL     1      -6.916  50.545 -19.769  1.00  0.00     0.015 C 
HETATM   23  C28 UNL     1      -7.087  48.151 -19.069  1.00  0.00     0.015 C 
ENDROOT
BRANCH  15  24
HETATM   24  C17 UNL     1      -3.073  47.927 -19.687  1.00  0.00     0.014 C 
BRANCH  24  25
HETATM   25  C18 UNL     1      -2.667  46.759 -20.623  1.00  0.00    -0.022 C 
HETATM   26  C19 UNL     1      -1.999  47.203 -21.925  1.00  0.00     0.009 C 
HETATM   27  C20 UNL     1      -3.763  45.741 -20.919  1.00  0.00     0.009 C 
ENDBRANCH  24  25
ENDBRANCH  15  24
BRANCH  13  28
HETATM   28  O5  UNL     1      -2.024  50.233 -17.953  1.00  0.00    -0.359 OA
HETATM   29  H15 UNL     1      -1.409  50.559 -17.256  1.00  0.00     0.217 HD
ENDBRANCH  13  28
BRANCH  10  30
HETATM   30  C10 UNL     1      -0.488  52.234 -22.989  1.00  0.00     0.275 C 
HETATM   31  O2  UNL     1       0.597  52.787 -23.157  1.00  0.00    -0.301 OA
ENDBRANCH  10  30
BRANCH  12  32
HETATM   32  C13 UNL     1       0.302  51.920 -18.081  1.00  0.00     0.275 C 
HETATM   33  O4  UNL     1       1.298  52.632 -18.183  1.00  0.00    -0.301 OA
ENDBRANCH  12  32
BRANCH  11  34
HETATM   34  O3  UNL     1       1.016  52.836 -20.611  1.00  0.00    -0.359 OA
HETATM   35  H13 UNL     1       1.143  53.107 -21.550  1.00  0.00     0.217 HD
ENDBRANCH  11  34
TORSDOF 6
ENDMDL
MODEL 9
REMARK minimizedAffinity -7.25001097
REMARK CNNscore 0.213332787
REMARK CNNaffinity 5.90545511
REMARK  6 active torsions:
REMARK  status: ('A' for Active; 'I' for Inactive)
REMARK    1  A    between atoms: C9_10  and  C10_11 
REMARK    2  A    between atoms: C11_13  and  O3_14 
REMARK    3  A    between atoms: C12_15  and  C13_16 
REMARK    4  A    between atoms: C14_18  and  O5_19 
REMARK    5  A    between atoms: C16_21  and  C17_22 
REMARK    6  A    between atoms: C17_22  and  C18_23 
ROOT
HETATM    1  C1  UNL     1      -0.811  48.229 -20.543  1.00  0.00     0.043 C 
HETATM    2  C2  UNL     1      -2.150  47.559 -20.316  1.00  0.00    -0.087 C 
HETATM    3  C3  UNL     1      -2.535  46.572 -21.150  1.00  0.00    -0.024 C 
HETATM    4  C4  UNL     1      -3.754  45.695 -21.172  1.00  0.00     0.030 C 
HETATM    5  C5  UNL     1      -5.097  46.227 -20.670  1.00  0.00     0.042 C 
HETATM    6  C6  UNL     1      -5.954  47.080 -21.654  1.00  0.00     0.069 C 
HETATM    7  C7  UNL     1      -7.214  47.516 -20.878  1.00  0.00     0.047 C 
HETATM    8  O1  UNL     1      -6.368  46.040 -22.614  1.00  0.00    -0.338 OA
HETATM    9  C8  UNL     1      -7.276  46.429 -23.557  1.00  0.00     0.095 A 
HETATM   10  C9  UNL     1      -8.228  45.490 -23.981  1.00  0.00     0.070 A 
HETATM   11  C11 UNL     1      -9.248  45.871 -24.865  1.00  0.00     0.097 A 
HETATM   12  C12 UNL     1      -9.312  47.192 -25.311  1.00  0.00     0.069 A 
HETATM   13  C14 UNL     1      -8.333  48.115 -24.902  1.00  0.00     0.091 A 
HETATM   14  C15 UNL     1      -7.270  47.730 -24.064  1.00  0.00     0.015 A 
HETATM   15  C16 UNL     1      -6.154  48.684 -23.683  1.00  0.00     0.032 C 
HETATM   16  C21 UNL     1      -5.237  48.175 -22.493  1.00  0.00     0.034 C 
HETATM   17  C22 UNL     1      -4.445  49.355 -21.941  1.00  0.00     0.006 A 
HETATM   18  C23 UNL     1      -3.927  49.830 -20.595  1.00  0.00    -0.001 A 
HETATM   19  C24 UNL     1      -4.038  49.076 -19.320  1.00  0.00     0.010 C 
HETATM   20  C25 UNL     1      -2.896  48.061 -19.094  1.00  0.00     0.034 C 
HETATM   21  C26 UNL     1      -5.037  50.616 -21.286  1.00  0.00    -0.039 A 
HETATM   22  C27 UNL     1      -6.389  50.694 -20.632  1.00  0.00     0.015 C 
HETATM   23  C28 UNL     1      -4.661  51.922 -21.958  1.00  0.00     0.015 C 
ENDROOT
BRANCH  15  24
HETATM   24  C17 UNL     1      -5.346  49.216 -24.917  1.00  0.00     0.014 C 
BRANCH  24  25
HETATM   25  C18 UNL     1      -4.305  48.350 -25.671  1.00  0.00    -0.022 C 
HETATM   26  C19 UNL     1      -2.857  48.604 -25.250  1.00  0.00     0.009 C 
HETATM   27  C20 UNL     1      -4.416  48.361 -27.191  1.00  0.00     0.009 C 
ENDBRANCH  24  25
ENDBRANCH  15  24
BRANCH  13  28
HETATM   28  O5  UNL     1      -8.385  49.430 -25.295  1.00  0.00    -0.359 OA
HETATM   29  H15 UNL     1      -9.159  49.552 -25.892  1.00  0.00     0.217 HD
ENDBRANCH  13  28
BRANCH  10  30
HETATM   30  C10 UNL     1      -8.162  44.108 -23.465  1.00  0.00     0.275 C 
HETATM   31  O2  UNL     1      -7.750  43.199 -24.182  1.00  0.00    -0.301 OA
ENDBRANCH  10  30
BRANCH  12  32
HETATM   32  C13 UNL     1     -10.409  47.604 -26.211  1.00  0.00     0.275 C 
HETATM   33  O4  UNL     1     -11.239  48.432 -25.844  1.00  0.00    -0.301 OA
ENDBRANCH  12  32
BRANCH  11  34
HETATM   34  O3  UNL     1     -10.205  44.984 -25.292  1.00  0.00    -0.359 OA
HETATM   35  H13 UNL     1     -10.032  44.107 -24.877  1.00  0.00     0.217 HD
ENDBRANCH  11  34
TORSDOF 6
ENDMDL
