MODEL 1
REMARK minimizedAffinity -8.36229515
REMARK CNNscore 0.551377535
REMARK CNNaffinity 7.08291626
REMARK  7 active torsions:
REMARK  status: ('A' for Active; 'I' for Inactive)
REMARK    1  A    between atoms: C2_2  and  C30_32 
REMARK    2  A    between atoms: C3_3  and  C4_4 
REMARK    3  A    between atoms: C4_4  and  O1_5 
REMARK    4  A    between atoms: C4_4  and  C5_6 
REMARK    5  A    between atoms: C5_6  and  C6_7 
REMARK    6  A    between atoms: C6_7  and  C8_9 
REMARK    7  A    between atoms: C30_32  and  O4_34 
ROOT
HETATM    1  C8  UNL     1      -8.660   6.586  14.564  1.00  0.00    -0.002 C 
HETATM    2  C9  UNL     1      -9.163   5.985  13.219  1.00  0.00     0.006 C 
HETATM    3  C10 UNL     1      -7.951   5.376  12.496  1.00  0.00     0.011 C 
HETATM    4  C11 UNL     1      -6.828   5.349  13.551  1.00  0.00    -0.032 C 
HETATM    5  C12 UNL     1      -7.038   4.046  14.385  1.00  0.00     0.016 C 
HETATM    6  C13 UNL     1      -5.396   5.387  12.951  1.00  0.00     0.004 C 
HETATM    7  C14 UNL     1      -4.966   4.076  12.274  1.00  0.00     0.007 C 
HETATM    8  C15 UNL     1      -3.595   4.249  11.629  1.00  0.00     0.007 C 
HETATM    9  C16 UNL     1      -2.507   4.411  12.701  1.00  0.00     0.010 C 
HETATM   10  C17 UNL     1      -1.054   4.620  12.154  1.00  0.00     0.018 C 
HETATM   11  C18 UNL     1      -0.301   3.273  12.154  1.00  0.00     0.023 C 
HETATM   12  C19 UNL     1      -1.024   5.183  10.716  1.00  0.00     0.023 C 
HETATM   13  C20 UNL     1      -0.239   5.576  13.046  1.00  0.00     0.135 C 
HETATM   14  O2  UNL     1       0.683   6.259  12.584  1.00  0.00    -0.297 OA
HETATM   15  C21 UNL     1      -0.478   5.589  14.542  1.00  0.00     0.080 C 
HETATM   16  C22 UNL     1      -1.916   5.300  14.951  1.00  0.00     0.018 C 
HETATM   17  C23 UNL     1      -2.860   5.439  13.776  1.00  0.00    -0.026 A 
HETATM   18  C24 UNL     1      -3.293   6.833  13.414  1.00  0.00     0.021 A 
HETATM   19  C25 UNL     1      -4.336   5.872  13.974  1.00  0.00    -0.027 A 
HETATM   20  C26 UNL     1      -4.822   6.107  15.408  1.00  0.00     0.011 C 
HETATM   21  C27 UNL     1      -6.231   6.695  15.593  1.00  0.00     0.011 C 
HETATM   22  C28 UNL     1      -7.113   6.682  14.336  1.00  0.00    -0.032 C 
HETATM   23  C29 UNL     1      -6.804   7.977  13.525  1.00  0.00     0.016 C 
ENDROOT
BRANCH   1  24
HETATM   24  C6  UNL     1      -9.474   7.848  14.991  1.00  0.00    -0.011 C 
HETATM   25  C7  UNL     1      -9.495   8.026  16.514  1.00  0.00     0.010 C 
BRANCH  24  26
HETATM   26  C5  UNL     1     -10.928   7.756  14.450  1.00  0.00     0.040 C 
BRANCH  26  27
HETATM   27  C4  UNL     1     -11.957   8.709  15.084  1.00  0.00     0.142 C 
BRANCH  27  28
HETATM   28  C3  UNL     1     -12.887   9.341  14.088  1.00  0.00     0.018 C 
HETATM   29  C2  UNL     1     -13.832   8.757  13.316  1.00  0.00     0.010 C 
HETATM   30  C1  UNL     1     -14.114   7.285  13.247  1.00  0.00     0.055 C 
BRANCH  29  31
HETATM   31  C30 UNL     1     -14.691   9.576  12.419  1.00  0.00     0.171 C 
HETATM   32  O3  UNL     1     -14.871  10.777  12.513  1.00  0.00    -0.646 OA
BRANCH  31  33
HETATM   33  O4  UNL     1     -15.293   8.871  11.445  1.00  0.00    -0.773 OA
HETATM   34  H46 UNL     1     -15.801   9.550  10.956  1.00  0.00     0.167 HD
ENDBRANCH  31  33
ENDBRANCH  29  31
ENDBRANCH  27  28
BRANCH  27  35
HETATM   35  O1  UNL     1     -12.718   7.999  16.057  1.00  0.00    -0.392 OA
HETATM   36  H6  UNL     1     -12.093   7.655  16.717  1.00  0.00     0.210 HD
ENDBRANCH  27  35
ENDBRANCH  26  27
ENDBRANCH  24  26
ENDBRANCH   1  24
TORSDOF 7
ENDMDL
MODEL 2
REMARK minimizedAffinity -7.19606447
REMARK CNNscore 0.498366803
REMARK CNNaffinity 6.58962584
REMARK  7 active torsions:
REMARK  status: ('A' for Active; 'I' for Inactive)
REMARK    1  A    between atoms: C2_2  and  C30_32 
REMARK    2  A    between atoms: C3_3  and  C4_4 
REMARK    3  A    between atoms: C4_4  and  O1_5 
REMARK    4  A    between atoms: C4_4  and  C5_6 
REMARK    5  A    between atoms: C5_6  and  C6_7 
REMARK    6  A    between atoms: C6_7  and  C8_9 
REMARK    7  A    between atoms: C30_32  and  O4_34 
ROOT
HETATM    1  C8  UNL     1       1.770  12.269  17.960  1.00  0.00    -0.002 C 
HETATM    2  C9  UNL     1       2.830  11.131  17.893  1.00  0.00     0.006 C 
HETATM    3  C10 UNL     1       2.184   9.931  17.181  1.00  0.00     0.011 C 
HETATM    4  C11 UNL     1       0.881  10.482  16.570  1.00  0.00    -0.032 C 
HETATM    5  C12 UNL     1       1.275  11.133  15.207  1.00  0.00     0.016 C 
HETATM    6  C13 UNL     1      -0.223   9.410  16.364  1.00  0.00     0.004 C 
HETATM    7  C14 UNL     1       0.058   8.437  15.208  1.00  0.00     0.007 C 
HETATM    8  C15 UNL     1      -1.026   7.365  15.155  1.00  0.00     0.007 C 
HETATM    9  C16 UNL     1      -2.369   7.973  14.724  1.00  0.00     0.010 C 
HETATM   10  C17 UNL     1      -3.568   6.967  14.656  1.00  0.00     0.018 C 
HETATM   11  C18 UNL     1      -3.764   6.491  13.201  1.00  0.00     0.023 C 
HETATM   12  C19 UNL     1      -3.361   5.719  15.542  1.00  0.00     0.023 C 
HETATM   13  C20 UNL     1      -4.894   7.627  15.082  1.00  0.00     0.135 C 
HETATM   14  O2  UNL     1      -5.813   6.964  15.578  1.00  0.00    -0.297 OA
HETATM   15  C21 UNL     1      -5.134   9.090  14.771  1.00  0.00     0.080 C 
HETATM   16  C22 UNL     1      -3.879   9.952  14.797  1.00  0.00     0.018 C 
HETATM   17  C23 UNL     1      -2.738   9.241  15.493  1.00  0.00    -0.026 A 
HETATM   18  C24 UNL     1      -2.735   9.274  16.997  1.00  0.00     0.021 A 
HETATM   19  C25 UNL     1      -1.640  10.030  16.252  1.00  0.00    -0.027 A 
HETATM   20  C26 UNL     1      -1.720  11.560  16.232  1.00  0.00     0.011 C 
HETATM   21  C27 UNL     1      -0.732  12.335  17.119  1.00  0.00     0.011 C 
HETATM   22  C28 UNL     1       0.432  11.504  17.678  1.00  0.00    -0.032 C 
HETATM   23  C29 UNL     1      -0.053  10.837  19.001  1.00  0.00     0.016 C 
ENDROOT
BRANCH   1  24
HETATM   24  C6  UNL     1       1.922  13.146  19.242  1.00  0.00    -0.011 C 
HETATM   25  C7  UNL     1       2.011  14.640  18.905  1.00  0.00     0.010 C 
BRANCH  24  26
HETATM   26  C5  UNL     1       3.180  12.710  20.044  1.00  0.00     0.040 C 
BRANCH  26  27
HETATM   27  C4  UNL     1       2.985  12.479  21.553  1.00  0.00     0.142 C 
BRANCH  27  28
HETATM   28  C3  UNL     1       2.489  11.103  21.894  1.00  0.00     0.018 C 
HETATM   29  C2  UNL     1       3.119  10.113  22.567  1.00  0.00     0.010 C 
HETATM   30  C1  UNL     1       4.529  10.166  23.078  1.00  0.00     0.055 C 
BRANCH  29  31
HETATM   31  C30 UNL     1       2.428   8.826  22.844  1.00  0.00     0.171 C 
HETATM   32  O3  UNL     1       1.996   8.058  22.003  1.00  0.00    -0.646 OA
BRANCH  31  33
HETATM   33  O4  UNL     1       2.298   8.545  24.153  1.00  0.00    -0.773 OA
HETATM   34  H46 UNL     1       1.838   7.680  24.154  1.00  0.00     0.167 HD
ENDBRANCH  31  33
ENDBRANCH  29  31
ENDBRANCH  27  28
BRANCH  27  35
HETATM   35  O1  UNL     1       4.217  12.717  22.228  1.00  0.00    -0.392 OA
HETATM   36  H6  UNL     1       4.479  13.634  22.035  1.00  0.00     0.210 HD
ENDBRANCH  27  35
ENDBRANCH  26  27
ENDBRANCH  24  26
ENDBRANCH   1  24
TORSDOF 7
ENDMDL
MODEL 3
REMARK minimizedAffinity -9.15651703
REMARK CNNscore 0.449988693
REMARK CNNaffinity 7.11021948
REMARK  7 active torsions:
REMARK  status: ('A' for Active; 'I' for Inactive)
REMARK    1  A    between atoms: C2_2  and  C30_32 
REMARK    2  A    between atoms: C3_3  and  C4_4 
REMARK    3  A    between atoms: C4_4  and  O1_5 
REMARK    4  A    between atoms: C4_4  and  C5_6 
REMARK    5  A    between atoms: C5_6  and  C6_7 
REMARK    6  A    between atoms: C6_7  and  C8_9 
REMARK    7  A    between atoms: C30_32  and  O4_34 
ROOT
HETATM    1  C8  UNL     1       0.306   8.119  12.993  1.00  0.00    -0.002 C 
HETATM    2  C9  UNL     1       0.394   9.443  13.806  1.00  0.00     0.006 C 
HETATM    3  C10 UNL     1      -0.944   9.634  14.538  1.00  0.00     0.011 C 
HETATM    4  C11 UNL     1      -1.673   8.283  14.399  1.00  0.00    -0.032 C 
HETATM    5  C12 UNL     1      -1.128   7.369  15.541  1.00  0.00     0.016 C 
HETATM    6  C13 UNL     1      -3.220   8.388  14.474  1.00  0.00     0.004 C 
HETATM    7  C14 UNL     1      -3.759   8.678  15.883  1.00  0.00     0.007 C 
HETATM    8  C15 UNL     1      -5.272   8.866  15.833  1.00  0.00     0.007 C 
HETATM    9  C16 UNL     1      -5.973   7.540  15.504  1.00  0.00     0.010 C 
HETATM   10  C17 UNL     1      -7.534   7.615  15.402  1.00  0.00     0.018 C 
HETATM   11  C18 UNL     1      -8.163   7.163  16.737  1.00  0.00     0.023 C 
HETATM   12  C19 UNL     1      -8.052   9.036  15.088  1.00  0.00     0.023 C 
HETATM   13  C20 UNL     1      -8.084   6.668  14.318  1.00  0.00     0.135 C 
HETATM   14  O2  UNL     1      -9.145   6.909  13.730  1.00  0.00    -0.297 OA
HETATM   15  C21 UNL     1      -7.385   5.350  14.053  1.00  0.00     0.080 C 
HETATM   16  C22 UNL     1      -5.876   5.386  14.257  1.00  0.00     0.018 C 
HETATM   17  C23 UNL     1      -5.363   6.809  14.308  1.00  0.00    -0.026 A 
HETATM   18  C24 UNL     1      -5.155   7.503  12.990  1.00  0.00     0.021 A 
HETATM   19  C25 UNL     1      -3.930   7.167  13.834  1.00  0.00    -0.027 A 
HETATM   20  C26 UNL     1      -3.031   6.021  13.359  1.00  0.00     0.011 C 
HETATM   21  C27 UNL     1      -1.676   6.393  12.735  1.00  0.00     0.011 C 
HETATM   22  C28 UNL     1      -1.237   7.849  12.951  1.00  0.00    -0.032 C 
HETATM   23  C29 UNL     1      -1.867   8.708  11.812  1.00  0.00     0.016 C 
ENDROOT
BRANCH   1  24
HETATM   24  C6  UNL     1       1.132   8.179  11.670  1.00  0.00    -0.011 C 
HETATM   25  C7  UNL     1       0.242   8.464  10.453  1.00  0.00     0.010 C 
BRANCH  24  26
HETATM   26  C5  UNL     1       1.903   6.846  11.459  1.00  0.00     0.040 C 
BRANCH  26  27
HETATM   27  C4  UNL     1       2.661   6.696  10.128  1.00  0.00     0.142 C 
BRANCH  27  28
HETATM   28  C3  UNL     1       4.095   6.281  10.294  1.00  0.00     0.018 C 
HETATM   29  C2  UNL     1       5.096   6.916  10.946  1.00  0.00     0.010 C 
HETATM   30  C1  UNL     1       4.989   8.256  11.614  1.00  0.00     0.055 C 
BRANCH  29  31
HETATM   31  C30 UNL     1       6.450   6.308  11.035  1.00  0.00     0.171 C 
HETATM   32  O3  UNL     1       7.478   6.904  11.303  1.00  0.00    -0.646 OA
BRANCH  31  33
HETATM   33  O4  UNL     1       6.474   4.987  10.784  1.00  0.00    -0.773 OA
HETATM   34  H46 UNL     1       7.420   4.754  10.889  1.00  0.00     0.167 HD
ENDBRANCH  31  33
ENDBRANCH  29  31
ENDBRANCH  27  28
BRANCH  27  35
HETATM   35  O1  UNL     1       1.987   5.746   9.308  1.00  0.00    -0.392 OA
HETATM   36  H6  UNL     1       1.082   6.074   9.171  1.00  0.00     0.210 HD
ENDBRANCH  27  35
ENDBRANCH  26  27
ENDBRANCH  24  26
ENDBRANCH   1  24
TORSDOF 7
ENDMDL
MODEL 4
REMARK minimizedAffinity -9.07737732
REMARK CNNscore 0.429419011
REMARK CNNaffinity 7.06356621
REMARK  7 active torsions:
REMARK  status: ('A' for Active; 'I' for Inactive)
REMARK    1  A    between atoms: C2_2  and  C30_32 
REMARK    2  A    between atoms: C3_3  and  C4_4 
REMARK    3  A    between atoms: C4_4  and  O1_5 
REMARK    4  A    between atoms: C4_4  and  C5_6 
REMARK    5  A    between atoms: C5_6  and  C6_7 
REMARK    6  A    between atoms: C6_7  and  C8_9 
REMARK    7  A    between atoms: C30_32  and  O4_34 
ROOT
HETATM    1  C8  UNL     1       0.476   8.016  12.924  1.00  0.00    -0.002 C 
HETATM    2  C9  UNL     1       0.564   8.797  14.267  1.00  0.00     0.006 C 
HETATM    3  C10 UNL     1      -0.738   8.540  15.044  1.00  0.00     0.011 C 
HETATM    4  C11 UNL     1      -1.427   7.380  14.300  1.00  0.00    -0.032 C 
HETATM    5  C12 UNL     1      -0.789   6.065  14.849  1.00  0.00     0.016 C 
HETATM    6  C13 UNL     1      -2.970   7.350  14.465  1.00  0.00     0.004 C 
HETATM    7  C14 UNL     1      -3.440   6.903  15.859  1.00  0.00     0.007 C 
HETATM    8  C15 UNL     1      -4.959   7.007  15.953  1.00  0.00     0.007 C 
HETATM    9  C16 UNL     1      -5.632   5.960  15.053  1.00  0.00     0.010 C 
HETATM   10  C17 UNL     1      -7.198   5.987  15.049  1.00  0.00     0.018 C 
HETATM   11  C18 UNL     1      -7.737   4.920  16.026  1.00  0.00     0.023 C 
HETATM   12  C19 UNL     1      -7.781   7.354  15.468  1.00  0.00     0.023 C 
HETATM   13  C20 UNL     1      -7.773   5.640  13.663  1.00  0.00     0.135 C 
HETATM   14  O2  UNL     1      -8.873   6.071  13.296  1.00  0.00    -0.297 OA
HETATM   15  C21 UNL     1      -7.046   4.648  12.778  1.00  0.00     0.080 C 
HETATM   16  C22 UNL     1      -5.531   4.668  12.926  1.00  0.00     0.018 C 
HETATM   17  C23 UNL     1      -5.064   5.922  13.634  1.00  0.00    -0.026 A 
HETATM   18  C24 UNL     1      -4.952   7.170  12.802  1.00  0.00     0.021 A 
HETATM   19  C25 UNL     1      -3.672   6.541  13.343  1.00  0.00    -0.027 A 
HETATM   20  C26 UNL     1      -2.762   5.812  12.350  1.00  0.00     0.011 C 
HETATM   21  C27 UNL     1      -1.457   6.512  11.937  1.00  0.00     0.011 C 
HETATM   22  C28 UNL     1      -1.057   7.712  12.807  1.00  0.00    -0.032 C 
HETATM   23  C29 UNL     1      -1.777   8.972  12.238  1.00  0.00     0.016 C 
ENDROOT
BRANCH   1  24
HETATM   24  C6  UNL     1       1.226   8.744  11.764  1.00  0.00    -0.011 C 
HETATM   25  C7  UNL     1       0.542   8.515  10.410  1.00  0.00     0.010 C 
BRANCH  24  26
HETATM   26  C5  UNL     1       2.703   8.265  11.698  1.00  0.00     0.040 C 
BRANCH  26  27
HETATM   27  C4  UNL     1       2.927   6.746  11.593  1.00  0.00     0.142 C 
BRANCH  27  28
HETATM   28  C3  UNL     1       2.703   6.196  10.213  1.00  0.00     0.018 C 
HETATM   29  C2  UNL     1       3.028   6.739   9.018  1.00  0.00     0.010 C 
HETATM   30  C1  UNL     1       3.648   8.090   8.813  1.00  0.00     0.055 C 
BRANCH  29  31
HETATM   31  C30 UNL     1       2.760   6.004   7.753  1.00  0.00     0.171 C 
HETATM   32  O3  UNL     1       2.136   6.438   6.800  1.00  0.00    -0.646 OA
BRANCH  31  33
HETATM   33  O4  UNL     1       3.271   4.761   7.723  1.00  0.00    -0.773 OA
HETATM   34  H46 UNL     1       3.013   4.431   6.838  1.00  0.00     0.167 HD
ENDBRANCH  31  33
ENDBRANCH  29  31
ENDBRANCH  27  28
BRANCH  27  35
HETATM   35  O1  UNL     1       4.252   6.436  12.016  1.00  0.00    -0.392 OA
HETATM   36  H6  UNL     1       4.344   6.751  12.931  1.00  0.00     0.210 HD
ENDBRANCH  27  35
ENDBRANCH  26  27
ENDBRANCH  24  26
ENDBRANCH   1  24
TORSDOF 7
ENDMDL
MODEL 5
REMARK minimizedAffinity -8.01313591
REMARK CNNscore 0.413015723
REMARK CNNaffinity 6.62203741
REMARK  7 active torsions:
REMARK  status: ('A' for Active; 'I' for Inactive)
REMARK    1  A    between atoms: C2_2  and  C30_32 
REMARK    2  A    between atoms: C3_3  and  C4_4 
REMARK    3  A    between atoms: C4_4  and  O1_5 
REMARK    4  A    between atoms: C4_4  and  C5_6 
REMARK    5  A    between atoms: C5_6  and  C6_7 
REMARK    6  A    between atoms: C6_7  and  C8_9 
REMARK    7  A    between atoms: C30_32  and  O4_34 
ROOT
HETATM    1  C8  UNL     1      -1.333  10.133  16.004  1.00  0.00    -0.002 C 
HETATM    2  C9  UNL     1       0.041   9.512  15.617  1.00  0.00     0.006 C 
HETATM    3  C10 UNL     1      -0.232   8.286  14.731  1.00  0.00     0.011 C 
HETATM    4  C11 UNL     1      -1.724   8.386  14.357  1.00  0.00    -0.032 C 
HETATM    5  C12 UNL     1      -1.806   9.346  13.128  1.00  0.00     0.016 C 
HETATM    6  C13 UNL     1      -2.387   7.021  14.029  1.00  0.00     0.004 C 
HETATM    7  C14 UNL     1      -1.957   6.427  12.678  1.00  0.00     0.007 C 
HETATM    8  C15 UNL     1      -2.579   5.045  12.497  1.00  0.00     0.007 C 
HETATM    9  C16 UNL     1      -4.100   5.154  12.314  1.00  0.00     0.010 C 
HETATM   10  C17 UNL     1      -4.852   3.791  12.142  1.00  0.00     0.018 C 
HETATM   11  C18 UNL     1      -5.087   3.514  10.642  1.00  0.00     0.023 C 
HETATM   12  C19 UNL     1      -4.078   2.593  12.733  1.00  0.00     0.023 C 
HETATM   13  C20 UNL     1      -6.244   3.818  12.803  1.00  0.00     0.135 C 
HETATM   14  O2  UNL     1      -6.775   2.785  13.228  1.00  0.00    -0.297 OA
HETATM   15  C21 UNL     1      -7.038   5.108  12.820  1.00  0.00     0.080 C 
HETATM   16  C22 UNL     1      -6.189   6.368  12.917  1.00  0.00     0.018 C 
HETATM   17  C23 UNL     1      -4.776   6.046  13.355  1.00  0.00    -0.026 A 
HETATM   18  C24 UNL     1      -4.552   5.838  14.828  1.00  0.00     0.021 A 
HETATM   19  C25 UNL     1      -3.931   7.064  14.165  1.00  0.00    -0.027 A 
HETATM   20  C26 UNL     1      -4.557   8.429  14.465  1.00  0.00     0.011 C 
HETATM   21  C27 UNL     1      -3.789   9.371  15.406  1.00  0.00     0.011 C 
HETATM   22  C28 UNL     1      -2.333   8.970  15.684  1.00  0.00    -0.032 C 
HETATM   23  C29 UNL     1      -2.336   7.968  16.878  1.00  0.00     0.016 C 
ENDROOT
BRANCH   1  24
HETATM   24  C6  UNL     1      -1.310  10.786  17.421  1.00  0.00    -0.011 C 
HETATM   25  C7  UNL     1      -1.881  12.210  17.403  1.00  0.00     0.010 C 
BRANCH  24  26
HETATM   26  C5  UNL     1       0.141  10.806  17.979  1.00  0.00     0.040 C 
BRANCH  26  27
HETATM   27  C4  UNL     1       0.359  11.577  19.293  1.00  0.00     0.142 C 
BRANCH  27  28
HETATM   28  C3  UNL     1       0.843  10.715  20.424  1.00  0.00     0.018 C 
HETATM   29  C2  UNL     1       2.110  10.379  20.757  1.00  0.00     0.010 C 
HETATM   30  C1  UNL     1       3.344  10.764  19.994  1.00  0.00     0.055 C 
BRANCH  29  31
HETATM   31  C30 UNL     1       2.383   9.543  21.956  1.00  0.00     0.171 C 
HETATM   32  O3  UNL     1       3.054   9.879  22.916  1.00  0.00    -0.646 OA
BRANCH  31  33
HETATM   33  O4  UNL     1       1.817   8.324  21.914  1.00  0.00    -0.773 OA
HETATM   34  H46 UNL     1       2.087   7.920  22.765  1.00  0.00     0.167 HD
ENDBRANCH  31  33
ENDBRANCH  29  31
ENDBRANCH  27  28
BRANCH  27  35
HETATM   35  O1  UNL     1       1.292  12.631  19.070  1.00  0.00    -0.392 OA
HETATM   36  H6  UNL     1       0.922  13.202  18.377  1.00  0.00     0.210 HD
ENDBRANCH  27  35
ENDBRANCH  26  27
ENDBRANCH  24  26
ENDBRANCH   1  24
TORSDOF 7
ENDMDL
MODEL 6
REMARK minimizedAffinity -8.74424076
REMARK CNNscore 0.392757654
REMARK CNNaffinity 7.14525032
REMARK  7 active torsions:
REMARK  status: ('A' for Active; 'I' for Inactive)
REMARK    1  A    between atoms: C2_2  and  C30_32 
REMARK    2  A    between atoms: C3_3  and  C4_4 
REMARK    3  A    between atoms: C4_4  and  O1_5 
REMARK    4  A    between atoms: C4_4  and  C5_6 
REMARK    5  A    between atoms: C5_6  and  C6_7 
REMARK    6  A    between atoms: C6_7  and  C8_9 
REMARK    7  A    between atoms: C30_32  and  O4_34 
ROOT
HETATM    1  C8  UNL     1      -0.157   7.754  13.953  1.00  0.00    -0.002 C 
HETATM    2  C9  UNL     1      -0.435   8.962  13.012  1.00  0.00     0.006 C 
HETATM    3  C10 UNL     1      -1.944   8.989  12.718  1.00  0.00     0.011 C 
HETATM    4  C11 UNL     1      -2.566   8.002  13.725  1.00  0.00    -0.032 C 
HETATM    5  C12 UNL     1      -2.767   8.796  15.053  1.00  0.00     0.016 C 
HETATM    6  C13 UNL     1      -3.907   7.378  13.253  1.00  0.00     0.004 C 
HETATM    7  C14 UNL     1      -5.094   8.353  13.282  1.00  0.00     0.007 C 
HETATM    8  C15 UNL     1      -6.335   7.679  12.704  1.00  0.00     0.007 C 
HETATM    9  C16 UNL     1      -6.831   6.565  13.637  1.00  0.00     0.010 C 
HETATM   10  C17 UNL     1      -8.091   5.782  13.135  1.00  0.00     0.018 C 
HETATM   11  C18 UNL     1      -9.360   6.362  13.797  1.00  0.00     0.023 C 
HETATM   12  C19 UNL     1      -8.278   5.855  11.603  1.00  0.00     0.023 C 
HETATM   13  C20 UNL     1      -8.036   4.293  13.528  1.00  0.00     0.135 C 
HETATM   14  O2  UNL     1      -8.606   3.428  12.853  1.00  0.00    -0.297 OA
HETATM   15  C21 UNL     1      -7.383   3.889  14.834  1.00  0.00     0.080 C 
HETATM   16  C22 UNL     1      -6.214   4.771  15.252  1.00  0.00     0.018 C 
HETATM   17  C23 UNL     1      -5.723   5.616  14.096  1.00  0.00    -0.026 A 
HETATM   18  C24 UNL     1      -4.806   4.949  13.109  1.00  0.00     0.021 A 
HETATM   19  C25 UNL     1      -4.239   6.056  13.993  1.00  0.00    -0.027 A 
HETATM   20  C26 UNL     1      -3.295   5.647  15.128  1.00  0.00     0.011 C 
HETATM   21  C27 UNL     1      -1.797   5.938  14.944  1.00  0.00     0.011 C 
HETATM   22  C28 UNL     1      -1.454   6.891  13.790  1.00  0.00    -0.032 C 
HETATM   23  C29 UNL     1      -1.330   6.038  12.491  1.00  0.00     0.016 C 
ENDROOT
BRANCH   1  24
HETATM   24  C6  UNL     1       1.248   7.121  13.705  1.00  0.00    -0.011 C 
HETATM   25  C7  UNL     1       2.123   7.160  14.964  1.00  0.00     0.010 C 
BRANCH  24  26
HETATM   26  C5  UNL     1       1.968   7.855  12.539  1.00  0.00     0.040 C 
BRANCH  26  27
HETATM   27  C4  UNL     1       2.408   6.985  11.348  1.00  0.00     0.142 C 
BRANCH  27  28
HETATM   28  C3  UNL     1       2.513   7.742  10.055  1.00  0.00     0.018 C 
HETATM   29  C2  UNL     1       2.691   7.265   8.802  1.00  0.00     0.010 C 
HETATM   30  C1  UNL     1       2.891   5.823   8.437  1.00  0.00     0.055 C 
BRANCH  29  31
HETATM   31  C30 UNL     1       2.723   8.189   7.636  1.00  0.00     0.171 C 
HETATM   32  O3  UNL     1       3.306   9.258   7.595  1.00  0.00    -0.646 OA
BRANCH  31  33
HETATM   33  O4  UNL     1       2.027   7.751   6.572  1.00  0.00    -0.773 OA
HETATM   34  H46 UNL     1       2.157   8.461   5.910  1.00  0.00     0.167 HD
ENDBRANCH  31  33
ENDBRANCH  29  31
ENDBRANCH  27  28
BRANCH  27  35
HETATM   35  O1  UNL     1       3.664   6.380  11.646  1.00  0.00    -0.392 OA
HETATM   36  H6  UNL     1       3.545   5.851  12.452  1.00  0.00     0.210 HD
ENDBRANCH  27  35
ENDBRANCH  26  27
ENDBRANCH  24  26
ENDBRANCH   1  24
TORSDOF 7
ENDMDL
MODEL 7
REMARK minimizedAffinity -9.65140438
REMARK CNNscore 0.336565822
REMARK CNNaffinity 6.78357077
REMARK  7 active torsions:
REMARK  status: ('A' for Active; 'I' for Inactive)
REMARK    1  A    between atoms: C2_2  and  C30_32 
REMARK    2  A    between atoms: C3_3  and  C4_4 
REMARK    3  A    between atoms: C4_4  and  O1_5 
REMARK    4  A    between atoms: C4_4  and  C5_6 
REMARK    5  A    between atoms: C5_6  and  C6_7 
REMARK    6  A    between atoms: C6_7  and  C8_9 
REMARK    7  A    between atoms: C30_32  and  O4_34 
ROOT
HETATM    1  C8  UNL     1      -3.193   8.468  15.257  1.00  0.00    -0.002 C 
HETATM    2  C9  UNL     1      -2.180   8.160  16.398  1.00  0.00     0.006 C 
HETATM    3  C10 UNL     1      -0.794   7.975  15.757  1.00  0.00     0.011 C 
HETATM    4  C11 UNL     1      -0.952   8.479  14.310  1.00  0.00    -0.032 C 
HETATM    5  C12 UNL     1      -0.769  10.028  14.360  1.00  0.00     0.016 C 
HETATM    6  C13 UNL     1       0.048   7.843  13.306  1.00  0.00     0.004 C 
HETATM    7  C14 UNL     1       1.491   8.346  13.459  1.00  0.00     0.007 C 
HETATM    8  C15 UNL     1       2.410   7.589  12.505  1.00  0.00     0.007 C 
HETATM    9  C16 UNL     1       2.107   7.966  11.047  1.00  0.00     0.010 C 
HETATM   10  C17 UNL     1       2.976   7.231   9.971  1.00  0.00     0.018 C 
HETATM   11  C18 UNL     1       4.153   8.135   9.548  1.00  0.00     0.023 C 
HETATM   12  C19 UNL     1       3.560   5.893  10.477  1.00  0.00     0.023 C 
HETATM   13  C20 UNL     1       2.172   6.934   8.691  1.00  0.00     0.135 C 
HETATM   14  O2  UNL     1       2.454   5.976   7.961  1.00  0.00    -0.297 OA
HETATM   15  C21 UNL     1       1.098   7.903   8.242  1.00  0.00     0.080 C 
HETATM   16  C22 UNL     1       0.373   8.610   9.379  1.00  0.00     0.018 C 
HETATM   17  C23 UNL     1       0.619   7.916  10.702  1.00  0.00    -0.026 A 
HETATM   18  C24 UNL     1      -0.212   6.697  10.994  1.00  0.00     0.021 A 
HETATM   19  C25 UNL     1      -0.438   7.948  11.837  1.00  0.00    -0.027 A 
HETATM   20  C26 UNL     1      -1.721   8.748  11.593  1.00  0.00     0.011 C 
HETATM   21  C27 UNL     1      -2.835   8.642  12.646  1.00  0.00     0.011 C 
HETATM   22  C28 UNL     1      -2.415   8.003  13.978  1.00  0.00    -0.032 C 
HETATM   23  C29 UNL     1      -2.565   6.459  13.832  1.00  0.00     0.016 C 
ENDROOT
BRANCH   1  24
HETATM   24  C6  UNL     1      -4.617   7.906  15.561  1.00  0.00    -0.011 C 
HETATM   25  C7  UNL     1      -4.608   6.378  15.708  1.00  0.00     0.010 C 
BRANCH  24  26
HETATM   26  C5  UNL     1      -5.608   8.322  14.438  1.00  0.00     0.040 C 
BRANCH  26  27
HETATM   27  C4  UNL     1      -6.993   7.652  14.463  1.00  0.00     0.142 C 
BRANCH  27  28
HETATM   28  C3  UNL     1      -6.998   6.255  13.910  1.00  0.00     0.018 C 
HETATM   29  C2  UNL     1      -7.991   5.596  13.271  1.00  0.00     0.010 C 
HETATM   30  C1  UNL     1      -9.374   6.125  13.028  1.00  0.00     0.055 C 
BRANCH  29  31
HETATM   31  C30 UNL     1      -7.776   4.218  12.754  1.00  0.00     0.171 C 
HETATM   32  O3  UNL     1      -6.841   3.860  12.059  1.00  0.00    -0.646 OA
BRANCH  31  33
HETATM   33  O4  UNL     1      -8.730   3.342  13.115  1.00  0.00    -0.773 OA
HETATM   34  H46 UNL     1      -8.435   2.504  12.704  1.00  0.00     0.167 HD
ENDBRANCH  31  33
ENDBRANCH  29  31
ENDBRANCH  27  28
BRANCH  27  35
HETATM   35  O1  UNL     1      -7.481   7.631  15.802  1.00  0.00    -0.392 OA
HETATM   36  H6  UNL     1      -7.523   8.552  16.109  1.00  0.00     0.210 HD
ENDBRANCH  27  35
ENDBRANCH  26  27
ENDBRANCH  24  26
ENDBRANCH   1  24
TORSDOF 7
ENDMDL
MODEL 8
REMARK minimizedAffinity -7.95479965
REMARK CNNscore 0.313703537
REMARK CNNaffinity 6.64601135
REMARK  7 active torsions:
REMARK  status: ('A' for Active; 'I' for Inactive)
REMARK    1  A    between atoms: C2_2  and  C30_32 
REMARK    2  A    between atoms: C3_3  and  C4_4 
REMARK    3  A    between atoms: C4_4  and  O1_5 
REMARK    4  A    between atoms: C4_4  and  C5_6 
REMARK    5  A    between atoms: C5_6  and  C6_7 
REMARK    6  A    between atoms: C6_7  and  C8_9 
REMARK    7  A    between atoms: C30_32  and  O4_34 
ROOT
HETATM    1  C8  UNL     1       2.613   7.057  10.523  1.00  0.00    -0.002 C 
HETATM    2  C9  UNL     1       2.762   5.520  10.722  1.00  0.00     0.006 C 
HETATM    3  C10 UNL     1       1.474   5.007  11.386  1.00  0.00     0.011 C 
HETATM    4  C11 UNL     1       0.476   6.176  11.282  1.00  0.00    -0.032 C 
HETATM    5  C12 UNL     1      -0.167   6.082   9.863  1.00  0.00     0.016 C 
HETATM    6  C13 UNL     1      -0.621   6.171  12.381  1.00  0.00     0.004 C 
HETATM    7  C14 UNL     1      -1.686   5.079  12.194  1.00  0.00     0.007 C 
HETATM    8  C15 UNL     1      -2.654   5.090  13.374  1.00  0.00     0.007 C 
HETATM    9  C16 UNL     1      -3.514   6.362  13.359  1.00  0.00     0.010 C 
HETATM   10  C17 UNL     1      -4.532   6.496  14.541  1.00  0.00     0.018 C 
HETATM   11  C18 UNL     1      -5.927   6.020  14.080  1.00  0.00     0.023 C 
HETATM   12  C19 UNL     1      -4.132   5.667  15.781  1.00  0.00     0.023 C 
HETATM   13  C20 UNL     1      -4.698   7.960  14.992  1.00  0.00     0.135 C 
HETATM   14  O2  UNL     1      -5.016   8.244  16.153  1.00  0.00    -0.297 OA
HETATM   15  C21 UNL     1      -4.598   9.073  13.969  1.00  0.00     0.080 C 
HETATM   16  C22 UNL     1      -3.627   8.793  12.830  1.00  0.00     0.018 C 
HETATM   17  C23 UNL     1      -2.702   7.643  13.165  1.00  0.00    -0.026 A 
HETATM   18  C24 UNL     1      -1.516   7.958  14.034  1.00  0.00     0.021 A 
HETATM   19  C25 UNL     1      -1.267   7.567  12.581  1.00  0.00    -0.027 A 
HETATM   20  C26 UNL     1      -0.833   8.670  11.612  1.00  0.00     0.011 C 
HETATM   21  C27 UNL     1       0.638   8.686  11.166  1.00  0.00     0.011 C 
HETATM   22  C28 UNL     1       1.430   7.411  11.487  1.00  0.00    -0.032 C 
HETATM   23  C29 UNL     1       1.988   7.551  12.936  1.00  0.00     0.016 C 
ENDROOT
BRANCH   1  24
HETATM   24  C6  UNL     1       3.978   7.805  10.641  1.00  0.00    -0.011 C 
HETATM   25  C7  UNL     1       4.238   8.712   9.432  1.00  0.00     0.010 C 
BRANCH  24  26
HETATM   26  C5  UNL     1       5.138   6.782  10.793  1.00  0.00     0.040 C 
BRANCH  26  27
HETATM   27  C4  UNL     1       6.413   7.289  11.491  1.00  0.00     0.142 C 
BRANCH  27  28
HETATM   28  C3  UNL     1       6.339   7.242  12.990  1.00  0.00     0.018 C 
HETATM   29  C2  UNL     1       5.882   8.180  13.850  1.00  0.00     0.010 C 
HETATM   30  C1  UNL     1       5.390   9.546  13.470  1.00  0.00     0.055 C 
BRANCH  29  31
HETATM   31  C30 UNL     1       5.850   7.916  15.314  1.00  0.00     0.171 C 
HETATM   32  O3  UNL     1       6.521   8.493  16.152  1.00  0.00    -0.646 OA
BRANCH  31  33
HETATM   33  O4  UNL     1       4.993   6.947  15.677  1.00  0.00    -0.773 OA
HETATM   34  H46 UNL     1       5.093   6.910  16.651  1.00  0.00     0.167 HD
ENDBRANCH  31  33
ENDBRANCH  29  31
ENDBRANCH  27  28
BRANCH  27  35
HETATM   35  O1  UNL     1       7.529   6.521  11.048  1.00  0.00    -0.392 OA
HETATM   36  H6  UNL     1       7.584   6.621  10.083  1.00  0.00     0.210 HD
ENDBRANCH  27  35
ENDBRANCH  26  27
ENDBRANCH  24  26
ENDBRANCH   1  24
TORSDOF 7
ENDMDL
MODEL 9
REMARK minimizedAffinity -7.80407715
REMARK CNNscore 0.308490247
REMARK CNNaffinity 6.27294159
REMARK  7 active torsions:
REMARK  status: ('A' for Active; 'I' for Inactive)
REMARK    1  A    between atoms: C2_2  and  C30_32 
REMARK    2  A    between atoms: C3_3  and  C4_4 
REMARK    3  A    between atoms: C4_4  and  O1_5 
REMARK    4  A    between atoms: C4_4  and  C5_6 
REMARK    5  A    between atoms: C5_6  and  C6_7 
REMARK    6  A    between atoms: C6_7  and  C8_9 
REMARK    7  A    between atoms: C30_32  and  O4_34 
ROOT
HETATM    1  C8  UNL     1      -2.693   9.562  14.740  1.00  0.00    -0.002 C 
HETATM    2  C9  UNL     1      -3.663   9.250  15.917  1.00  0.00     0.006 C 
HETATM    3  C10 UNL     1      -2.958   9.652  17.224  1.00  0.00     0.011 C 
HETATM    4  C11 UNL     1      -1.730  10.470  16.780  1.00  0.00    -0.032 C 
HETATM    5  C12 UNL     1      -2.233  11.931  16.553  1.00  0.00     0.016 C 
HETATM    6  C13 UNL     1      -0.555  10.449  17.796  1.00  0.00     0.004 C 
HETATM    7  C14 UNL     1      -0.811  11.279  19.063  1.00  0.00     0.007 C 
HETATM    8  C15 UNL     1       0.351  11.110  20.038  1.00  0.00     0.007 C 
HETATM    9  C16 UNL     1       1.622  11.774  19.489  1.00  0.00     0.010 C 
HETATM   10  C17 UNL     1       2.891  11.643  20.396  1.00  0.00     0.018 C 
HETATM   11  C18 UNL     1       3.060  12.925  21.240  1.00  0.00     0.023 C 
HETATM   12  C19 UNL     1       2.822  10.442  21.365  1.00  0.00     0.023 C 
HETATM   13  C20 UNL     1       4.179  11.497  19.563  1.00  0.00     0.135 C 
HETATM   14  O2  UNL     1       5.168  10.900  20.005  1.00  0.00    -0.297 OA
HETATM   15  C21 UNL     1       4.290  12.206  18.229  1.00  0.00     0.080 C 
HETATM   16  C22 UNL     1       2.975  12.333  17.474  1.00  0.00     0.018 C 
HETATM   17  C23 UNL     1       1.925  11.401  18.037  1.00  0.00    -0.026 A 
HETATM   18  C24 UNL     1       1.985   9.964  17.594  1.00  0.00     0.021 A 
HETATM   19  C25 UNL     1       0.802  10.815  17.141  1.00  0.00    -0.027 A 
HETATM   20  C26 UNL     1       0.762  11.252  15.674  1.00  0.00     0.011 C 
HETATM   21  C27 UNL     1      -0.244  10.547  14.750  1.00  0.00     0.011 C 
HETATM   22  C28 UNL     1      -1.314   9.710  15.467  1.00  0.00    -0.032 C 
HETATM   23  C29 UNL     1      -0.720   8.291  15.715  1.00  0.00     0.016 C 
ENDROOT
BRANCH   1  24
HETATM   24  C6  UNL     1      -2.857   8.557  13.557  1.00  0.00    -0.011 C 
HETATM   25  C7  UNL     1      -4.312   8.470  13.078  1.00  0.00     0.010 C 
BRANCH  24  26
HETATM   26  C5  UNL     1      -2.355   7.147  13.978  1.00  0.00     0.040 C 
BRANCH  26  27
HETATM   27  C4  UNL     1      -3.434   6.129  14.388  1.00  0.00     0.142 C 
BRANCH  27  28
HETATM   28  C3  UNL     1      -3.466   4.902  13.523  1.00  0.00     0.018 C 
HETATM   29  C2  UNL     1      -4.522   4.317  12.914  1.00  0.00     0.010 C 
HETATM   30  C1  UNL     1      -5.952   4.757  13.034  1.00  0.00     0.055 C 
BRANCH  29  31
HETATM   31  C30 UNL     1      -4.333   3.120  12.051  1.00  0.00     0.171 C 
HETATM   32  O3  UNL     1      -3.290   2.506  11.910  1.00  0.00    -0.646 OA
BRANCH  31  33
HETATM   33  O4  UNL     1      -5.443   2.737  11.396  1.00  0.00    -0.773 OA
HETATM   34  H46 UNL     1      -5.148   1.950  10.893  1.00  0.00     0.167 HD
ENDBRANCH  31  33
ENDBRANCH  29  31
ENDBRANCH  27  28
BRANCH  27  35
HETATM   35  O1  UNL     1      -3.226   5.745  15.745  1.00  0.00    -0.392 OA
HETATM   36  H6  UNL     1      -3.272   6.553  16.284  1.00  0.00     0.210 HD
ENDBRANCH  27  35
ENDBRANCH  26  27
ENDBRANCH  24  26
ENDBRANCH   1  24
TORSDOF 7
ENDMDL
