MODEL 1
REMARK minimizedAffinity -8.21455002
REMARK CNNscore 0.431202233
REMARK CNNaffinity 7.200109
REMARK  12 active torsions:
REMARK  status: ('A' for Active; 'I' for Inactive)
REMARK    1  A    between atoms: C3_3  and  O1_4 
REMARK    2  A    between atoms: N1_14  and  O2_16 
REMARK    3  A    between atoms: O2_16  and  C13_17 
REMARK    4  A    between atoms: C13_17  and  C14_18 
REMARK       I    between atoms: C14_18  and  N2_20 
REMARK    5  A    between atoms: N2_20  and  C15_21 
REMARK    6  A    between atoms: C15_21  and  C16_22 
REMARK    7  A    between atoms: C15_21  and  C23_33 
REMARK       I    between atoms: C16_22  and  N3_24 
REMARK    8  A    between atoms: N3_24  and  C17_25 
REMARK    9  A    between atoms: C17_25  and  C18_26 
REMARK   10  A    between atoms: C17_25  and  C19_29 
REMARK   11  A    between atoms: C18_26  and  O6_28 
REMARK   12  A    between atoms: C19_29  and  C21_31 
ROOT
HETATM    1  C1  UNL     1     -10.313   6.916  14.667  1.00  0.00     0.015 C 
HETATM    2  C2  UNL     1      -9.265   6.339  14.551  1.00  0.00    -0.078 C 
HETATM    3  C3  UNL     1      -7.995   5.610  14.432  1.00  0.00     0.128 C 
HETATM    4  C4  UNL     1      -7.990   4.614  13.249  1.00  0.00     0.052 C 
HETATM    5  C5  UNL     1      -6.514   4.507  12.796  1.00  0.00     0.010 C 
HETATM    6  C6  UNL     1      -5.742   5.424  13.752  1.00  0.00     0.002 C 
HETATM    7  C7  UNL     1      -4.359   5.935  13.292  1.00  0.00    -0.004 C 
HETATM    8  C8  UNL     1      -3.372   4.763  13.439  1.00  0.00     0.010 C 
HETATM    9  C9  UNL     1      -1.941   5.156  13.149  1.00  0.00     0.035 C 
HETATM   10  C10 UNL     1      -1.499   6.256  14.072  1.00  0.00    -0.069 C 
HETATM   11  C11 UNL     1      -0.365   6.111  14.780  1.00  0.00     0.030 C 
HETATM   12  C12 UNL     1       0.221   7.233  15.554  1.00  0.00     0.032 C 
HETATM   13  N1  UNL     1       1.314   6.998  16.230  1.00  0.00    -0.271 N 
ATOM     14  H1  UNL     1       1.767   6.087  16.293  1.00  0.00     0.194 HD
HETATM   15  C26 UNL     1      -0.446   8.590  15.446  1.00  0.00     0.060 C 
HETATM   16  C27 UNL     1      -1.949   8.408  15.288  1.00  0.00     0.020 C 
HETATM   17  C28 UNL     1      -2.358   7.515  14.080  1.00  0.00    -0.016 C 
HETATM   18  C29 UNL     1      -2.042   8.283  12.769  1.00  0.00     0.020 C 
HETATM   19  C30 UNL     1      -3.920   7.218  14.087  1.00  0.00     0.002 C 
HETATM   20  C31 UNL     1      -4.646   7.263  15.454  1.00  0.00     0.007 C 
HETATM   21  C32 UNL     1      -6.186   7.346  15.308  1.00  0.00     0.014 C 
HETATM   22  C33 UNL     1      -6.755   6.518  14.130  1.00  0.00     0.003 C 
HETATM   23  C34 UNL     1      -7.056   7.480  12.942  1.00  0.00     0.020 C 
ENDROOT
BRANCH   3  24
HETATM   24  O1  UNL     1      -7.849   4.805  15.607  1.00  0.00    -0.377 OA
HETATM   25  H2  UNL     1      -7.217   5.220  16.210  1.00  0.00     0.211 HD
ENDBRANCH   3  24
BRANCH  13  26
HETATM   26  O2  UNL     1       1.784   8.160  16.856  1.00  0.00    -0.271 OA
BRANCH  26  27
HETATM   27  C13 UNL     1       2.676   8.835  15.974  1.00  0.00     0.303 C 
BRANCH  27  28
HETATM   28  C14 UNL     1       3.010  10.212  16.535  1.00  0.00     0.244 C 
HETATM   29  O3  UNL     1       3.945  10.893  16.120  1.00  0.00    -0.271 OA
HETATM   30  N2  UNL     1       2.212  10.602  17.594  1.00  0.00    -0.346 N 
HETATM   31  H16 UNL     1       1.746   9.849  18.096  1.00  0.00     0.163 HD
BRANCH  30  32
HETATM   32  C15 UNL     1       2.566  11.783  18.377  1.00  0.00     0.180 C 
BRANCH  32  33
HETATM   33  C16 UNL     1       3.552  11.283  19.455  1.00  0.00     0.241 C 
HETATM   34  O4  UNL     1       3.512  10.139  19.909  1.00  0.00    -0.271 OA
HETATM   35  N3  UNL     1       4.489  12.212  19.846  1.00  0.00    -0.344 N 
HETATM   36  H18 UNL     1       4.624  13.038  19.269  1.00  0.00     0.163 HD
BRANCH  35  37
HETATM   37  C17 UNL     1       5.565  11.893  20.792  1.00  0.00     0.186 C 
BRANCH  37  38
HETATM   38  C18 UNL     1       6.867  12.404  20.179  1.00  0.00     0.163 C 
HETATM   39  O5  UNL     1       7.799  11.710  19.796  1.00  0.00    -0.648 OA
BRANCH  38  40
HETATM   40  O6  UNL     1       6.931  13.743  20.076  1.00  0.00    -0.775 OA
HETATM   41  H20 UNL     1       7.807  13.920  19.678  1.00  0.00     0.167 HD
ENDBRANCH  38  40
ENDBRANCH  37  38
BRANCH  37  42
HETATM   42  C19 UNL     1       5.277  12.491  22.189  1.00  0.00     0.014 C 
HETATM   43  C20 UNL     1       6.463  12.319  23.154  1.00  0.00     0.012 C 
BRANCH  42  44
HETATM   44  C21 UNL     1       4.006  11.941  22.867  1.00  0.00     0.002 C 
HETATM   45  C22 UNL     1       2.887  12.963  22.991  1.00  0.00     0.005 C 
ENDBRANCH  42  44
ENDBRANCH  37  42
ENDBRANCH  35  37
ENDBRANCH  32  33
BRANCH  32  46
HETATM   46  C23 UNL     1       1.325  12.433  19.025  1.00  0.00     0.009 C 
HETATM   47  C24 UNL     1       0.212  12.672  17.997  1.00  0.00     0.012 C 
HETATM   48  C25 UNL     1       0.774  11.568  20.167  1.00  0.00     0.012 C 
ENDBRANCH  32  46
ENDBRANCH  30  32
ENDBRANCH  27  28
ENDBRANCH  26  27
ENDBRANCH  13  26
TORSDOF 12
ENDMDL
MODEL 2
REMARK minimizedAffinity -7.62802553
REMARK CNNscore 0.234186471
REMARK CNNaffinity 5.48776293
REMARK  12 active torsions:
REMARK  status: ('A' for Active; 'I' for Inactive)
REMARK    1  A    between atoms: C3_3  and  O1_4 
REMARK    2  A    between atoms: N1_14  and  O2_16 
REMARK    3  A    between atoms: O2_16  and  C13_17 
REMARK    4  A    between atoms: C13_17  and  C14_18 
REMARK       I    between atoms: C14_18  and  N2_20 
REMARK    5  A    between atoms: N2_20  and  C15_21 
REMARK    6  A    between atoms: C15_21  and  C16_22 
REMARK    7  A    between atoms: C15_21  and  C23_33 
REMARK       I    between atoms: C16_22  and  N3_24 
REMARK    8  A    between atoms: N3_24  and  C17_25 
REMARK    9  A    between atoms: C17_25  and  C18_26 
REMARK   10  A    between atoms: C17_25  and  C19_29 
REMARK   11  A    between atoms: C18_26  and  O6_28 
REMARK   12  A    between atoms: C19_29  and  C21_31 
ROOT
HETATM    1  C1  UNL     1       3.026   8.379   9.300  1.00  0.00     0.015 C 
HETATM    2  C2  UNL     1       3.781   7.987  10.150  1.00  0.00    -0.078 C 
HETATM    3  C3  UNL     1       4.679   7.485  11.199  1.00  0.00     0.128 C 
HETATM    4  C4  UNL     1       5.628   6.376  10.688  1.00  0.00     0.052 C 
HETATM    5  C5  UNL     1       6.903   6.479  11.559  1.00  0.00     0.010 C 
HETATM    6  C6  UNL     1       6.617   7.622  12.540  1.00  0.00     0.002 C 
HETATM    7  C7  UNL     1       7.827   8.313  13.207  1.00  0.00    -0.004 C 
HETATM    8  C8  UNL     1       8.348   7.358  14.296  1.00  0.00     0.010 C 
HETATM    9  C9  UNL     1       9.458   7.962  15.127  1.00  0.00     0.035 C 
HETATM   10  C10 UNL     1       8.988   9.221  15.798  1.00  0.00    -0.069 C 
HETATM   11  C11 UNL     1       9.143   9.362  17.126  1.00  0.00     0.030 C 
HETATM   12  C12 UNL     1       8.878  10.651  17.811  1.00  0.00     0.032 C 
HETATM   13  N1  UNL     1       9.035  10.692  19.108  1.00  0.00    -0.271 N 
ATOM     14  H1  UNL     1       9.285   9.889  19.683  1.00  0.00     0.194 HD
HETATM   15  C26 UNL     1       8.521  11.847  16.952  1.00  0.00     0.060 C 
HETATM   16  C27 UNL     1       7.713  11.386  15.747  1.00  0.00     0.020 C 
HETATM   17  C28 UNL     1       8.422  10.302  14.884  1.00  0.00    -0.016 C 
HETATM   18  C29 UNL     1       9.630  10.957  14.161  1.00  0.00     0.020 C 
HETATM   19  C30 UNL     1       7.451   9.737  13.758  1.00  0.00     0.002 C 
HETATM   20  C31 UNL     1       5.929   9.809  14.031  1.00  0.00     0.007 C 
HETATM   21  C32 UNL     1       5.083   9.601  12.750  1.00  0.00     0.014 C 
HETATM   22  C33 UNL     1       5.668   8.557  11.769  1.00  0.00     0.003 C 
HETATM   23  C34 UNL     1       6.392   9.307  10.611  1.00  0.00     0.020 C 
ENDROOT
BRANCH   3  24
HETATM   24  O1  UNL     1       3.866   6.858  12.198  1.00  0.00    -0.377 OA
HETATM   25  H2  UNL     1       3.779   7.446  12.962  1.00  0.00     0.211 HD
ENDBRANCH   3  24
BRANCH  13  26
HETATM   26  O2  UNL     1       8.814  11.984  19.606  1.00  0.00    -0.271 OA
BRANCH  26  27
HETATM   27  C13 UNL     1       9.927  12.369  20.407  1.00  0.00     0.303 C 
BRANCH  27  28
HETATM   28  C14 UNL     1      11.220  11.916  19.740  1.00  0.00     0.244 C 
HETATM   29  O3  UNL     1      11.854  10.931  20.112  1.00  0.00    -0.271 OA
HETATM   30  N2  UNL     1      11.654  12.743  18.721  1.00  0.00    -0.346 N 
HETATM   31  H16 UNL     1      11.294  13.696  18.743  1.00  0.00     0.163 HD
BRANCH  30  32
HETATM   32  C15 UNL     1      12.989  12.566  18.156  1.00  0.00     0.180 C 
BRANCH  32  33
HETATM   33  C16 UNL     1      13.877  13.617  18.856  1.00  0.00     0.241 C 
HETATM   34  O4  UNL     1      13.450  14.720  19.203  1.00  0.00    -0.271 OA
HETATM   35  N3  UNL     1      15.172  13.211  19.082  1.00  0.00    -0.344 N 
HETATM   36  H18 UNL     1      15.392  12.222  19.000  1.00  0.00     0.163 HD
BRANCH  35  37
HETATM   37  C17 UNL     1      16.138  14.037  19.815  1.00  0.00     0.186 C 
BRANCH  37  38
HETATM   38  C18 UNL     1      16.038  13.642  21.288  1.00  0.00     0.163 C 
HETATM   39  O5  UNL     1      16.194  14.392  22.242  1.00  0.00    -0.648 OA
BRANCH  38  40
HETATM   40  O6  UNL     1      15.747  12.345  21.485  1.00  0.00    -0.775 OA
HETATM   41  H20 UNL     1      15.720  12.241  22.457  1.00  0.00     0.167 HD
ENDBRANCH  38  40
ENDBRANCH  37  38
BRANCH  37  42
HETATM   42  C19 UNL     1      17.565  13.874  19.241  1.00  0.00     0.014 C 
HETATM   43  C20 UNL     1      18.513  13.165  20.223  1.00  0.00     0.012 C 
BRANCH  42  44
HETATM   44  C21 UNL     1      18.221  15.193  18.786  1.00  0.00     0.002 C 
HETATM   45  C22 UNL     1      17.514  15.857  17.615  1.00  0.00     0.005 C 
ENDBRANCH  42  44
ENDBRANCH  37  42
ENDBRANCH  35  37
ENDBRANCH  32  33
BRANCH  32  46
HETATM   46  C23 UNL     1      12.995  12.771  16.626  1.00  0.00     0.009 C 
HETATM   47  C24 UNL     1      13.134  11.440  15.879  1.00  0.00     0.012 C 
HETATM   48  C25 UNL     1      11.717  13.480  16.153  1.00  0.00     0.012 C 
ENDBRANCH  32  46
ENDBRANCH  30  32
ENDBRANCH  27  28
ENDBRANCH  26  27
ENDBRANCH  13  26
TORSDOF 12
ENDMDL
MODEL 3
REMARK minimizedAffinity -9.5453043
REMARK CNNscore 0.214597583
REMARK CNNaffinity 7.39614296
REMARK  12 active torsions:
REMARK  status: ('A' for Active; 'I' for Inactive)
REMARK    1  A    between atoms: C3_3  and  O1_4 
REMARK    2  A    between atoms: N1_14  and  O2_16 
REMARK    3  A    between atoms: O2_16  and  C13_17 
REMARK    4  A    between atoms: C13_17  and  C14_18 
REMARK       I    between atoms: C14_18  and  N2_20 
REMARK    5  A    between atoms: N2_20  and  C15_21 
REMARK    6  A    between atoms: C15_21  and  C16_22 
REMARK    7  A    between atoms: C15_21  and  C23_33 
REMARK       I    between atoms: C16_22  and  N3_24 
REMARK    8  A    between atoms: N3_24  and  C17_25 
REMARK    9  A    between atoms: C17_25  and  C18_26 
REMARK   10  A    between atoms: C17_25  and  C19_29 
REMARK   11  A    between atoms: C18_26  and  O6_28 
REMARK   12  A    between atoms: C19_29  and  C21_31 
ROOT
HETATM    1  C1  UNL     1     -14.678   8.547  12.606  1.00  0.00     0.015 C 
HETATM    2  C2  UNL     1     -13.544   8.762  12.939  1.00  0.00    -0.078 C 
HETATM    3  C3  UNL     1     -12.157   9.053  13.327  1.00  0.00     0.128 C 
HETATM    4  C4  UNL     1     -12.065   9.886  14.626  1.00  0.00     0.052 C 
HETATM    5  C5  UNL     1     -10.719   9.494  15.282  1.00  0.00     0.010 C 
HETATM    6  C6  UNL     1     -10.094   8.476  14.321  1.00  0.00     0.002 C 
HETATM    7  C7  UNL     1      -9.016   7.526  14.886  1.00  0.00    -0.004 C 
HETATM    8  C8  UNL     1      -7.723   8.348  15.035  1.00  0.00     0.010 C 
HETATM    9  C9  UNL     1      -6.536   7.510  15.456  1.00  0.00     0.035 C 
HETATM   10  C10 UNL     1      -6.282   6.417  14.457  1.00  0.00    -0.069 C 
HETATM   11  C11 UNL     1      -5.051   6.272  13.934  1.00  0.00     0.030 C 
HETATM   12  C12 UNL     1      -4.692   5.100  13.097  1.00  0.00     0.032 C 
HETATM   13  N1  UNL     1      -3.480   5.050  12.613  1.00  0.00    -0.271 N 
ATOM     14  H1  UNL     1      -2.779   5.780  12.737  1.00  0.00     0.194 HD
HETATM   15  C26 UNL     1      -5.730   4.010  12.927  1.00  0.00     0.060 C 
HETATM   16  C27 UNL     1      -7.121   4.628  12.906  1.00  0.00     0.020 C 
HETATM   17  C28 UNL     1      -7.453   5.488  14.161  1.00  0.00    -0.016 C 
HETATM   18  C29 UNL     1      -7.598   4.544  15.383  1.00  0.00     0.020 C 
HETATM   19  C30 UNL     1      -8.839   6.249  13.986  1.00  0.00     0.002 C 
HETATM   20  C31 UNL     1      -9.305   6.554  12.542  1.00  0.00     0.007 C 
HETATM   21  C32 UNL     1     -10.804   6.935  12.468  1.00  0.00     0.014 C 
HETATM   22  C33 UNL     1     -11.301   7.785  13.663  1.00  0.00     0.003 C 
HETATM   23  C34 UNL     1     -12.063   6.856  14.656  1.00  0.00     0.020 C 
ENDROOT
BRANCH   3  24
HETATM   24  O1  UNL     1     -11.588   9.879  12.304  1.00  0.00    -0.377 OA
HETATM   25  H2  UNL     1     -11.010   9.347  11.739  1.00  0.00     0.211 HD
ENDBRANCH   3  24
BRANCH  13  26
HETATM   26  O2  UNL     1      -3.266   3.862  11.901  1.00  0.00    -0.271 OA
BRANCH  26  27
HETATM   27  C13 UNL     1      -2.373   4.123  10.822  1.00  0.00     0.303 C 
BRANCH  27  28
HETATM   28  C14 UNL     1      -0.945   4.205  11.346  1.00  0.00     0.244 C 
HETATM   29  O3  UNL     1      -0.391   3.271  11.923  1.00  0.00    -0.271 OA
HETATM   30  N2  UNL     1      -0.347   5.439  11.176  1.00  0.00    -0.346 N 
HETATM   31  H16 UNL     1      -0.983   6.223  11.051  1.00  0.00     0.163 HD
BRANCH  30  32
HETATM   32  C15 UNL     1       0.922   5.732  11.836  1.00  0.00     0.180 C 
BRANCH  32  33
HETATM   33  C16 UNL     1       0.590   6.772  12.927  1.00  0.00     0.241 C 
HETATM   34  O4  UNL     1      -0.095   7.771  12.703  1.00  0.00    -0.271 OA
HETATM   35  N3  UNL     1       1.102   6.479  14.171  1.00  0.00    -0.344 N 
HETATM   36  H18 UNL     1       1.441   5.538  14.346  1.00  0.00     0.163 HD
BRANCH  35  37
HETATM   37  C17 UNL     1       0.817   7.302  15.352  1.00  0.00     0.186 C 
BRANCH  37  38
HETATM   38  C18 UNL     1       2.140   7.505  16.087  1.00  0.00     0.163 C 
HETATM   39  O5  UNL     1       2.385   8.397  16.888  1.00  0.00    -0.648 OA
BRANCH  38  40
HETATM   40  O6  UNL     1       3.075   6.587  15.787  1.00  0.00    -0.775 OA
HETATM   41  H20 UNL     1       3.855   6.844  16.320  1.00  0.00     0.167 HD
ENDBRANCH  38  40
ENDBRANCH  37  38
BRANCH  37  42
HETATM   42  C19 UNL     1       0.134   8.632  14.956  1.00  0.00     0.014 C 
HETATM   43  C20 UNL     1       1.103   9.826  15.013  1.00  0.00     0.012 C 
BRANCH  42  44
HETATM   44  C21 UNL     1      -1.120   8.975  15.784  1.00  0.00     0.002 C 
HETATM   45  C22 UNL     1      -2.188   7.892  15.755  1.00  0.00     0.005 C 
ENDBRANCH  42  44
ENDBRANCH  37  42
ENDBRANCH  35  37
ENDBRANCH  32  33
BRANCH  32  46
HETATM   46  C23 UNL     1       1.969   6.286  10.846  1.00  0.00     0.009 C 
HETATM   47  C24 UNL     1       2.890   5.179  10.320  1.00  0.00     0.012 C 
HETATM   48  C25 UNL     1       1.295   6.983   9.655  1.00  0.00     0.012 C 
ENDBRANCH  32  46
ENDBRANCH  30  32
ENDBRANCH  27  28
ENDBRANCH  26  27
ENDBRANCH  13  26
TORSDOF 12
ENDMDL
MODEL 4
REMARK minimizedAffinity -8.22929001
REMARK CNNscore 0.186664432
REMARK CNNaffinity 5.75201845
REMARK  12 active torsions:
REMARK  status: ('A' for Active; 'I' for Inactive)
REMARK    1  A    between atoms: C3_3  and  O1_4 
REMARK    2  A    between atoms: N1_14  and  O2_16 
REMARK    3  A    between atoms: O2_16  and  C13_17 
REMARK    4  A    between atoms: C13_17  and  C14_18 
REMARK       I    between atoms: C14_18  and  N2_20 
REMARK    5  A    between atoms: N2_20  and  C15_21 
REMARK    6  A    between atoms: C15_21  and  C16_22 
REMARK    7  A    between atoms: C15_21  and  C23_33 
REMARK       I    between atoms: C16_22  and  N3_24 
REMARK    8  A    between atoms: N3_24  and  C17_25 
REMARK    9  A    between atoms: C17_25  and  C18_26 
REMARK   10  A    between atoms: C17_25  and  C19_29 
REMARK   11  A    between atoms: C18_26  and  O6_28 
REMARK   12  A    between atoms: C19_29  and  C21_31 
ROOT
HETATM    1  C1  UNL     1       1.797   6.938   6.374  1.00  0.00     0.015 C 
HETATM    2  C2  UNL     1       1.763   7.249   7.534  1.00  0.00    -0.078 C 
HETATM    3  C3  UNL     1       1.700   7.655   8.945  1.00  0.00     0.128 C 
HETATM    4  C4  UNL     1       0.656   6.845   9.750  1.00  0.00     0.052 C 
HETATM    5  C5  UNL     1       1.181   6.812  11.205  1.00  0.00     0.010 C 
HETATM    6  C6  UNL     1       2.484   7.621  11.172  1.00  0.00     0.002 C 
HETATM    7  C7  UNL     1       3.504   7.381  12.307  1.00  0.00    -0.004 C 
HETATM    8  C8  UNL     1       2.961   8.093  13.559  1.00  0.00     0.010 C 
HETATM    9  C9  UNL     1       3.927   8.056  14.723  1.00  0.00     0.035 C 
HETATM   10  C10 UNL     1       5.230   8.702  14.347  1.00  0.00    -0.069 C 
HETATM   11  C11 UNL     1       5.737   9.673  15.127  1.00  0.00     0.030 C 
HETATM   12  C12 UNL     1       7.105  10.209  14.916  1.00  0.00     0.032 C 
HETATM   13  N1  UNL     1       7.509  11.166  15.708  1.00  0.00    -0.271 N 
ATOM     14  H1  UNL     1       6.934  11.596  16.432  1.00  0.00     0.194 HD
HETATM   15  C26 UNL     1       7.962   9.558  13.850  1.00  0.00     0.060 C 
HETATM   16  C27 UNL     1       7.081   9.102  12.696  1.00  0.00     0.020 C 
HETATM   17  C28 UNL     1       5.931   8.140  13.116  1.00  0.00    -0.016 C 
HETATM   18  C29 UNL     1       6.551   6.780  13.533  1.00  0.00     0.020 C 
HETATM   19  C30 UNL     1       4.946   7.855  11.899  1.00  0.00     0.002 C 
HETATM   20  C31 UNL     1       4.852   8.934  10.793  1.00  0.00     0.007 C 
HETATM   21  C32 UNL     1       4.186   8.404   9.499  1.00  0.00     0.014 C 
HETATM   22  C33 UNL     1       3.024   7.413   9.747  1.00  0.00     0.003 C 
HETATM   23  C34 UNL     1       3.545   5.962   9.519  1.00  0.00     0.020 C 
ENDROOT
BRANCH   3  24
HETATM   24  O1  UNL     1       1.241   9.011   8.984  1.00  0.00    -0.377 OA
HETATM   25  H2  UNL     1       1.988   9.603   9.151  1.00  0.00     0.211 HD
ENDBRANCH   3  24
BRANCH  13  26
HETATM   26  O2  UNL     1       8.836  11.526  15.434  1.00  0.00    -0.271 OA
BRANCH  26  27
HETATM   27  C13 UNL     1       9.692  10.902  16.387  1.00  0.00     0.303 C 
BRANCH  27  28
HETATM   28  C14 UNL     1       9.528  11.576  17.743  1.00  0.00     0.244 C 
HETATM   29  O3  UNL     1       8.548  11.396  18.464  1.00  0.00    -0.271 OA
HETATM   30  N2  UNL     1      10.543  12.456  18.067  1.00  0.00    -0.346 N 
HETATM   31  H16 UNL     1      11.081  12.817  17.282  1.00  0.00     0.163 HD
BRANCH  30  32
HETATM   32  C15 UNL     1      10.400  13.343  19.218  1.00  0.00     0.180 C 
BRANCH  32  33
HETATM   33  C16 UNL     1       9.653  12.516  20.287  1.00  0.00     0.241 C 
HETATM   34  O4  UNL     1      10.096  11.456  20.733  1.00  0.00    -0.271 OA
HETATM   35  N3  UNL     1       8.469  13.071  20.714  1.00  0.00    -0.344 N 
HETATM   36  H18 UNL     1       8.284  14.046  20.496  1.00  0.00     0.163 HD
BRANCH  35  37
HETATM   37  C17 UNL     1       7.665  12.478  21.789  1.00  0.00     0.186 C 
BRANCH  37  38
HETATM   38  C18 UNL     1       8.571  12.360  23.013  1.00  0.00     0.163 C 
HETATM   39  O5  UNL     1       9.108  13.290  23.598  1.00  0.00    -0.648 OA
BRANCH  38  40
HETATM   40  O6  UNL     1       8.751  11.097  23.436  1.00  0.00    -0.775 OA
HETATM   41  H20 UNL     1       9.345  11.177  24.210  1.00  0.00     0.167 HD
ENDBRANCH  38  40
ENDBRANCH  37  38
BRANCH  37  42
HETATM   42  C19 UNL     1       6.389  13.308  22.057  1.00  0.00     0.014 C 
HETATM   43  C20 UNL     1       6.586  14.333  23.189  1.00  0.00     0.012 C 
BRANCH  42  44
HETATM   44  C21 UNL     1       5.135  12.466  22.367  1.00  0.00     0.002 C 
HETATM   45  C22 UNL     1       5.440  11.142  23.049  1.00  0.00     0.005 C 
ENDBRANCH  42  44
ENDBRANCH  37  42
ENDBRANCH  35  37
ENDBRANCH  32  33
BRANCH  32  46
HETATM   46  C23 UNL     1       9.614  14.622  18.862  1.00  0.00     0.009 C 
HETATM   47  C24 UNL     1       8.160  14.306  18.493  1.00  0.00     0.012 C 
HETATM   48  C25 UNL     1       9.629  15.628  20.022  1.00  0.00     0.012 C 
ENDBRANCH  32  46
ENDBRANCH  30  32
ENDBRANCH  27  28
ENDBRANCH  26  27
ENDBRANCH  13  26
TORSDOF 12
ENDMDL
MODEL 5
REMARK minimizedAffinity -7.60881376
REMARK CNNscore 0.180751979
REMARK CNNaffinity 5.20263672
REMARK  12 active torsions:
REMARK  status: ('A' for Active; 'I' for Inactive)
REMARK    1  A    between atoms: C3_3  and  O1_4 
REMARK    2  A    between atoms: N1_14  and  O2_16 
REMARK    3  A    between atoms: O2_16  and  C13_17 
REMARK    4  A    between atoms: C13_17  and  C14_18 
REMARK       I    between atoms: C14_18  and  N2_20 
REMARK    5  A    between atoms: N2_20  and  C15_21 
REMARK    6  A    between atoms: C15_21  and  C16_22 
REMARK    7  A    between atoms: C15_21  and  C23_33 
REMARK       I    between atoms: C16_22  and  N3_24 
REMARK    8  A    between atoms: N3_24  and  C17_25 
REMARK    9  A    between atoms: C17_25  and  C18_26 
REMARK   10  A    between atoms: C17_25  and  C19_29 
REMARK   11  A    between atoms: C18_26  and  O6_28 
REMARK   12  A    between atoms: C19_29  and  C21_31 
ROOT
HETATM    1  C1  UNL     1      -0.520   5.454  11.035  1.00  0.00     0.015 C 
HETATM    2  C2  UNL     1       0.606   5.825  10.837  1.00  0.00    -0.078 C 
HETATM    3  C3  UNL     1       1.992   6.246  10.590  1.00  0.00     0.128 C 
HETATM    4  C4  UNL     1       2.235   6.657   9.119  1.00  0.00     0.052 C 
HETATM    5  C5  UNL     1       3.371   7.707   9.159  1.00  0.00     0.010 C 
HETATM    6  C6  UNL     1       3.741   7.831  10.642  1.00  0.00     0.002 C 
HETATM    7  C7  UNL     1       4.470   9.116  11.093  1.00  0.00    -0.004 C 
HETATM    8  C8  UNL     1       5.931   8.996  10.623  1.00  0.00     0.010 C 
HETATM    9  C9  UNL     1       6.803  10.130  11.112  1.00  0.00     0.035 C 
HETATM   10  C10 UNL     1       6.800  10.187  12.614  1.00  0.00    -0.069 C 
HETATM   11  C11 UNL     1       7.969  10.201  13.278  1.00  0.00     0.030 C 
HETATM   12  C12 UNL     1       8.033  10.450  14.739  1.00  0.00     0.032 C 
HETATM   13  N1  UNL     1       9.210  10.426  15.307  1.00  0.00    -0.271 N 
ATOM     14  H1  UNL     1      10.079  10.206  14.822  1.00  0.00     0.194 HD
HETATM   15  C26 UNL     1       6.742  10.792  15.455  1.00  0.00     0.060 C 
HETATM   16  C27 UNL     1       5.587  10.040  14.809  1.00  0.00     0.020 C 
HETATM   17  C28 UNL     1       5.435  10.300  13.281  1.00  0.00    -0.016 C 
HETATM   18  C29 UNL     1       4.953  11.760  13.074  1.00  0.00     0.020 C 
HETATM   19  C30 UNL     1       4.334   9.346  12.643  1.00  0.00     0.002 C 
HETATM   20  C31 UNL     1       4.064   7.997  13.353  1.00  0.00     0.007 C 
HETATM   21  C32 UNL     1       2.741   7.336  12.893  1.00  0.00     0.014 C 
HETATM   22  C33 UNL     1       2.432   7.521  11.387  1.00  0.00     0.003 C 
HETATM   23  C34 UNL     1       1.378   8.658  11.228  1.00  0.00     0.020 C 
ENDROOT
BRANCH   3  24
HETATM   24  O1  UNL     1       2.833   5.108  10.810  1.00  0.00    -0.377 OA
HETATM   25  H2  UNL     1       3.271   5.188  11.669  1.00  0.00     0.211 HD
ENDBRANCH   3  24
BRANCH  13  26
HETATM   26  O2  UNL     1       9.123  10.741  16.670  1.00  0.00    -0.271 OA
BRANCH  26  27
HETATM   27  C13 UNL     1       9.974  11.849  16.946  1.00  0.00     0.303 C 
BRANCH  27  28
HETATM   28  C14 UNL     1      11.391  11.355  17.207  1.00  0.00     0.244 C 
HETATM   29  O3  UNL     1      11.721  10.795  18.251  1.00  0.00    -0.271 OA
HETATM   30  N2  UNL     1      12.290  11.647  16.199  1.00  0.00    -0.346 N 
HETATM   31  H16 UNL     1      12.029  12.416  15.585  1.00  0.00     0.163 HD
BRANCH  30  32
HETATM   32  C15 UNL     1      13.720  11.446  16.416  1.00  0.00     0.180 C 
BRANCH  32  33
HETATM   33  C16 UNL     1      14.165  12.602  17.338  1.00  0.00     0.241 C 
HETATM   34  O4  UNL     1      13.696  13.738  17.249  1.00  0.00    -0.271 OA
HETATM   35  N3  UNL     1      15.108  12.253  18.278  1.00  0.00    -0.344 N 
HETATM   36  H18 UNL     1      15.269  11.266  18.460  1.00  0.00     0.163 HD
BRANCH  35  37
HETATM   37  C17 UNL     1      15.585  13.192  19.299  1.00  0.00     0.186 C 
BRANCH  37  38
HETATM   38  C18 UNL     1      15.100  12.670  20.650  1.00  0.00     0.163 C 
HETATM   39  O5  UNL     1      15.777  12.573  21.664  1.00  0.00    -0.648 OA
BRANCH  38  40
HETATM   40  O6  UNL     1      13.807  12.306  20.660  1.00  0.00    -0.775 OA
HETATM   41  H20 UNL     1      13.643  11.995  21.573  1.00  0.00     0.167 HD
ENDBRANCH  38  40
ENDBRANCH  37  38
BRANCH  37  42
HETATM   42  C19 UNL     1      17.121  13.361  19.230  1.00  0.00     0.014 C 
HETATM   43  C20 UNL     1      17.583  13.967  17.894  1.00  0.00     0.012 C 
BRANCH  42  44
HETATM   44  C21 UNL     1      17.915  12.064  19.485  1.00  0.00     0.002 C 
HETATM   45  C22 UNL     1      19.073  11.856  18.520  1.00  0.00     0.005 C 
ENDBRANCH  42  44
ENDBRANCH  37  42
ENDBRANCH  35  37
ENDBRANCH  32  33
BRANCH  32  46
HETATM   46  C23 UNL     1      14.509  11.464  15.089  1.00  0.00     0.009 C 
HETATM   47  C24 UNL     1      15.923  10.899  15.266  1.00  0.00     0.012 C 
HETATM   48  C25 UNL     1      13.782  10.664  13.998  1.00  0.00     0.012 C 
ENDBRANCH  32  46
ENDBRANCH  30  32
ENDBRANCH  27  28
ENDBRANCH  26  27
ENDBRANCH  13  26
TORSDOF 12
ENDMDL
MODEL 6
REMARK minimizedAffinity -7.88148165
REMARK CNNscore 0.17709671
REMARK CNNaffinity 6.71007395
REMARK  12 active torsions:
REMARK  status: ('A' for Active; 'I' for Inactive)
REMARK    1  A    between atoms: C3_3  and  O1_4 
REMARK    2  A    between atoms: N1_14  and  O2_16 
REMARK    3  A    between atoms: O2_16  and  C13_17 
REMARK    4  A    between atoms: C13_17  and  C14_18 
REMARK       I    between atoms: C14_18  and  N2_20 
REMARK    5  A    between atoms: N2_20  and  C15_21 
REMARK    6  A    between atoms: C15_21  and  C16_22 
REMARK    7  A    between atoms: C15_21  and  C23_33 
REMARK       I    between atoms: C16_22  and  N3_24 
REMARK    8  A    between atoms: N3_24  and  C17_25 
REMARK    9  A    between atoms: C17_25  and  C18_26 
REMARK   10  A    between atoms: C17_25  and  C19_29 
REMARK   11  A    between atoms: C18_26  and  O6_28 
REMARK   12  A    between atoms: C19_29  and  C21_31 
ROOT
HETATM    1  C1  UNL     1      -9.347   7.326  15.754  1.00  0.00     0.015 C 
HETATM    2  C2  UNL     1      -8.386   6.684  15.424  1.00  0.00    -0.078 C 
HETATM    3  C3  UNL     1      -7.219   5.875  15.045  1.00  0.00     0.128 C 
HETATM    4  C4  UNL     1      -7.524   4.899  13.885  1.00  0.00     0.052 C 
HETATM    5  C5  UNL     1      -6.183   4.702  13.138  1.00  0.00     0.010 C 
HETATM    6  C6  UNL     1      -5.171   5.553  13.915  1.00  0.00     0.002 C 
HETATM    7  C7  UNL     1      -3.881   5.979  13.181  1.00  0.00    -0.004 C 
HETATM    8  C8  UNL     1      -2.966   4.743  13.121  1.00  0.00     0.010 C 
HETATM    9  C9  UNL     1      -1.601   5.046  12.543  1.00  0.00     0.035 C 
HETATM   10  C10 UNL     1      -0.907   6.102  13.357  1.00  0.00    -0.069 C 
HETATM   11  C11 UNL     1       0.336   5.873  13.816  1.00  0.00     0.030 C 
HETATM   12  C12 UNL     1       1.141   6.943  14.455  1.00  0.00     0.032 C 
HETATM   13  N1  UNL     1       2.332   6.627  14.890  1.00  0.00    -0.271 N 
ATOM     14  H1  UNL     1       2.727   5.687  14.858  1.00  0.00     0.194 HD
HETATM   15  C26 UNL     1       0.559   8.341  14.487  1.00  0.00     0.060 C 
HETATM   16  C27 UNL     1      -0.953   8.260  14.642  1.00  0.00     0.020 C 
HETATM   17  C28 UNL     1      -1.660   7.414  13.543  1.00  0.00    -0.016 C 
HETATM   18  C29 UNL     1      -1.569   8.179  12.196  1.00  0.00     0.020 C 
HETATM   19  C30 UNL     1      -3.204   7.220  13.871  1.00  0.00     0.002 C 
HETATM   20  C31 UNL     1      -3.629   7.291  15.358  1.00  0.00     0.007 C 
HETATM   21  C32 UNL     1      -5.157   7.476  15.532  1.00  0.00     0.014 C 
HETATM   22  C33 UNL     1      -6.009   6.705  14.496  1.00  0.00     0.003 C 
HETATM   23  C34 UNL     1      -6.483   7.702  13.396  1.00  0.00     0.020 C 
ENDROOT
BRANCH   3  24
HETATM   24  O1  UNL     1      -6.889   5.044  16.164  1.00  0.00    -0.377 OA
HETATM   25  H2  UNL     1      -6.120   5.409  16.625  1.00  0.00     0.211 HD
ENDBRANCH   3  24
BRANCH  13  26
HETATM   26  O2  UNL     1       2.998   7.746  15.408  1.00  0.00    -0.271 OA
BRANCH  26  27
HETATM   27  C13 UNL     1       4.401   7.575  15.230  1.00  0.00     0.303 C 
BRANCH  27  28
HETATM   28  C14 UNL     1       5.068   8.937  15.079  1.00  0.00     0.244 C 
HETATM   29  O3  UNL     1       5.153   9.744  16.002  1.00  0.00    -0.271 OA
HETATM   30  N2  UNL     1       5.513   9.213  13.800  1.00  0.00    -0.346 N 
HETATM   31  H16 UNL     1       5.072   8.678  13.055  1.00  0.00     0.163 HD
BRANCH  30  32
HETATM   32  C15 UNL     1       5.955  10.562  13.457  1.00  0.00     0.180 C 
BRANCH  32  33
HETATM   33  C16 UNL     1       7.085  10.893  14.456  1.00  0.00     0.241 C 
HETATM   34  O4  UNL     1       7.101  11.933  15.117  1.00  0.00    -0.271 OA
HETATM   35  N3  UNL     1       8.055   9.923  14.563  1.00  0.00    -0.344 N 
HETATM   36  H18 UNL     1       7.862   9.000  14.186  1.00  0.00     0.163 HD
BRANCH  35  37
HETATM   37  C17 UNL     1       9.159  10.019  15.526  1.00  0.00     0.186 C 
BRANCH  37  38
HETATM   38  C18 UNL     1       9.438   8.604  16.029  1.00  0.00     0.163 C 
HETATM   39  O5  UNL     1       9.107   8.154  17.118  1.00  0.00    -0.648 OA
BRANCH  38  40
HETATM   40  O6  UNL     1      10.104   7.835  15.151  1.00  0.00    -0.775 OA
HETATM   41  H20 UNL     1      10.211   6.975  15.606  1.00  0.00     0.167 HD
ENDBRANCH  38  40
ENDBRANCH  37  38
BRANCH  37  42
HETATM   42  C19 UNL     1      10.399  10.691  14.892  1.00  0.00     0.014 C 
HETATM   43  C20 UNL     1      11.374   9.665  14.287  1.00  0.00     0.012 C 
BRANCH  42  44
HETATM   44  C21 UNL     1      11.182  11.612  15.848  1.00  0.00     0.002 C 
HETATM   45  C22 UNL     1      10.777  11.467  17.307  1.00  0.00     0.005 C 
ENDBRANCH  42  44
ENDBRANCH  37  42
ENDBRANCH  35  37
ENDBRANCH  32  33
BRANCH  32  46
HETATM   46  C23 UNL     1       4.806  11.586  13.565  1.00  0.00     0.009 C 
HETATM   47  C24 UNL     1       5.052  12.806  12.670  1.00  0.00     0.012 C 
HETATM   48  C25 UNL     1       3.458  10.954  13.191  1.00  0.00     0.012 C 
ENDBRANCH  32  46
ENDBRANCH  30  32
ENDBRANCH  27  28
ENDBRANCH  26  27
ENDBRANCH  13  26
TORSDOF 12
ENDMDL
MODEL 7
REMARK minimizedAffinity -8.23989773
REMARK CNNscore 0.173764095
REMARK CNNaffinity 6.8899498
REMARK  12 active torsions:
REMARK  status: ('A' for Active; 'I' for Inactive)
REMARK    1  A    between atoms: C3_3  and  O1_4 
REMARK    2  A    between atoms: N1_14  and  O2_16 
REMARK    3  A    between atoms: O2_16  and  C13_17 
REMARK    4  A    between atoms: C13_17  and  C14_18 
REMARK       I    between atoms: C14_18  and  N2_20 
REMARK    5  A    between atoms: N2_20  and  C15_21 
REMARK    6  A    between atoms: C15_21  and  C16_22 
REMARK    7  A    between atoms: C15_21  and  C23_33 
REMARK       I    between atoms: C16_22  and  N3_24 
REMARK    8  A    between atoms: N3_24  and  C17_25 
REMARK    9  A    between atoms: C17_25  and  C18_26 
REMARK   10  A    between atoms: C17_25  and  C19_29 
REMARK   11  A    between atoms: C18_26  and  O6_28 
REMARK   12  A    between atoms: C19_29  and  C21_31 
ROOT
HETATM    1  C1  UNL     1       2.287   9.193  12.193  1.00  0.00     0.015 C 
HETATM    2  C2  UNL     1       1.443   8.367  11.969  1.00  0.00    -0.078 C 
HETATM    3  C3  UNL     1       0.416   7.362  11.661  1.00  0.00     0.128 C 
HETATM    4  C4  UNL     1       0.984   5.924  11.627  1.00  0.00     0.052 C 
HETATM    5  C5  UNL     1      -0.189   5.000  12.036  1.00  0.00     0.010 C 
HETATM    6  C6  UNL     1      -1.375   5.946  12.261  1.00  0.00     0.002 C 
HETATM    7  C7  UNL     1      -2.540   5.436  13.137  1.00  0.00    -0.004 C 
HETATM    8  C8  UNL     1      -3.348   4.444  12.281  1.00  0.00     0.010 C 
HETATM    9  C9  UNL     1      -4.606   3.960  12.968  1.00  0.00     0.035 C 
HETATM   10  C10 UNL     1      -5.500   5.120  13.307  1.00  0.00    -0.069 C 
HETATM   11  C11 UNL     1      -6.787   5.099  12.918  1.00  0.00     0.030 C 
HETATM   12  C12 UNL     1      -7.760   6.116  13.387  1.00  0.00     0.032 C 
HETATM   13  N1  UNL     1      -8.986   6.033  12.943  1.00  0.00    -0.271 N 
ATOM     14  H1  UNL     1      -9.307   5.342  12.265  1.00  0.00     0.194 HD
HETATM   15  C26 UNL     1      -7.285   7.132  14.406  1.00  0.00     0.060 C 
HETATM   16  C27 UNL     1      -5.822   7.465  14.149  1.00  0.00     0.020 C 
HETATM   17  C28 UNL     1      -4.879   6.226  14.152  1.00  0.00    -0.016 C 
HETATM   18  C29 UNL     1      -4.780   5.683  15.602  1.00  0.00     0.020 C 
HETATM   19  C30 UNL     1      -3.407   6.623  13.696  1.00  0.00     0.002 C 
HETATM   20  C31 UNL     1      -3.257   7.861  12.779  1.00  0.00     0.007 C 
HETATM   21  C32 UNL     1      -1.799   8.380  12.714  1.00  0.00     0.014 C 
HETATM   22  C33 UNL     1      -0.729   7.262  12.726  1.00  0.00     0.003 C 
HETATM   23  C34 UNL     1      -0.134   7.152  14.162  1.00  0.00     0.020 C 
ENDROOT
BRANCH   3  24
HETATM   24  O1  UNL     1      -0.051   7.618  10.332  1.00  0.00    -0.377 OA
HETATM   25  H2  UNL     1      -0.911   8.059  10.369  1.00  0.00     0.211 HD
ENDBRANCH   3  24
BRANCH  13  26
HETATM   26  O2  UNL     1      -9.804   7.015  13.518  1.00  0.00    -0.271 OA
BRANCH  26  27
HETATM   27  C13 UNL     1     -10.873   7.311  12.624  1.00  0.00     0.303 C 
BRANCH  27  28
HETATM   28  C14 UNL     1     -11.916   8.162  13.337  1.00  0.00     0.244 C 
HETATM   29  O3  UNL     1     -12.415   9.167  12.833  1.00  0.00    -0.271 OA
HETATM   30  N2  UNL     1     -12.209   7.746  14.622  1.00  0.00    -0.346 N 
HETATM   31  H16 UNL     1     -11.498   7.171  15.070  1.00  0.00     0.163 HD
BRANCH  30  32
HETATM   32  C15 UNL     1     -13.006   8.596  15.500  1.00  0.00     0.180 C 
BRANCH  32  33
HETATM   33  C16 UNL     1     -14.331   8.842  14.746  1.00  0.00     0.241 C 
HETATM   34  O4  UNL     1     -14.808   9.968  14.597  1.00  0.00    -0.271 OA
HETATM   35  N3  UNL     1     -14.918   7.707  14.237  1.00  0.00    -0.344 N 
HETATM   36  H18 UNL     1     -14.363   6.858  14.180  1.00  0.00     0.163 HD
BRANCH  35  37
HETATM   37  C17 UNL     1     -16.132   7.751  13.415  1.00  0.00     0.186 C 
BRANCH  37  38
HETATM   38  C18 UNL     1     -15.686   7.962  11.969  1.00  0.00     0.163 C 
HETATM   39  O5  UNL     1     -15.554   7.085  11.125  1.00  0.00    -0.648 OA
BRANCH  38  40
HETATM   40  O6  UNL     1     -15.436   9.245  11.659  1.00  0.00    -0.775 OA
HETATM   41  H20 UNL     1     -15.161   9.225  10.720  1.00  0.00     0.167 HD
ENDBRANCH  38  40
ENDBRANCH  37  38
BRANCH  37  42
HETATM   42  C19 UNL     1     -16.985   6.475  13.605  1.00  0.00     0.014 C 
HETATM   43  C20 UNL     1     -18.127   6.680  14.616  1.00  0.00     0.012 C 
BRANCH  42  44
HETATM   44  C21 UNL     1     -16.179   5.227  14.018  1.00  0.00     0.002 C 
HETATM   45  C22 UNL     1     -16.602   4.640  15.356  1.00  0.00     0.005 C 
ENDBRANCH  42  44
ENDBRANCH  37  42
ENDBRANCH  35  37
ENDBRANCH  32  33
BRANCH  32  46
HETATM   46  C23 UNL     1     -12.292   9.929  15.810  1.00  0.00     0.009 C 
HETATM   47  C24 UNL     1     -12.636  10.440  17.214  1.00  0.00     0.012 C 
HETATM   48  C25 UNL     1     -10.769   9.787  15.688  1.00  0.00     0.012 C 
ENDBRANCH  32  46
ENDBRANCH  30  32
ENDBRANCH  27  28
ENDBRANCH  26  27
ENDBRANCH  13  26
TORSDOF 12
ENDMDL
MODEL 8
REMARK minimizedAffinity -7.55866909
REMARK CNNscore 0.17143251
REMARK CNNaffinity 5.70825815
REMARK  12 active torsions:
REMARK  status: ('A' for Active; 'I' for Inactive)
REMARK    1  A    between atoms: C3_3  and  O1_4 
REMARK    2  A    between atoms: N1_14  and  O2_16 
REMARK    3  A    between atoms: O2_16  and  C13_17 
REMARK    4  A    between atoms: C13_17  and  C14_18 
REMARK       I    between atoms: C14_18  and  N2_20 
REMARK    5  A    between atoms: N2_20  and  C15_21 
REMARK    6  A    between atoms: C15_21  and  C16_22 
REMARK    7  A    between atoms: C15_21  and  C23_33 
REMARK       I    between atoms: C16_22  and  N3_24 
REMARK    8  A    between atoms: N3_24  and  C17_25 
REMARK    9  A    between atoms: C17_25  and  C18_26 
REMARK   10  A    between atoms: C17_25  and  C19_29 
REMARK   11  A    between atoms: C18_26  and  O6_28 
REMARK   12  A    between atoms: C19_29  and  C21_31 
ROOT
HETATM    1  C1  UNL     1      -5.736   5.302  13.494  1.00  0.00     0.015 C 
HETATM    2  C2  UNL     1      -4.597   5.663  13.626  1.00  0.00    -0.078 C 
HETATM    3  C3  UNL     1      -3.197   6.072  13.800  1.00  0.00     0.128 C 
HETATM    4  C4  UNL     1      -2.358   5.885  12.515  1.00  0.00     0.052 C 
HETATM    5  C5  UNL     1      -1.247   6.960  12.577  1.00  0.00     0.010 C 
HETATM    6  C6  UNL     1      -1.486   7.696  13.901  1.00  0.00     0.002 C 
HETATM    7  C7  UNL     1      -0.891   9.114  14.049  1.00  0.00    -0.004 C 
HETATM    8  C8  UNL     1       0.621   8.947  14.284  1.00  0.00     0.010 C 
HETATM    9  C9  UNL     1       1.320  10.255  14.580  1.00  0.00     0.035 C 
HETATM   10  C10 UNL     1       0.728  10.904  15.799  1.00  0.00    -0.069 C 
HETATM   11  C11 UNL     1       1.535  11.285  16.805  1.00  0.00     0.030 C 
HETATM   12  C12 UNL     1       1.036  12.100  17.940  1.00  0.00     0.032 C 
HETATM   13  N1  UNL     1       1.885  12.409  18.884  1.00  0.00    -0.271 N 
ATOM     14  H1  UNL     1       2.854  12.092  18.913  1.00  0.00     0.194 HD
HETATM   15  C26 UNL     1      -0.399  12.582  17.886  1.00  0.00     0.060 C 
HETATM   16  C27 UNL     1      -1.263  11.535  17.196  1.00  0.00     0.020 C 
HETATM   17  C28 UNL     1      -0.776  11.151  15.768  1.00  0.00    -0.016 C 
HETATM   18  C29 UNL     1      -1.013  12.360  14.824  1.00  0.00     0.020 C 
HETATM   19  C30 UNL     1      -1.609   9.928  15.186  1.00  0.00     0.002 C 
HETATM   20  C31 UNL     1      -2.249   8.955  16.206  1.00  0.00     0.007 C 
HETATM   21  C32 UNL     1      -3.333   8.051  15.567  1.00  0.00     0.014 C 
HETATM   22  C33 UNL     1      -3.004   7.593  14.125  1.00  0.00     0.003 C 
HETATM   23  C34 UNL     1      -3.810   8.474  13.124  1.00  0.00     0.020 C 
ENDROOT
BRANCH   3  24
HETATM   24  O1  UNL     1      -2.609   5.196  14.769  1.00  0.00    -0.377 OA
HETATM   25  H2  UNL     1      -2.542   5.650  15.621  1.00  0.00     0.211 HD
ENDBRANCH   3  24
BRANCH  13  26
HETATM   26  O2  UNL     1       1.293  13.231  19.852  1.00  0.00    -0.271 OA
BRANCH  26  27
HETATM   27  C13 UNL     1       2.303  14.022  20.471  1.00  0.00     0.303 C 
BRANCH  27  28
HETATM   28  C14 UNL     1       2.713  13.386  21.794  1.00  0.00     0.244 C 
HETATM   29  O3  UNL     1       2.182  13.671  22.864  1.00  0.00    -0.271 OA
HETATM   30  N2  UNL     1       3.777  12.509  21.697  1.00  0.00    -0.346 N 
HETATM   31  H16 UNL     1       4.373  12.628  20.880  1.00  0.00     0.163 HD
BRANCH  30  32
HETATM   32  C15 UNL     1       4.425  12.012  22.907  1.00  0.00     0.180 C 
BRANCH  32  33
HETATM   33  C16 UNL     1       5.910  12.412  22.775  1.00  0.00     0.241 C 
HETATM   34  O4  UNL     1       6.821  11.755  23.282  1.00  0.00    -0.271 OA
HETATM   35  N3  UNL     1       6.132  13.546  22.027  1.00  0.00    -0.344 N 
HETATM   36  H18 UNL     1       5.379  13.895  21.442  1.00  0.00     0.163 HD
BRANCH  35  37
HETATM   37  C17 UNL     1       7.481  14.031  21.716  1.00  0.00     0.186 C 
BRANCH  37  38
HETATM   38  C18 UNL     1       8.304  13.919  22.998  1.00  0.00     0.163 C 
HETATM   39  O5  UNL     1       8.185  14.626  23.989  1.00  0.00    -0.648 OA
BRANCH  38  40
HETATM   40  O6  UNL     1       9.221  12.936  22.972  1.00  0.00    -0.775 OA
HETATM   41  H20 UNL     1       9.665  12.988  23.842  1.00  0.00     0.167 HD
ENDBRANCH  38  40
ENDBRANCH  37  38
BRANCH  37  42
HETATM   42  C19 UNL     1       8.097  13.250  20.531  1.00  0.00     0.014 C 
HETATM   43  C20 UNL     1       7.215  12.070  20.087  1.00  0.00     0.012 C 
BRANCH  42  44
HETATM   44  C21 UNL     1       9.526  12.730  20.786  1.00  0.00     0.002 C 
HETATM   45  C22 UNL     1       9.890  11.510  19.954  1.00  0.00     0.005 C 
ENDBRANCH  42  44
ENDBRANCH  37  42
ENDBRANCH  35  37
ENDBRANCH  32  33
BRANCH  32  46
HETATM   46  C23 UNL     1       4.277  10.482  23.049  1.00  0.00     0.009 C 
HETATM   47  C24 UNL     1       3.056  10.109  23.897  1.00  0.00     0.012 C 
HETATM   48  C25 UNL     1       4.159   9.804  21.676  1.00  0.00     0.012 C 
ENDBRANCH  32  46
ENDBRANCH  30  32
ENDBRANCH  27  28
ENDBRANCH  26  27
ENDBRANCH  13  26
TORSDOF 12
ENDMDL
MODEL 9
REMARK minimizedAffinity -8.58980656
REMARK CNNscore 0.168412328
REMARK CNNaffinity 6.84280634
REMARK  12 active torsions:
REMARK  status: ('A' for Active; 'I' for Inactive)
REMARK    1  A    between atoms: C3_3  and  O1_4 
REMARK    2  A    between atoms: N1_14  and  O2_16 
REMARK    3  A    between atoms: O2_16  and  C13_17 
REMARK    4  A    between atoms: C13_17  and  C14_18 
REMARK       I    between atoms: C14_18  and  N2_20 
REMARK    5  A    between atoms: N2_20  and  C15_21 
REMARK    6  A    between atoms: C15_21  and  C16_22 
REMARK    7  A    between atoms: C15_21  and  C23_33 
REMARK       I    between atoms: C16_22  and  N3_24 
REMARK    8  A    between atoms: N3_24  and  C17_25 
REMARK    9  A    between atoms: C17_25  and  C18_26 
REMARK   10  A    between atoms: C17_25  and  C19_29 
REMARK   11  A    between atoms: C18_26  and  O6_28 
REMARK   12  A    between atoms: C19_29  and  C21_31 
ROOT
HETATM    1  C1  UNL     1       0.794   9.224  13.878  1.00  0.00     0.015 C 
HETATM    2  C2  UNL     1      -0.040   8.478  13.440  1.00  0.00    -0.078 C 
HETATM    3  C3  UNL     1      -1.051   7.576  12.872  1.00  0.00     0.128 C 
HETATM    4  C4  UNL     1      -0.522   6.135  12.679  1.00  0.00     0.052 C 
HETATM    5  C5  UNL     1      -1.757   5.212  12.810  1.00  0.00     0.010 C 
HETATM    6  C6  UNL     1      -2.936   6.164  13.048  1.00  0.00     0.002 C 
HETATM    7  C7  UNL     1      -4.206   5.580  13.704  1.00  0.00    -0.004 C 
HETATM    8  C8  UNL     1      -4.937   4.763  12.624  1.00  0.00     0.010 C 
HETATM    9  C9  UNL     1      -6.277   4.236  13.088  1.00  0.00     0.035 C 
HETATM   10  C10 UNL     1      -7.173   5.369  13.503  1.00  0.00    -0.069 C 
HETATM   11  C11 UNL     1      -8.408   5.463  12.978  1.00  0.00     0.030 C 
HETATM   12  C12 UNL     1      -9.401   6.439  13.490  1.00  0.00     0.032 C 
HETATM   13  N1  UNL     1     -10.570   6.476  12.908  1.00  0.00    -0.271 N 
ATOM     14  H1  UNL     1     -10.830   5.909  12.101  1.00  0.00     0.194 HD
HETATM   15  C26 UNL     1      -9.018   7.269  14.698  1.00  0.00     0.060 C 
HETATM   16  C27 UNL     1      -7.527   7.573  14.656  1.00  0.00     0.020 C 
HETATM   17  C28 UNL     1      -6.623   6.309  14.569  1.00  0.00    -0.016 C 
HETATM   18  C29 UNL     1      -6.703   5.550  15.921  1.00  0.00     0.020 C 
HETATM   19  C30 UNL     1      -5.099   6.705  14.342  1.00  0.00     0.002 C 
HETATM   20  C31 UNL     1      -4.814   8.060  13.649  1.00  0.00     0.007 C 
HETATM   21  C32 UNL     1      -3.344   8.519  13.823  1.00  0.00     0.014 C 
HETATM   22  C33 UNL     1      -2.312   7.366  13.778  1.00  0.00     0.003 C 
HETATM   23  C34 UNL     1      -1.887   7.017  15.236  1.00  0.00     0.020 C 
ENDROOT
BRANCH   3  24
HETATM   24  O1  UNL     1      -1.358   8.048  11.555  1.00  0.00    -0.377 OA
HETATM   25  H2  UNL     1      -2.205   8.515  11.566  1.00  0.00     0.211 HD
ENDBRANCH   3  24
BRANCH  13  26
HETATM   26  O2  UNL     1     -11.422   7.395  13.535  1.00  0.00    -0.271 OA
BRANCH  26  27
HETATM   27  C13 UNL     1     -12.133   6.733  14.577  1.00  0.00     0.303 C 
BRANCH  27  28
HETATM   28  C14 UNL     1     -13.621   6.712  14.249  1.00  0.00     0.244 C 
HETATM   29  O3  UNL     1     -14.152   7.536  13.508  1.00  0.00    -0.271 OA
HETATM   30  N2  UNL     1     -14.334   5.728  14.906  1.00  0.00    -0.346 N 
HETATM   31  H16 UNL     1     -13.903   5.364  15.754  1.00  0.00     0.163 HD
BRANCH  30  32
HETATM   32  C15 UNL     1     -15.794   5.738  14.873  1.00  0.00     0.180 C 
BRANCH  32  33
HETATM   33  C16 UNL     1     -16.219   4.255  14.923  1.00  0.00     0.241 C 
HETATM   34  O4  UNL     1     -17.354   3.902  15.244  1.00  0.00    -0.271 OA
HETATM   35  N3  UNL     1     -15.234   3.366  14.557  1.00  0.00    -0.344 N 
HETATM   36  H18 UNL     1     -14.414   3.722  14.075  1.00  0.00     0.163 HD
BRANCH  35  37
HETATM   37  C17 UNL     1     -15.476   1.922  14.456  1.00  0.00     0.186 C 
BRANCH  37  38
HETATM   38  C18 UNL     1     -15.221   1.327  15.840  1.00  0.00     0.163 C 
HETATM   39  O5  UNL     1     -15.963   1.421  16.807  1.00  0.00    -0.648 OA
BRANCH  38  40
HETATM   40  O6  UNL     1     -14.064   0.650  15.935  1.00  0.00    -0.775 OA
HETATM   41  H20 UNL     1     -14.035   0.336  16.861  1.00  0.00     0.167 HD
ENDBRANCH  38  40
ENDBRANCH  37  38
BRANCH  37  42
HETATM   42  C19 UNL     1     -16.898   1.629  13.924  1.00  0.00     0.014 C 
HETATM   43  C20 UNL     1     -17.411   0.245  14.360  1.00  0.00     0.012 C 
BRANCH  42  44
HETATM   44  C21 UNL     1     -17.042   1.748  12.393  1.00  0.00     0.002 C 
HETATM   45  C22 UNL     1     -17.674   0.529  11.741  1.00  0.00     0.005 C 
ENDBRANCH  42  44
ENDBRANCH  37  42
ENDBRANCH  35  37
ENDBRANCH  32  33
BRANCH  32  46
HETATM   46  C23 UNL     1     -16.332   6.423  13.599  1.00  0.00     0.009 C 
HETATM   47  C24 UNL     1     -16.962   5.410  12.636  1.00  0.00     0.012 C 
HETATM   48  C25 UNL     1     -17.371   7.501  13.942  1.00  0.00     0.012 C 
ENDBRANCH  32  46
ENDBRANCH  30  32
ENDBRANCH  27  28
ENDBRANCH  26  27
ENDBRANCH  13  26
TORSDOF 12
ENDMDL
