MODEL 1
REMARK minimizedAffinity -9.01457024
REMARK CNNscore 0.761209607
REMARK CNNaffinity 7.10971212
REMARK  13 active torsions:
REMARK  status: ('A' for Active; 'I' for Inactive)
REMARK    1  A    between atoms: O1_2  and  C2_3 
REMARK    2  A    between atoms: C2_3  and  C3_5 
REMARK    3  A    between atoms: C3_5  and  C4_6 
REMARK    4  A    between atoms: C3_5  and  N3_13 
REMARK    5  A    between atoms: C4_6  and  C5_7 
REMARK       I    between atoms: N3_13  and  C8_14 
REMARK    6  A    between atoms: C8_14  and  C9_16 
REMARK    7  A    between atoms: C9_16  and  C10_17 
REMARK    8  A    between atoms: C10_17  and  C11_18 
REMARK    9  A    between atoms: C11_18  and  O5_20 
REMARK   10  A    between atoms: O5_20  and  C12_21 
REMARK   11  A    between atoms: C12_21  and  C13_22 
REMARK   12  A    between atoms: C13_22  and  C14_24 
REMARK   13  A    between atoms: C14_24  and  O7_25 
ROOT
HETATM    1  C13 UNL     1      -1.129  11.290  14.630  1.00  0.00     0.185 C 
HETATM    2  O6  UNL     1      -1.738  12.222  14.087  1.00  0.00    -0.292 OA
ENDROOT
BRANCH   1   3
HETATM    3  C12 UNL     1      -0.061  11.572  15.677  1.00  0.00     0.260 C 
BRANCH   3   4
HETATM    4  O5  UNL     1      -0.595  11.538  17.003  1.00  0.00    -0.314 OA
BRANCH   4   5
HETATM    5  C11 UNL     1      -0.718  12.760  17.591  1.00  0.00     0.259 C 
HETATM    6  O4  UNL     1      -0.788  13.816  16.979  1.00  0.00    -0.265 OA
BRANCH   5   7
HETATM    7  C10 UNL     1      -0.729  12.616  19.092  1.00  0.00     0.120 C 
BRANCH   7   8
HETATM    8  C9  UNL     1      -0.189  11.253  19.506  1.00  0.00     0.112 C 
BRANCH   8   9
HETATM    9  C8  UNL     1       1.051  11.350  20.372  1.00  0.00     0.218 C 
HETATM   10  N3  UNL     1       1.509  10.113  20.778  1.00  0.00    -0.347 N 
HETATM   11  H10 UNL     1       0.847   9.344  20.734  1.00  0.00     0.163 HD
HETATM   12  O3  UNL     1       1.582  12.403  20.701  1.00  0.00    -0.274 OA
BRANCH  10  13
HETATM   13  C3  UNL     1       2.556  10.001  21.801  1.00  0.00     0.190 C 
BRANCH  13  14
HETATM   14  C2  UNL     1       2.423   8.736  22.669  1.00  0.00     0.281 C 
HETATM   15  O2  UNL     1       1.860   7.712  22.295  1.00  0.00    -0.263 OA
BRANCH  14  16
HETATM   16  O1  UNL     1       2.975   8.900  23.905  1.00  0.00    -0.325 OA
HETATM   17  C1  UNL     1       2.442   9.989  24.659  1.00  0.00     0.213 C 
ENDBRANCH  14  16
ENDBRANCH  13  14
BRANCH  13  18
HETATM   18  C4  UNL     1       3.960  10.054  21.173  1.00  0.00     0.093 C 
BRANCH  18  19
HETATM   19  C5  UNL     1       4.765  11.232  21.619  1.00  0.00     0.028 A 
HETATM   20  C6  UNL     1       4.785  11.946  22.797  1.00  0.00     0.114 A 
HETATM   21  N1  UNL     1       5.670  12.988  22.718  1.00  0.00    -0.360 N 
HETATM   22  C7  UNL     1       6.217  12.894  21.530  1.00  0.00     0.180 A 
ATOM     23  H1  UNL     1       5.863  13.689  23.433  1.00  0.00     0.166 HD
HETATM   24  N2  UNL     1       5.714  11.836  20.828  1.00  0.00    -0.354 N 
HETATM   25  H9  UNL     1       5.976  11.566  19.887  1.00  0.00     0.166 HD
ENDBRANCH  18  19
ENDBRANCH  13  18
ENDBRANCH  10  13
ENDBRANCH   8   9
ENDBRANCH   7   8
ENDBRANCH   5   7
ENDBRANCH   4   5
ENDBRANCH   3   4
ENDBRANCH   1   3
BRANCH   1  26
HETATM   26  C14 UNL     1      -1.445   9.840  14.199  1.00  0.00     0.128 C 
HETATM   27  C15 UNL     1      -0.296   8.852  14.501  1.00  0.00     0.047 C 
HETATM   28  C16 UNL     1      -0.944   7.451  14.602  1.00  0.00     0.009 C 
HETATM   29  C17 UNL     1      -2.399   7.667  14.188  1.00  0.00     0.002 C 
HETATM   30  C18 UNL     1      -3.465   6.633  14.585  1.00  0.00     0.003 C 
HETATM   31  C31 UNL     1      -2.707   9.104  14.729  1.00  0.00     0.005 C 
HETATM   32  C19 UNL     1      -3.114   5.184  14.197  1.00  0.00     0.010 C 
HETATM   33  C28 UNL     1      -4.828   7.099  13.983  1.00  0.00     0.072 C 
HETATM   34  C20 UNL     1      -4.024   4.593  13.124  1.00  0.00     0.035 C 
HETATM   35  C21 UNL     1      -5.501   4.771  13.400  1.00  0.00    -0.067 C 
HETATM   36  C22 UNL     1      -6.379   3.890  12.888  1.00  0.00     0.053 C 
HETATM   37  C26 UNL     1      -5.945   6.028  14.168  1.00  0.00    -0.009 C 
HETATM   38  C23 UNL     1      -7.843   4.088  13.008  1.00  0.00     0.149 C 
HETATM   39  O8  UNL     1      -8.596   3.168  12.698  1.00  0.00    -0.293 OA
HETATM   40  C24 UNL     1      -8.360   5.408  13.533  1.00  0.00     0.084 C 
HETATM   41  C25 UNL     1      -7.287   6.498  13.547  1.00  0.00     0.022 C 
HETATM   42  C27 UNL     1      -6.152   5.667  15.659  1.00  0.00     0.021 C 
HETATM   43  C29 UNL     1      -5.114   8.520  14.489  1.00  0.00     0.133 C 
HETATM   44  O9  UNL     1      -6.110   8.829  15.138  1.00  0.00    -0.297 OA
HETATM   45  C30 UNL     1      -4.052   9.561  14.142  1.00  0.00     0.091 C 
HETATM   46  C32 UNL     1      -2.815   9.134  16.278  1.00  0.00     0.019 C 
BRANCH  26  47
HETATM   47  O7  UNL     1      -1.564   9.894  12.753  1.00  0.00    -0.381 OA
HETATM   48  H17 UNL     1      -1.069  10.690  12.461  1.00  0.00     0.211 HD
ENDBRANCH  26  47
ENDBRANCH   1  26
TORSDOF 13
ENDMDL
MODEL 2
REMARK minimizedAffinity -7.70789099
REMARK CNNscore 0.529248059
REMARK CNNaffinity 7.20029688
REMARK  13 active torsions:
REMARK  status: ('A' for Active; 'I' for Inactive)
REMARK    1  A    between atoms: O1_2  and  C2_3 
REMARK    2  A    between atoms: C2_3  and  C3_5 
REMARK    3  A    between atoms: C3_5  and  C4_6 
REMARK    4  A    between atoms: C3_5  and  N3_13 
REMARK    5  A    between atoms: C4_6  and  C5_7 
REMARK       I    between atoms: N3_13  and  C8_14 
REMARK    6  A    between atoms: C8_14  and  C9_16 
REMARK    7  A    between atoms: C9_16  and  C10_17 
REMARK    8  A    between atoms: C10_17  and  C11_18 
REMARK    9  A    between atoms: C11_18  and  O5_20 
REMARK   10  A    between atoms: O5_20  and  C12_21 
REMARK   11  A    between atoms: C12_21  and  C13_22 
REMARK   12  A    between atoms: C13_22  and  C14_24 
REMARK   13  A    between atoms: C14_24  and  O7_25 
ROOT
HETATM    1  C13 UNL     1      -4.047   5.885  14.404  1.00  0.00     0.185 C 
HETATM    2  O6  UNL     1      -4.323   4.735  14.032  1.00  0.00    -0.292 OA
ENDROOT
BRANCH   1   3
HETATM    3  C12 UNL     1      -2.625   6.415  14.280  1.00  0.00     0.260 C 
BRANCH   3   4
HETATM    4  O5  UNL     1      -2.243   6.598  12.914  1.00  0.00    -0.314 OA
BRANCH   4   5
HETATM    5  C11 UNL     1      -1.713   7.821  12.639  1.00  0.00     0.259 C 
HETATM    6  O4  UNL     1      -2.369   8.805  12.329  1.00  0.00    -0.265 OA
BRANCH   5   7
HETATM    7  C10 UNL     1      -0.209   7.772  12.748  1.00  0.00     0.120 C 
BRANCH   7   8
HETATM    8  C9  UNL     1       0.341   6.536  12.048  1.00  0.00     0.112 C 
BRANCH   8   9
HETATM    9  C8  UNL     1       1.272   6.877  10.901  1.00  0.00     0.218 C 
HETATM   10  N3  UNL     1       2.309   5.973  10.778  1.00  0.00    -0.347 N 
HETATM   11  H10 UNL     1       2.517   5.403  11.592  1.00  0.00     0.163 HD
HETATM   12  O3  UNL     1       1.143   7.853  10.174  1.00  0.00    -0.274 OA
BRANCH  10  13
HETATM   13  C3  UNL     1       3.438   6.248   9.880  1.00  0.00     0.190 C 
BRANCH  13  14
HETATM   14  C2  UNL     1       3.049   7.113   8.666  1.00  0.00     0.281 C 
HETATM   15  O2  UNL     1       3.360   8.294   8.547  1.00  0.00    -0.263 OA
BRANCH  14  16
HETATM   16  O1  UNL     1       2.299   6.422   7.762  1.00  0.00    -0.325 OA
HETATM   17  C1  UNL     1       1.782   7.210   6.688  1.00  0.00     0.213 C 
ENDBRANCH  14  16
ENDBRANCH  13  14
BRANCH  13  18
HETATM   18  C4  UNL     1       4.606   6.908  10.635  1.00  0.00     0.093 C 
BRANCH  18  19
HETATM   19  C5  UNL     1       4.168   7.712  11.816  1.00  0.00     0.028 A 
HETATM   20  C6  UNL     1       3.837   9.042  11.959  1.00  0.00     0.114 A 
HETATM   21  N1  UNL     1       3.542   9.331  13.264  1.00  0.00    -0.360 N 
HETATM   22  C7  UNL     1       3.648   8.193  13.908  1.00  0.00     0.180 A 
ATOM     23  H1  UNL     1       3.292  10.240  13.654  1.00  0.00     0.166 HD
HETATM   24  N2  UNL     1       4.011   7.176  13.073  1.00  0.00    -0.354 N 
HETATM   25  H9  UNL     1       4.161   6.210  13.341  1.00  0.00     0.166 HD
ENDBRANCH  18  19
ENDBRANCH  13  18
ENDBRANCH  10  13
ENDBRANCH   8   9
ENDBRANCH   7   8
ENDBRANCH   5   7
ENDBRANCH   4   5
ENDBRANCH   3   4
ENDBRANCH   1   3
BRANCH   1  26
HETATM   26  C14 UNL     1      -5.160   6.756  15.027  1.00  0.00     0.128 C 
HETATM   27  C15 UNL     1      -4.691   8.188  15.371  1.00  0.00     0.047 C 
HETATM   28  C16 UNL     1      -5.963   9.069  15.386  1.00  0.00     0.009 C 
HETATM   29  C17 UNL     1      -7.118   8.083  15.220  1.00  0.00     0.002 C 
HETATM   30  C18 UNL     1      -8.488   8.589  14.739  1.00  0.00     0.003 C 
HETATM   31  C31 UNL     1      -6.509   6.982  14.288  1.00  0.00     0.005 C 
HETATM   32  C19 UNL     1      -9.043   9.776  15.549  1.00  0.00     0.010 C 
HETATM   33  C28 UNL     1      -9.465   7.372  14.718  1.00  0.00     0.072 C 
HETATM   34  C20 UNL     1     -10.294   9.444  16.357  1.00  0.00     0.035 C 
HETATM   35  C21 UNL     1     -11.371   8.737  15.563  1.00  0.00    -0.067 C 
HETATM   36  C22 UNL     1     -12.657   8.864  15.939  1.00  0.00     0.053 C 
HETATM   37  C26 UNL     1     -10.932   7.806  14.420  1.00  0.00    -0.009 C 
HETATM   38  C23 UNL     1     -13.739   8.089  15.287  1.00  0.00     0.149 C 
HETATM   39  O8  UNL     1     -14.908   8.379  15.530  1.00  0.00    -0.293 OA
HETATM   40  C24 UNL     1     -13.368   6.982  14.325  1.00  0.00     0.084 C 
HETATM   41  C25 UNL     1     -11.893   6.588  14.422  1.00  0.00     0.022 C 
HETATM   42  C27 UNL     1     -11.045   8.564  13.075  1.00  0.00     0.021 C 
HETATM   43  C29 UNL     1      -8.852   6.281  13.828  1.00  0.00     0.133 C 
HETATM   44  O9  UNL     1      -9.399   5.825  12.827  1.00  0.00    -0.297 OA
HETATM   45  C30 UNL     1      -7.474   5.786  14.261  1.00  0.00     0.091 C 
HETATM   46  C32 UNL     1      -6.319   7.489  12.833  1.00  0.00     0.019 C 
BRANCH  26  47
HETATM   47  O7  UNL     1      -5.475   6.117  16.292  1.00  0.00    -0.381 OA
HETATM   48  H17 UNL     1      -4.687   5.585  16.540  1.00  0.00     0.211 HD
ENDBRANCH  26  47
ENDBRANCH   1  26
TORSDOF 13
ENDMDL
MODEL 3
REMARK minimizedAffinity -7.69756365
REMARK CNNscore 0.382894427
REMARK CNNaffinity 6.04373026
REMARK  13 active torsions:
REMARK  status: ('A' for Active; 'I' for Inactive)
REMARK    1  A    between atoms: O1_2  and  C2_3 
REMARK    2  A    between atoms: C2_3  and  C3_5 
REMARK    3  A    between atoms: C3_5  and  C4_6 
REMARK    4  A    between atoms: C3_5  and  N3_13 
REMARK    5  A    between atoms: C4_6  and  C5_7 
REMARK       I    between atoms: N3_13  and  C8_14 
REMARK    6  A    between atoms: C8_14  and  C9_16 
REMARK    7  A    between atoms: C9_16  and  C10_17 
REMARK    8  A    between atoms: C10_17  and  C11_18 
REMARK    9  A    between atoms: C11_18  and  O5_20 
REMARK   10  A    between atoms: O5_20  and  C12_21 
REMARK   11  A    between atoms: C12_21  and  C13_22 
REMARK   12  A    between atoms: C13_22  and  C14_24 
REMARK   13  A    between atoms: C14_24  and  O7_25 
ROOT
HETATM    1  C13 UNL     1      -0.597  11.663  18.678  1.00  0.00     0.185 C 
HETATM    2  O6  UNL     1      -0.546  12.900  18.725  1.00  0.00    -0.292 OA
ENDROOT
BRANCH   1   3
HETATM    3  C12 UNL     1       0.621  10.826  19.042  1.00  0.00     0.260 C 
BRANCH   3   4
HETATM    4  O5  UNL     1       1.001  11.005  20.409  1.00  0.00    -0.314 OA
BRANCH   4   5
HETATM    5  C11 UNL     1       2.252  10.559  20.707  1.00  0.00     0.259 C 
HETATM    6  O4  UNL     1       2.791   9.602  20.170  1.00  0.00    -0.265 OA
BRANCH   5   7
HETATM    7  C10 UNL     1       2.855  11.401  21.804  1.00  0.00     0.120 C 
BRANCH   7   8
HETATM    8  C9  UNL     1       4.112  10.744  22.358  1.00  0.00     0.112 C 
BRANCH   8   9
HETATM    9  C8  UNL     1       5.367  11.549  22.083  1.00  0.00     0.218 C 
HETATM   10  N3  UNL     1       5.969  11.997  23.241  1.00  0.00    -0.347 N 
HETATM   11  H10 UNL     1       5.393  12.021  24.077  1.00  0.00     0.163 HD
HETATM   12  O3  UNL     1       5.794  11.800  20.964  1.00  0.00    -0.274 OA
BRANCH  10  13
HETATM   13  C3  UNL     1       7.061  12.977  23.185  1.00  0.00     0.190 C 
BRANCH  13  14
HETATM   14  C2  UNL     1       8.441  12.335  22.948  1.00  0.00     0.281 C 
HETATM   15  O2  UNL     1       8.728  11.194  23.297  1.00  0.00    -0.263 OA
BRANCH  14  16
HETATM   16  O1  UNL     1       9.307  13.190  22.334  1.00  0.00    -0.325 OA
HETATM   17  C1  UNL     1      10.090  12.602  21.294  1.00  0.00     0.213 C 
ENDBRANCH  14  16
ENDBRANCH  13  14
BRANCH  13  18
HETATM   18  C4  UNL     1       6.796  14.049  22.112  1.00  0.00     0.093 C 
BRANCH  18  19
HETATM   19  C5  UNL     1       6.410  15.375  22.682  1.00  0.00     0.028 A 
HETATM   20  C6  UNL     1       6.961  16.631  22.559  1.00  0.00     0.114 A 
HETATM   21  N1  UNL     1       6.274  17.540  23.318  1.00  0.00    -0.360 N 
HETATM   22  C7  UNL     1       5.292  16.866  23.868  1.00  0.00     0.180 A 
ATOM     23  H1  UNL     1       6.482  18.532  23.432  1.00  0.00     0.166 HD
HETATM   24  N2  UNL     1       5.320  15.551  23.502  1.00  0.00    -0.354 N 
HETATM   25  H9  UNL     1       4.669  14.835  23.804  1.00  0.00     0.166 HD
ENDBRANCH  18  19
ENDBRANCH  13  18
ENDBRANCH  10  13
ENDBRANCH   8   9
ENDBRANCH   7   8
ENDBRANCH   5   7
ENDBRANCH   4   5
ENDBRANCH   3   4
ENDBRANCH   1   3
BRANCH   1  26
HETATM   26  C14 UNL     1      -1.905  10.987  18.211  1.00  0.00     0.128 C 
HETATM   27  C15 UNL     1      -3.120  11.942  18.217  1.00  0.00     0.047 C 
HETATM   28  C16 UNL     1      -4.133  11.362  17.202  1.00  0.00     0.009 C 
HETATM   29  C17 UNL     1      -3.537  10.018  16.786  1.00  0.00     0.002 C 
HETATM   30  C18 UNL     1      -4.000   9.353  15.480  1.00  0.00     0.003 C 
HETATM   31  C31 UNL     1      -1.996  10.291  16.823  1.00  0.00     0.005 C 
HETATM   32  C19 UNL     1      -5.528   9.209  15.350  1.00  0.00     0.010 C 
HETATM   33  C28 UNL     1      -3.258   7.985  15.354  1.00  0.00     0.072 C 
HETATM   34  C20 UNL     1      -6.018   7.764  15.374  1.00  0.00     0.035 C 
HETATM   35  C21 UNL     1      -5.273   6.844  14.432  1.00  0.00    -0.067 C 
HETATM   36  C22 UNL     1      -5.894   5.752  13.949  1.00  0.00     0.053 C 
HETATM   37  C26 UNL     1      -3.789   7.141  14.156  1.00  0.00    -0.009 C 
HETATM   38  C23 UNL     1      -5.177   4.743  13.135  1.00  0.00     0.149 C 
HETATM   39  O8  UNL     1      -5.824   3.872  12.560  1.00  0.00    -0.293 OA
HETATM   40  C24 UNL     1      -3.671   4.835  13.020  1.00  0.00     0.084 C 
HETATM   41  C25 UNL     1      -3.057   5.776  14.057  1.00  0.00     0.022 C 
HETATM   42  C27 UNL     1      -3.664   7.904  12.816  1.00  0.00     0.021 C 
HETATM   43  C29 UNL     1      -1.748   8.250  15.422  1.00  0.00     0.133 C 
HETATM   44  O9  UNL     1      -0.958   7.948  14.531  1.00  0.00    -0.297 OA
HETATM   45  C30 UNL     1      -1.266   8.945  16.692  1.00  0.00     0.091 C 
HETATM   46  C32 UNL     1      -1.537  11.210  15.659  1.00  0.00     0.019 C 
BRANCH  26  47
HETATM   47  O7  UNL     1      -2.183   9.971  19.210  1.00  0.00    -0.381 OA
HETATM   48  H17 UNL     1      -1.710  10.246  20.026  1.00  0.00     0.211 HD
ENDBRANCH  26  47
ENDBRANCH   1  26
TORSDOF 13
ENDMDL
MODEL 4
REMARK minimizedAffinity -8.84175682
REMARK CNNscore 0.378625602
REMARK CNNaffinity 6.90880442
REMARK  13 active torsions:
REMARK  status: ('A' for Active; 'I' for Inactive)
REMARK    1  A    between atoms: O1_2  and  C2_3 
REMARK    2  A    between atoms: C2_3  and  C3_5 
REMARK    3  A    between atoms: C3_5  and  C4_6 
REMARK    4  A    between atoms: C3_5  and  N3_13 
REMARK    5  A    between atoms: C4_6  and  C5_7 
REMARK       I    between atoms: N3_13  and  C8_14 
REMARK    6  A    between atoms: C8_14  and  C9_16 
REMARK    7  A    between atoms: C9_16  and  C10_17 
REMARK    8  A    between atoms: C10_17  and  C11_18 
REMARK    9  A    between atoms: C11_18  and  O5_20 
REMARK   10  A    between atoms: O5_20  and  C12_21 
REMARK   11  A    between atoms: C12_21  and  C13_22 
REMARK   12  A    between atoms: C13_22  and  C14_24 
REMARK   13  A    between atoms: C14_24  and  O7_25 
ROOT
HETATM    1  C13 UNL     1      -1.287   6.521  14.248  1.00  0.00     0.185 C 
HETATM    2  O6  UNL     1      -1.243   7.328  15.187  1.00  0.00    -0.292 OA
ENDROOT
BRANCH   1   3
HETATM    3  C12 UNL     1      -0.006   5.922  13.685  1.00  0.00     0.260 C 
BRANCH   3   4
HETATM    4  O5  UNL     1       0.397   6.567  12.474  1.00  0.00    -0.314 OA
BRANCH   4   5
HETATM    5  C11 UNL     1       1.361   7.515  12.637  1.00  0.00     0.259 C 
HETATM    6  O4  UNL     1       2.298   7.420  13.416  1.00  0.00    -0.265 OA
BRANCH   5   7
HETATM    7  C10 UNL     1       1.085   8.695  11.739  1.00  0.00     0.120 C 
BRANCH   7   8
HETATM    8  C9  UNL     1       0.547   8.232  10.391  1.00  0.00     0.112 C 
BRANCH   8   9
HETATM    9  C8  UNL     1       1.556   7.420   9.603  1.00  0.00     0.218 C 
HETATM   10  N3  UNL     1       2.526   6.859  10.410  1.00  0.00    -0.347 N 
HETATM   11  H10 UNL     1       2.651   7.271  11.329  1.00  0.00     0.163 HD
HETATM   12  O3  UNL     1       1.537   7.290   8.386  1.00  0.00    -0.274 OA
BRANCH  10  13
HETATM   13  C3  UNL     1       3.715   6.229   9.821  1.00  0.00     0.190 C 
BRANCH  13  14
HETATM   14  C2  UNL     1       5.002   6.498  10.623  1.00  0.00     0.281 C 
HETATM   15  O2  UNL     1       6.013   5.807  10.537  1.00  0.00    -0.263 OA
BRANCH  14  16
HETATM   16  O1  UNL     1       4.875   7.571  11.454  1.00  0.00    -0.325 OA
HETATM   17  C1  UNL     1       5.804   7.600  12.539  1.00  0.00     0.213 C 
ENDBRANCH  14  16
ENDBRANCH  13  14
BRANCH  13  18
HETATM   18  C4  UNL     1       3.517   4.712   9.651  1.00  0.00     0.093 C 
BRANCH  18  19
HETATM   19  C5  UNL     1       3.743   4.239   8.251  1.00  0.00     0.028 A 
HETATM   20  C6  UNL     1       3.233   4.654   7.040  1.00  0.00     0.114 A 
HETATM   21  N1  UNL     1       3.705   3.872   6.021  1.00  0.00    -0.360 N 
HETATM   22  C7  UNL     1       4.524   3.016   6.586  1.00  0.00     0.180 A 
ATOM     23  H1  UNL     1       3.470   3.940   5.031  1.00  0.00     0.166 HD
HETATM   24  N2  UNL     1       4.594   3.207   7.936  1.00  0.00    -0.354 N 
HETATM   25  H9  UNL     1       5.153   2.665   8.585  1.00  0.00     0.166 HD
ENDBRANCH  18  19
ENDBRANCH  13  18
ENDBRANCH  10  13
ENDBRANCH   8   9
ENDBRANCH   7   8
ENDBRANCH   5   7
ENDBRANCH   4   5
ENDBRANCH   3   4
ENDBRANCH   1   3
BRANCH   1  26
HETATM   26  C14 UNL     1      -2.659   6.164  13.633  1.00  0.00     0.128 C 
HETATM   27  C15 UNL     1      -2.730   4.713  13.105  1.00  0.00     0.047 C 
HETATM   28  C16 UNL     1      -4.227   4.324  13.106  1.00  0.00     0.009 C 
HETATM   29  C17 UNL     1      -4.961   5.614  13.470  1.00  0.00     0.002 C 
HETATM   30  C18 UNL     1      -6.399   5.544  14.010  1.00  0.00     0.003 C 
HETATM   31  C31 UNL     1      -3.969   6.317  14.456  1.00  0.00     0.005 C 
HETATM   32  C19 UNL     1      -7.365   4.727  13.131  1.00  0.00     0.010 C 
HETATM   33  C28 UNL     1      -6.893   7.008  14.239  1.00  0.00     0.072 C 
HETATM   34  C20 UNL     1      -8.458   5.562  12.470  1.00  0.00     0.035 C 
HETATM   35  C21 UNL     1      -9.188   6.486  13.420  1.00  0.00    -0.067 C 
HETATM   36  C22 UNL     1     -10.454   6.850  13.143  1.00  0.00     0.053 C 
HETATM   37  C26 UNL     1      -8.405   7.062  14.612  1.00  0.00    -0.009 C 
HETATM   38  C23 UNL     1     -11.172   7.856  13.960  1.00  0.00     0.149 C 
HETATM   39  O8  UNL     1     -12.378   8.013  13.788  1.00  0.00    -0.293 OA
HETATM   40  C24 UNL     1     -10.399   8.642  14.996  1.00  0.00     0.084 C 
HETATM   41  C25 UNL     1      -8.884   8.523  14.817  1.00  0.00     0.022 C 
HETATM   42  C27 UNL     1      -8.714   6.224  15.876  1.00  0.00     0.021 C 
HETATM   43  C29 UNL     1      -5.902   7.705  15.181  1.00  0.00     0.133 C 
HETATM   44  O9  UNL     1      -6.213   8.190  16.266  1.00  0.00    -0.297 OA
HETATM   45  C30 UNL     1      -4.459   7.755  14.687  1.00  0.00     0.091 C 
HETATM   46  C32 UNL     1      -3.903   5.597  15.830  1.00  0.00     0.019 C 
BRANCH  26  47
HETATM   47  O7  UNL     1      -2.788   7.026  12.472  1.00  0.00    -0.381 OA
HETATM   48  H17 UNL     1      -1.876   7.286  12.215  1.00  0.00     0.211 HD
ENDBRANCH  26  47
ENDBRANCH   1  26
TORSDOF 13
ENDMDL
MODEL 5
REMARK minimizedAffinity -8.55447578
REMARK CNNscore 0.365486741
REMARK CNNaffinity 6.60070467
REMARK  13 active torsions:
REMARK  status: ('A' for Active; 'I' for Inactive)
REMARK    1  A    between atoms: O1_2  and  C2_3 
REMARK    2  A    between atoms: C2_3  and  C3_5 
REMARK    3  A    between atoms: C3_5  and  C4_6 
REMARK    4  A    between atoms: C3_5  and  N3_13 
REMARK    5  A    between atoms: C4_6  and  C5_7 
REMARK       I    between atoms: N3_13  and  C8_14 
REMARK    6  A    between atoms: C8_14  and  C9_16 
REMARK    7  A    between atoms: C9_16  and  C10_17 
REMARK    8  A    between atoms: C10_17  and  C11_18 
REMARK    9  A    between atoms: C11_18  and  O5_20 
REMARK   10  A    between atoms: O5_20  and  C12_21 
REMARK   11  A    between atoms: C12_21  and  C13_22 
REMARK   12  A    between atoms: C13_22  and  C14_24 
REMARK   13  A    between atoms: C14_24  and  O7_25 
ROOT
HETATM    1  C13 UNL     1      -1.096  11.316  14.708  1.00  0.00     0.185 C 
HETATM    2  O6  UNL     1      -1.638  12.253  14.104  1.00  0.00    -0.292 OA
ENDROOT
BRANCH   1   3
HETATM    3  C12 UNL     1      -0.104  11.590  15.829  1.00  0.00     0.260 C 
BRANCH   3   4
HETATM    4  O5  UNL     1      -0.631  12.505  16.794  1.00  0.00    -0.314 OA
BRANCH   4   5
HETATM    5  C11 UNL     1      -1.090  11.917  17.933  1.00  0.00     0.259 C 
HETATM    6  O4  UNL     1      -2.120  12.236  18.508  1.00  0.00    -0.265 OA
BRANCH   5   7
HETATM    7  C10 UNL     1      -0.131  10.844  18.385  1.00  0.00     0.120 C 
BRANCH   7   8
HETATM    8  C9  UNL     1       0.544  11.240  19.692  1.00  0.00     0.112 C 
BRANCH   8   9
HETATM    9  C8  UNL     1       1.960  10.712  19.805  1.00  0.00     0.218 C 
HETATM   10  N3  UNL     1       2.765  11.526  20.577  1.00  0.00    -0.347 N 
HETATM   11  H10 UNL     1       2.452  12.481  20.714  1.00  0.00     0.163 HD
HETATM   12  O3  UNL     1       2.363   9.693  19.259  1.00  0.00    -0.274 OA
BRANCH  10  13
HETATM   13  C3  UNL     1       4.218  11.314  20.623  1.00  0.00     0.190 C 
BRANCH  13  14
HETATM   14  C2  UNL     1       5.022  12.509  20.079  1.00  0.00     0.281 C 
HETATM   15  O2  UNL     1       4.871  12.973  18.953  1.00  0.00    -0.263 OA
BRANCH  14  16
HETATM   16  O1  UNL     1       5.935  12.968  20.982  1.00  0.00    -0.325 OA
HETATM   17  C1  UNL     1       5.487  14.063  21.781  1.00  0.00     0.213 C 
ENDBRANCH  14  16
ENDBRANCH  13  14
BRANCH  13  18
HETATM   18  C4  UNL     1       4.688  10.976  22.049  1.00  0.00     0.093 C 
BRANCH  18  19
HETATM   19  C5  UNL     1       3.765  10.052  22.775  1.00  0.00     0.028 A 
HETATM   20  C6  UNL     1       3.079  10.174  23.963  1.00  0.00     0.114 A 
HETATM   21  N1  UNL     1       2.387   9.027  24.245  1.00  0.00    -0.360 N 
HETATM   22  C7  UNL     1       2.607   8.227  23.229  1.00  0.00     0.180 A 
ATOM     23  H1  UNL     1       1.819   8.836  25.070  1.00  0.00     0.166 HD
HETATM   24  N2  UNL     1       3.425   8.807  22.302  1.00  0.00    -0.354 N 
HETATM   25  H9  UNL     1       3.741   8.382  21.438  1.00  0.00     0.166 HD
ENDBRANCH  18  19
ENDBRANCH  13  18
ENDBRANCH  10  13
ENDBRANCH   8   9
ENDBRANCH   7   8
ENDBRANCH   5   7
ENDBRANCH   4   5
ENDBRANCH   3   4
ENDBRANCH   1   3
BRANCH   1  26
HETATM   26  C14 UNL     1      -1.418   9.866  14.279  1.00  0.00     0.128 C 
HETATM   27  C15 UNL     1      -0.272   8.874  14.582  1.00  0.00     0.047 C 
HETATM   28  C16 UNL     1      -0.925   7.476  14.685  1.00  0.00     0.009 C 
HETATM   29  C17 UNL     1      -2.380   7.697  14.272  1.00  0.00     0.002 C 
HETATM   30  C18 UNL     1      -3.449   6.667  14.670  1.00  0.00     0.003 C 
HETATM   31  C31 UNL     1      -2.683   9.135  14.811  1.00  0.00     0.005 C 
HETATM   32  C19 UNL     1      -3.104   5.216  14.284  1.00  0.00     0.010 C 
HETATM   33  C28 UNL     1      -4.811   7.137  14.068  1.00  0.00     0.072 C 
HETATM   34  C20 UNL     1      -4.016   4.627  13.212  1.00  0.00     0.035 C 
HETATM   35  C21 UNL     1      -5.493   4.811  13.488  1.00  0.00    -0.067 C 
HETATM   36  C22 UNL     1      -6.374   3.932  12.977  1.00  0.00     0.053 C 
HETATM   37  C26 UNL     1      -5.931   6.070  14.255  1.00  0.00    -0.009 C 
HETATM   38  C23 UNL     1      -7.836   4.135  13.099  1.00  0.00     0.149 C 
HETATM   39  O8  UNL     1      -8.593   3.218  12.789  1.00  0.00    -0.293 OA
HETATM   40  C24 UNL     1      -8.349   5.458  13.622  1.00  0.00     0.084 C 
HETATM   41  C25 UNL     1      -7.272   6.545  13.635  1.00  0.00     0.022 C 
HETATM   42  C27 UNL     1      -6.139   5.711  15.746  1.00  0.00     0.021 C 
HETATM   43  C29 UNL     1      -5.091   8.559  14.572  1.00  0.00     0.133 C 
HETATM   44  O9  UNL     1      -6.086   8.873  15.221  1.00  0.00    -0.297 OA
HETATM   45  C30 UNL     1      -4.026   9.596  14.224  1.00  0.00     0.091 C 
HETATM   46  C32 UNL     1      -2.789   9.168  16.360  1.00  0.00     0.019 C 
BRANCH  26  47
HETATM   47  O7  UNL     1      -1.538   9.919  12.834  1.00  0.00    -0.381 OA
HETATM   48  H17 UNL     1      -1.040  10.713  12.541  1.00  0.00     0.211 HD
ENDBRANCH  26  47
ENDBRANCH   1  26
TORSDOF 13
ENDMDL
MODEL 6
REMARK minimizedAffinity -8.67523098
REMARK CNNscore 0.344920278
REMARK CNNaffinity 7.42896891
REMARK  13 active torsions:
REMARK  status: ('A' for Active; 'I' for Inactive)
REMARK    1  A    between atoms: O1_2  and  C2_3 
REMARK    2  A    between atoms: C2_3  and  C3_5 
REMARK    3  A    between atoms: C3_5  and  C4_6 
REMARK    4  A    between atoms: C3_5  and  N3_13 
REMARK    5  A    between atoms: C4_6  and  C5_7 
REMARK       I    between atoms: N3_13  and  C8_14 
REMARK    6  A    between atoms: C8_14  and  C9_16 
REMARK    7  A    between atoms: C9_16  and  C10_17 
REMARK    8  A    between atoms: C10_17  and  C11_18 
REMARK    9  A    between atoms: C11_18  and  O5_20 
REMARK   10  A    between atoms: O5_20  and  C12_21 
REMARK   11  A    between atoms: C12_21  and  C13_22 
REMARK   12  A    between atoms: C13_22  and  C14_24 
REMARK   13  A    between atoms: C14_24  and  O7_25 
ROOT
HETATM    1  C13 UNL     1      -0.931   3.686  11.544  1.00  0.00     0.185 C 
HETATM    2  O6  UNL     1      -0.356   2.599  11.391  1.00  0.00    -0.292 OA
ENDROOT
BRANCH   1   3
HETATM    3  C12 UNL     1      -0.129   4.957  11.781  1.00  0.00     0.260 C 
BRANCH   3   4
HETATM    4  O5  UNL     1       0.227   5.598  10.553  1.00  0.00    -0.314 OA
BRANCH   4   5
HETATM    5  C11 UNL     1       0.147   6.957  10.585  1.00  0.00     0.259 C 
HETATM    6  O4  UNL     1      -0.658   7.586  11.256  1.00  0.00    -0.265 OA
BRANCH   5   7
HETATM    7  C10 UNL     1       1.174   7.559   9.659  1.00  0.00     0.120 C 
BRANCH   7   8
HETATM    8  C9  UNL     1       2.172   6.503   9.201  1.00  0.00     0.112 C 
BRANCH   8   9
HETATM    9  C8  UNL     1       3.456   6.519  10.006  1.00  0.00     0.218 C 
HETATM   10  N3  UNL     1       3.515   7.583  10.883  1.00  0.00    -0.347 N 
HETATM   11  H10 UNL     1       2.897   8.366  10.693  1.00  0.00     0.163 HD
HETATM   12  O3  UNL     1       4.357   5.699   9.884  1.00  0.00    -0.274 OA
BRANCH  10  13
HETATM   13  C3  UNL     1       4.763   7.905  11.586  1.00  0.00     0.190 C 
BRANCH  13  14
HETATM   14  C2  UNL     1       5.798   8.610  10.689  1.00  0.00     0.281 C 
HETATM   15  O2  UNL     1       5.617   9.712  10.180  1.00  0.00    -0.263 OA
BRANCH  14  16
HETATM   16  O1  UNL     1       6.920   7.857  10.507  1.00  0.00    -0.325 OA
HETATM   17  C1  UNL     1       7.031   6.731  11.379  1.00  0.00     0.213 C 
ENDBRANCH  14  16
ENDBRANCH  13  14
BRANCH  13  18
HETATM   18  C4  UNL     1       4.496   8.757  12.839  1.00  0.00     0.093 C 
BRANCH  18  19
HETATM   19  C5  UNL     1       5.518   8.566  13.914  1.00  0.00     0.028 A 
HETATM   20  C6  UNL     1       5.594   7.688  14.973  1.00  0.00     0.114 A 
HETATM   21  N1  UNL     1       6.712   7.930  15.725  1.00  0.00    -0.360 N 
HETATM   22  C7  UNL     1       7.336   8.911  15.118  1.00  0.00     0.180 A 
ATOM     23  H1  UNL     1       6.999   7.449  16.576  1.00  0.00     0.166 HD
HETATM   24  N2  UNL     1       6.661   9.324  14.005  1.00  0.00    -0.354 N 
HETATM   25  H9  UNL     1       6.943  10.070  13.380  1.00  0.00     0.166 HD
ENDBRANCH  18  19
ENDBRANCH  13  18
ENDBRANCH  10  13
ENDBRANCH   8   9
ENDBRANCH   7   8
ENDBRANCH   5   7
ENDBRANCH   4   5
ENDBRANCH   3   4
ENDBRANCH   1   3
BRANCH   1  26
HETATM   26  C14 UNL     1      -2.476   3.722  11.526  1.00  0.00     0.128 C 
HETATM   27  C15 UNL     1      -3.114   2.333  11.292  1.00  0.00     0.047 C 
HETATM   28  C16 UNL     1      -4.539   2.404  11.890  1.00  0.00     0.009 C 
HETATM   29  C17 UNL     1      -4.719   3.869  12.287  1.00  0.00     0.002 C 
HETATM   30  C18 UNL     1      -5.800   4.253  13.310  1.00  0.00     0.003 C 
HETATM   31  C31 UNL     1      -3.278   4.293  12.729  1.00  0.00     0.005 C 
HETATM   32  C19 UNL     1      -7.206   3.717  12.975  1.00  0.00     0.010 C 
HETATM   33  C28 UNL     1      -5.775   5.806  13.469  1.00  0.00     0.072 C 
HETATM   34  C20 UNL     1      -8.217   4.806  12.628  1.00  0.00     0.035 C 
HETATM   35  C21 UNL     1      -8.259   5.948  13.620  1.00  0.00    -0.067 C 
HETATM   36  C22 UNL     1      -9.394   6.656  13.762  1.00  0.00     0.053 C 
HETATM   37  C26 UNL     1      -6.955   6.321  14.347  1.00  0.00    -0.009 C 
HETATM   38  C23 UNL     1      -9.456   7.867  14.614  1.00  0.00     0.149 C 
HETATM   39  O8  UNL     1     -10.552   8.364  14.864  1.00  0.00    -0.293 OA
HETATM   40  C24 UNL     1      -8.170   8.437  15.168  1.00  0.00     0.084 C 
HETATM   41  C25 UNL     1      -6.928   7.867  14.479  1.00  0.00     0.022 C 
HETATM   42  C27 UNL     1      -6.953   5.673  15.752  1.00  0.00     0.021 C 
HETATM   43  C29 UNL     1      -4.354   6.223  13.872  1.00  0.00     0.133 C 
HETATM   44  O9  UNL     1      -4.085   6.828  14.907  1.00  0.00    -0.297 OA
HETATM   45  C30 UNL     1      -3.255   5.821  12.893  1.00  0.00     0.091 C 
HETATM   46  C32 UNL     1      -2.870   3.650  14.083  1.00  0.00     0.019 C 
BRANCH  26  47
HETATM   47  O7  UNL     1      -2.821   4.527  10.369  1.00  0.00    -0.381 OA
HETATM   48  H17 UNL     1      -2.047   4.495   9.765  1.00  0.00     0.211 HD
ENDBRANCH  26  47
ENDBRANCH   1  26
TORSDOF 13
ENDMDL
MODEL 7
REMARK minimizedAffinity -8.67061806
REMARK CNNscore 0.283560723
REMARK CNNaffinity 7.27734804
REMARK  13 active torsions:
REMARK  status: ('A' for Active; 'I' for Inactive)
REMARK    1  A    between atoms: O1_2  and  C2_3 
REMARK    2  A    between atoms: C2_3  and  C3_5 
REMARK    3  A    between atoms: C3_5  and  C4_6 
REMARK    4  A    between atoms: C3_5  and  N3_13 
REMARK    5  A    between atoms: C4_6  and  C5_7 
REMARK       I    between atoms: N3_13  and  C8_14 
REMARK    6  A    between atoms: C8_14  and  C9_16 
REMARK    7  A    between atoms: C9_16  and  C10_17 
REMARK    8  A    between atoms: C10_17  and  C11_18 
REMARK    9  A    between atoms: C11_18  and  O5_20 
REMARK   10  A    between atoms: O5_20  and  C12_21 
REMARK   11  A    between atoms: C12_21  and  C13_22 
REMARK   12  A    between atoms: C13_22  and  C14_24 
REMARK   13  A    between atoms: C14_24  and  O7_25 
ROOT
HETATM    1  C13 UNL     1      -0.843   7.144  13.780  1.00  0.00     0.185 C 
HETATM    2  O6  UNL     1      -0.795   7.741  14.864  1.00  0.00    -0.292 OA
ENDROOT
BRANCH   1   3
HETATM    3  C12 UNL     1       0.422   6.924  12.962  1.00  0.00     0.260 C 
BRANCH   3   4
HETATM    4  O5  UNL     1       0.213   7.203  11.575  1.00  0.00    -0.314 OA
BRANCH   4   5
HETATM    5  C11 UNL     1       1.355   7.250  10.834  1.00  0.00     0.259 C 
HETATM    6  O4  UNL     1       1.441   7.770   9.731  1.00  0.00    -0.265 OA
BRANCH   5   7
HETATM    7  C10 UNL     1       2.475   6.550  11.561  1.00  0.00     0.120 C 
BRANCH   7   8
HETATM    8  C9  UNL     1       3.691   6.397  10.657  1.00  0.00     0.112 C 
BRANCH   8   9
HETATM    9  C8  UNL     1       4.970   6.891  11.304  1.00  0.00     0.218 C 
HETATM   10  N3  UNL     1       4.800   7.197  12.639  1.00  0.00    -0.347 N 
HETATM   11  H10 UNL     1       3.849   7.358  12.954  1.00  0.00     0.163 HD
HETATM   12  O3  UNL     1       6.033   7.030  10.713  1.00  0.00    -0.274 OA
BRANCH  10  13
HETATM   13  C3  UNL     1       5.852   7.901  13.384  1.00  0.00     0.190 C 
BRANCH  13  14
HETATM   14  C2  UNL     1       5.297   8.897  14.420  1.00  0.00     0.281 C 
HETATM   15  O2  UNL     1       4.896   8.567  15.532  1.00  0.00    -0.263 OA
BRANCH  14  16
HETATM   16  O1  UNL     1       5.277  10.175  13.946  1.00  0.00    -0.325 OA
HETATM   17  C1  UNL     1       6.408  10.535  13.150  1.00  0.00     0.213 C 
ENDBRANCH  14  16
ENDBRANCH  13  14
BRANCH  13  18
HETATM   18  C4  UNL     1       6.806   6.911  14.076  1.00  0.00     0.093 C 
BRANCH  18  19
HETATM   19  C5  UNL     1       7.937   7.579  14.790  1.00  0.00     0.028 A 
HETATM   20  C6  UNL     1       9.157   8.049  14.356  1.00  0.00     0.114 A 
HETATM   21  N1  UNL     1       9.886   8.545  15.403  1.00  0.00    -0.360 N 
HETATM   22  C7  UNL     1       9.114   8.424  16.457  1.00  0.00     0.180 A 
ATOM     23  H1  UNL     1      10.830   8.929  15.371  1.00  0.00     0.166 HD
HETATM   24  N2  UNL     1       7.914   7.857  16.136  1.00  0.00    -0.354 N 
HETATM   25  H9  UNL     1       7.159   7.656  16.782  1.00  0.00     0.166 HD
ENDBRANCH  18  19
ENDBRANCH  13  18
ENDBRANCH  10  13
ENDBRANCH   8   9
ENDBRANCH   7   8
ENDBRANCH   5   7
ENDBRANCH   4   5
ENDBRANCH   3   4
ENDBRANCH   1   3
BRANCH   1  26
HETATM   26  C14 UNL     1      -2.214   6.659  13.255  1.00  0.00     0.128 C 
HETATM   27  C15 UNL     1      -2.169   5.231  12.666  1.00  0.00     0.047 C 
HETATM   28  C16 UNL     1      -3.610   4.677  12.763  1.00  0.00     0.009 C 
HETATM   29  C17 UNL     1      -4.448   5.861  13.240  1.00  0.00     0.002 C 
HETATM   30  C18 UNL     1      -5.822   5.611  13.884  1.00  0.00     0.003 C 
HETATM   31  C31 UNL     1      -3.462   6.633  14.181  1.00  0.00     0.005 C 
HETATM   32  C19 UNL     1      -6.762   4.725  13.044  1.00  0.00     0.010 C 
HETATM   33  C28 UNL     1      -6.452   7.000  14.218  1.00  0.00     0.072 C 
HETATM   34  C20 UNL     1      -7.988   5.458  12.507  1.00  0.00     0.035 C 
HETATM   35  C21 UNL     1      -8.736   6.257  13.552  1.00  0.00    -0.067 C 
HETATM   36  C22 UNL     1     -10.051   6.488  13.388  1.00  0.00     0.053 C 
HETATM   37  C26 UNL     1      -7.926   6.871  14.707  1.00  0.00    -0.009 C 
HETATM   38  C23 UNL     1     -10.806   7.376  14.303  1.00  0.00     0.149 C 
HETATM   39  O8  UNL     1     -12.032   7.403  14.231  1.00  0.00    -0.293 OA
HETATM   40  C24 UNL     1     -10.042   8.203  15.314  1.00  0.00     0.084 C 
HETATM   41  C25 UNL     1      -8.543   8.261  15.015  1.00  0.00     0.022 C 
HETATM   42  C27 UNL     1      -8.040   5.956  15.950  1.00  0.00     0.021 C 
HETATM   43  C29 UNL     1      -5.470   7.768  15.114  1.00  0.00     0.133 C 
HETATM   44  O9  UNL     1      -5.743   8.173  16.241  1.00  0.00    -0.297 OA
HETATM   45  C30 UNL     1      -4.085   7.997  14.515  1.00  0.00     0.091 C 
HETATM   46  C32 UNL     1      -3.209   5.872  15.511  1.00  0.00     0.019 C 
BRANCH  26  47
HETATM   47  O7  UNL     1      -2.528   7.544  12.149  1.00  0.00    -0.381 OA
HETATM   48  H17 UNL     1      -1.674   7.915  11.835  1.00  0.00     0.211 HD
ENDBRANCH  26  47
ENDBRANCH   1  26
TORSDOF 13
ENDMDL
MODEL 8
REMARK minimizedAffinity -8.46349907
REMARK CNNscore 0.269268364
REMARK CNNaffinity 6.96922064
REMARK  13 active torsions:
REMARK  status: ('A' for Active; 'I' for Inactive)
REMARK    1  A    between atoms: O1_2  and  C2_3 
REMARK    2  A    between atoms: C2_3  and  C3_5 
REMARK    3  A    between atoms: C3_5  and  C4_6 
REMARK    4  A    between atoms: C3_5  and  N3_13 
REMARK    5  A    between atoms: C4_6  and  C5_7 
REMARK       I    between atoms: N3_13  and  C8_14 
REMARK    6  A    between atoms: C8_14  and  C9_16 
REMARK    7  A    between atoms: C9_16  and  C10_17 
REMARK    8  A    between atoms: C10_17  and  C11_18 
REMARK    9  A    between atoms: C11_18  and  O5_20 
REMARK   10  A    between atoms: O5_20  and  C12_21 
REMARK   11  A    between atoms: C12_21  and  C13_22 
REMARK   12  A    between atoms: C13_22  and  C14_24 
REMARK   13  A    between atoms: C14_24  and  O7_25 
ROOT
HETATM    1  C13 UNL     1      -4.237   5.783  14.488  1.00  0.00     0.185 C 
HETATM    2  O6  UNL     1      -3.090   5.853  14.953  1.00  0.00    -0.292 OA
ENDROOT
BRANCH   1   3
HETATM    3  C12 UNL     1      -4.539   4.865  13.312  1.00  0.00     0.260 C 
BRANCH   3   4
HETATM    4  O5  UNL     1      -3.559   3.832  13.179  1.00  0.00    -0.314 OA
BRANCH   4   5
HETATM    5  C11 UNL     1      -3.247   3.516  11.892  1.00  0.00     0.259 C 
HETATM    6  O4  UNL     1      -4.071   3.316  11.011  1.00  0.00    -0.265 OA
BRANCH   5   7
HETATM    7  C10 UNL     1      -1.750   3.429  11.727  1.00  0.00     0.120 C 
BRANCH   7   8
HETATM    8  C9  UNL     1      -1.138   4.819  11.617  1.00  0.00     0.112 C 
BRANCH   8   9
HETATM    9  C8  UNL     1       0.346   4.786  11.310  1.00  0.00     0.218 C 
HETATM   10  N3  UNL     1       0.893   6.050  11.216  1.00  0.00    -0.347 N 
HETATM   11  H10 UNL     1       0.248   6.816  11.052  1.00  0.00     0.163 HD
HETATM   12  O3  UNL     1       0.992   3.760  11.139  1.00  0.00    -0.274 OA
BRANCH  10  13
HETATM   13  C3  UNL     1       2.257   6.238  10.704  1.00  0.00     0.190 C 
BRANCH  13  14
HETATM   14  C2  UNL     1       2.321   6.323   9.168  1.00  0.00     0.281 C 
HETATM   15  O2  UNL     1       2.798   5.443   8.458  1.00  0.00    -0.263 OA
BRANCH  14  16
HETATM   16  O1  UNL     1       1.815   7.498   8.696  1.00  0.00    -0.325 OA
HETATM   17  C1  UNL     1       2.750   8.308   7.983  1.00  0.00     0.213 C 
ENDBRANCH  14  16
ENDBRANCH  13  14
BRANCH  13  18
HETATM   18  C4  UNL     1       2.919   7.483  11.322  1.00  0.00     0.093 C 
BRANCH  18  19
HETATM   19  C5  UNL     1       4.323   7.244  11.775  1.00  0.00     0.028 A 
HETATM   20  C6  UNL     1       5.155   7.945  12.620  1.00  0.00     0.114 A 
HETATM   21  N1  UNL     1       6.386   7.352  12.691  1.00  0.00    -0.360 N 
HETATM   22  C7  UNL     1       6.304   6.281  11.937  1.00  0.00     0.180 A 
ATOM     23  H1  UNL     1       7.197   7.675  13.218  1.00  0.00     0.166 HD
HETATM   24  N2  UNL     1       5.067   6.161  11.371  1.00  0.00    -0.354 N 
HETATM   25  H9  UNL     1       4.768   5.421  10.746  1.00  0.00     0.166 HD
ENDBRANCH  18  19
ENDBRANCH  13  18
ENDBRANCH  10  13
ENDBRANCH   8   9
ENDBRANCH   7   8
ENDBRANCH   5   7
ENDBRANCH   4   5
ENDBRANCH   3   4
ENDBRANCH   1   3
BRANCH   1  26
HETATM   26  C14 UNL     1      -5.345   6.670  15.099  1.00  0.00     0.128 C 
HETATM   27  C15 UNL     1      -4.856   8.090  15.462  1.00  0.00     0.047 C 
HETATM   28  C16 UNL     1      -6.112   8.994  15.461  1.00  0.00     0.009 C 
HETATM   29  C17 UNL     1      -7.282   8.031  15.267  1.00  0.00     0.002 C 
HETATM   30  C18 UNL     1      -8.633   8.566  14.766  1.00  0.00     0.003 C 
HETATM   31  C31 UNL     1      -6.676   6.926  14.338  1.00  0.00     0.005 C 
HETATM   32  C19 UNL     1      -9.181   9.757  15.575  1.00  0.00     0.010 C 
HETATM   33  C28 UNL     1      -9.632   7.366  14.719  1.00  0.00     0.072 C 
HETATM   34  C20 UNL     1     -10.452   9.442  16.358  1.00  0.00     0.035 C 
HETATM   35  C21 UNL     1     -11.528   8.760  15.541  1.00  0.00    -0.067 C 
HETATM   36  C22 UNL     1     -12.817   8.908  15.895  1.00  0.00     0.053 C 
HETATM   37  C26 UNL     1     -11.085   7.830  14.398  1.00  0.00    -0.009 C 
HETATM   38  C23 UNL     1     -13.902   8.158  15.219  1.00  0.00     0.149 C 
HETATM   39  O8  UNL     1     -15.070   8.467  15.443  1.00  0.00    -0.293 OA
HETATM   40  C24 UNL     1     -13.534   7.051  14.256  1.00  0.00     0.084 C 
HETATM   41  C25 UNL     1     -12.068   6.629  14.375  1.00  0.00     0.022 C 
HETATM   42  C27 UNL     1     -11.161   8.599  13.058  1.00  0.00     0.021 C 
HETATM   43  C29 UNL     1      -9.023   6.271  13.832  1.00  0.00     0.133 C 
HETATM   44  O9  UNL     1      -9.560   5.832  12.819  1.00  0.00    -0.297 OA
HETATM   45  C30 UNL     1      -7.663   5.748  14.285  1.00  0.00     0.091 C 
HETATM   46  C32 UNL     1      -6.452   7.440  12.890  1.00  0.00     0.019 C 
BRANCH  26  47
HETATM   47  O7  UNL     1      -5.694   6.028  16.353  1.00  0.00    -0.381 OA
HETATM   48  H17 UNL     1      -4.920   5.480  16.611  1.00  0.00     0.211 HD
ENDBRANCH  26  47
ENDBRANCH   1  26
TORSDOF 13
ENDMDL
MODEL 9
REMARK minimizedAffinity -7.95726347
REMARK CNNscore 0.263256073
REMARK CNNaffinity 6.68604231
REMARK  13 active torsions:
REMARK  status: ('A' for Active; 'I' for Inactive)
REMARK    1  A    between atoms: O1_2  and  C2_3 
REMARK    2  A    between atoms: C2_3  and  C3_5 
REMARK    3  A    between atoms: C3_5  and  C4_6 
REMARK    4  A    between atoms: C3_5  and  N3_13 
REMARK    5  A    between atoms: C4_6  and  C5_7 
REMARK       I    between atoms: N3_13  and  C8_14 
REMARK    6  A    between atoms: C8_14  and  C9_16 
REMARK    7  A    between atoms: C9_16  and  C10_17 
REMARK    8  A    between atoms: C10_17  and  C11_18 
REMARK    9  A    between atoms: C11_18  and  O5_20 
REMARK   10  A    between atoms: O5_20  and  C12_21 
REMARK   11  A    between atoms: C12_21  and  C13_22 
REMARK   12  A    between atoms: C13_22  and  C14_24 
REMARK   13  A    between atoms: C14_24  and  O7_25 
ROOT
HETATM    1  C13 UNL     1      -4.052   8.748  13.904  1.00  0.00     0.185 C 
HETATM    2  O6  UNL     1      -4.371   8.942  12.722  1.00  0.00    -0.292 OA
ENDROOT
BRANCH   1   3
HETATM    3  C12 UNL     1      -5.120   8.612  14.979  1.00  0.00     0.260 C 
BRANCH   3   4
HETATM    4  O5  UNL     1      -6.272   7.914  14.499  1.00  0.00    -0.314 OA
BRANCH   4   5
HETATM    5  C11 UNL     1      -7.274   7.789  15.413  1.00  0.00     0.259 C 
HETATM    6  O4  UNL     1      -7.105   7.766  16.624  1.00  0.00    -0.265 OA
BRANCH   5   7
HETATM    7  C10 UNL     1      -8.603   7.659  14.712  1.00  0.00     0.120 C 
BRANCH   7   8
HETATM    8  C9  UNL     1      -9.048   6.203  14.667  1.00  0.00     0.112 C 
BRANCH   8   9
HETATM    9  C8  UNL     1      -8.320   5.398  13.610  1.00  0.00     0.218 C 
HETATM   10  N3  UNL     1      -7.559   4.382  14.153  1.00  0.00    -0.347 N 
HETATM   11  H10 UNL     1      -7.321   4.465  15.136  1.00  0.00     0.163 HD
HETATM   12  O3  UNL     1      -8.374   5.628  12.409  1.00  0.00    -0.274 OA
BRANCH  10  13
HETATM   13  C3  UNL     1      -6.606   3.636  13.322  1.00  0.00     0.190 C 
BRANCH  13  14
HETATM   14  C2  UNL     1      -7.284   2.608  12.396  1.00  0.00     0.281 C 
HETATM   15  O2  UNL     1      -8.406   2.153  12.594  1.00  0.00    -0.263 OA
BRANCH  14  16
HETATM   16  O1  UNL     1      -6.483   2.247  11.354  1.00  0.00    -0.325 OA
HETATM   17  C1  UNL     1      -6.010   0.900  11.403  1.00  0.00     0.213 C 
ENDBRANCH  14  16
ENDBRANCH  13  14
BRANCH  13  18
HETATM   18  C4  UNL     1      -5.728   4.586  12.488  1.00  0.00     0.093 C 
BRANCH  18  19
HETATM   19  C5  UNL     1      -4.489   3.937  11.961  1.00  0.00     0.028 A 
HETATM   20  C6  UNL     1      -3.920   3.911  10.706  1.00  0.00     0.114 A 
HETATM   21  N1  UNL     1      -2.793   3.133  10.700  1.00  0.00    -0.360 N 
HETATM   22  C7  UNL     1      -2.646   2.720  11.937  1.00  0.00     0.180 A 
ATOM     23  H1  UNL     1      -2.195   2.920   9.903  1.00  0.00     0.166 HD
HETATM   24  N2  UNL     1      -3.640   3.193  12.745  1.00  0.00    -0.354 N 
HETATM   25  H9  UNL     1      -3.742   3.004  13.736  1.00  0.00     0.166 HD
ENDBRANCH  18  19
ENDBRANCH  13  18
ENDBRANCH  10  13
ENDBRANCH   8   9
ENDBRANCH   7   8
ENDBRANCH   5   7
ENDBRANCH   4   5
ENDBRANCH   3   4
ENDBRANCH   1   3
BRANCH   1  26
HETATM   26  C14 UNL     1      -2.552   8.684  14.271  1.00  0.00     0.128 C 
HETATM   27  C15 UNL     1      -2.292   8.053  15.657  1.00  0.00     0.047 C 
HETATM   28  C16 UNL     1      -0.845   7.508  15.621  1.00  0.00     0.009 C 
HETATM   29  C17 UNL     1      -0.281   7.996  14.288  1.00  0.00     0.002 C 
HETATM   30  C18 UNL     1       0.949   7.301  13.681  1.00  0.00     0.003 C 
HETATM   31  C31 UNL     1      -1.531   7.964  13.346  1.00  0.00     0.005 C 
HETATM   32  C19 UNL     1       2.147   7.184  14.642  1.00  0.00     0.010 C 
HETATM   33  C28 UNL     1       1.314   8.048  12.359  1.00  0.00     0.072 C 
HETATM   34  C20 UNL     1       3.356   8.020  14.230  1.00  0.00     0.035 C 
HETATM   35  C21 UNL     1       3.762   7.844  12.782  1.00  0.00    -0.067 C 
HETATM   36  C22 UNL     1       5.042   8.054  12.427  1.00  0.00     0.053 C 
HETATM   37  C26 UNL     1       2.658   7.541  11.755  1.00  0.00    -0.009 C 
HETATM   38  C23 UNL     1       5.471   8.032  11.009  1.00  0.00     0.149 C 
HETATM   39  O8  UNL     1       6.672   8.037  10.750  1.00  0.00    -0.293 OA
HETATM   40  C24 UNL     1       4.415   7.980   9.927  1.00  0.00     0.084 C 
HETATM   41  C25 UNL     1       3.016   8.306  10.453  1.00  0.00     0.022 C 
HETATM   42  C27 UNL     1       2.625   6.018  11.478  1.00  0.00     0.021 C 
HETATM   43  C29 UNL     1       0.078   8.043  11.449  1.00  0.00     0.133 C 
HETATM   44  O9  UNL     1       0.057   7.550  10.324  1.00  0.00    -0.297 OA
HETATM   45  C30 UNL     1      -1.170   8.693  12.042  1.00  0.00     0.091 C 
HETATM   46  C32 UNL     1      -1.958   6.514  12.992  1.00  0.00     0.019 C 
BRANCH  26  47
HETATM   47  O7  UNL     1      -2.129  10.068  14.369  1.00  0.00    -0.381 OA
HETATM   48  H17 UNL     1      -2.938  10.597  14.541  1.00  0.00     0.211 HD
ENDBRANCH  26  47
ENDBRANCH   1  26
TORSDOF 13
ENDMDL
