MODEL 1
REMARK minimizedAffinity -9.64502239
REMARK  9 active torsions:
REMARK  status: ('A' for Active; 'I' for Inactive)
REMARK    1  A    between atoms: C2_2  and  C3_3 
REMARK    2  A    between atoms: C2_2  and  C9_12 
REMARK    3  A    between atoms: C3_3  and  C4_4 
REMARK    4  A    between atoms: C4_4  and  C5_5 
REMARK    5  A    between atoms: C5_5  and  O1_6 
REMARK    6  A    between atoms: C5_5  and  C6_7 
REMARK    7  A    between atoms: C6_7  and  O2_9 
REMARK    8  A    between atoms: C6_7  and  C8_10 
REMARK    9  A    between atoms: C8_10  and  O3_11 
ROOT
HETATM    1  C9  UNL     1      -2.928   8.425  15.293  1.00  0.00    -0.002 C 
HETATM    2  C10 UNL     1      -1.924   7.944  16.367  1.00  0.00     0.007 C 
HETATM    3  C11 UNL     1      -0.573   7.721  15.644  1.00  0.00     0.015 C 
HETATM    4  C12 UNL     1      -0.739   8.364  14.249  1.00  0.00    -0.005 C 
HETATM    5  C13 UNL     1      -0.429   9.884  14.415  1.00  0.00     0.021 C 
HETATM    6  C14 UNL     1       0.118   7.932  13.066  1.00  0.00    -0.000 C 
HETATM    7  C15 UNL     1      -0.354   8.012  11.792  1.00  0.00    -0.060 C 
HETATM    8  C16 UNL     1      -1.792   8.480  11.512  1.00  0.00     0.036 C 
HETATM    9  C17 UNL     1      -2.699   8.776  12.722  1.00  0.00     0.015 C 
HETATM   10  C18 UNL     1      -2.245   8.001  13.962  1.00  0.00    -0.028 C 
HETATM   11  C19 UNL     1      -2.471   6.481  13.692  1.00  0.00     0.016 C 
HETATM   12  C20 UNL     1       0.486   7.578  10.559  1.00  0.00    -0.014 C 
HETATM   13  C21 UNL     1       0.106   6.103  10.296  1.00  0.00     0.020 C 
HETATM   14  C22 UNL     1       0.153   8.430   9.306  1.00  0.00     0.021 C 
HETATM   15  C23 UNL     1       1.042   8.127   8.112  1.00  0.00     0.080 C 
HETATM   16  C24 UNL     1       2.495   8.330   8.455  1.00  0.00     0.135 C 
HETATM   17  O4  UNL     1       3.228   8.945   7.678  1.00  0.00    -0.297 OA
HETATM   18  C25 UNL     1       3.033   7.647   9.722  1.00  0.00     0.018 C 
HETATM   19  C26 UNL     1       4.356   8.358  10.110  1.00  0.00     0.023 C 
HETATM   20  C27 UNL     1       3.391   6.197   9.364  1.00  0.00     0.023 C 
HETATM   21  C28 UNL     1       1.999   7.812  10.893  1.00  0.00     0.020 C 
HETATM   22  C29 UNL     1       2.382   7.045  12.163  1.00  0.00     0.090 C 
HETATM   23  C30 UNL     1       1.513   7.452  13.329  1.00  0.00     0.157 C 
HETATM   24  O5  UNL     1       1.953   7.363  14.475  1.00  0.00    -0.293 OA
ENDROOT
BRANCH   1  25
HETATM   25  C2  UNL     1      -4.429   8.058  15.511  1.00  0.00    -0.014 C 
HETATM   26  C1  UNL     1      -5.426   8.827  14.635  1.00  0.00     0.010 C 
BRANCH  25  27
HETATM   27  C3  UNL     1      -4.614   6.534  15.287  1.00  0.00     0.007 C 
BRANCH  27  28
HETATM   28  C4  UNL     1      -5.847   5.876  15.920  1.00  0.00     0.035 C 
BRANCH  28  29
HETATM   29  C5  UNL     1      -7.145   5.762  15.106  1.00  0.00     0.154 C 
BRANCH  29  30
HETATM   30  O1  UNL     1      -8.159   5.119  15.892  1.00  0.00    -0.392 OA
HETATM   31  H10 UNL     1      -8.888   4.911  15.274  1.00  0.00     0.210 HD
ENDBRANCH  29  30
BRANCH  29  32
HETATM   32  C6  UNL     1      -7.133   5.158  13.668  1.00  0.00     0.101 C 
HETATM   33  C7  UNL     1      -8.148   5.789  12.709  1.00  0.00     0.051 C 
BRANCH  32  34
HETATM   34  O2  UNL     1      -5.838   5.512  13.105  1.00  0.00    -0.385 OA
HETATM   35  H14 UNL     1      -5.148   5.136  13.683  1.00  0.00     0.210 HD
ENDBRANCH  32  34
BRANCH  32  36
HETATM   36  C8  UNL     1      -7.243   3.619  13.654  1.00  0.00     0.204 C 
BRANCH  36  37
HETATM   37  O3  UNL     1      -8.546   3.165  13.332  1.00  0.00    -0.398 OA
HETATM   38  H17 UNL     1      -8.503   2.197  13.236  1.00  0.00     0.209 HD
ENDBRANCH  36  37
ENDBRANCH  32  36
ENDBRANCH  29  32
ENDBRANCH  28  29
ENDBRANCH  27  28
ENDBRANCH  25  27
ENDBRANCH   1  25
TORSDOF 9
ENDMDL
MODEL 2
REMARK minimizedAffinity -9.23810673
REMARK  9 active torsions:
REMARK  status: ('A' for Active; 'I' for Inactive)
REMARK    1  A    between atoms: C2_2  and  C3_3 
REMARK    2  A    between atoms: C2_2  and  C9_12 
REMARK    3  A    between atoms: C3_3  and  C4_4 
REMARK    4  A    between atoms: C4_4  and  C5_5 
REMARK    5  A    between atoms: C5_5  and  O1_6 
REMARK    6  A    between atoms: C5_5  and  C6_7 
REMARK    7  A    between atoms: C6_7  and  O2_9 
REMARK    8  A    between atoms: C6_7  and  C8_10 
REMARK    9  A    between atoms: C8_10  and  O3_11 
ROOT
HETATM    1  C9  UNL     1      -2.201   6.015  13.154  1.00  0.00    -0.002 C 
HETATM    2  C10 UNL     1      -2.293   5.436  11.722  1.00  0.00     0.007 C 
HETATM    3  C11 UNL     1      -0.864   5.487  11.129  1.00  0.00     0.015 C 
HETATM    4  C12 UNL     1       0.068   5.799  12.322  1.00  0.00    -0.005 C 
HETATM    5  C13 UNL     1       0.377   4.439  13.020  1.00  0.00     0.021 C 
HETATM    6  C14 UNL     1       1.436   6.438  12.117  1.00  0.00    -0.000 C 
HETATM    7  C15 UNL     1       1.991   7.228  13.075  1.00  0.00    -0.060 C 
HETATM    8  C16 UNL     1       1.226   7.557  14.367  1.00  0.00     0.036 C 
HETATM    9  C17 UNL     1      -0.216   7.027  14.503  1.00  0.00     0.015 C 
HETATM   10  C18 UNL     1      -0.852   6.789  13.131  1.00  0.00    -0.028 C 
HETATM   11  C19 UNL     1      -1.030   8.174  12.434  1.00  0.00     0.016 C 
HETATM   12  C20 UNL     1       3.382   7.900  12.904  1.00  0.00    -0.014 C 
HETATM   13  C21 UNL     1       3.095   9.305  12.325  1.00  0.00     0.020 C 
HETATM   14  C22 UNL     1       4.124   8.041  14.259  1.00  0.00     0.021 C 
HETATM   15  C23 UNL     1       5.541   8.575  14.123  1.00  0.00     0.080 C 
HETATM   16  C24 UNL     1       6.363   7.697  13.216  1.00  0.00     0.135 C 
HETATM   17  O4  UNL     1       7.503   7.369  13.551  1.00  0.00    -0.297 OA
HETATM   18  C25 UNL     1       5.779   7.344  11.839  1.00  0.00     0.018 C 
HETATM   19  C26 UNL     1       6.547   6.104  11.310  1.00  0.00     0.023 C 
HETATM   20  C27 UNL     1       6.087   8.505  10.881  1.00  0.00     0.023 C 
HETATM   21  C28 UNL     1       4.258   6.982  11.986  1.00  0.00     0.020 C 
HETATM   22  C29 UNL     1       3.550   6.749  10.647  1.00  0.00     0.090 C 
HETATM   23  C30 UNL     1       2.182   6.143  10.850  1.00  0.00     0.157 C 
HETATM   24  O5  UNL     1       1.691   5.439   9.969  1.00  0.00    -0.293 OA
ENDROOT
BRANCH   1  25
HETATM   25  C2  UNL     1      -3.467   6.737  13.709  1.00  0.00    -0.014 C 
HETATM   26  C1  UNL     1      -3.592   8.220  13.337  1.00  0.00     0.010 C 
BRANCH  25  27
HETATM   27  C3  UNL     1      -4.732   5.977  13.231  1.00  0.00     0.007 C 
BRANCH  27  28
HETATM   28  C4  UNL     1      -4.668   4.443  13.220  1.00  0.00     0.035 C 
BRANCH  28  29
HETATM   29  C5  UNL     1      -5.557   3.656  12.245  1.00  0.00     0.154 C 
BRANCH  29  30
HETATM   30  O1  UNL     1      -6.742   3.207  12.918  1.00  0.00    -0.392 OA
HETATM   31  H10 UNL     1      -7.171   2.569  12.315  1.00  0.00     0.210 HD
ENDBRANCH  29  30
BRANCH  29  32
HETATM   32  C6  UNL     1      -4.966   2.494  11.390  1.00  0.00     0.101 C 
HETATM   33  C7  UNL     1      -5.841   1.237  11.340  1.00  0.00     0.051 C 
BRANCH  32  34
HETATM   34  O2  UNL     1      -4.959   2.981  10.018  1.00  0.00    -0.385 OA
HETATM   35  H14 UNL     1      -4.415   3.790   9.990  1.00  0.00     0.210 HD
ENDBRANCH  32  34
BRANCH  32  36
HETATM   36  C8  UNL     1      -3.513   2.140  11.766  1.00  0.00     0.204 C 
BRANCH  36  37
HETATM   37  O3  UNL     1      -3.135   0.843  11.338  1.00  0.00    -0.398 OA
HETATM   38  H17 UNL     1      -2.182   0.743  11.513  1.00  0.00     0.209 HD
ENDBRANCH  36  37
ENDBRANCH  32  36
ENDBRANCH  29  32
ENDBRANCH  28  29
ENDBRANCH  27  28
ENDBRANCH  25  27
ENDBRANCH   1  25
TORSDOF 9
ENDMDL
MODEL 3
REMARK minimizedAffinity -9.06268406
REMARK  9 active torsions:
REMARK  status: ('A' for Active; 'I' for Inactive)
REMARK    1  A    between atoms: C2_2  and  C3_3 
REMARK    2  A    between atoms: C2_2  and  C9_12 
REMARK    3  A    between atoms: C3_3  and  C4_4 
REMARK    4  A    between atoms: C4_4  and  C5_5 
REMARK    5  A    between atoms: C5_5  and  O1_6 
REMARK    6  A    between atoms: C5_5  and  C6_7 
REMARK    7  A    between atoms: C6_7  and  O2_9 
REMARK    8  A    between atoms: C6_7  and  C8_10 
REMARK    9  A    between atoms: C8_10  and  O3_11 
ROOT
HETATM    1  C9  UNL     1      -2.075   6.044  13.239  1.00  0.00    -0.002 C 
HETATM    2  C10 UNL     1      -2.201   5.498  11.797  1.00  0.00     0.007 C 
HETATM    3  C11 UNL     1      -0.787   5.568  11.170  1.00  0.00     0.015 C 
HETATM    4  C12 UNL     1       0.173   5.857  12.346  1.00  0.00    -0.005 C 
HETATM    5  C13 UNL     1       0.504   4.482  13.005  1.00  0.00     0.021 C 
HETATM    6  C14 UNL     1       1.534   6.505  12.123  1.00  0.00    -0.000 C 
HETATM    7  C15 UNL     1       2.110   7.276  13.085  1.00  0.00    -0.060 C 
HETATM    8  C16 UNL     1       1.375   7.572  14.402  1.00  0.00     0.036 C 
HETATM    9  C17 UNL     1      -0.060   7.033  14.561  1.00  0.00     0.015 C 
HETATM   10  C18 UNL     1      -0.730   6.824  13.200  1.00  0.00    -0.028 C 
HETATM   11  C19 UNL     1      -0.930   8.223  12.540  1.00  0.00     0.016 C 
HETATM   12  C20 UNL     1       3.493   7.958  12.894  1.00  0.00    -0.014 C 
HETATM   13  C21 UNL     1       3.188   9.374  12.354  1.00  0.00     0.020 C 
HETATM   14  C22 UNL     1       4.269   8.071  14.233  1.00  0.00     0.021 C 
HETATM   15  C23 UNL     1       5.679   8.613  14.074  1.00  0.00     0.080 C 
HETATM   16  C24 UNL     1       6.482   7.759  13.127  1.00  0.00     0.135 C 
HETATM   17  O4  UNL     1       7.631   7.428  13.426  1.00  0.00    -0.297 OA
HETATM   18  C25 UNL     1       5.865   7.436  11.758  1.00  0.00     0.018 C 
HETATM   19  C26 UNL     1       6.624   6.211  11.181  1.00  0.00     0.023 C 
HETATM   20  C27 UNL     1       6.145   8.619  10.819  1.00  0.00     0.023 C 
HETATM   21  C28 UNL     1       4.350   7.064  11.934  1.00  0.00     0.020 C 
HETATM   22  C29 UNL     1       3.610   6.859  10.608  1.00  0.00     0.090 C 
HETATM   23  C30 UNL     1       2.249   6.243  10.831  1.00  0.00     0.157 C 
HETATM   24  O5  UNL     1       1.739   5.557   9.946  1.00  0.00    -0.293 OA
ENDROOT
BRANCH   1  25
HETATM   25  C2  UNL     1      -3.329   6.748  13.842  1.00  0.00    -0.014 C 
HETATM   26  C1  UNL     1      -3.961   7.831  12.958  1.00  0.00     0.010 C 
BRANCH  25  27
HETATM   27  C3  UNL     1      -4.396   5.674  14.184  1.00  0.00     0.007 C 
BRANCH  27  28
HETATM   28  C4  UNL     1      -4.810   4.713  13.061  1.00  0.00     0.035 C 
BRANCH  28  29
HETATM   29  C5  UNL     1      -6.157   3.981  13.150  1.00  0.00     0.154 C 
BRANCH  29  30
HETATM   30  O1  UNL     1      -6.461   3.362  11.892  1.00  0.00    -0.392 OA
HETATM   31  H10 UNL     1      -7.394   3.075  11.950  1.00  0.00     0.210 HD
ENDBRANCH  29  30
BRANCH  29  32
HETATM   32  C6  UNL     1      -7.424   4.706  13.699  1.00  0.00     0.101 C 
HETATM   33  C7  UNL     1      -7.854   5.931  12.883  1.00  0.00     0.051 C 
BRANCH  32  34
HETATM   34  O2  UNL     1      -8.519   3.761  13.533  1.00  0.00    -0.385 OA
HETATM   35  H14 UNL     1      -8.295   2.954  14.033  1.00  0.00     0.210 HD
ENDBRANCH  32  34
BRANCH  32  36
HETATM   36  C8  UNL     1      -7.326   5.049  15.200  1.00  0.00     0.204 C 
BRANCH  36  37
HETATM   37  O3  UNL     1      -8.023   4.128  16.020  1.00  0.00    -0.398 OA
HETATM   38  H17 UNL     1      -7.820   4.350  16.946  1.00  0.00     0.209 HD
ENDBRANCH  36  37
ENDBRANCH  32  36
ENDBRANCH  29  32
ENDBRANCH  28  29
ENDBRANCH  27  28
ENDBRANCH  25  27
ENDBRANCH   1  25
TORSDOF 9
ENDMDL
MODEL 4
REMARK minimizedAffinity -8.90074348
REMARK  9 active torsions:
REMARK  status: ('A' for Active; 'I' for Inactive)
REMARK    1  A    between atoms: C2_2  and  C3_3 
REMARK    2  A    between atoms: C2_2  and  C9_12 
REMARK    3  A    between atoms: C3_3  and  C4_4 
REMARK    4  A    between atoms: C4_4  and  C5_5 
REMARK    5  A    between atoms: C5_5  and  O1_6 
REMARK    6  A    between atoms: C5_5  and  C6_7 
REMARK    7  A    between atoms: C6_7  and  O2_9 
REMARK    8  A    between atoms: C6_7  and  C8_10 
REMARK    9  A    between atoms: C8_10  and  O3_11 
ROOT
HETATM    1  C9  UNL     1      -2.968   7.831  14.644  1.00  0.00    -0.002 C 
HETATM    2  C10 UNL     1      -2.394   7.673  16.072  1.00  0.00     0.007 C 
HETATM    3  C11 UNL     1      -0.854   7.755  15.943  1.00  0.00     0.015 C 
HETATM    4  C12 UNL     1      -0.584   8.262  14.508  1.00  0.00    -0.005 C 
HETATM    5  C13 UNL     1      -0.690   9.818  14.554  1.00  0.00     0.021 C 
HETATM    6  C14 UNL     1       0.740   7.995  13.804  1.00  0.00    -0.000 C 
HETATM    7  C15 UNL     1       0.805   7.888  12.449  1.00  0.00    -0.060 C 
HETATM    8  C16 UNL     1      -0.468   7.967  11.590  1.00  0.00     0.036 C 
HETATM    9  C17 UNL     1      -1.821   8.092  12.320  1.00  0.00     0.015 C 
HETATM   10  C18 UNL     1      -1.742   7.521  13.739  1.00  0.00    -0.028 C 
HETATM   11  C19 UNL     1      -1.521   5.981  13.629  1.00  0.00     0.016 C 
HETATM   12  C20 UNL     1       2.134   7.611  11.694  1.00  0.00    -0.014 C 
HETATM   13  C21 UNL     1       2.205   6.076  11.526  1.00  0.00     0.020 C 
HETATM   14  C22 UNL     1       2.153   8.286  10.297  1.00  0.00     0.021 C 
HETATM   15  C23 UNL     1       3.484   8.151   9.575  1.00  0.00     0.080 C 
HETATM   16  C24 UNL     1       4.606   8.727  10.400  1.00  0.00     0.135 C 
HETATM   17  O4  UNL     1       5.440   9.463   9.869  1.00  0.00    -0.297 OA
HETATM   18  C25 UNL     1       4.728   8.268  11.861  1.00  0.00     0.018 C 
HETATM   19  C26 UNL     1       5.611   9.305  12.604  1.00  0.00     0.023 C 
HETATM   20  C27 UNL     1       5.493   6.935  11.877  1.00  0.00     0.023 C 
HETATM   21  C28 UNL     1       3.307   8.232  12.527  1.00  0.00     0.020 C 
HETATM   22  C29 UNL     1       3.307   7.653  13.945  1.00  0.00     0.090 C 
HETATM   23  C30 UNL     1       1.984   7.892  14.634  1.00  0.00     0.157 C 
HETATM   24  O5  UNL     1       1.943   7.976  15.860  1.00  0.00    -0.293 OA
ENDROOT
BRANCH   1  25
HETATM   25  C2  UNL     1      -4.320   7.114  14.341  1.00  0.00    -0.014 C 
HETATM   26  C1  UNL     1      -5.179   7.769  13.251  1.00  0.00     0.010 C 
BRANCH  25  27
HETATM   27  C3  UNL     1      -4.034   5.639  13.954  1.00  0.00     0.007 C 
BRANCH  27  28
HETATM   28  C4  UNL     1      -4.879   5.031  12.827  1.00  0.00     0.035 C 
BRANCH  28  29
HETATM   29  C5  UNL     1      -5.985   4.022  13.170  1.00  0.00     0.154 C 
BRANCH  29  30
HETATM   30  O1  UNL     1      -6.076   3.028  12.139  1.00  0.00    -0.392 OA
HETATM   31  H10 UNL     1      -6.900   2.532  12.314  1.00  0.00     0.210 HD
ENDBRANCH  29  30
BRANCH  29  32
HETATM   32  C6  UNL     1      -7.415   4.508  13.558  1.00  0.00     0.101 C 
HETATM   33  C7  UNL     1      -8.093   5.387  12.502  1.00  0.00     0.051 C 
BRANCH  32  34
HETATM   34  O2  UNL     1      -8.237   3.308  13.608  1.00  0.00    -0.385 OA
HETATM   35  H14 UNL     1      -7.847   2.705  14.268  1.00  0.00     0.210 HD
ENDBRANCH  32  34
BRANCH  32  36
HETATM   36  C8  UNL     1      -7.475   5.173  14.950  1.00  0.00     0.204 C 
BRANCH  36  37
HETATM   37  O3  UNL     1      -7.972   4.303  15.952  1.00  0.00    -0.398 OA
HETATM   38  H17 UNL     1      -7.873   4.757  16.808  1.00  0.00     0.209 HD
ENDBRANCH  36  37
ENDBRANCH  32  36
ENDBRANCH  29  32
ENDBRANCH  28  29
ENDBRANCH  27  28
ENDBRANCH  25  27
ENDBRANCH   1  25
TORSDOF 9
ENDMDL
MODEL 5
REMARK minimizedAffinity -8.89356995
REMARK  9 active torsions:
REMARK  status: ('A' for Active; 'I' for Inactive)
REMARK    1  A    between atoms: C2_2  and  C3_3 
REMARK    2  A    between atoms: C2_2  and  C9_12 
REMARK    3  A    between atoms: C3_3  and  C4_4 
REMARK    4  A    between atoms: C4_4  and  C5_5 
REMARK    5  A    between atoms: C5_5  and  O1_6 
REMARK    6  A    between atoms: C5_5  and  C6_7 
REMARK    7  A    between atoms: C6_7  and  O2_9 
REMARK    8  A    between atoms: C6_7  and  C8_10 
REMARK    9  A    between atoms: C8_10  and  O3_11 
ROOT
HETATM    1  C9  UNL     1       3.936   7.411  10.405  1.00  0.00    -0.002 C 
HETATM    2  C10 UNL     1       3.927   5.895  10.095  1.00  0.00     0.007 C 
HETATM    3  C11 UNL     1       2.556   5.353  10.568  1.00  0.00     0.015 C 
HETATM    4  C12 UNL     1       1.693   6.603  10.853  1.00  0.00    -0.005 C 
HETATM    5  C13 UNL     1       1.077   7.045   9.489  1.00  0.00     0.021 C 
HETATM    6  C14 UNL     1       0.503   6.550  11.804  1.00  0.00    -0.000 C 
HETATM    7  C15 UNL     1       0.118   7.650  12.506  1.00  0.00    -0.060 C 
HETATM    8  C16 UNL     1       0.912   8.963  12.413  1.00  0.00     0.036 C 
HETATM    9  C17 UNL     1       2.198   8.967  11.562  1.00  0.00     0.015 C 
HETATM   10  C18 UNL     1       2.793   7.561  11.448  1.00  0.00    -0.028 C 
HETATM   11  C19 UNL     1       3.286   7.128  12.863  1.00  0.00     0.016 C 
HETATM   12  C20 UNL     1      -1.086   7.636  13.488  1.00  0.00    -0.014 C 
HETATM   13  C21 UNL     1      -0.486   7.320  14.877  1.00  0.00     0.020 C 
HETATM   14  C22 UNL     1      -1.806   9.010  13.536  1.00  0.00     0.021 C 
HETATM   15  C23 UNL     1      -3.067   9.006  14.385  1.00  0.00     0.080 C 
HETATM   16  C24 UNL     1      -4.044   7.971  13.893  1.00  0.00     0.135 C 
HETATM   17  O4  UNL     1      -5.236   8.264  13.768  1.00  0.00    -0.297 OA
HETATM   18  C25 UNL     1      -3.526   6.540  13.681  1.00  0.00     0.018 C 
HETATM   19  C26 UNL     1      -4.538   5.808  12.761  1.00  0.00     0.023 C 
HETATM   20  C27 UNL     1      -3.551   5.820  15.037  1.00  0.00     0.023 C 
HETATM   21  C28 UNL     1      -2.126   6.584  12.971  1.00  0.00     0.020 C 
HETATM   22  C29 UNL     1      -1.461   5.210  12.840  1.00  0.00     0.090 C 
HETATM   23  C30 UNL     1      -0.264   5.268  11.920  1.00  0.00     0.157 C 
HETATM   24  O5  UNL     1       0.076   4.261  11.301  1.00  0.00    -0.293 OA
ENDROOT
BRANCH   1  25
HETATM   25  C2  UNL     1       5.319   8.062  10.715  1.00  0.00    -0.014 C 
HETATM   26  C1  UNL     1       5.276   9.552  11.078  1.00  0.00     0.010 C 
BRANCH  25  27
HETATM   27  C3  UNL     1       6.005   7.271  11.860  1.00  0.00     0.007 C 
BRANCH  27  28
HETATM   28  C4  UNL     1       6.850   8.072  12.859  1.00  0.00     0.035 C 
BRANCH  28  29
HETATM   29  C5  UNL     1       7.335   7.399  14.152  1.00  0.00     0.154 C 
BRANCH  29  30
HETATM   30  O1  UNL     1       6.375   6.423  14.583  1.00  0.00    -0.392 OA
HETATM   31  H10 UNL     1       6.640   6.165  15.488  1.00  0.00     0.210 HD
ENDBRANCH  29  30
BRANCH  29  32
HETATM   32  C6  UNL     1       7.799   8.254  15.370  1.00  0.00     0.101 C 
HETATM   33  C7  UNL     1       7.689   9.768  15.158  1.00  0.00     0.051 C 
BRANCH  32  34
HETATM   34  O2  UNL     1       6.845   7.970  16.433  1.00  0.00    -0.385 OA
HETATM   35  H14 UNL     1       6.870   7.011  16.609  1.00  0.00     0.210 HD
ENDBRANCH  32  34
BRANCH  32  36
HETATM   36  C8  UNL     1       9.201   7.869  15.885  1.00  0.00     0.204 C 
BRANCH  36  37
HETATM   37  O3  UNL     1       9.482   8.407  17.166  1.00  0.00    -0.398 OA
HETATM   38  H17 UNL     1      10.329   8.029  17.462  1.00  0.00     0.209 HD
ENDBRANCH  36  37
ENDBRANCH  32  36
ENDBRANCH  29  32
ENDBRANCH  28  29
ENDBRANCH  27  28
ENDBRANCH  25  27
ENDBRANCH   1  25
TORSDOF 9
ENDMDL
MODEL 6
REMARK minimizedAffinity -8.86763287
REMARK  9 active torsions:
REMARK  status: ('A' for Active; 'I' for Inactive)
REMARK    1  A    between atoms: C2_2  and  C3_3 
REMARK    2  A    between atoms: C2_2  and  C9_12 
REMARK    3  A    between atoms: C3_3  and  C4_4 
REMARK    4  A    between atoms: C4_4  and  C5_5 
REMARK    5  A    between atoms: C5_5  and  O1_6 
REMARK    6  A    between atoms: C5_5  and  C6_7 
REMARK    7  A    between atoms: C6_7  and  O2_9 
REMARK    8  A    between atoms: C6_7  and  C8_10 
REMARK    9  A    between atoms: C8_10  and  O3_11 
ROOT
HETATM    1  C9  UNL     1      -2.567   5.034  12.636  1.00  0.00    -0.002 C 
HETATM    2  C10 UNL     1      -1.328   5.255  11.736  1.00  0.00     0.007 C 
HETATM    3  C11 UNL     1      -0.490   6.373  12.402  1.00  0.00     0.015 C 
HETATM    4  C12 UNL     1      -1.091   6.557  13.814  1.00  0.00    -0.005 C 
HETATM    5  C13 UNL     1      -0.429   5.480  14.728  1.00  0.00     0.021 C 
HETATM    6  C14 UNL     1      -0.927   7.860  14.587  1.00  0.00    -0.000 C 
HETATM    7  C15 UNL     1      -1.864   8.265  15.485  1.00  0.00    -0.060 C 
HETATM    8  C16 UNL     1      -3.153   7.454  15.701  1.00  0.00     0.036 C 
HETATM    9  C17 UNL     1      -3.379   6.215  14.811  1.00  0.00     0.015 C 
HETATM   10  C18 UNL     1      -2.616   6.334  13.488  1.00  0.00    -0.028 C 
HETATM   11  C19 UNL     1      -3.248   7.500  12.668  1.00  0.00     0.016 C 
HETATM   12  C20 UNL     1      -1.736   9.588  16.290  1.00  0.00    -0.014 C 
HETATM   13  C21 UNL     1      -2.492  10.653  15.462  1.00  0.00     0.020 C 
HETATM   14  C22 UNL     1      -2.381   9.472  17.696  1.00  0.00     0.021 C 
HETATM   15  C23 UNL     1      -2.166  10.699  18.567  1.00  0.00     0.080 C 
HETATM   16  C24 UNL     1      -0.698  10.989  18.737  1.00  0.00     0.135 C 
HETATM   17  O4  UNL     1      -0.252  11.253  19.855  1.00  0.00    -0.297 OA
HETATM   18  C25 UNL     1       0.169  11.060  17.470  1.00  0.00     0.018 C 
HETATM   19  C26 UNL     1       1.649  10.897  17.907  1.00  0.00     0.023 C 
HETATM   20  C27 UNL     1       0.030  12.471  16.878  1.00  0.00     0.023 C 
HETATM   21  C28 UNL     1      -0.212   9.886  16.500  1.00  0.00     0.020 C 
HETATM   22  C29 UNL     1       0.501   9.952  15.146  1.00  0.00     0.090 C 
HETATM   23  C30 UNL     1       0.315   8.671  14.367  1.00  0.00     0.157 C 
HETATM   24  O5  UNL     1       1.168   8.326  13.551  1.00  0.00    -0.293 OA
ENDROOT
BRANCH   1  25
HETATM   25  C2  UNL     1      -3.874   4.551  11.935  1.00  0.00    -0.014 C 
HETATM   26  C1  UNL     1      -3.667   3.670  10.696  1.00  0.00     0.010 C 
BRANCH  25  27
HETATM   27  C3  UNL     1      -4.750   3.792  12.967  1.00  0.00     0.007 C 
BRANCH  27  28
HETATM   28  C4  UNL     1      -6.203   3.497  12.572  1.00  0.00     0.035 C 
BRANCH  28  29
HETATM   29  C5  UNL     1      -7.333   3.797  13.569  1.00  0.00     0.154 C 
BRANCH  29  30
HETATM   30  O1  UNL     1      -8.551   3.179  13.126  1.00  0.00    -0.392 OA
HETATM   31  H10 UNL     1      -9.261   3.550  13.686  1.00  0.00     0.210 HD
ENDBRANCH  29  30
BRANCH  29  32
HETATM   32  C6  UNL     1      -7.623   5.258  14.029  1.00  0.00     0.101 C 
HETATM   33  C7  UNL     1      -6.877   6.333  13.230  1.00  0.00     0.051 C 
BRANCH  32  34
HETATM   34  O2  UNL     1      -9.027   5.494  13.725  1.00  0.00    -0.385 OA
HETATM   35  H14 UNL     1      -9.553   4.830  14.208  1.00  0.00     0.210 HD
ENDBRANCH  32  34
BRANCH  32  36
HETATM   36  C8  UNL     1      -7.432   5.467  15.546  1.00  0.00     0.204 C 
BRANCH  36  37
HETATM   37  O3  UNL     1      -8.313   4.675  16.324  1.00  0.00    -0.398 OA
HETATM   38  H17 UNL     1      -8.054   4.781  17.256  1.00  0.00     0.209 HD
ENDBRANCH  36  37
ENDBRANCH  32  36
ENDBRANCH  29  32
ENDBRANCH  28  29
ENDBRANCH  27  28
ENDBRANCH  25  27
ENDBRANCH   1  25
TORSDOF 9
ENDMDL
MODEL 7
REMARK minimizedAffinity -8.84920216
REMARK  9 active torsions:
REMARK  status: ('A' for Active; 'I' for Inactive)
REMARK    1  A    between atoms: C2_2  and  C3_3 
REMARK    2  A    between atoms: C2_2  and  C9_12 
REMARK    3  A    between atoms: C3_3  and  C4_4 
REMARK    4  A    between atoms: C4_4  and  C5_5 
REMARK    5  A    between atoms: C5_5  and  O1_6 
REMARK    6  A    between atoms: C5_5  and  C6_7 
REMARK    7  A    between atoms: C6_7  and  O2_9 
REMARK    8  A    between atoms: C6_7  and  C8_10 
REMARK    9  A    between atoms: C8_10  and  O3_11 
ROOT
HETATM    1  C9  UNL     1      -3.435   7.569  15.031  1.00  0.00    -0.002 C 
HETATM    2  C10 UNL     1      -4.137   6.308  14.475  1.00  0.00     0.007 C 
HETATM    3  C11 UNL     1      -3.180   5.693  13.425  1.00  0.00     0.015 C 
HETATM    4  C12 UNL     1      -1.831   6.424  13.616  1.00  0.00    -0.005 C 
HETATM    5  C13 UNL     1      -1.081   5.688  14.769  1.00  0.00     0.021 C 
HETATM    6  C14 UNL     1      -0.805   6.510  12.493  1.00  0.00    -0.000 C 
HETATM    7  C15 UNL     1       0.051   7.563  12.404  1.00  0.00    -0.060 C 
HETATM    8  C16 UNL     1      -0.035   8.735  13.397  1.00  0.00     0.036 C 
HETATM    9  C17 UNL     1      -1.170   8.710  14.440  1.00  0.00     0.015 C 
HETATM   10  C18 UNL     1      -2.354   7.871  13.954  1.00  0.00    -0.028 C 
HETATM   11  C19 UNL     1      -2.992   8.597  12.731  1.00  0.00     0.016 C 
HETATM   12  C20 UNL     1       1.108   7.690  11.273  1.00  0.00    -0.014 C 
HETATM   13  C21 UNL     1       0.430   8.524  10.162  1.00  0.00     0.020 C 
HETATM   14  C22 UNL     1       2.387   8.420  11.759  1.00  0.00     0.021 C 
HETATM   15  C23 UNL     1       3.500   8.453  10.724  1.00  0.00     0.080 C 
HETATM   16  C24 UNL     1       3.878   7.059  10.296  1.00  0.00     0.135 C 
HETATM   17  O4  UNL     1       5.068   6.745  10.217  1.00  0.00    -0.297 OA
HETATM   18  C25 UNL     1       2.749   6.114   9.854  1.00  0.00     0.018 C 
HETATM   19  C26 UNL     1       3.300   4.666   9.919  1.00  0.00     0.023 C 
HETATM   20  C27 UNL     1       2.434   6.408   8.380  1.00  0.00     0.023 C 
HETATM   21  C28 UNL     1       1.533   6.246  10.838  1.00  0.00     0.020 C 
HETATM   22  C29 UNL     1       0.302   5.445  10.403  1.00  0.00     0.090 C 
HETATM   23  C30 UNL     1      -0.729   5.384  11.506  1.00  0.00     0.157 C 
HETATM   24  O5  UNL     1      -1.501   4.429  11.564  1.00  0.00    -0.293 OA
ENDROOT
BRANCH   1  25
HETATM   25  C2  UNL     1      -4.352   8.734  15.516  1.00  0.00    -0.014 C 
HETATM   26  C1  UNL     1      -3.770  10.143  15.340  1.00  0.00     0.010 C 
BRANCH  25  27
HETATM   27  C3  UNL     1      -5.715   8.643  14.781  1.00  0.00     0.007 C 
BRANCH  27  28
HETATM   28  C4  UNL     1      -6.928   8.189  15.604  1.00  0.00     0.035 C 
BRANCH  28  29
HETATM   29  C5  UNL     1      -8.303   8.079  14.928  1.00  0.00     0.154 C 
BRANCH  29  30
HETATM   30  O1  UNL     1      -9.288   8.772  15.709  1.00  0.00    -0.392 OA
HETATM   31  H10 UNL     1     -10.156   8.517  15.338  1.00  0.00     0.210 HD
ENDBRANCH  29  30
BRANCH  29  32
HETATM   32  C6  UNL     1      -8.864   6.694  14.484  1.00  0.00     0.101 C 
HETATM   33  C7  UNL     1      -7.934   5.901  13.559  1.00  0.00     0.051 C 
BRANCH  32  34
HETATM   34  O2  UNL     1      -8.932   5.892  15.698  1.00  0.00    -0.385 OA
HETATM   35  H14 UNL     1      -9.513   6.354  16.330  1.00  0.00     0.210 HD
ENDBRANCH  32  34
BRANCH  32  36
HETATM   36  C8  UNL     1     -10.289   6.774  13.898  1.00  0.00     0.204 C 
BRANCH  36  37
HETATM   37  O3  UNL     1     -11.297   6.589  14.877  1.00  0.00    -0.398 OA
HETATM   38  H17 UNL     1     -12.154   6.764  14.450  1.00  0.00     0.209 HD
ENDBRANCH  36  37
ENDBRANCH  32  36
ENDBRANCH  29  32
ENDBRANCH  28  29
ENDBRANCH  27  28
ENDBRANCH  25  27
ENDBRANCH   1  25
TORSDOF 9
ENDMDL
MODEL 8
REMARK minimizedAffinity -8.79811764
REMARK  9 active torsions:
REMARK  status: ('A' for Active; 'I' for Inactive)
REMARK    1  A    between atoms: C2_2  and  C3_3 
REMARK    2  A    between atoms: C2_2  and  C9_12 
REMARK    3  A    between atoms: C3_3  and  C4_4 
REMARK    4  A    between atoms: C4_4  and  C5_5 
REMARK    5  A    between atoms: C5_5  and  O1_6 
REMARK    6  A    between atoms: C5_5  and  C6_7 
REMARK    7  A    between atoms: C6_7  and  O2_9 
REMARK    8  A    between atoms: C6_7  and  C8_10 
REMARK    9  A    between atoms: C8_10  and  O3_11 
ROOT
HETATM    1  C9  UNL     1      -0.503   9.273  14.322  1.00  0.00    -0.002 C 
HETATM    2  C10 UNL     1       0.174   8.123  13.540  1.00  0.00     0.007 C 
HETATM    3  C11 UNL     1      -0.950   7.137  13.140  1.00  0.00     0.015 C 
HETATM    4  C12 UNL     1      -2.275   7.880  13.424  1.00  0.00    -0.005 C 
HETATM    5  C13 UNL     1      -2.570   8.765  12.174  1.00  0.00     0.021 C 
HETATM    6  C14 UNL     1      -3.576   7.125  13.668  1.00  0.00    -0.000 C 
HETATM    7  C15 UNL     1      -4.552   7.648  14.458  1.00  0.00    -0.060 C 
HETATM    8  C16 UNL     1      -4.346   8.988  15.184  1.00  0.00     0.036 C 
HETATM    9  C17 UNL     1      -2.972   9.675  15.048  1.00  0.00     0.015 C 
HETATM   10  C18 UNL     1      -1.871   8.658  14.733  1.00  0.00    -0.028 C 
HETATM   11  C19 UNL     1      -1.701   7.730  15.974  1.00  0.00     0.016 C 
HETATM   12  C20 UNL     1      -5.890   6.909  14.735  1.00  0.00    -0.014 C 
HETATM   13  C21 UNL     1      -5.664   6.116  16.042  1.00  0.00     0.020 C 
HETATM   14  C22 UNL     1      -7.067   7.901  14.929  1.00  0.00     0.021 C 
HETATM   15  C23 UNL     1      -8.418   7.221  15.074  1.00  0.00     0.080 C 
HETATM   16  C24 UNL     1      -8.716   6.354  13.878  1.00  0.00     0.135 C 
HETATM   17  O4  UNL     1      -9.829   6.402  13.350  1.00  0.00    -0.297 OA
HETATM   18  C25 UNL     1      -7.642   5.347  13.440  1.00  0.00     0.018 C 
HETATM   19  C26 UNL     1      -7.959   4.933  11.978  1.00  0.00     0.023 C 
HETATM   20  C27 UNL     1      -7.793   4.086  14.305  1.00  0.00     0.023 C 
HETATM   21  C28 UNL     1      -6.228   6.026  13.485  1.00  0.00     0.020 C 
HETATM   22  C29 UNL     1      -5.073   5.061  13.198  1.00  0.00     0.090 C 
HETATM   23  C30 UNL     1      -3.777   5.807  12.985  1.00  0.00     0.157 C 
HETATM   24  O5  UNL     1      -2.901   5.313  12.276  1.00  0.00    -0.293 OA
ENDROOT
BRANCH   1  25
HETATM   25  C2  UNL     1       0.352   9.987  15.414  1.00  0.00    -0.014 C 
HETATM   26  C1  UNL     1      -0.432  10.887  16.377  1.00  0.00     0.010 C 
BRANCH  25  27
HETATM   27  C3  UNL     1       1.130   8.917  16.226  1.00  0.00     0.007 C 
BRANCH  27  28
HETATM   28  C4  UNL     1       2.659   8.911  16.096  1.00  0.00     0.035 C 
BRANCH  28  29
HETATM   29  C5  UNL     1       3.339   7.850  15.218  1.00  0.00     0.154 C 
BRANCH  29  30
HETATM   30  O1  UNL     1       3.254   6.565  15.851  1.00  0.00    -0.392 OA
HETATM   31  H10 UNL     1       3.852   5.976  15.349  1.00  0.00     0.210 HD
ENDBRANCH  29  30
BRANCH  29  32
HETATM   32  C6  UNL     1       4.783   8.073  14.673  1.00  0.00     0.101 C 
HETATM   33  C7  UNL     1       5.522   9.256  15.307  1.00  0.00     0.051 C 
BRANCH  32  34
HETATM   34  O2  UNL     1       5.545   6.906  15.094  1.00  0.00    -0.385 OA
HETATM   35  H14 UNL     1       5.114   6.116  14.720  1.00  0.00     0.210 HD
ENDBRANCH  32  34
BRANCH  32  36
HETATM   36  C8  UNL     1       4.848   8.142  13.133  1.00  0.00     0.204 C 
BRANCH  36  37
HETATM   37  O3  UNL     1       4.635   6.884  12.518  1.00  0.00    -0.398 OA
HETATM   38  H17 UNL     1       4.582   7.034  11.557  1.00  0.00     0.209 HD
ENDBRANCH  36  37
ENDBRANCH  32  36
ENDBRANCH  29  32
ENDBRANCH  28  29
ENDBRANCH  27  28
ENDBRANCH  25  27
ENDBRANCH   1  25
TORSDOF 9
ENDMDL
MODEL 9
REMARK minimizedAffinity -8.58137894
REMARK  9 active torsions:
REMARK  status: ('A' for Active; 'I' for Inactive)
REMARK    1  A    between atoms: C2_2  and  C3_3 
REMARK    2  A    between atoms: C2_2  and  C9_12 
REMARK    3  A    between atoms: C3_3  and  C4_4 
REMARK    4  A    between atoms: C4_4  and  C5_5 
REMARK    5  A    between atoms: C5_5  and  O1_6 
REMARK    6  A    between atoms: C5_5  and  C6_7 
REMARK    7  A    between atoms: C6_7  and  O2_9 
REMARK    8  A    between atoms: C6_7  and  C8_10 
REMARK    9  A    between atoms: C8_10  and  O3_11 
ROOT
HETATM    1  C9  UNL     1      -5.060   6.535  14.951  1.00  0.00    -0.002 C 
HETATM    2  C10 UNL     1      -5.501   5.355  14.053  1.00  0.00     0.007 C 
HETATM    3  C11 UNL     1      -4.320   5.061  13.095  1.00  0.00     0.015 C 
HETATM    4  C12 UNL     1      -3.122   5.860  13.657  1.00  0.00    -0.005 C 
HETATM    5  C13 UNL     1      -2.475   4.977  14.768  1.00  0.00     0.021 C 
HETATM    6  C14 UNL     1      -1.952   6.269  12.771  1.00  0.00    -0.000 C 
HETATM    7  C15 UNL     1      -1.234   7.395  13.034  1.00  0.00    -0.060 C 
HETATM    8  C16 UNL     1      -1.622   8.324  14.195  1.00  0.00     0.036 C 
HETATM    9  C17 UNL     1      -2.894   7.980  14.997  1.00  0.00     0.015 C 
HETATM   10  C18 UNL     1      -3.872   7.151  14.159  1.00  0.00    -0.028 C 
HETATM   11  C19 UNL     1      -4.397   8.050  12.998  1.00  0.00     0.016 C 
HETATM   12  C20 UNL     1      -0.037   7.849  12.153  1.00  0.00    -0.014 C 
HETATM   13  C21 UNL     1      -0.634   8.825  11.114  1.00  0.00     0.020 C 
HETATM   14  C22 UNL     1       1.047   8.580  12.987  1.00  0.00     0.021 C 
HETATM   15  C23 UNL     1       2.294   8.928  12.192  1.00  0.00     0.080 C 
HETATM   16  C24 UNL     1       2.909   7.694  11.586  1.00  0.00     0.135 C 
HETATM   17  O4  UNL     1       4.126   7.515  11.664  1.00  0.00    -0.297 OA
HETATM   18  C25 UNL     1       1.992   6.758  10.782  1.00  0.00     0.018 C 
HETATM   19  C26 UNL     1       2.706   5.385  10.674  1.00  0.00     0.023 C 
HETATM   20  C27 UNL     1       1.877   7.317   9.356  1.00  0.00     0.023 C 
HETATM   21  C28 UNL     1       0.631   6.571  11.540  1.00  0.00     0.020 C 
HETATM   22  C29 UNL     1      -0.406   5.764  10.751  1.00  0.00     0.090 C 
HETATM   23  C30 UNL     1      -1.580   5.382  11.621  1.00  0.00     0.157 C 
HETATM   24  O5  UNL     1      -2.224   4.367  11.362  1.00  0.00    -0.293 OA
ENDROOT
BRANCH   1  25
HETATM   25  C2  UNL     1      -6.182   7.485  15.472  1.00  0.00    -0.014 C 
HETATM   26  C1  UNL     1      -5.808   8.972  15.531  1.00  0.00     0.010 C 
BRANCH  25  27
HETATM   27  C3  UNL     1      -7.446   7.305  14.590  1.00  0.00     0.007 C 
BRANCH  27  28
HETATM   28  C4  UNL     1      -8.615   8.269  14.834  1.00  0.00     0.035 C 
BRANCH  28  29
HETATM   29  C5  UNL     1      -9.888   7.756  15.524  1.00  0.00     0.154 C 
BRANCH  29  30
HETATM   30  O1  UNL     1      -9.722   6.378  15.891  1.00  0.00    -0.392 OA
HETATM   31  H10 UNL     1     -10.609   6.059  16.151  1.00  0.00     0.210 HD
ENDBRANCH  29  30
BRANCH  29  32
HETATM   32  C6  UNL     1     -11.287   7.960  14.869  1.00  0.00     0.101 C 
HETATM   33  C7  UNL     1     -11.859   6.708  14.194  1.00  0.00     0.051 C 
BRANCH  32  34
HETATM   34  O2  UNL     1     -12.201   8.224  15.971  1.00  0.00    -0.385 OA
HETATM   35  H14 UNL     1     -11.881   9.016  16.442  1.00  0.00     0.210 HD
ENDBRANCH  32  34
BRANCH  32  36
HETATM   36  C8  UNL     1     -11.342   9.173  13.917  1.00  0.00     0.204 C 
BRANCH  36  37
HETATM   37  O3  UNL     1     -11.548   8.802  12.565  1.00  0.00    -0.398 OA
HETATM   38  H17 UNL     1     -11.680   9.620  12.054  1.00  0.00     0.209 HD
ENDBRANCH  36  37
ENDBRANCH  32  36
ENDBRANCH  29  32
ENDBRANCH  28  29
ENDBRANCH  27  28
ENDBRANCH  25  27
ENDBRANCH   1  25
TORSDOF 9
ENDMDL
