MODEL 1
REMARK minimizedAffinity -6.08191061
REMARK CNNscore 0.153192773
REMARK CNNaffinity 6.12795258
REMARK  8 active torsions:
REMARK  status: ('A' for Active; 'I' for Inactive)
REMARK    1  A    between atoms: C10_11  and  C11_12 
REMARK    2  A    between atoms: C29_32  and  C30_33 
REMARK    3  A    between atoms: C29_32  and  C31_35 
REMARK    4  A    between atoms: C30_33  and  O1_34 
REMARK    5  A    between atoms: C31_35  and  O3_37 
REMARK    6  A    between atoms: C41_48  and  C42_49 
REMARK    7  A    between atoms: C42_49  and  O5_51 
REMARK    8  A    between atoms: C44_53  and  O6_54 
ROOT
HETATM    1  C1  UNL     1       7.496  17.002  14.792  1.00  0.00     0.036 C 
HETATM    2  C2  UNL     1       6.464  17.819  14.088  1.00  0.00    -0.026 C 
HETATM    3  C3  UNL     1       5.468  17.400  13.282  1.00  0.00    -0.050 C 
HETATM    4  C4  UNL     1       4.610  18.458  12.597  1.00  0.00     0.310 C 
HETATM    5  N1  UNL     1       3.172  18.247  12.612  1.00  0.00     0.125 N 
HETATM    6  C5  UNL     1       2.614  18.517  13.945  1.00  0.00     0.277 C 
HETATM    7  C6  UNL     1       2.787  17.225  14.719  1.00  0.00     0.051 C 
HETATM    8  C7  UNL     1       2.693  16.133  13.632  1.00  0.00     0.070 C 
HETATM    9  C8  UNL     1       1.287  15.555  13.686  1.00  0.00    -0.016 A 
HETATM   10  C9  UNL     1       0.734  14.694  14.631  1.00  0.00     0.018 A 
HETATM   11  C10 UNL     1      -0.602  14.294  14.508  1.00  0.00    -0.048 A 
HETATM   12  C33 UNL     1      -1.378  14.828  13.461  1.00  0.00     0.010 A 
HETATM   13  C34 UNL     1      -0.820  15.715  12.535  1.00  0.00     0.030 A 
HETATM   14  C35 UNL     1       0.515  16.065  12.642  1.00  0.00     0.039 A 
HETATM   15  N4  UNL     1       1.249  16.849  11.774  1.00  0.00    -0.347 N 
HETATM   16  C36 UNL     1       0.669  17.931  11.014  1.00  0.00     0.152 C 
HETATM   17  C37 UNL     1       2.656  16.910  12.237  1.00  0.00     0.274 C 
HETATM   18  C38 UNL     1       3.473  16.001  11.171  1.00  0.00     0.186 C 
HETATM   19  C39 UNL     1       4.985  15.968  11.360  1.00  0.00     0.047 C 
HETATM   20  C40 UNL     1       5.195  15.937  12.888  1.00  0.00     0.043 C 
HETATM   21  C41 UNL     1       3.937  15.188  13.551  1.00  0.00     0.121 C 
HETATM   22  C44 UNL     1       3.534  14.047  12.578  1.00  0.00     0.277 C 
HETATM   23  O7  UNL     1       3.084  14.600  11.327  1.00  0.00    -0.350 OA
ENDROOT
BRANCH  11  24
HETATM   24  C11 UNL     1      -1.172  13.205  15.438  1.00  0.00     0.070 C 
HETATM   25  C12 UNL     1      -0.930  11.851  14.736  1.00  0.00     0.026 C 
HETATM   26  C13 UNL     1      -0.722  10.557  15.578  1.00  0.00     0.039 C 
HETATM   27  C14 UNL     1      -0.215  10.826  16.985  1.00  0.00    -0.051 C 
HETATM   28  C29 UNL     1      -1.933   9.591  15.586  1.00  0.00     0.107 C 
HETATM   29  C15 UNL     1       1.080  11.081  17.274  1.00  0.00    -0.026 C 
HETATM   30  C17 UNL     1      -1.221  10.751  18.116  1.00  0.00     0.306 C 
HETATM   31  C16 UNL     1       2.230  11.177  16.318  1.00  0.00     0.036 C 
HETATM   32  N2  UNL     1      -2.612  10.872  17.719  1.00  0.00     0.094 N 
HETATM   33  C18 UNL     1      -3.520  10.614  18.835  1.00  0.00     0.310 C 
HETATM   34  C19 UNL     1      -3.057  10.230  16.463  1.00  0.00     0.248 C 
HETATM   35  C20 UNL     1      -3.959  11.250  15.682  1.00  0.00     0.079 C 
HETATM   36  C21 UNL     1      -3.763  12.726  15.930  1.00  0.00    -0.020 A 
HETATM   37  C22 UNL     1      -2.608  13.494  15.815  1.00  0.00     0.025 A 
HETATM   38  C28 UNL     1      -4.823  13.621  16.341  1.00  0.00    -0.001 A 
HETATM   39  N3  UNL     1      -2.935  14.775  16.215  1.00  0.00    -0.358 N 
HETATM   40  C23 UNL     1      -4.274  14.887  16.503  1.00  0.00     0.043 A 
HETATM   41  H28 UNL     1      -2.270  15.538  16.262  1.00  0.00     0.166 HD
HETATM   42  C24 UNL     1      -5.021  16.003  16.906  1.00  0.00     0.030 A 
HETATM   43  C25 UNL     1      -6.381  15.819  17.158  1.00  0.00     0.002 A 
HETATM   44  C26 UNL     1      -6.965  14.563  17.009  1.00  0.00     0.001 A 
HETATM   45  C27 UNL     1      -6.203  13.460  16.601  1.00  0.00     0.014 A 
BRANCH  28  46
HETATM   46  C30 UNL     1      -1.534   8.143  16.060  1.00  0.00     0.186 C 
BRANCH  46  47
HETATM   47  O1  UNL     1      -2.557   7.348  16.621  1.00  0.00    -0.399 OA
HETATM   48  H35 UNL     1      -2.143   6.554  17.004  1.00  0.00     0.209 HD
ENDBRANCH  46  47
ENDBRANCH  28  46
BRANCH  28  49
HETATM   49  C31 UNL     1      -2.438   9.244  14.178  1.00  0.00     0.272 C 
HETATM   50  O2  UNL     1      -3.418   8.540  13.972  1.00  0.00    -0.264 OA
BRANCH  49  51
HETATM   51  O3  UNL     1      -1.624   9.704  13.192  1.00  0.00    -0.326 OA
HETATM   52  C32 UNL     1      -1.618   8.928  11.995  1.00  0.00     0.213 C 
ENDBRANCH  49  51
ENDBRANCH  28  49
ENDBRANCH  11  24
BRANCH  21  53
HETATM   53  C42 UNL     1       4.243  14.539  14.890  1.00  0.00     0.274 C 
HETATM   54  O4  UNL     1       4.482  13.346  15.037  1.00  0.00    -0.264 OA
BRANCH  53  55
HETATM   55  O5  UNL     1       4.163  15.402  15.936  1.00  0.00    -0.326 OA
HETATM   56  C43 UNL     1       4.263  14.779  17.217  1.00  0.00     0.213 C 
ENDBRANCH  53  55
ENDBRANCH  21  53
BRANCH  22  57
HETATM   57  O6  UNL     1       4.631  13.186  12.312  1.00  0.00    -0.370 OA
HETATM   58  H52 UNL     1       4.240  12.427  11.846  1.00  0.00     0.212 HD
ENDBRANCH  22  57
TORSDOF 8
ENDMDL
MODEL 2
REMARK minimizedAffinity -6.45498133
REMARK CNNscore 0.14597398
REMARK CNNaffinity 5.80119562
REMARK  8 active torsions:
REMARK  status: ('A' for Active; 'I' for Inactive)
REMARK    1  A    between atoms: C10_11  and  C11_12 
REMARK    2  A    between atoms: C29_32  and  C30_33 
REMARK    3  A    between atoms: C29_32  and  C31_35 
REMARK    4  A    between atoms: C30_33  and  O1_34 
REMARK    5  A    between atoms: C31_35  and  O3_37 
REMARK    6  A    between atoms: C41_48  and  C42_49 
REMARK    7  A    between atoms: C42_49  and  O5_51 
REMARK    8  A    between atoms: C44_53  and  O6_54 
ROOT
HETATM    1  C1  UNL     1     -16.986  -8.811   5.681  1.00  0.00     0.036 C 
HETATM    2  C2  UNL     1     -15.946  -8.281   6.611  1.00  0.00    -0.026 C 
HETATM    3  C3  UNL     1     -14.746  -8.810   6.917  1.00  0.00    -0.050 C 
HETATM    4  C4  UNL     1     -13.911  -8.118   7.989  1.00  0.00     0.310 C 
HETATM    5  N1  UNL     1     -12.498  -7.929   7.701  1.00  0.00     0.125 N 
HETATM    6  C5  UNL     1     -12.301  -6.857   6.715  1.00  0.00     0.277 C 
HETATM    7  C6  UNL     1     -12.462  -7.525   5.363  1.00  0.00     0.051 C 
HETATM    8  C7  UNL     1     -11.973  -8.967   5.607  1.00  0.00     0.070 C 
HETATM    9  C8  UNL     1     -10.549  -9.062   5.080  1.00  0.00    -0.016 A 
HETATM   10  C9  UNL     1     -10.110  -9.112   3.759  1.00  0.00     0.018 A 
HETATM   11  C10 UNL     1      -8.738  -9.176   3.485  1.00  0.00    -0.048 A 
HETATM   12  C33 UNL     1      -7.828  -9.120   4.559  1.00  0.00     0.010 A 
HETATM   13  C34 UNL     1      -8.280  -9.041   5.880  1.00  0.00     0.030 A 
HETATM   14  C35 UNL     1      -9.639  -9.026   6.137  1.00  0.00     0.039 A 
HETATM   15  N4  UNL     1     -10.260  -9.040   7.371  1.00  0.00    -0.347 N 
HETATM   16  C36 UNL     1      -9.680  -8.436   8.547  1.00  0.00     0.152 C 
HETATM   17  C37 UNL     1     -11.730  -9.084   7.181  1.00  0.00     0.274 C 
HETATM   18  C38 UNL     1     -12.148 -10.590   7.611  1.00  0.00     0.186 C 
HETATM   19  C39 UNL     1     -13.644 -10.884   7.601  1.00  0.00     0.047 C 
HETATM   20  C40 UNL     1     -14.188 -10.137   6.367  1.00  0.00     0.043 C 
HETATM   21  C41 UNL     1     -13.022 -10.076   5.263  1.00  0.00     0.121 C 
HETATM   22  C44 UNL     1     -12.253 -11.422   5.354  1.00  0.00     0.277 C 
HETATM   23  O7  UNL     1     -11.613 -11.541   6.638  1.00  0.00    -0.350 OA
ENDROOT
BRANCH  11  24
HETATM   24  C11 UNL     1      -8.247  -9.413   2.045  1.00  0.00     0.070 C 
HETATM   25  C12 UNL     1      -9.277 -10.346   1.372  1.00  0.00     0.026 C 
HETATM   26  C13 UNL     1      -9.524 -10.266  -0.164  1.00  0.00     0.039 C 
HETATM   27  C14 UNL     1      -9.160  -8.919  -0.765  1.00  0.00    -0.051 C 
HETATM   28  C29 UNL     1      -8.915 -11.435  -0.977  1.00  0.00     0.107 C 
HETATM   29  C15 UNL     1      -9.960  -7.832  -0.698  1.00  0.00    -0.026 C 
HETATM   30  C17 UNL     1      -7.848  -8.823  -1.518  1.00  0.00     0.306 C 
HETATM   31  C16 UNL     1     -11.296  -7.718  -0.028  1.00  0.00     0.036 C 
HETATM   32  N2  UNL     1      -6.882  -9.865  -1.220  1.00  0.00     0.094 N 
HETATM   33  C18 UNL     1      -5.724  -9.803  -2.109  1.00  0.00     0.310 C 
HETATM   34  C19 UNL     1      -7.364 -11.247  -1.007  1.00  0.00     0.248 C 
HETATM   35  C20 UNL     1      -6.637 -11.833   0.254  1.00  0.00     0.079 C 
HETATM   36  C21 UNL     1      -6.126 -10.875   1.304  1.00  0.00    -0.020 A 
HETATM   37  C22 UNL     1      -6.815  -9.901   2.020  1.00  0.00     0.025 A 
HETATM   38  C28 UNL     1      -4.752 -10.836   1.757  1.00  0.00    -0.001 A 
HETATM   39  N3  UNL     1      -5.888  -9.249   2.808  1.00  0.00    -0.358 N 
HETATM   40  C23 UNL     1      -4.642  -9.817   2.697  1.00  0.00     0.043 A 
HETATM   41  H28 UNL     1      -6.111  -8.467   3.413  1.00  0.00     0.166 HD
HETATM   42  C24 UNL     1      -3.439  -9.493   3.340  1.00  0.00     0.030 A 
HETATM   43  C25 UNL     1      -2.304 -10.234   3.010  1.00  0.00     0.002 A 
HETATM   44  C26 UNL     1      -2.376 -11.260   2.070  1.00  0.00     0.001 A 
HETATM   45  C27 UNL     1      -3.589 -11.573   1.440  1.00  0.00     0.014 A 
BRANCH  28  46
HETATM   46  C30 UNL     1      -9.546 -11.549  -2.416  1.00  0.00     0.186 C 
BRANCH  46  47
HETATM   47  O1  UNL     1     -10.932 -11.303  -2.527  1.00  0.00    -0.399 OA
HETATM   48  H35 UNL     1     -11.210 -11.555  -3.426  1.00  0.00     0.209 HD
ENDBRANCH  46  47
ENDBRANCH  28  46
BRANCH  28  49
HETATM   49  C31 UNL     1      -9.310 -12.817  -0.438  1.00  0.00     0.272 C 
HETATM   50  O2  UNL     1     -10.016 -13.601  -1.058  1.00  0.00    -0.264 OA
BRANCH  49  51
HETATM   51  O3  UNL     1      -8.891 -13.032   0.837  1.00  0.00    -0.326 OA
HETATM   52  C32 UNL     1      -9.115 -14.347   1.338  1.00  0.00     0.213 C 
ENDBRANCH  49  51
ENDBRANCH  28  49
ENDBRANCH  11  24
BRANCH  21  53
HETATM   53  C42 UNL     1     -13.529  -9.952   3.837  1.00  0.00     0.274 C 
HETATM   54  O4  UNL     1     -12.845 -10.163   2.842  1.00  0.00    -0.264 OA
BRANCH  53  55
HETATM   55  O5  UNL     1     -14.814  -9.516   3.760  1.00  0.00    -0.326 OA
HETATM   56  C43 UNL     1     -15.532 -10.010   2.629  1.00  0.00     0.213 C 
ENDBRANCH  53  55
ENDBRANCH  21  53
BRANCH  22  57
HETATM   57  O6  UNL     1     -13.130 -12.527   5.192  1.00  0.00    -0.370 OA
HETATM   58  H52 UNL     1     -12.541 -13.296   5.092  1.00  0.00     0.212 HD
ENDBRANCH  22  57
TORSDOF 8
ENDMDL
MODEL 3
REMARK minimizedAffinity -6.79157162
REMARK CNNscore 0.13428922
REMARK CNNaffinity 5.62499809
REMARK  8 active torsions:
REMARK  status: ('A' for Active; 'I' for Inactive)
REMARK    1  A    between atoms: C10_11  and  C11_12 
REMARK    2  A    between atoms: C29_32  and  C30_33 
REMARK    3  A    between atoms: C29_32  and  C31_35 
REMARK    4  A    between atoms: C30_33  and  O1_34 
REMARK    5  A    between atoms: C31_35  and  O3_37 
REMARK    6  A    between atoms: C41_48  and  C42_49 
REMARK    7  A    between atoms: C42_49  and  O5_51 
REMARK    8  A    between atoms: C44_53  and  O6_54 
ROOT
HETATM    1  C1  UNL     1     -23.202  -1.586  13.339  1.00  0.00     0.036 C 
HETATM    2  C2  UNL     1     -21.898  -2.086  13.868  1.00  0.00    -0.026 C 
HETATM    3  C3  UNL     1     -20.652  -1.745  13.489  1.00  0.00    -0.050 C 
HETATM    4  C4  UNL     1     -19.482  -2.489  14.122  1.00  0.00     0.310 C 
HETATM    5  N1  UNL     1     -18.357  -1.685  14.571  1.00  0.00     0.125 N 
HETATM    6  C5  UNL     1     -18.688  -0.957  15.803  1.00  0.00     0.277 C 
HETATM    7  C6  UNL     1     -19.380   0.312  15.342  1.00  0.00     0.051 C 
HETATM    8  C7  UNL     1     -18.733   0.603  13.972  1.00  0.00     0.070 C 
HETATM    9  C8  UNL     1     -17.683   1.684  14.184  1.00  0.00    -0.016 A 
HETATM   10  C9  UNL     1     -17.866   3.045  14.413  1.00  0.00     0.018 A 
HETATM   11  C10 UNL     1     -16.754   3.873  14.606  1.00  0.00    -0.048 A 
HETATM   12  C33 UNL     1     -15.471   3.292  14.630  1.00  0.00     0.010 A 
HETATM   13  C34 UNL     1     -15.300   1.919  14.428  1.00  0.00     0.030 A 
HETATM   14  C35 UNL     1     -16.406   1.121  14.191  1.00  0.00     0.039 A 
HETATM   15  N4  UNL     1     -16.419  -0.226  13.886  1.00  0.00    -0.347 N 
HETATM   16  C36 UNL     1     -15.425  -1.151  14.377  1.00  0.00     0.152 C 
HETATM   17  C37 UNL     1     -17.816  -0.662  13.645  1.00  0.00     0.274 C 
HETATM   18  C38 UNL     1     -17.896  -0.900  12.044  1.00  0.00     0.186 C 
HETATM   19  C39 UNL     1     -19.219  -1.454  11.528  1.00  0.00     0.047 C 
HETATM   20  C40 UNL     1     -20.301  -0.746  12.369  1.00  0.00     0.043 C 
HETATM   21  C41 UNL     1     -19.746   0.704  12.784  1.00  0.00     0.121 C 
HETATM   22  C44 UNL     1     -18.923   1.227  11.576  1.00  0.00     0.277 C 
HETATM   23  O7  UNL     1     -17.777   0.383  11.354  1.00  0.00    -0.350 OA
ENDROOT
BRANCH  11  24
HETATM   24  C11 UNL     1     -16.930   5.402  14.679  1.00  0.00     0.070 C 
HETATM   25  C12 UNL     1     -18.219   5.738  13.899  1.00  0.00     0.026 C 
HETATM   26  C13 UNL     1     -19.077   6.976  14.297  1.00  0.00     0.039 C 
HETATM   27  C14 UNL     1     -18.888   7.403  15.743  1.00  0.00    -0.051 C 
HETATM   28  C29 UNL     1     -18.960   8.180  13.329  1.00  0.00     0.107 C 
HETATM   29  C15 UNL     1     -19.496   6.793  16.785  1.00  0.00    -0.026 C 
HETATM   30  C17 UNL     1     -18.008   8.608  16.005  1.00  0.00     0.306 C 
HETATM   31  C16 UNL     1     -20.416   5.611  16.745  1.00  0.00     0.036 C 
HETATM   32  N2  UNL     1     -17.094   8.956  14.932  1.00  0.00     0.094 N 
HETATM   33  C18 UNL     1     -16.412  10.222  15.188  1.00  0.00     0.310 C 
HETATM   34  C19 UNL     1     -17.554   8.829  13.532  1.00  0.00     0.248 C 
HETATM   35  C20 UNL     1     -16.417   8.136  12.702  1.00  0.00     0.079 C 
HETATM   36  C21 UNL     1     -15.438   7.241  13.423  1.00  0.00    -0.020 A 
HETATM   37  C22 UNL     1     -15.684   6.126  14.220  1.00  0.00     0.025 A 
HETATM   38  C28 UNL     1     -14.003   7.417  13.378  1.00  0.00    -0.001 A 
HETATM   39  N3  UNL     1     -14.462   5.698  14.700  1.00  0.00    -0.358 N 
HETATM   40  C23 UNL     1     -13.427   6.436  14.178  1.00  0.00     0.043 A 
HETATM   41  H28 UNL     1     -14.348   4.917  15.336  1.00  0.00     0.166 HD
HETATM   42  C24 UNL     1     -12.044   6.316  14.371  1.00  0.00     0.030 A 
HETATM   43  C25 UNL     1     -11.215   7.234  13.725  1.00  0.00     0.002 A 
HETATM   44  C26 UNL     1     -11.756   8.232  12.918  1.00  0.00     0.001 A 
HETATM   45  C27 UNL     1     -13.142   8.334  12.734  1.00  0.00     0.014 A 
BRANCH  28  46
HETATM   46  C30 UNL     1     -20.142   9.205  13.512  1.00  0.00     0.186 C 
BRANCH  46  47
HETATM   47  O1  UNL     1     -21.448   8.673  13.566  1.00  0.00    -0.399 OA
HETATM   48  H35 UNL     1     -22.077   9.416  13.527  1.00  0.00     0.209 HD
ENDBRANCH  46  47
ENDBRANCH  28  46
BRANCH  28  49
HETATM   49  C31 UNL     1     -19.206   7.801  11.862  1.00  0.00     0.272 C 
HETATM   50  O2  UNL     1     -20.010   6.946  11.516  1.00  0.00    -0.264 OA
BRANCH  49  51
HETATM   51  O3  UNL     1     -18.363   8.431  11.000  1.00  0.00    -0.326 OA
HETATM   52  C32 UNL     1     -18.997   9.218   9.994  1.00  0.00     0.213 C 
ENDBRANCH  49  51
ENDBRANCH  28  49
ENDBRANCH  11  24
BRANCH  21  53
HETATM   53  C42 UNL     1     -20.835   1.726  13.053  1.00  0.00     0.274 C 
HETATM   54  O4  UNL     1     -21.624   2.131  12.206  1.00  0.00    -0.264 OA
BRANCH  53  55
HETATM   55  O5  UNL     1     -20.816   2.211  14.322  1.00  0.00    -0.326 OA
HETATM   56  C43 UNL     1     -21.942   3.023  14.655  1.00  0.00     0.213 C 
ENDBRANCH  53  55
ENDBRANCH  21  53
BRANCH  22  57
HETATM   57  O6  UNL     1     -19.702   1.236  10.388  1.00  0.00    -0.370 OA
HETATM   58  H52 UNL     1     -19.164   1.732   9.746  1.00  0.00     0.212 HD
ENDBRANCH  22  57
TORSDOF 8
ENDMDL
MODEL 4
REMARK minimizedAffinity -8.33093739
REMARK CNNscore 0.105573252
REMARK CNNaffinity 5.79662466
REMARK  8 active torsions:
REMARK  status: ('A' for Active; 'I' for Inactive)
REMARK    1  A    between atoms: C10_11  and  C11_12 
REMARK    2  A    between atoms: C29_32  and  C30_33 
REMARK    3  A    between atoms: C29_32  and  C31_35 
REMARK    4  A    between atoms: C30_33  and  O1_34 
REMARK    5  A    between atoms: C31_35  and  O3_37 
REMARK    6  A    between atoms: C41_48  and  C42_49 
REMARK    7  A    between atoms: C42_49  and  O5_51 
REMARK    8  A    between atoms: C44_53  and  O6_54 
ROOT
HETATM    1  C1  UNL     1     -12.793  14.176  25.484  1.00  0.00     0.036 C 
HETATM    2  C2  UNL     1     -12.773  13.835  24.031  1.00  0.00    -0.026 C 
HETATM    3  C3  UNL     1     -12.326  12.711  23.438  1.00  0.00    -0.050 C 
HETATM    4  C4  UNL     1     -12.321  12.659  21.914  1.00  0.00     0.310 C 
HETATM    5  N1  UNL     1     -12.825  11.443  21.297  1.00  0.00     0.125 N 
HETATM    6  C5  UNL     1     -14.290  11.372  21.392  1.00  0.00     0.277 C 
HETATM    7  C6  UNL     1     -14.571  10.769  22.754  1.00  0.00     0.051 C 
HETATM    8  C7  UNL     1     -13.357   9.851  23.005  1.00  0.00     0.070 C 
HETATM    9  C8  UNL     1     -13.787   8.427  22.686  1.00  0.00    -0.016 A 
HETATM   10  C9  UNL     1     -14.609   7.578  23.423  1.00  0.00     0.018 A 
HETATM   11  C10 UNL     1     -14.902   6.299  22.936  1.00  0.00    -0.048 A 
HETATM   12  C33 UNL     1     -14.407   5.924  21.671  1.00  0.00     0.010 A 
HETATM   13  C34 UNL     1     -13.606   6.795  20.927  1.00  0.00     0.030 A 
HETATM   14  C35 UNL     1     -13.287   8.039  21.443  1.00  0.00     0.039 A 
HETATM   15  N4  UNL     1     -12.444   8.985  20.892  1.00  0.00    -0.347 N 
HETATM   16  C36 UNL     1     -12.273   9.148  19.468  1.00  0.00     0.152 C 
HETATM   17  C37 UNL     1     -12.337  10.143  21.812  1.00  0.00     0.274 C 
HETATM   18  C38 UNL     1     -10.843  10.031  22.432  1.00  0.00     0.186 C 
HETATM   19  C39 UNL     1     -10.428  11.171  23.355  1.00  0.00     0.047 C 
HETATM   20  C40 UNL     1     -11.696  11.508  24.166  1.00  0.00     0.043 C 
HETATM   21  C41 UNL     1     -12.566  10.165  24.318  1.00  0.00     0.121 C 
HETATM   22  C44 UNL     1     -11.556   8.998  24.488  1.00  0.00     0.277 C 
HETATM   23  O7  UNL     1     -10.761   8.853  23.295  1.00  0.00    -0.350 OA
ENDROOT
BRANCH  11  24
HETATM   24  C11 UNL     1     -15.657   5.288  23.820  1.00  0.00     0.070 C 
HETATM   25  C12 UNL     1     -16.556   6.111  24.767  1.00  0.00     0.026 C 
HETATM   26  C13 UNL     1     -17.900   5.519  25.286  1.00  0.00     0.039 C 
HETATM   27  C14 UNL     1     -18.475   4.441  24.382  1.00  0.00    -0.051 C 
HETATM   28  C29 UNL     1     -17.877   5.066  26.767  1.00  0.00     0.107 C 
HETATM   29  C15 UNL     1     -19.164   4.707  23.251  1.00  0.00    -0.026 C 
HETATM   30  C17 UNL     1     -18.298   3.000  24.816  1.00  0.00     0.306 C 
HETATM   31  C16 UNL     1     -19.470   6.050  22.659  1.00  0.00     0.036 C 
HETATM   32  N2  UNL     1     -17.242   2.768  25.784  1.00  0.00     0.094 N 
HETATM   33  C18 UNL     1     -17.252   1.393  26.279  1.00  0.00     0.310 C 
HETATM   34  C19 UNL     1     -17.026   3.759  26.860  1.00  0.00     0.248 C 
HETATM   35  C20 UNL     1     -15.484   4.022  26.984  1.00  0.00     0.079 C 
HETATM   36  C21 UNL     1     -14.610   3.785  25.776  1.00  0.00    -0.020 A 
HETATM   37  C22 UNL     1     -14.708   4.325  24.497  1.00  0.00     0.025 A 
HETATM   38  C28 UNL     1     -13.457   2.910  25.776  1.00  0.00    -0.001 A 
HETATM   39  N3  UNL     1     -13.712   3.743  23.738  1.00  0.00    -0.358 N 
HETATM   40  C23 UNL     1     -12.920   2.913  24.494  1.00  0.00     0.043 A 
HETATM   41  H28 UNL     1     -13.572   3.931  22.752  1.00  0.00     0.166 HD
HETATM   42  C24 UNL     1     -11.792   2.163  24.132  1.00  0.00     0.030 A 
HETATM   43  C25 UNL     1     -11.191   1.376  25.115  1.00  0.00     0.002 A 
HETATM   44  C26 UNL     1     -11.704   1.346  26.409  1.00  0.00     0.001 A 
HETATM   45  C27 UNL     1     -12.830   2.106  26.754  1.00  0.00     0.014 A 
BRANCH  28  46
HETATM   46  C30 UNL     1     -19.327   4.897  27.359  1.00  0.00     0.186 C 
BRANCH  46  47
HETATM   47  O1  UNL     1     -19.821   5.955  28.152  1.00  0.00    -0.399 OA
HETATM   48  H35 UNL     1     -20.648   5.655  28.570  1.00  0.00     0.209 HD
ENDBRANCH  46  47
ENDBRANCH  28  46
BRANCH  28  49
HETATM   49  C31 UNL     1     -17.360   6.151  27.723  1.00  0.00     0.272 C 
HETATM   50  O2  UNL     1     -16.820   5.900  28.792  1.00  0.00    -0.264 OA
BRANCH  49  51
HETATM   51  O3  UNL     1     -17.663   7.411  27.312  1.00  0.00    -0.326 OA
HETATM   52  C32 UNL     1     -16.819   8.438  27.827  1.00  0.00     0.213 C 
ENDBRANCH  49  51
ENDBRANCH  28  49
ENDBRANCH  11  24
BRANCH  21  53
HETATM   53  C42 UNL     1     -13.467  10.151  25.540  1.00  0.00     0.274 C 
HETATM   54  O4  UNL     1     -13.972   9.138  26.011  1.00  0.00    -0.264 OA
BRANCH  53  55
HETATM   55  O5  UNL     1     -13.722  11.391  26.034  1.00  0.00    -0.326 OA
HETATM   56  C43 UNL     1     -15.102  11.641  26.301  1.00  0.00     0.213 C 
ENDBRANCH  53  55
ENDBRANCH  21  53
BRANCH  22  57
HETATM   57  O6  UNL     1     -10.678   9.232  25.579  1.00  0.00    -0.370 OA
HETATM   58  H52 UNL     1     -10.213   8.386  25.706  1.00  0.00     0.212 HD
ENDBRANCH  22  57
TORSDOF 8
ENDMDL
MODEL 5
REMARK minimizedAffinity -8.53887653
REMARK CNNscore 0.0982039422
REMARK CNNaffinity 6.22359133
REMARK  8 active torsions:
REMARK  status: ('A' for Active; 'I' for Inactive)
REMARK    1  A    between atoms: C10_11  and  C11_12 
REMARK    2  A    between atoms: C29_32  and  C30_33 
REMARK    3  A    between atoms: C29_32  and  C31_35 
REMARK    4  A    between atoms: C30_33  and  O1_34 
REMARK    5  A    between atoms: C31_35  and  O3_37 
REMARK    6  A    between atoms: C41_48  and  C42_49 
REMARK    7  A    between atoms: C42_49  and  O5_51 
REMARK    8  A    between atoms: C44_53  and  O6_54 
ROOT
HETATM    1  C1  UNL     1      12.866  11.185  13.839  1.00  0.00     0.036 C 
HETATM    2  C2  UNL     1      11.575  11.087  13.096  1.00  0.00    -0.026 C 
HETATM    3  C3  UNL     1      10.421  10.514  13.490  1.00  0.00    -0.050 C 
HETATM    4  C4  UNL     1       9.273  10.457  12.489  1.00  0.00     0.310 C 
HETATM    5  N1  UNL     1       7.954  10.820  12.981  1.00  0.00     0.125 N 
HETATM    6  C5  UNL     1       7.845  12.273  13.173  1.00  0.00     0.277 C 
HETATM    7  C6  UNL     1       8.407  12.535  14.557  1.00  0.00     0.051 C 
HETATM    8  C7  UNL     1       8.078  11.245  15.335  1.00  0.00     0.070 C 
HETATM    9  C8  UNL     1       6.843  11.523  16.179  1.00  0.00    -0.016 A 
HETATM   10  C9  UNL     1       6.734  12.280  17.343  1.00  0.00     0.018 A 
HETATM   11  C10 UNL     1       5.487  12.430  17.960  1.00  0.00    -0.048 A 
HETATM   12  C33 UNL     1       4.353  11.862  17.346  1.00  0.00     0.010 A 
HETATM   13  C34 UNL     1       4.470  11.129  16.162  1.00  0.00     0.030 A 
HETATM   14  C35 UNL     1       5.717  10.949  15.589  1.00  0.00     0.039 A 
HETATM   15  N4  UNL     1       6.029  10.187  14.481  1.00  0.00    -0.347 N 
HETATM   16  C36 UNL     1       5.114   9.989  13.382  1.00  0.00     0.152 C 
HETATM   17  C37 UNL     1       7.494  10.222  14.257  1.00  0.00     0.274 C 
HETATM   18  C38 UNL     1       8.005   8.745  14.685  1.00  0.00     0.186 C 
HETATM   19  C39 UNL     1       9.488   8.472  14.460  1.00  0.00     0.047 C 
HETATM   20  C40 UNL     1      10.196   9.791  14.831  1.00  0.00     0.043 C 
HETATM   21  C41 UNL     1       9.321  10.529  15.960  1.00  0.00     0.121 C 
HETATM   22  C44 UNL     1       8.746   9.415  16.876  1.00  0.00     0.277 C 
HETATM   23  O7  UNL     1       7.847   8.574  16.128  1.00  0.00    -0.350 OA
ENDROOT
BRANCH  11  24
HETATM   24  C11 UNL     1       5.381  13.109  19.339  1.00  0.00     0.070 C 
HETATM   25  C12 UNL     1       6.774  13.696  19.652  1.00  0.00     0.026 C 
HETATM   26  C13 UNL     1       6.908  14.971  20.537  1.00  0.00     0.039 C 
HETATM   27  C14 UNL     1       5.660  15.838  20.541  1.00  0.00    -0.051 C 
HETATM   28  C29 UNL     1       7.421  14.707  21.976  1.00  0.00     0.107 C 
HETATM   29  C15 UNL     1       5.351  16.702  19.549  1.00  0.00    -0.026 C 
HETATM   30  C17 UNL     1       4.754  15.751  21.752  1.00  0.00     0.306 C 
HETATM   31  C16 UNL     1       6.115  16.959  18.286  1.00  0.00     0.036 C 
HETATM   32  N2  UNL     1       4.914  14.558  22.564  1.00  0.00     0.094 N 
HETATM   33  C18 UNL     1       4.136  14.633  23.799  1.00  0.00     0.310 C 
HETATM   34  C19 UNL     1       6.273  14.016  22.779  1.00  0.00     0.248 C 
HETATM   35  C20 UNL     1       6.219  12.460  22.583  1.00  0.00     0.079 C 
HETATM   36  C21 UNL     1       5.135  11.879  21.708  1.00  0.00    -0.020 A 
HETATM   37  C22 UNL     1       4.825  12.165  20.381  1.00  0.00     0.025 A 
HETATM   38  C28 UNL     1       4.204  10.862  22.147  1.00  0.00    -0.001 A 
HETATM   39  N3  UNL     1       3.710  11.417  20.059  1.00  0.00    -0.358 N 
HETATM   40  C23 UNL     1       3.336  10.594  21.094  1.00  0.00     0.043 A 
HETATM   41  H28 UNL     1       3.246  11.455  19.159  1.00  0.00     0.166 HD
HETATM   42  C24 UNL     1       2.295   9.659  21.176  1.00  0.00     0.030 A 
HETATM   43  C25 UNL     1       2.131   8.972  22.379  1.00  0.00     0.002 A 
HETATM   44  C26 UNL     1       2.979   9.216  23.456  1.00  0.00     0.001 A 
HETATM   45  C27 UNL     1       4.017  10.152  23.354  1.00  0.00     0.014 A 
BRANCH  28  46
HETATM   46  C30 UNL     1       7.950  16.019  22.667  1.00  0.00     0.186 C 
BRANCH  46  47
HETATM   47  O1  UNL     1       9.303  16.030  23.069  1.00  0.00    -0.399 OA
HETATM   48  H35 UNL     1       9.450  16.827  23.609  1.00  0.00     0.209 HD
ENDBRANCH  46  47
ENDBRANCH  28  46
BRANCH  28  49
HETATM   49  C31 UNL     1       8.717  13.885  22.013  1.00  0.00     0.272 C 
HETATM   50  O2  UNL     1       9.113  13.304  23.014  1.00  0.00    -0.264 OA
BRANCH  49  51
HETATM   51  O3  UNL     1       9.430  13.962  20.858  1.00  0.00    -0.326 OA
HETATM   52  C32 UNL     1      10.375  12.913  20.656  1.00  0.00     0.213 C 
ENDBRANCH  49  51
ENDBRANCH  28  49
ENDBRANCH  11  24
BRANCH  21  53
HETATM   53  C42 UNL     1      10.124  11.461  16.850  1.00  0.00     0.274 C 
HETATM   54  O4  UNL     1      10.009  12.681  16.850  1.00  0.00    -0.264 OA
BRANCH  53  55
HETATM   55  O5  UNL     1      11.046  10.815  17.611  1.00  0.00    -0.326 OA
HETATM   56  C43 UNL     1      12.267  11.536  17.787  1.00  0.00     0.213 C 
ENDBRANCH  53  55
ENDBRANCH  21  53
BRANCH  22  57
HETATM   57  O6  UNL     1       9.780   8.598  17.404  1.00  0.00    -0.370 OA
HETATM   58  H52 UNL     1       9.343   8.056  18.084  1.00  0.00     0.212 HD
ENDBRANCH  22  57
TORSDOF 8
ENDMDL
MODEL 6
REMARK minimizedAffinity -6.69842482
REMARK CNNscore 0.0929805413
REMARK CNNaffinity 4.48159933
REMARK  8 active torsions:
REMARK  status: ('A' for Active; 'I' for Inactive)
REMARK    1  A    between atoms: C10_11  and  C11_12 
REMARK    2  A    between atoms: C29_32  and  C30_33 
REMARK    3  A    between atoms: C29_32  and  C31_35 
REMARK    4  A    between atoms: C30_33  and  O1_34 
REMARK    5  A    between atoms: C31_35  and  O3_37 
REMARK    6  A    between atoms: C41_48  and  C42_49 
REMARK    7  A    between atoms: C42_49  and  O5_51 
REMARK    8  A    between atoms: C44_53  and  O6_54 
ROOT
HETATM    1  C1  UNL     1      -1.898   8.264  16.410  1.00  0.00     0.036 C 
HETATM    2  C2  UNL     1      -2.123   9.735  16.524  1.00  0.00    -0.026 C 
HETATM    3  C3  UNL     1      -1.368  10.653  17.158  1.00  0.00    -0.050 C 
HETATM    4  C4  UNL     1      -1.882  12.087  17.214  1.00  0.00     0.310 C 
HETATM    5  N1  UNL     1      -0.923  13.141  16.924  1.00  0.00     0.125 N 
HETATM    6  C5  UNL     1      -0.624  13.200  15.486  1.00  0.00     0.277 C 
HETATM    7  C6  UNL     1       0.471  12.175  15.265  1.00  0.00     0.051 C 
HETATM    8  C7  UNL     1       1.243  12.171  16.600  1.00  0.00     0.070 C 
HETATM    9  C8  UNL     1       2.493  13.016  16.408  1.00  0.00    -0.016 A 
HETATM   10  C9  UNL     1       3.656  12.705  15.709  1.00  0.00     0.018 A 
HETATM   11  C10 UNL     1       4.694  13.643  15.634  1.00  0.00    -0.048 A 
HETATM   12  C33 UNL     1       4.505  14.912  16.217  1.00  0.00     0.010 A 
HETATM   13  C34 UNL     1       3.321  15.223  16.892  1.00  0.00     0.030 A 
HETATM   14  C35 UNL     1       2.324  14.269  16.998  1.00  0.00     0.039 A 
HETATM   15  N4  UNL     1       1.137  14.369  17.697  1.00  0.00    -0.347 N 
HETATM   16  C36 UNL     1       0.439  15.620  17.880  1.00  0.00     0.152 C 
HETATM   17  C37 UNL     1       0.396  13.089  17.596  1.00  0.00     0.274 C 
HETATM   18  C38 UNL     1       0.526  12.429  19.070  1.00  0.00     0.186 C 
HETATM   19  C39 UNL     1      -0.239  11.126  19.276  1.00  0.00     0.047 C 
HETATM   20  C40 UNL     1      -0.079  10.357  17.948  1.00  0.00     0.043 C 
HETATM   21  C41 UNL     1       1.330  10.772  17.295  1.00  0.00     0.121 C 
HETATM   22  C44 UNL     1       2.329  10.950  18.470  1.00  0.00     0.277 C 
HETATM   23  O7  UNL     1       1.916  12.044  19.311  1.00  0.00    -0.350 OA
ENDROOT
BRANCH  11  24
HETATM   24  C11 UNL     1       6.051  13.249  15.022  1.00  0.00     0.070 C 
HETATM   25  C12 UNL     1       5.746  12.343  13.809  1.00  0.00     0.026 C 
HETATM   26  C13 UNL     1       6.712  12.313  12.588  1.00  0.00     0.039 C 
HETATM   27  C14 UNL     1       7.550  13.574  12.448  1.00  0.00    -0.051 C 
HETATM   28  C29 UNL     1       7.585  11.037  12.488  1.00  0.00     0.107 C 
HETATM   29  C15 UNL     1       7.085  14.720  11.904  1.00  0.00    -0.026 C 
HETATM   30  C17 UNL     1       8.993  13.507  12.905  1.00  0.00     0.306 C 
HETATM   31  C16 UNL     1       5.710  14.990  11.372  1.00  0.00     0.036 C 
HETATM   32  N2  UNL     1       9.306  12.423  13.819  1.00  0.00     0.094 N 
HETATM   33  C18 UNL     1      10.742  12.323  14.071  1.00  0.00     0.310 C 
HETATM   34  C19 UNL     1       8.670  11.105  13.610  1.00  0.00     0.248 C 
HETATM   35  C20 UNL     1       8.170  10.573  14.999  1.00  0.00     0.079 C 
HETATM   36  C21 UNL     1       7.854  11.574  16.084  1.00  0.00    -0.020 A 
HETATM   37  C22 UNL     1       6.976  12.654  16.060  1.00  0.00     0.025 A 
HETATM   38  C28 UNL     1       8.450  11.547  17.403  1.00  0.00    -0.001 A 
HETATM   39  N3  UNL     1       7.096  13.297  17.276  1.00  0.00    -0.358 N 
HETATM   40  C23 UNL     1       7.952  12.629  18.119  1.00  0.00     0.043 A 
HETATM   41  H28 UNL     1       6.592  14.142  17.519  1.00  0.00     0.166 HD
HETATM   42  C24 UNL     1       8.326  12.914  19.439  1.00  0.00     0.030 A 
HETATM   43  C25 UNL     1       9.246  12.065  20.053  1.00  0.00     0.002 A 
HETATM   44  C26 UNL     1       9.770  10.972  19.365  1.00  0.00     0.001 A 
HETATM   45  C27 UNL     1       9.381  10.700  18.046  1.00  0.00     0.014 A 
BRANCH  28  46
HETATM   46  C30 UNL     1       8.200  10.851  11.050  1.00  0.00     0.186 C 
BRANCH  46  47
HETATM   47  O1  UNL     1       7.451  10.090  10.127  1.00  0.00    -0.399 OA
HETATM   48  H35 UNL     1       8.010   9.930   9.346  1.00  0.00     0.209 HD
ENDBRANCH  46  47
ENDBRANCH  28  46
BRANCH  28  49
HETATM   49  C31 UNL     1       6.769   9.740  12.562  1.00  0.00     0.272 C 
HETATM   50  O2  UNL     1       5.562   9.718  12.762  1.00  0.00    -0.264 OA
BRANCH  49  51
HETATM   51  O3  UNL     1       7.539   8.621  12.496  1.00  0.00    -0.326 OA
HETATM   52  C32 UNL     1       6.870   7.402  12.813  1.00  0.00     0.213 C 
ENDBRANCH  49  51
ENDBRANCH  28  49
ENDBRANCH  11  24
BRANCH  21  53
HETATM   53  C42 UNL     1       1.916   9.717  16.374  1.00  0.00     0.274 C 
HETATM   54  O4  UNL     1       3.062   9.291  16.455  1.00  0.00    -0.264 OA
BRANCH  53  55
HETATM   55  O5  UNL     1       1.061   9.327  15.392  1.00  0.00    -0.326 OA
HETATM   56  C43 UNL     1       1.540   8.242  14.597  1.00  0.00     0.213 C 
ENDBRANCH  53  55
ENDBRANCH  21  53
BRANCH  22  57
HETATM   57  O6  UNL     1       2.397   9.778  19.270  1.00  0.00    -0.370 OA
HETATM   58  H52 UNL     1       3.159   9.925  19.858  1.00  0.00     0.212 HD
ENDBRANCH  22  57
TORSDOF 8
ENDMDL
MODEL 7
REMARK minimizedAffinity -6.90321827
REMARK CNNscore 0.0905660167
REMARK CNNaffinity 5.1167922
REMARK  8 active torsions:
REMARK  status: ('A' for Active; 'I' for Inactive)
REMARK    1  A    between atoms: C10_11  and  C11_12 
REMARK    2  A    between atoms: C29_32  and  C30_33 
REMARK    3  A    between atoms: C29_32  and  C31_35 
REMARK    4  A    between atoms: C30_33  and  O1_34 
REMARK    5  A    between atoms: C31_35  and  O3_37 
REMARK    6  A    between atoms: C41_48  and  C42_49 
REMARK    7  A    between atoms: C42_49  and  O5_51 
REMARK    8  A    between atoms: C44_53  and  O6_54 
ROOT
HETATM    1  C1  UNL     1     -21.302  -4.347  15.822  1.00  0.00     0.036 C 
HETATM    2  C2  UNL     1     -20.519  -3.681  14.739  1.00  0.00    -0.026 C 
HETATM    3  C3  UNL     1     -19.218  -3.329  14.738  1.00  0.00    -0.050 C 
HETATM    4  C4  UNL     1     -18.687  -2.558  13.535  1.00  0.00     0.310 C 
HETATM    5  N1  UNL     1     -17.412  -2.992  12.988  1.00  0.00     0.125 N 
HETATM    6  C5  UNL     1     -17.558  -4.249  12.242  1.00  0.00     0.277 C 
HETATM    7  C6  UNL     1     -17.457  -5.345  13.284  1.00  0.00     0.051 C 
HETATM    8  C7  UNL     1     -16.521  -4.746  14.355  1.00  0.00     0.070 C 
HETATM    9  C8  UNL     1     -15.135  -5.331  14.129  1.00  0.00    -0.016 A 
HETATM   10  C9  UNL     1     -14.673  -6.614  14.410  1.00  0.00     0.018 A 
HETATM   11  C10 UNL     1     -13.352  -6.960  14.101  1.00  0.00    -0.048 A 
HETATM   12  C33 UNL     1     -12.538  -6.015  13.447  1.00  0.00     0.010 A 
HETATM   13  C34 UNL     1     -13.022  -4.739  13.142  1.00  0.00     0.030 A 
HETATM   14  C35 UNL     1     -14.315  -4.396  13.497  1.00  0.00     0.039 A 
HETATM   15  N4  UNL     1     -14.924  -3.165  13.357  1.00  0.00    -0.347 N 
HETATM   16  C36 UNL     1     -14.606  -2.249  12.286  1.00  0.00     0.152 C 
HETATM   17  C37 UNL     1     -16.291  -3.224  13.929  1.00  0.00     0.274 C 
HETATM   18  C38 UNL     1     -16.194  -2.362  15.298  1.00  0.00     0.186 C 
HETATM   19  C39 UNL     1     -17.506  -2.178  16.052  1.00  0.00     0.047 C 
HETATM   20  C40 UNL     1     -18.239  -3.529  15.910  1.00  0.00     0.043 C 
HETATM   21  C41 UNL     1     -17.133  -4.689  15.793  1.00  0.00     0.121 C 
HETATM   22  C44 UNL     1     -15.963  -4.284  16.730  1.00  0.00     0.277 C 
HETATM   23  O7  UNL     1     -15.350  -3.068  16.260  1.00  0.00    -0.350 OA
ENDROOT
BRANCH  11  24
HETATM   24  C11 UNL     1     -12.776  -8.310  14.569  1.00  0.00     0.070 C 
HETATM   25  C12 UNL     1     -12.394  -8.138  16.055  1.00  0.00     0.026 C 
HETATM   26  C13 UNL     1     -12.440  -9.357  17.024  1.00  0.00     0.039 C 
HETATM   27  C14 UNL     1     -13.386 -10.456  16.568  1.00  0.00    -0.051 C 
HETATM   28  C29 UNL     1     -11.052  -9.925  17.413  1.00  0.00     0.107 C 
HETATM   29  C15 UNL     1     -14.724 -10.410  16.749  1.00  0.00    -0.026 C 
HETATM   30  C17 UNL     1     -12.771 -11.681  15.923  1.00  0.00     0.306 C 
HETATM   31  C16 UNL     1     -15.526  -9.312  17.380  1.00  0.00     0.036 C 
HETATM   32  N2  UNL     1     -11.425 -11.503  15.407  1.00  0.00     0.094 N 
HETATM   33  C18 UNL     1     -10.842 -12.767  14.963  1.00  0.00     0.310 C 
HETATM   34  C19 UNL     1     -10.470 -10.671  16.170  1.00  0.00     0.248 C 
HETATM   35  C20 UNL     1      -9.727  -9.725  15.162  1.00  0.00     0.079 C 
HETATM   36  C21 UNL     1     -10.415  -9.366  13.867  1.00  0.00    -0.020 A 
HETATM   37  C22 UNL     1     -11.662  -8.782  13.662  1.00  0.00     0.025 A 
HETATM   38  C28 UNL     1      -9.832  -9.580  12.560  1.00  0.00    -0.001 A 
HETATM   39  N3  UNL     1     -11.858  -8.722  12.297  1.00  0.00    -0.358 N 
HETATM   40  C23 UNL     1     -10.755  -9.163  11.607  1.00  0.00     0.043 A 
HETATM   41  H28 UNL     1     -12.704  -8.369  11.864  1.00  0.00     0.166 HD
HETATM   42  C24 UNL     1     -10.520  -9.236  10.227  1.00  0.00     0.030 A 
HETATM   43  C25 UNL     1      -9.299  -9.758   9.801  1.00  0.00     0.002 A 
HETATM   44  C26 UNL     1      -8.352 -10.190  10.727  1.00  0.00     0.001 A 
HETATM   45  C27 UNL     1      -8.602 -10.105  12.103  1.00  0.00     0.014 A 
BRANCH  28  46
HETATM   46  C30 UNL     1     -11.123 -10.835  18.697  1.00  0.00     0.186 C 
BRANCH  46  47
HETATM   47  O1  UNL     1     -11.745 -10.284  19.838  1.00  0.00    -0.399 OA
HETATM   48  H35 UNL     1     -11.583 -10.885  20.587  1.00  0.00     0.209 HD
ENDBRANCH  46  47
ENDBRANCH  28  46
BRANCH  28  49
HETATM   49  C31 UNL     1     -10.087  -8.854  17.938  1.00  0.00     0.272 C 
HETATM   50  O2  UNL     1     -10.099  -7.693  17.552  1.00  0.00    -0.264 OA
BRANCH  49  51
HETATM   51  O3  UNL     1      -9.149  -9.353  18.788  1.00  0.00    -0.326 OA
HETATM   52  C32 UNL     1      -8.561  -8.400  19.671  1.00  0.00     0.213 C 
ENDBRANCH  49  51
ENDBRANCH  28  49
ENDBRANCH  11  24
BRANCH  21  53
HETATM   53  C42 UNL     1     -17.619  -6.051  16.257  1.00  0.00     0.274 C 
HETATM   54  O4  UNL     1     -17.446  -6.496  17.386  1.00  0.00    -0.264 OA
BRANCH  53  55
HETATM   55  O5  UNL     1     -18.216  -6.772  15.272  1.00  0.00    -0.326 OA
HETATM   56  C43 UNL     1     -19.399  -7.457  15.684  1.00  0.00     0.213 C 
ENDBRANCH  53  55
ENDBRANCH  21  53
BRANCH  22  57
HETATM   57  O6  UNL     1     -16.418  -4.066  18.057  1.00  0.00    -0.370 OA
HETATM   58  H52 UNL     1     -15.605  -3.991  18.587  1.00  0.00     0.212 HD
ENDBRANCH  22  57
TORSDOF 8
ENDMDL
MODEL 8
REMARK minimizedAffinity -6.3032279
REMARK CNNscore 0.0867996067
REMARK CNNaffinity 5.44123077
REMARK  8 active torsions:
REMARK  status: ('A' for Active; 'I' for Inactive)
REMARK    1  A    between atoms: C10_11  and  C11_12 
REMARK    2  A    between atoms: C29_32  and  C30_33 
REMARK    3  A    between atoms: C29_32  and  C31_35 
REMARK    4  A    between atoms: C30_33  and  O1_34 
REMARK    5  A    between atoms: C31_35  and  O3_37 
REMARK    6  A    between atoms: C41_48  and  C42_49 
REMARK    7  A    between atoms: C42_49  and  O5_51 
REMARK    8  A    between atoms: C44_53  and  O6_54 
ROOT
HETATM    1  C1  UNL     1      -4.593  16.871   2.284  1.00  0.00     0.036 C 
HETATM    2  C2  UNL     1      -3.619  16.749   3.410  1.00  0.00    -0.026 C 
HETATM    3  C3  UNL     1      -2.514  15.982   3.484  1.00  0.00    -0.050 C 
HETATM    4  C4  UNL     1      -1.745  15.961   4.800  1.00  0.00     0.310 C 
HETATM    5  N1  UNL     1      -0.298  16.072   4.716  1.00  0.00     0.125 N 
HETATM    6  C5  UNL     1       0.106  17.447   4.389  1.00  0.00     0.277 C 
HETATM    7  C6  UNL     1       0.037  17.532   2.876  1.00  0.00     0.051 C 
HETATM    8  C7  UNL     1       0.362  16.097   2.414  1.00  0.00     0.070 C 
HETATM    9  C8  UNL     1       1.821  16.075   1.985  1.00  0.00    -0.016 A 
HETATM   10  C9  UNL     1       2.399  16.602   0.832  1.00  0.00     0.018 A 
HETATM   11  C10 UNL     1       3.781  16.492   0.636  1.00  0.00    -0.048 A 
HETATM   12  C33 UNL     1       4.567  15.907   1.648  1.00  0.00     0.010 A 
HETATM   13  C34 UNL     1       3.979  15.407   2.814  1.00  0.00     0.030 A 
HETATM   14  C35 UNL     1       2.606  15.480   2.973  1.00  0.00     0.039 A 
HETATM   15  N4  UNL     1       1.852  14.964   4.008  1.00  0.00    -0.347 N 
HETATM   16  C36 UNL     1       2.349  14.850   5.359  1.00  0.00     0.152 C 
HETATM   17  C37 UNL     1       0.415  15.213   3.743  1.00  0.00     0.274 C 
HETATM   18  C38 UNL     1      -0.185  13.756   3.362  1.00  0.00     0.186 C 
HETATM   19  C39 UNL     1      -1.691  13.706   3.130  1.00  0.00     0.047 C 
HETATM   20  C40 UNL     1      -2.023  15.017   2.388  1.00  0.00     0.043 C 
HETATM   21  C41 UNL     1      -0.739  15.439   1.518  1.00  0.00     0.121 C 
HETATM   22  C44 UNL     1      -0.112  14.123   0.983  1.00  0.00     0.277 C 
HETATM   23  O7  UNL     1       0.367  13.321   2.080  1.00  0.00    -0.350 OA
ENDROOT
BRANCH  11  24
HETATM   24  C11 UNL     1       4.407  16.906  -0.710  1.00  0.00     0.070 C 
HETATM   25  C12 UNL     1       3.610  18.128  -1.213  1.00  0.00     0.026 C 
HETATM   26  C13 UNL     1       4.301  19.206  -2.100  1.00  0.00     0.039 C 
HETATM   27  C14 UNL     1       5.810  19.259  -1.921  1.00  0.00    -0.051 C 
HETATM   28  C29 UNL     1       3.908  19.158  -3.598  1.00  0.00     0.107 C 
HETATM   29  C15 UNL     1       6.415  19.888  -0.890  1.00  0.00    -0.026 C 
HETATM   30  C17 UNL     1       6.662  18.610  -2.992  1.00  0.00     0.306 C 
HETATM   31  C16 UNL     1       5.766  20.606   0.254  1.00  0.00     0.036 C 
HETATM   32  N2  UNL     1       5.979  17.638  -3.827  1.00  0.00     0.094 N 
HETATM   33  C18 UNL     1       6.817  17.192  -4.938  1.00  0.00     0.310 C 
HETATM   34  C19 UNL     1       4.583  17.902  -4.235  1.00  0.00     0.248 C 
HETATM   35  C20 UNL     1       3.756  16.581  -4.044  1.00  0.00     0.079 C 
HETATM   36  C21 UNL     1       4.232  15.572  -3.028  1.00  0.00    -0.020 A 
HETATM   37  C22 UNL     1       4.483  15.739  -1.668  1.00  0.00     0.025 A 
HETATM   38  C28 UNL     1       4.504  14.185  -3.337  1.00  0.00    -0.001 A 
HETATM   39  N3  UNL     1       4.961  14.533  -1.196  1.00  0.00    -0.358 N 
HETATM   40  C23 UNL     1       4.949  13.567  -2.174  1.00  0.00     0.043 A 
HETATM   41  H28 UNL     1       5.256  14.379  -0.239  1.00  0.00     0.166 HD
HETATM   42  C24 UNL     1       5.313  12.215  -2.113  1.00  0.00     0.030 A 
HETATM   43  C25 UNL     1       5.223  11.463  -3.285  1.00  0.00     0.002 A 
HETATM   44  C26 UNL     1       4.784  12.049  -4.470  1.00  0.00     0.001 A 
HETATM   45  C27 UNL     1       4.420  13.402  -4.511  1.00  0.00     0.014 A 
BRANCH  28  46
HETATM   46  C30 UNL     1       4.269  20.495  -4.349  1.00  0.00     0.186 C 
BRANCH  46  47
HETATM   47  O1  UNL     1       4.718  20.380  -5.682  1.00  0.00    -0.399 OA
HETATM   48  H35 UNL     1       5.045  21.252  -5.965  1.00  0.00     0.209 HD
ENDBRANCH  46  47
ENDBRANCH  28  46
BRANCH  28  49
HETATM   49  C31 UNL     1       2.390  19.166  -3.824  1.00  0.00     0.272 C 
HETATM   50  O2  UNL     1       1.579  18.929  -2.939  1.00  0.00    -0.264 OA
BRANCH  49  51
HETATM   51  O3  UNL     1       2.046  19.351  -5.127  1.00  0.00    -0.326 OA
HETATM   52  C32 UNL     1       0.686  19.065  -5.444  1.00  0.00     0.213 C 
ENDBRANCH  49  51
ENDBRANCH  28  49
ENDBRANCH  11  24
BRANCH  21  53
HETATM   53  C42 UNL     1      -1.070  16.294   0.307  1.00  0.00     0.274 C 
HETATM   54  O4  UNL     1      -0.362  17.205  -0.106  1.00  0.00    -0.264 OA
BRANCH  53  55
HETATM   55  O5  UNL     1      -2.274  15.996  -0.247  1.00  0.00    -0.326 OA
HETATM   56  C43 UNL     1      -2.379  16.331  -1.632  1.00  0.00     0.213 C 
ENDBRANCH  53  55
ENDBRANCH  21  53
BRANCH  22  57
HETATM   57  O6  UNL     1      -1.062  13.357   0.258  1.00  0.00    -0.370 OA
HETATM   58  H52 UNL     1      -0.539  12.658  -0.172  1.00  0.00     0.212 HD
ENDBRANCH  22  57
TORSDOF 8
ENDMDL
MODEL 9
REMARK minimizedAffinity -8.75755978
REMARK CNNscore 0.08524023
REMARK CNNaffinity 5.25401831
REMARK  8 active torsions:
REMARK  status: ('A' for Active; 'I' for Inactive)
REMARK    1  A    between atoms: C10_11  and  C11_12 
REMARK    2  A    between atoms: C29_32  and  C30_33 
REMARK    3  A    between atoms: C29_32  and  C31_35 
REMARK    4  A    between atoms: C30_33  and  O1_34 
REMARK    5  A    between atoms: C31_35  and  O3_37 
REMARK    6  A    between atoms: C41_48  and  C42_49 
REMARK    7  A    between atoms: C42_49  and  O5_51 
REMARK    8  A    between atoms: C44_53  and  O6_54 
ROOT
HETATM    1  C1  UNL     1      18.894  17.225  21.187  1.00  0.00     0.036 C 
HETATM    2  C2  UNL     1      19.286  16.485  19.951  1.00  0.00    -0.026 C 
HETATM    3  C3  UNL     1      18.929  15.244  19.567  1.00  0.00    -0.050 C 
HETATM    4  C4  UNL     1      19.561  14.678  18.300  1.00  0.00     0.310 C 
HETATM    5  N1  UNL     1      18.671  14.009  17.365  1.00  0.00     0.125 N 
HETATM    6  C5  UNL     1      17.844  14.982  16.637  1.00  0.00     0.277 C 
HETATM    7  C6  UNL     1      16.656  15.249  17.540  1.00  0.00     0.051 C 
HETATM    8  C7  UNL     1      16.467  13.919  18.299  1.00  0.00     0.070 C 
HETATM    9  C8  UNL     1      15.328  13.168  17.626  1.00  0.00    -0.016 A 
HETATM   10  C9  UNL     1      13.960  13.422  17.686  1.00  0.00     0.018 A 
HETATM   11  C10 UNL     1      13.071  12.614  16.967  1.00  0.00    -0.048 A 
HETATM   12  C33 UNL     1      13.592  11.597  16.143  1.00  0.00     0.010 A 
HETATM   13  C34 UNL     1      14.970  11.370  16.068  1.00  0.00     0.030 A 
HETATM   14  C35 UNL     1      15.833  12.146  16.821  1.00  0.00     0.039 A 
HETATM   15  N4  UNL     1      17.201  12.006  16.939  1.00  0.00    -0.347 N 
HETATM   16  C36 UNL     1      18.033  11.504  15.871  1.00  0.00     0.152 C 
HETATM   17  C37 UNL     1      17.718  13.009  17.901  1.00  0.00     0.274 C 
HETATM   18  C38 UNL     1      18.108  12.146  19.216  1.00  0.00     0.186 C 
HETATM   19  C39 UNL     1      18.764  12.932  20.346  1.00  0.00     0.047 C 
HETATM   20  C40 UNL     1      18.027  14.287  20.368  1.00  0.00     0.043 C 
HETATM   21  C41 UNL     1      16.522  14.047  19.857  1.00  0.00     0.121 C 
HETATM   22  C44 UNL     1      16.080  12.664  20.407  1.00  0.00     0.277 C 
HETATM   23  O7  UNL     1      16.891  11.621  19.834  1.00  0.00    -0.350 OA
ENDROOT
BRANCH  11  24
HETATM   24  C11 UNL     1      11.551  12.769  17.165  1.00  0.00     0.070 C 
HETATM   25  C12 UNL     1      11.334  13.175  18.638  1.00  0.00     0.026 C 
HETATM   26  C13 UNL     1      10.113  14.054  19.039  1.00  0.00     0.039 C 
HETATM   27  C14 UNL     1       9.571  14.895  17.894  1.00  0.00    -0.051 C 
HETATM   28  C29 UNL     1       8.979  13.290  19.768  1.00  0.00     0.107 C 
HETATM   29  C15 UNL     1      10.130  16.059  17.496  1.00  0.00    -0.026 C 
HETATM   30  C17 UNL     1       8.310  14.411  17.208  1.00  0.00     0.306 C 
HETATM   31  C16 UNL     1      11.354  16.724  18.050  1.00  0.00     0.036 C 
HETATM   32  N2  UNL     1       8.000  13.005  17.399  1.00  0.00     0.094 N 
HETATM   33  C18 UNL     1       6.687  12.661  16.857  1.00  0.00     0.310 C 
HETATM   34  C19 UNL     1       8.251  12.390  18.720  1.00  0.00     0.248 C 
HETATM   35  C20 UNL     1       8.949  11.003  18.492  1.00  0.00     0.079 C 
HETATM   36  C21 UNL     1       9.741  10.792  17.224  1.00  0.00    -0.020 A 
HETATM   37  C22 UNL     1      10.804  11.533  16.715  1.00  0.00     0.025 A 
HETATM   38  C28 UNL     1       9.502   9.708  16.296  1.00  0.00    -0.001 A 
HETATM   39  N3  UNL     1      11.138  10.973  15.498  1.00  0.00    -0.358 N 
HETATM   40  C23 UNL     1      10.392   9.848  15.237  1.00  0.00     0.043 A 
HETATM   41  H28 UNL     1      11.863  11.335  14.890  1.00  0.00     0.166 HD
HETATM   42  C24 UNL     1      10.432   8.969  14.146  1.00  0.00     0.030 A 
HETATM   43  C25 UNL     1       9.527   7.908  14.132  1.00  0.00     0.002 A 
HETATM   44  C26 UNL     1       8.618   7.738  15.173  1.00  0.00     0.001 A 
HETATM   45  C27 UNL     1       8.595   8.625  16.258  1.00  0.00     0.014 A 
BRANCH  28  46
HETATM   46  C30 UNL     1       8.000  14.264  20.526  1.00  0.00     0.186 C 
BRANCH  46  47
HETATM   47  O1  UNL     1       8.562  15.435  21.079  1.00  0.00    -0.399 OA
HETATM   48  H35 UNL     1       7.886  15.857  21.638  1.00  0.00     0.209 HD
ENDBRANCH  46  47
ENDBRANCH  28  46
BRANCH  28  49
HETATM   49  C31 UNL     1       9.475  12.477  20.971  1.00  0.00     0.272 C 
HETATM   50  O2  UNL     1      10.189  11.488  20.863  1.00  0.00    -0.264 OA
BRANCH  49  51
HETATM   51  O3  UNL     1       8.952  12.899  22.153  1.00  0.00    -0.326 OA
HETATM   52  C32 UNL     1       8.724  11.874  23.118  1.00  0.00     0.213 C 
ENDBRANCH  49  51
ENDBRANCH  28  49
ENDBRANCH  11  24
BRANCH  21  53
HETATM   53  C42 UNL     1      15.526  15.069  20.377  1.00  0.00     0.274 C 
HETATM   54  O4  UNL     1      14.553  15.464  19.745  1.00  0.00    -0.264 OA
BRANCH  53  55
HETATM   55  O5  UNL     1      15.851  15.562  21.600  1.00  0.00    -0.326 OA
HETATM   56  C43 UNL     1      15.428  16.908  21.819  1.00  0.00     0.213 C 
ENDBRANCH  53  55
ENDBRANCH  21  53
BRANCH  22  57
HETATM   57  O6  UNL     1      16.216  12.605  21.819  1.00  0.00    -0.370 OA
HETATM   58  H52 UNL     1      15.760  11.784  22.075  1.00  0.00     0.212 HD
ENDBRANCH  22  57
TORSDOF 8
ENDMDL
