MODEL 1
REMARK minimizedAffinity -9.00847244
REMARK  11 active torsions:
REMARK  status: ('A' for Active; 'I' for Inactive)
REMARK    1  A    between atoms: C3_3  and  C4_4 
REMARK    2  A    between atoms: C4_4  and  C5_6 
REMARK    3  A    between atoms: C5_6  and  O2_7 
REMARK    4  A    between atoms: C9_11  and  C10_12 
REMARK    5  A    between atoms: C10_12  and  O4_14 
REMARK    6  A    between atoms: C15_19  and  C16_20 
REMARK    7  A    between atoms: C19_26  and  O6_27 
REMARK    8  A    between atoms: C21_29  and  C22_30 
REMARK    9  A    between atoms: C22_30  and  C23_31 
REMARK   10  A    between atoms: C23_31  and  C24_32 
REMARK   11  A    between atoms: C24_32  and  C25_33 
ROOT
HETATM    1  C5  UNL     1       0.511   7.783  10.882  1.00  0.00     0.132 C 
HETATM    2  C6  UNL     1       1.946   8.320  11.087  1.00  0.00     0.052 C 
HETATM    3  C7  UNL     1       1.953   8.921  12.495  1.00  0.00    -0.005 C 
HETATM    4  C8  UNL     1       3.320   8.962  13.178  1.00  0.00     0.020 C 
HETATM    5  C9  UNL     1       3.220   8.949  14.720  1.00  0.00     0.084 C 
HETATM    6  C11 UNL     1       1.851   9.459  15.212  1.00  0.00     0.020 C 
HETATM    7  C12 UNL     1       0.620   8.727  14.621  1.00  0.00    -0.013 C 
HETATM    8  C13 UNL     1       0.035   7.729  15.620  1.00  0.00     0.010 C 
HETATM    9  C14 UNL     1       0.950   8.061  13.272  1.00  0.00     0.007 C 
HETATM   10  C15 UNL     1      -0.206   7.956  12.256  1.00  0.00     0.090 C 
ENDROOT
BRANCH  10  11
HETATM   11  C16 UNL     1      -1.398   7.038  12.448  1.00  0.00     0.072 A 
HETATM   12  C17 UNL     1      -2.623   7.316  12.922  1.00  0.00     0.076 A 
HETATM   13  C18 UNL     1      -3.302   8.568  13.424  1.00  0.00     0.261 A 
HETATM   14  C20 UNL     1      -3.597   6.272  13.081  1.00  0.00     0.038 A 
HETATM   15  O5  UNL     1      -2.840   9.692  13.435  1.00  0.00    -0.267 OA
HETATM   16  N1  UNL     1      -4.587   8.236  13.844  1.00  0.00    -0.303 N 
HETATM   17  C19 UNL     1      -4.731   6.969  13.651  1.00  0.00     0.154 A 
ATOM     18  H1  UNL     1      -5.282   8.873  14.231  1.00  0.00     0.171 HD
HETATM   19  C21 UNL     1      -3.358   4.997  12.756  1.00  0.00    -0.036 A 
HETATM   20  C27 UNL     1      -1.989   4.640  12.207  1.00  0.00     0.154 A 
HETATM   21  C28 UNL     1      -2.051   3.983  10.830  1.00  0.00     0.045 C 
HETATM   22  O7  UNL     1      -1.058   5.739  12.082  1.00  0.00    -0.344 OA
BRANCH  17  23
HETATM   23  O6  UNL     1      -5.857   6.339  13.953  1.00  0.00    -0.345 OA
HETATM   24  H22 UNL     1      -6.476   6.992  14.322  1.00  0.00     0.219 HD
ENDBRANCH  17  23
BRANCH  19  25
HETATM   25  C22 UNL     1      -4.335   3.869  12.997  1.00  0.00     0.038 C 
BRANCH  25  26
HETATM   26  C23 UNL     1      -5.394   3.745  11.895  1.00  0.00     0.004 C 
BRANCH  26  27
HETATM   27  C24 UNL     1      -6.003   2.340  11.882  1.00  0.00    -0.000 C 
BRANCH  27  28
HETATM   28  C25 UNL     1      -7.334   2.247  12.630  1.00  0.00    -0.005 C 
HETATM   29  C26 UNL     1      -7.859   3.592  13.110  1.00  0.00     0.005 C 
ENDBRANCH  27  28
ENDBRANCH  26  27
ENDBRANCH  25  26
ENDBRANCH  19  25
ENDBRANCH  10  11
BRANCH   1  30
HETATM   30  C4  UNL     1      -0.255   8.499   9.744  1.00  0.00     0.183 C 
HETATM   31  O1  UNL     1      -1.218   9.224  10.011  1.00  0.00    -0.290 OA
BRANCH  30  32
HETATM   32  C3  UNL     1       0.202   8.317   8.333  1.00  0.00     0.049 C 
HETATM   33  C2  UNL     1       1.322   7.637   8.053  1.00  0.00    -0.027 C 
HETATM   34  C1  UNL     1       1.825   7.395   6.667  1.00  0.00     0.036 C 
ENDBRANCH  30  32
ENDBRANCH   1  30
BRANCH   1  35
HETATM   35  O2  UNL     1       0.630   6.394  10.545  1.00  0.00    -0.381 OA
HETATM   36  H6  UNL     1       0.008   6.236   9.804  1.00  0.00     0.211 HD
ENDBRANCH   1  35
BRANCH   5  37
HETATM   37  C10 UNL     1       3.597   7.594  15.300  1.00  0.00     0.143 C 
HETATM   38  O3  UNL     1       4.628   7.310  15.886  1.00  0.00    -0.650 OA
BRANCH  37  39
HETATM   39  O4  UNL     1       2.612   6.678  15.209  1.00  0.00    -0.776 OA
HETATM   40  H13 UNL     1       3.009   5.883  15.624  1.00  0.00     0.167 HD
ENDBRANCH  37  39
ENDBRANCH   5  37
TORSDOF 11
ENDMDL
MODEL 2
REMARK minimizedAffinity -8.2000246
REMARK  11 active torsions:
REMARK  status: ('A' for Active; 'I' for Inactive)
REMARK    1  A    between atoms: C3_3  and  C4_4 
REMARK    2  A    between atoms: C4_4  and  C5_6 
REMARK    3  A    between atoms: C5_6  and  O2_7 
REMARK    4  A    between atoms: C9_11  and  C10_12 
REMARK    5  A    between atoms: C10_12  and  O4_14 
REMARK    6  A    between atoms: C15_19  and  C16_20 
REMARK    7  A    between atoms: C19_26  and  O6_27 
REMARK    8  A    between atoms: C21_29  and  C22_30 
REMARK    9  A    between atoms: C22_30  and  C23_31 
REMARK   10  A    between atoms: C23_31  and  C24_32 
REMARK   11  A    between atoms: C24_32  and  C25_33 
ROOT
HETATM    1  C5  UNL     1       3.030   6.460  10.361  1.00  0.00     0.132 C 
HETATM    2  C6  UNL     1       4.574   6.491  10.302  1.00  0.00     0.052 C 
HETATM    3  C7  UNL     1       4.986   7.687  11.165  1.00  0.00    -0.005 C 
HETATM    4  C8  UNL     1       6.386   7.600  11.773  1.00  0.00     0.020 C 
HETATM    5  C9  UNL     1       6.526   8.421  13.074  1.00  0.00     0.084 C 
HETATM    6  C11 UNL     1       5.479   9.548  13.159  1.00  0.00     0.020 C 
HETATM    7  C12 UNL     1       4.004   9.095  13.005  1.00  0.00    -0.013 C 
HETATM    8  C13 UNL     1       3.299   9.032  14.360  1.00  0.00     0.010 C 
HETATM    9  C14 UNL     1       3.897   7.762  12.241  1.00  0.00     0.007 C 
HETATM   10  C15 UNL     1       2.624   7.554  11.396  1.00  0.00     0.090 C 
ENDROOT
BRANCH  10  11
HETATM   11  C16 UNL     1       1.250   7.347  12.004  1.00  0.00     0.072 A 
HETATM   12  C17 UNL     1       0.519   6.225  12.099  1.00  0.00     0.076 A 
HETATM   13  C18 UNL     1       0.729   4.788  11.684  1.00  0.00     0.261 A 
HETATM   14  C20 UNL     1      -0.801   6.262  12.665  1.00  0.00     0.038 A 
HETATM   15  O5  UNL     1       1.733   4.313  11.191  1.00  0.00    -0.267 OA
HETATM   16  N1  UNL     1      -0.417   4.065  12.000  1.00  0.00    -0.303 N 
HETATM   17  C19 UNL     1      -1.249   4.890  12.536  1.00  0.00     0.154 A 
ATOM     18  H1  UNL     1      -0.570   3.070  11.837  1.00  0.00     0.171 HD
HETATM   19  C21 UNL     1      -1.361   7.381  13.139  1.00  0.00    -0.036 A 
HETATM   20  C27 UNL     1      -0.564   8.670  13.060  1.00  0.00     0.154 A 
HETATM   21  C28 UNL     1      -0.362   9.330  14.422  1.00  0.00     0.045 C 
HETATM   22  O7  UNL     1       0.752   8.559  12.472  1.00  0.00    -0.344 OA
BRANCH  17  23
HETATM   23  O6  UNL     1      -2.448   4.507  12.951  1.00  0.00    -0.345 OA
HETATM   24  H22 UNL     1      -2.538   3.557  12.764  1.00  0.00     0.219 HD
ENDBRANCH  17  23
BRANCH  19  25
HETATM   25  C22 UNL     1      -2.778   7.460  13.656  1.00  0.00     0.038 C 
BRANCH  25  26
HETATM   26  C23 UNL     1      -3.677   8.370  12.809  1.00  0.00     0.004 C 
BRANCH  26  27
HETATM   27  C24 UNL     1      -5.144   8.222  13.223  1.00  0.00    -0.000 C 
BRANCH  27  28
HETATM   28  C25 UNL     1      -5.404   8.591  14.685  1.00  0.00    -0.005 C 
HETATM   29  C26 UNL     1      -6.868   8.493  15.087  1.00  0.00     0.005 C 
ENDBRANCH  27  28
ENDBRANCH  26  27
ENDBRANCH  25  26
ENDBRANCH  19  25
ENDBRANCH  10  11
BRANCH   1  30
HETATM   30  C4  UNL     1       2.359   6.698   8.987  1.00  0.00     0.183 C 
HETATM   31  O1  UNL     1       2.531   5.891   8.069  1.00  0.00    -0.290 OA
BRANCH  30  32
HETATM   32  C3  UNL     1       1.486   7.898   8.802  1.00  0.00     0.049 C 
HETATM   33  C2  UNL     1       0.163   7.825   9.004  1.00  0.00    -0.027 C 
HETATM   34  C1  UNL     1      -0.765   8.988   8.862  1.00  0.00     0.036 C 
ENDBRANCH  30  32
ENDBRANCH   1  30
BRANCH   1  35
HETATM   35  O2  UNL     1       2.656   5.158  10.829  1.00  0.00    -0.381 OA
HETATM   36  H6  UNL     1       1.909   4.866  10.266  1.00  0.00     0.211 HD
ENDBRANCH   1  35
BRANCH   5  37
HETATM   37  C10 UNL     1       6.547   7.529  14.306  1.00  0.00     0.143 C 
HETATM   38  O3  UNL     1       6.570   7.890  15.471  1.00  0.00    -0.650 OA
BRANCH  37  39
HETATM   39  O4  UNL     1       6.432   6.217  14.020  1.00  0.00    -0.776 OA
HETATM   40  H13 UNL     1       6.457   5.794  14.905  1.00  0.00     0.167 HD
ENDBRANCH  37  39
ENDBRANCH   5  37
TORSDOF 11
ENDMDL
MODEL 3
REMARK minimizedAffinity -8.1926403
REMARK  11 active torsions:
REMARK  status: ('A' for Active; 'I' for Inactive)
REMARK    1  A    between atoms: C3_3  and  C4_4 
REMARK    2  A    between atoms: C4_4  and  C5_6 
REMARK    3  A    between atoms: C5_6  and  O2_7 
REMARK    4  A    between atoms: C9_11  and  C10_12 
REMARK    5  A    between atoms: C10_12  and  O4_14 
REMARK    6  A    between atoms: C15_19  and  C16_20 
REMARK    7  A    between atoms: C19_26  and  O6_27 
REMARK    8  A    between atoms: C21_29  and  C22_30 
REMARK    9  A    between atoms: C22_30  and  C23_31 
REMARK   10  A    between atoms: C23_31  and  C24_32 
REMARK   11  A    between atoms: C24_32  and  C25_33 
ROOT
HETATM    1  C5  UNL     1      -2.301   4.540  12.569  1.00  0.00     0.132 C 
HETATM    2  C6  UNL     1      -0.776   4.647  12.797  1.00  0.00     0.052 C 
HETATM    3  C7  UNL     1      -0.492   6.147  12.920  1.00  0.00    -0.005 C 
HETATM    4  C8  UNL     1       0.753   6.509  13.729  1.00  0.00     0.020 C 
HETATM    5  C9  UNL     1       0.668   7.916  14.362  1.00  0.00     0.084 C 
HETATM    6  C11 UNL     1      -0.325   8.825  13.612  1.00  0.00     0.020 C 
HETATM    7  C12 UNL     1      -1.758   8.255  13.456  1.00  0.00    -0.013 C 
HETATM    8  C13 UNL     1      -2.721   8.891  14.459  1.00  0.00     0.010 C 
HETATM    9  C14 UNL     1      -1.769   6.717  13.547  1.00  0.00     0.007 C 
HETATM   10  C15 UNL     1      -2.856   5.988  12.732  1.00  0.00     0.090 C 
ENDROOT
BRANCH  10  11
HETATM   11  C16 UNL     1      -4.332   6.047  13.079  1.00  0.00     0.072 A 
HETATM   12  C17 UNL     1      -5.231   5.053  13.155  1.00  0.00     0.076 A 
HETATM   13  C18 UNL     1      -5.172   3.557  12.954  1.00  0.00     0.261 A 
HETATM   14  C20 UNL     1      -6.609   5.338  13.445  1.00  0.00     0.038 A 
HETATM   15  O5  UNL     1      -4.181   2.892  12.724  1.00  0.00    -0.267 OA
HETATM   16  N1  UNL     1      -6.453   3.038  13.120  1.00  0.00    -0.303 N 
HETATM   17  C19 UNL     1      -7.231   4.031  13.386  1.00  0.00     0.154 A 
ATOM     18  H1  UNL     1      -6.725   2.058  13.044  1.00  0.00     0.171 HD
HETATM   19  C21 UNL     1      -7.066   6.575  13.670  1.00  0.00    -0.036 A 
HETATM   20  C27 UNL     1      -6.080   7.727  13.603  1.00  0.00     0.154 A 
HETATM   21  C28 UNL     1      -6.024   8.539  14.895  1.00  0.00     0.045 C 
HETATM   22  O7  UNL     1      -4.714   7.366  13.300  1.00  0.00    -0.344 OA
BRANCH  17  23
HETATM   23  O6  UNL     1      -8.529   3.867  13.599  1.00  0.00    -0.345 OA
HETATM   24  H22 UNL     1      -8.729   2.920  13.507  1.00  0.00     0.219 HD
ENDBRANCH  17  23
BRANCH  19  25
HETATM   25  C22 UNL     1      -8.523   6.908  13.887  1.00  0.00     0.038 C 
BRANCH  25  26
HETATM   26  C23 UNL     1      -8.917   6.947  15.369  1.00  0.00     0.004 C 
BRANCH  26  27
HETATM   27  C24 UNL     1      -9.147   8.388  15.834  1.00  0.00    -0.000 C 
BRANCH  27  28
HETATM   28  C25 UNL     1     -10.619   8.719  16.085  1.00  0.00    -0.005 C 
HETATM   29  C26 UNL     1     -10.860   9.473  17.385  1.00  0.00     0.005 C 
ENDBRANCH  27  28
ENDBRANCH  26  27
ENDBRANCH  25  26
ENDBRANCH  19  25
ENDBRANCH  10  11
BRANCH   1  30
HETATM   30  C4  UNL     1      -2.674   3.938  11.193  1.00  0.00     0.183 C 
HETATM   31  O1  UNL     1      -3.704   4.304  10.618  1.00  0.00    -0.290 OA
BRANCH  30  32
HETATM   32  C3  UNL     1      -1.762   2.933  10.567  1.00  0.00     0.049 C 
HETATM   33  C2  UNL     1      -1.667   1.689  11.058  1.00  0.00    -0.027 C 
HETATM   34  C1  UNL     1      -0.796   0.627  10.470  1.00  0.00     0.036 C 
ENDBRANCH  30  32
ENDBRANCH   1  30
BRANCH   1  35
HETATM   35  O2  UNL     1      -2.818   3.682  13.595  1.00  0.00    -0.381 OA
HETATM   36  H6  UNL     1      -3.450   3.075  13.154  1.00  0.00     0.211 HD
ENDBRANCH   1  35
BRANCH   5  37
HETATM   37  C10 UNL     1       0.404   7.847  15.859  1.00  0.00     0.143 C 
HETATM   38  O3  UNL     1       0.190   8.784  16.608  1.00  0.00    -0.650 OA
BRANCH  37  39
HETATM   39  O4  UNL     1       0.315   6.587  16.330  1.00  0.00    -0.776 OA
HETATM   40  H13 UNL     1       0.141   6.719  17.287  1.00  0.00     0.167 HD
ENDBRANCH  37  39
ENDBRANCH   5  37
TORSDOF 11
ENDMDL
MODEL 4
REMARK minimizedAffinity -8.10396099
REMARK  11 active torsions:
REMARK  status: ('A' for Active; 'I' for Inactive)
REMARK    1  A    between atoms: C3_3  and  C4_4 
REMARK    2  A    between atoms: C4_4  and  C5_6 
REMARK    3  A    between atoms: C5_6  and  O2_7 
REMARK    4  A    between atoms: C9_11  and  C10_12 
REMARK    5  A    between atoms: C10_12  and  O4_14 
REMARK    6  A    between atoms: C15_19  and  C16_20 
REMARK    7  A    between atoms: C19_26  and  O6_27 
REMARK    8  A    between atoms: C21_29  and  C22_30 
REMARK    9  A    between atoms: C22_30  and  C23_31 
REMARK   10  A    between atoms: C23_31  and  C24_32 
REMARK   11  A    between atoms: C24_32  and  C25_33 
ROOT
HETATM    1  C5  UNL     1      -0.597   5.746  12.783  1.00  0.00     0.132 C 
HETATM    2  C6  UNL     1       0.232   4.888  11.801  1.00  0.00     0.052 C 
HETATM    3  C7  UNL     1       1.034   5.893  10.969  1.00  0.00    -0.005 C 
HETATM    4  C8  UNL     1       2.337   5.354  10.378  1.00  0.00     0.020 C 
HETATM    5  C9  UNL     1       3.384   6.463  10.125  1.00  0.00     0.084 C 
HETATM    6  C11 UNL     1       2.728   7.850   9.977  1.00  0.00     0.020 C 
HETATM    7  C12 UNL     1       1.812   8.279  11.152  1.00  0.00    -0.013 C 
HETATM    8  C13 UNL     1       2.519   9.276  12.071  1.00  0.00     0.010 C 
HETATM    9  C14 UNL     1       1.280   7.060  11.930  1.00  0.00     0.007 C 
HETATM   10  C15 UNL     1      -0.110   7.213  12.579  1.00  0.00     0.090 C 
ENDROOT
BRANCH  10  11
HETATM   11  C16 UNL     1      -0.377   8.121  13.766  1.00  0.00     0.072 A 
HETATM   12  C17 UNL     1      -1.122   7.899  14.860  1.00  0.00     0.076 A 
HETATM   13  C18 UNL     1      -1.951   6.739  15.356  1.00  0.00     0.261 A 
HETATM   14  C20 UNL     1      -1.292   8.930  15.846  1.00  0.00     0.038 A 
HETATM   15  O5  UNL     1      -2.059   5.646  14.835  1.00  0.00    -0.267 OA
HETATM   16  N1  UNL     1      -2.553   7.107  16.556  1.00  0.00    -0.303 N 
HETATM   17  C19 UNL     1      -2.183   8.316  16.809  1.00  0.00     0.154 A 
ATOM     18  H1  UNL     1      -3.171   6.530  17.126  1.00  0.00     0.171 HD
HETATM   19  C21 UNL     1      -0.717  10.134  15.749  1.00  0.00    -0.036 A 
HETATM   20  C27 UNL     1       0.142  10.423  14.532  1.00  0.00     0.154 A 
HETATM   21  C28 UNL     1       1.570  10.825  14.893  1.00  0.00     0.045 C 
HETATM   22  O7  UNL     1       0.261   9.343  13.579  1.00  0.00    -0.344 OA
BRANCH  17  23
HETATM   23  O6  UNL     1      -2.590   8.961  17.892  1.00  0.00    -0.345 OA
HETATM   24  H22 UNL     1      -3.178   8.368  18.390  1.00  0.00     0.219 HD
ENDBRANCH  17  23
BRANCH  19  25
HETATM   25  C22 UNL     1      -0.953  11.261  16.727  1.00  0.00     0.038 C 
BRANCH  25  26
HETATM   26  C23 UNL     1       0.154  11.386  17.781  1.00  0.00     0.004 C 
BRANCH  26  27
HETATM   27  C24 UNL     1      -0.402  11.141  19.186  1.00  0.00    -0.000 C 
BRANCH  27  28
HETATM   28  C25 UNL     1       0.680  11.091  20.268  1.00  0.00    -0.005 C 
HETATM   29  C26 UNL     1       2.026  10.595  19.760  1.00  0.00     0.005 C 
ENDBRANCH  27  28
ENDBRANCH  26  27
ENDBRANCH  25  26
ENDBRANCH  19  25
ENDBRANCH  10  11
BRANCH   1  30
HETATM   30  C4  UNL     1      -2.125   5.617  12.571  1.00  0.00     0.183 C 
HETATM   31  O1  UNL     1      -2.814   6.631  12.422  1.00  0.00    -0.290 OA
BRANCH  30  32
HETATM   32  C3  UNL     1      -2.741   4.256  12.525  1.00  0.00     0.049 C 
HETATM   33  C2  UNL     1      -3.854   4.027  11.814  1.00  0.00    -0.027 C 
HETATM   34  C1  UNL     1      -4.508   2.688  11.703  1.00  0.00     0.036 C 
ENDBRANCH  30  32
ENDBRANCH   1  30
BRANCH   1  35
HETATM   35  O2  UNL     1      -0.283   5.288  14.106  1.00  0.00    -0.381 OA
HETATM   36  H6  UNL     1      -1.135   5.229  14.586  1.00  0.00     0.211 HD
ENDBRANCH   1  35
BRANCH   5  37
HETATM   37  C10 UNL     1       4.498   6.435  11.160  1.00  0.00     0.143 C 
HETATM   38  O3  UNL     1       4.492   6.966  12.258  1.00  0.00    -0.650 OA
BRANCH  37  39
HETATM   39  O4  UNL     1       5.536   5.649  10.810  1.00  0.00    -0.776 OA
HETATM   40  H13 UNL     1       6.149   5.738  11.571  1.00  0.00     0.167 HD
ENDBRANCH  37  39
ENDBRANCH   5  37
TORSDOF 11
ENDMDL
MODEL 5
REMARK minimizedAffinity -7.95330858
REMARK  11 active torsions:
REMARK  status: ('A' for Active; 'I' for Inactive)
REMARK    1  A    between atoms: C3_3  and  C4_4 
REMARK    2  A    between atoms: C4_4  and  C5_6 
REMARK    3  A    between atoms: C5_6  and  O2_7 
REMARK    4  A    between atoms: C9_11  and  C10_12 
REMARK    5  A    between atoms: C10_12  and  O4_14 
REMARK    6  A    between atoms: C15_19  and  C16_20 
REMARK    7  A    between atoms: C19_26  and  O6_27 
REMARK    8  A    between atoms: C21_29  and  C22_30 
REMARK    9  A    between atoms: C22_30  and  C23_31 
REMARK   10  A    between atoms: C23_31  and  C24_32 
REMARK   11  A    between atoms: C24_32  and  C25_33 
ROOT
HETATM    1  C5  UNL     1      -1.132   5.633  13.856  1.00  0.00     0.132 C 
HETATM    2  C6  UNL     1      -0.587   4.674  12.773  1.00  0.00     0.052 C 
HETATM    3  C7  UNL     1      -0.101   5.582  11.640  1.00  0.00    -0.005 C 
HETATM    4  C8  UNL     1       0.998   4.990  10.758  1.00  0.00     0.020 C 
HETATM    5  C9  UNL     1       1.880   6.070  10.093  1.00  0.00     0.084 C 
HETATM    6  C11 UNL     1       1.153   7.425   9.993  1.00  0.00     0.020 C 
HETATM    7  C12 UNL     1       0.598   7.980  11.330  1.00  0.00    -0.013 C 
HETATM    8  C13 UNL     1       1.499   9.081  11.890  1.00  0.00     0.010 C 
HETATM    9  C14 UNL     1       0.364   6.855  12.356  1.00  0.00     0.007 C 
HETATM   10  C15 UNL     1      -0.786   7.071  13.361  1.00  0.00     0.090 C 
ENDROOT
BRANCH  10  11
HETATM   11  C16 UNL     1      -0.736   8.107  14.469  1.00  0.00     0.072 A 
HETATM   12  C17 UNL     1       0.259   8.397  15.323  1.00  0.00     0.076 A 
HETATM   13  C18 UNL     1       1.657   7.868  15.535  1.00  0.00     0.261 A 
HETATM   14  C20 UNL     1       0.072   9.386  16.348  1.00  0.00     0.038 A 
HETATM   15  O5  UNL     1       2.230   7.036  14.860  1.00  0.00    -0.267 OA
HETATM   16  N1  UNL     1       2.218   8.527  16.625  1.00  0.00    -0.303 N 
HETATM   17  C19 UNL     1       1.333   9.356  17.062  1.00  0.00     0.154 A 
ATOM     18  H1  UNL     1       3.153   8.381  17.006  1.00  0.00     0.171 HD
HETATM   19  C21 UNL     1      -1.064  10.076  16.498  1.00  0.00    -0.036 A 
HETATM   20  C27 UNL     1      -2.210   9.786  15.547  1.00  0.00     0.154 A 
HETATM   21  C28 UNL     1      -2.678  11.023  14.784  1.00  0.00     0.045 C 
HETATM   22  O7  UNL     1      -1.954   8.774  14.547  1.00  0.00    -0.344 OA
BRANCH  17  23
HETATM   23  O6  UNL     1       1.562  10.142  18.104  1.00  0.00    -0.345 OA
HETATM   24  H22 UNL     1       2.460   9.954  18.427  1.00  0.00     0.219 HD
ENDBRANCH  17  23
BRANCH  19  25
HETATM   25  C22 UNL     1      -1.312  11.055  17.622  1.00  0.00     0.038 C 
BRANCH  25  26
HETATM   26  C23 UNL     1      -2.075  10.437  18.800  1.00  0.00     0.004 C 
BRANCH  26  27
HETATM   27  C24 UNL     1      -3.551  10.843  18.767  1.00  0.00    -0.000 C 
BRANCH  27  28
HETATM   28  C25 UNL     1      -3.764  12.356  18.683  1.00  0.00    -0.005 C 
HETATM   29  C26 UNL     1      -4.748  12.890  19.713  1.00  0.00     0.005 C 
ENDBRANCH  27  28
ENDBRANCH  26  27
ENDBRANCH  25  26
ENDBRANCH  19  25
ENDBRANCH  10  11
BRANCH   1  30
HETATM   30  C4  UNL     1      -2.650   5.468  14.113  1.00  0.00     0.183 C 
HETATM   31  O1  UNL     1      -3.105   5.640  15.247  1.00  0.00    -0.290 OA
BRANCH  30  32
HETATM   32  C3  UNL     1      -3.548   5.126  12.968  1.00  0.00     0.049 C 
HETATM   33  C2  UNL     1      -4.217   3.964  12.941  1.00  0.00    -0.027 C 
HETATM   34  C1  UNL     1      -5.150   3.568  11.843  1.00  0.00     0.036 C 
ENDBRANCH  30  32
ENDBRANCH   1  30
BRANCH   1  35
HETATM   35  O2  UNL     1      -0.432   5.333  15.071  1.00  0.00    -0.381 OA
HETATM   36  H6  UNL     1      -1.106   5.323  15.782  1.00  0.00     0.211 HD
ENDBRANCH   1  35
BRANCH   5  37
HETATM   37  C10 UNL     1       3.246   6.171  10.755  1.00  0.00     0.143 C 
HETATM   38  O3  UNL     1       4.308   6.417  10.209  1.00  0.00    -0.650 OA
BRANCH  37  39
HETATM   39  O4  UNL     1       3.201   6.062  12.098  1.00  0.00    -0.776 OA
HETATM   40  H13 UNL     1       4.142   6.152  12.360  1.00  0.00     0.167 HD
ENDBRANCH  37  39
ENDBRANCH   5  37
TORSDOF 11
ENDMDL
MODEL 6
REMARK minimizedAffinity -7.9244504
REMARK  11 active torsions:
REMARK  status: ('A' for Active; 'I' for Inactive)
REMARK    1  A    between atoms: C3_3  and  C4_4 
REMARK    2  A    between atoms: C4_4  and  C5_6 
REMARK    3  A    between atoms: C5_6  and  O2_7 
REMARK    4  A    between atoms: C9_11  and  C10_12 
REMARK    5  A    between atoms: C10_12  and  O4_14 
REMARK    6  A    between atoms: C15_19  and  C16_20 
REMARK    7  A    between atoms: C19_26  and  O6_27 
REMARK    8  A    between atoms: C21_29  and  C22_30 
REMARK    9  A    between atoms: C22_30  and  C23_31 
REMARK   10  A    between atoms: C23_31  and  C24_32 
REMARK   11  A    between atoms: C24_32  and  C25_33 
ROOT
HETATM    1  C5  UNL     1       4.557   7.367  11.198  1.00  0.00     0.132 C 
HETATM    2  C6  UNL     1       5.985   7.921  10.991  1.00  0.00     0.052 C 
HETATM    3  C7  UNL     1       5.856   9.437  11.165  1.00  0.00    -0.005 C 
HETATM    4  C8  UNL     1       7.131  10.151  11.615  1.00  0.00     0.020 C 
HETATM    5  C9  UNL     1       6.845  11.467  12.372  1.00  0.00     0.084 C 
HETATM    6  C11 UNL     1       5.459  12.042  12.023  1.00  0.00     0.020 C 
HETATM    7  C12 UNL     1       4.267  11.072  12.230  1.00  0.00    -0.013 C 
HETATM    8  C13 UNL     1       3.510  11.391  13.519  1.00  0.00     0.010 C 
HETATM    9  C14 UNL     1       4.719   9.601  12.179  1.00  0.00     0.007 C 
HETATM   10  C15 UNL     1       3.691   8.584  11.644  1.00  0.00     0.090 C 
ENDROOT
BRANCH  10  11
HETATM   11  C16 UNL     1       2.433   8.200  12.402  1.00  0.00     0.072 A 
HETATM   12  C17 UNL     1       2.281   7.875  13.695  1.00  0.00     0.076 A 
HETATM   13  C18 UNL     1       3.218   7.766  14.875  1.00  0.00     0.261 A 
HETATM   14  C20 UNL     1       0.995   7.479  14.200  1.00  0.00     0.038 A 
HETATM   15  O5  UNL     1       4.401   8.045  14.892  1.00  0.00    -0.267 OA
HETATM   16  N1  UNL     1       2.491   7.329  15.978  1.00  0.00    -0.303 N 
HETATM   17  C19 UNL     1       1.271   7.173  15.589  1.00  0.00     0.154 A 
ATOM     18  H1  UNL     1       2.854   7.162  16.916  1.00  0.00     0.171 HD
HETATM   19  C21 UNL     1      -0.104   7.430  13.439  1.00  0.00    -0.036 A 
HETATM   20  C27 UNL     1       0.023   7.799  11.972  1.00  0.00     0.154 A 
HETATM   21  C28 UNL     1      -0.902   8.944  11.564  1.00  0.00     0.045 C 
HETATM   22  O7  UNL     1       1.346   8.180  11.533  1.00  0.00    -0.344 OA
BRANCH  17  23
HETATM   23  O6  UNL     1       0.320   6.760  16.414  1.00  0.00    -0.345 OA
HETATM   24  H22 UNL     1       0.725   6.612  17.286  1.00  0.00     0.219 HD
ENDBRANCH  17  23
BRANCH  19  25
HETATM   25  C22 UNL     1      -1.444   6.932  13.926  1.00  0.00     0.038 C 
BRANCH  25  26
HETATM   26  C23 UNL     1      -2.261   6.233  12.832  1.00  0.00     0.004 C 
BRANCH  26  27
HETATM   27  C24 UNL     1      -2.684   4.832  13.281  1.00  0.00    -0.000 C 
BRANCH  27  28
HETATM   28  C25 UNL     1      -4.076   4.431  12.788  1.00  0.00    -0.005 C 
HETATM   29  C26 UNL     1      -4.106   3.087  12.074  1.00  0.00     0.005 C 
ENDBRANCH  27  28
ENDBRANCH  26  27
ENDBRANCH  25  26
ENDBRANCH  19  25
ENDBRANCH  10  11
BRANCH   1  30
HETATM   30  C4  UNL     1       3.975   6.685   9.936  1.00  0.00     0.183 C 
HETATM   31  O1  UNL     1       4.113   5.469   9.774  1.00  0.00    -0.290 OA
BRANCH  30  32
HETATM   32  C3  UNL     1       3.231   7.513   8.940  1.00  0.00     0.049 C 
HETATM   33  C2  UNL     1       2.536   6.938   7.947  1.00  0.00    -0.027 C 
HETATM   34  C1  UNL     1       1.749   7.702   6.933  1.00  0.00     0.036 C 
ENDBRANCH  30  32
ENDBRANCH   1  30
BRANCH   1  35
HETATM   35  O2  UNL     1       4.635   6.390  12.246  1.00  0.00    -0.381 OA
HETATM   36  H6  UNL     1       4.100   5.625  11.950  1.00  0.00     0.211 HD
ENDBRANCH   1  35
BRANCH   5  37
HETATM   37  C10 UNL     1       7.072  11.318  13.870  1.00  0.00     0.143 C 
HETATM   38  O3  UNL     1       6.782  12.124  14.737  1.00  0.00    -0.650 OA
BRANCH  37  39
HETATM   39  O4  UNL     1       7.558  10.111  14.221  1.00  0.00    -0.776 OA
HETATM   40  H13 UNL     1       7.639  10.179  15.197  1.00  0.00     0.167 HD
ENDBRANCH  37  39
ENDBRANCH   5  37
TORSDOF 11
ENDMDL
MODEL 7
REMARK minimizedAffinity -7.86118984
REMARK  11 active torsions:
REMARK  status: ('A' for Active; 'I' for Inactive)
REMARK    1  A    between atoms: C3_3  and  C4_4 
REMARK    2  A    between atoms: C4_4  and  C5_6 
REMARK    3  A    between atoms: C5_6  and  O2_7 
REMARK    4  A    between atoms: C9_11  and  C10_12 
REMARK    5  A    between atoms: C10_12  and  O4_14 
REMARK    6  A    between atoms: C15_19  and  C16_20 
REMARK    7  A    between atoms: C19_26  and  O6_27 
REMARK    8  A    between atoms: C21_29  and  C22_30 
REMARK    9  A    between atoms: C22_30  and  C23_31 
REMARK   10  A    between atoms: C23_31  and  C24_32 
REMARK   11  A    between atoms: C24_32  and  C25_33 
ROOT
HETATM    1  C5  UNL     1      -3.017   8.644  13.827  1.00  0.00     0.132 C 
HETATM    2  C6  UNL     1      -3.466   9.832  14.707  1.00  0.00     0.052 C 
HETATM    3  C7  UNL     1      -2.206  10.276  15.456  1.00  0.00    -0.005 C 
HETATM    4  C8  UNL     1      -2.194  11.739  15.898  1.00  0.00     0.020 C 
HETATM    5  C9  UNL     1      -0.764  12.308  16.046  1.00  0.00     0.084 C 
HETATM    6  C11 UNL     1       0.277  11.196  16.275  1.00  0.00     0.020 C 
HETATM    7  C12 UNL     1       0.290  10.070  15.209  1.00  0.00    -0.013 C 
HETATM    8  C13 UNL     1       1.448  10.249  14.228  1.00  0.00     0.010 C 
HETATM    9  C14 UNL     1      -1.065   9.961  14.484  1.00  0.00     0.007 C 
HETATM   10  C15 UNL     1      -1.469   8.558  13.990  1.00  0.00     0.090 C 
ENDROOT
BRANCH  10  11
HETATM   11  C16 UNL     1      -0.768   7.847  12.846  1.00  0.00     0.072 A 
HETATM   12  C17 UNL     1      -0.375   6.567  12.750  1.00  0.00     0.076 A 
HETATM   13  C18 UNL     1      -0.457   5.365  13.660  1.00  0.00     0.261 A 
HETATM   14  C20 UNL     1       0.335   6.110  11.588  1.00  0.00     0.038 A 
HETATM   15  O5  UNL     1      -1.011   5.306  14.739  1.00  0.00    -0.267 OA
HETATM   16  N1  UNL     1       0.178   4.295  13.036  1.00  0.00    -0.303 N 
HETATM   17  C19 UNL     1       0.611   4.722  11.900  1.00  0.00     0.154 A 
ATOM     18  H1  UNL     1       0.283   3.351  13.409  1.00  0.00     0.171 HD
HETATM   19  C21 UNL     1       0.623   6.903  10.550  1.00  0.00    -0.036 A 
HETATM   20  C27 UNL     1       0.187   8.355  10.614  1.00  0.00     0.154 A 
HETATM   21  C28 UNL     1      -0.714   8.759   9.450  1.00  0.00     0.045 C 
HETATM   22  O7  UNL     1      -0.515   8.746  11.816  1.00  0.00    -0.344 OA
BRANCH  17  23
HETATM   23  O6  UNL     1       1.268   3.936  11.059  1.00  0.00    -0.345 OA
HETATM   24  H22 UNL     1       1.342   3.057  11.469  1.00  0.00     0.219 HD
ENDBRANCH  17  23
BRANCH  19  25
HETATM   25  C22 UNL     1       1.445   6.467   9.359  1.00  0.00     0.038 C 
BRANCH  25  26
HETATM   26  C23 UNL     1       2.948   6.703   9.547  1.00  0.00     0.004 C 
BRANCH  26  27
HETATM   27  C24 UNL     1       3.390   7.989   8.843  1.00  0.00    -0.000 C 
BRANCH  27  28
HETATM   28  C25 UNL     1       2.487   8.383   7.672  1.00  0.00    -0.005 C 
HETATM   29  C26 UNL     1       2.219   7.244   6.700  1.00  0.00     0.005 C 
ENDBRANCH  27  28
ENDBRANCH  26  27
ENDBRANCH  25  26
ENDBRANCH  19  25
ENDBRANCH  10  11
BRANCH   1  30
HETATM   30  C4  UNL     1      -3.705   7.309  14.202  1.00  0.00     0.183 C 
HETATM   31  O1  UNL     1      -3.907   7.032  15.388  1.00  0.00    -0.290 OA
BRANCH  30  32
HETATM   32  C3  UNL     1      -4.138   6.382  13.112  1.00  0.00     0.049 C 
HETATM   33  C2  UNL     1      -4.242   5.064  13.330  1.00  0.00    -0.027 C 
HETATM   34  C1  UNL     1      -4.692   4.084  12.296  1.00  0.00     0.036 C 
ENDBRANCH  30  32
ENDBRANCH   1  30
BRANCH   1  35
HETATM   35  O2  UNL     1      -3.367   8.970  12.475  1.00  0.00    -0.381 OA
HETATM   36  H6  UNL     1      -3.758   8.159  12.089  1.00  0.00     0.211 HD
ENDBRANCH   1  35
BRANCH   5  37
HETATM   37  C10 UNL     1      -0.404  13.238  14.896  1.00  0.00     0.143 C 
HETATM   38  O3  UNL     1       0.619  13.890  14.775  1.00  0.00    -0.650 OA
BRANCH  37  39
HETATM   39  O4  UNL     1      -1.305  13.225  13.893  1.00  0.00    -0.776 OA
HETATM   40  H13 UNL     1      -0.928  13.859  13.247  1.00  0.00     0.167 HD
ENDBRANCH  37  39
ENDBRANCH   5  37
TORSDOF 11
ENDMDL
MODEL 8
REMARK minimizedAffinity -7.85525227
REMARK  11 active torsions:
REMARK  status: ('A' for Active; 'I' for Inactive)
REMARK    1  A    between atoms: C3_3  and  C4_4 
REMARK    2  A    between atoms: C4_4  and  C5_6 
REMARK    3  A    between atoms: C5_6  and  O2_7 
REMARK    4  A    between atoms: C9_11  and  C10_12 
REMARK    5  A    between atoms: C10_12  and  O4_14 
REMARK    6  A    between atoms: C15_19  and  C16_20 
REMARK    7  A    between atoms: C19_26  and  O6_27 
REMARK    8  A    between atoms: C21_29  and  C22_30 
REMARK    9  A    between atoms: C22_30  and  C23_31 
REMARK   10  A    between atoms: C23_31  and  C24_32 
REMARK   11  A    between atoms: C24_32  and  C25_33 
ROOT
HETATM    1  C5  UNL     1       1.122   7.790  10.633  1.00  0.00     0.132 C 
HETATM    2  C6  UNL     1       2.605   7.719  10.205  1.00  0.00     0.052 C 
HETATM    3  C7  UNL     1       3.347   8.649  11.169  1.00  0.00    -0.005 C 
HETATM    4  C8  UNL     1       4.824   8.319  11.384  1.00  0.00     0.020 C 
HETATM    5  C9  UNL     1       5.354   8.804  12.752  1.00  0.00     0.084 C 
HETATM    6  C11 UNL     1       4.503   9.956  13.323  1.00  0.00     0.020 C 
HETATM    7  C12 UNL     1       2.986   9.661  13.445  1.00  0.00    -0.013 C 
HETATM    8  C13 UNL     1       2.597   9.339  14.888  1.00  0.00     0.010 C 
HETATM    9  C14 UNL     1       2.544   8.553  12.471  1.00  0.00     0.007 C 
HETATM   10  C15 UNL     1       1.099   8.642  11.939  1.00  0.00     0.090 C 
ENDROOT
BRANCH  10  11
HETATM   11  C16 UNL     1      -0.121   8.401  12.809  1.00  0.00     0.072 A 
HETATM   12  C17 UNL     1      -0.450   7.324  13.539  1.00  0.00     0.076 A 
HETATM   13  C18 UNL     1       0.200   5.987  13.802  1.00  0.00     0.261 A 
HETATM   14  C20 UNL     1      -1.698   7.281  14.250  1.00  0.00     0.038 A 
HETATM   15  O5  UNL     1       1.291   5.620  13.414  1.00  0.00    -0.267 OA
HETATM   16  N1  UNL     1      -0.645   5.237  14.615  1.00  0.00    -0.303 N 
HETATM   17  C19 UNL     1      -1.686   5.961  14.849  1.00  0.00     0.154 A 
ATOM     18  H1  UNL     1      -0.474   4.293  14.960  1.00  0.00     0.171 HD
HETATM   19  C21 UNL     1      -2.576   8.290  14.245  1.00  0.00    -0.036 A 
HETATM   20  C27 UNL     1      -2.238   9.531  13.440  1.00  0.00     0.154 A 
HETATM   21  C28 UNL     1      -2.226  10.804  14.284  1.00  0.00     0.045 C 
HETATM   22  O7  UNL     1      -0.971   9.501  12.746  1.00  0.00    -0.344 OA
BRANCH  17  23
HETATM   23  O6  UNL     1      -2.687   5.528  15.601  1.00  0.00    -0.345 OA
HETATM   24  H22 UNL     1      -2.472   4.625  15.893  1.00  0.00     0.219 HD
ENDBRANCH  17  23
BRANCH  19  25
HETATM   25  C22 UNL     1      -3.931   8.231  14.911  1.00  0.00     0.038 C 
BRANCH  25  26
HETATM   26  C23 UNL     1      -5.029   7.681  13.993  1.00  0.00     0.004 C 
BRANCH  26  27
HETATM   27  C24 UNL     1      -6.418   8.050  14.522  1.00  0.00    -0.000 C 
BRANCH  27  28
HETATM   28  C25 UNL     1      -6.694   7.516  15.929  1.00  0.00    -0.005 C 
HETATM   29  C26 UNL     1      -6.720   5.996  16.009  1.00  0.00     0.005 C 
ENDBRANCH  27  28
ENDBRANCH  26  27
ENDBRANCH  25  26
ENDBRANCH  19  25
ENDBRANCH  10  11
BRANCH   1  30
HETATM   30  C4  UNL     1       0.198   8.388   9.546  1.00  0.00     0.183 C 
HETATM   31  O1  UNL     1      -0.658   9.222   9.855  1.00  0.00    -0.290 OA
BRANCH  30  32
HETATM   32  C3  UNL     1       0.375   7.960   8.124  1.00  0.00     0.049 C 
HETATM   33  C2  UNL     1       1.583   7.623   7.652  1.00  0.00    -0.027 C 
HETATM   34  C1  UNL     1       1.829   7.163   6.252  1.00  0.00     0.036 C 
ENDBRANCH  30  32
ENDBRANCH   1  30
BRANCH   1  35
HETATM   35  O2  UNL     1       0.699   6.445  10.898  1.00  0.00    -0.381 OA
HETATM   36  H6  UNL     1      -0.185   6.349  10.487  1.00  0.00     0.211 HD
ENDBRANCH   1  35
BRANCH   5  37
HETATM   37  C10 UNL     1       5.535   7.652  13.729  1.00  0.00     0.143 C 
HETATM   38  O3  UNL     1       6.535   6.973  13.883  1.00  0.00    -0.650 OA
BRANCH  37  39
HETATM   39  O4  UNL     1       4.479   7.473  14.549  1.00  0.00    -0.776 OA
HETATM   40  H13 UNL     1       4.755   6.713  15.104  1.00  0.00     0.167 HD
ENDBRANCH  37  39
ENDBRANCH   5  37
TORSDOF 11
ENDMDL
MODEL 9
REMARK minimizedAffinity -7.85018444
REMARK  11 active torsions:
REMARK  status: ('A' for Active; 'I' for Inactive)
REMARK    1  A    between atoms: C3_3  and  C4_4 
REMARK    2  A    between atoms: C4_4  and  C5_6 
REMARK    3  A    between atoms: C5_6  and  O2_7 
REMARK    4  A    between atoms: C9_11  and  C10_12 
REMARK    5  A    between atoms: C10_12  and  O4_14 
REMARK    6  A    between atoms: C15_19  and  C16_20 
REMARK    7  A    between atoms: C19_26  and  O6_27 
REMARK    8  A    between atoms: C21_29  and  C22_30 
REMARK    9  A    between atoms: C22_30  and  C23_31 
REMARK   10  A    between atoms: C23_31  and  C24_32 
REMARK   11  A    between atoms: C24_32  and  C25_33 
ROOT
HETATM    1  C5  UNL     1      -1.646   6.323  14.435  1.00  0.00     0.132 C 
HETATM    2  C6  UNL     1      -1.538   5.204  13.374  1.00  0.00     0.052 C 
HETATM    3  C7  UNL     1      -1.024   5.897  12.110  1.00  0.00    -0.005 C 
HETATM    4  C8  UNL     1      -0.263   4.996  11.137  1.00  0.00     0.020 C 
HETATM    5  C9  UNL     1       0.747   5.773  10.264  1.00  0.00     0.084 C 
HETATM    6  C11 UNL     1       0.379   7.265  10.149  1.00  0.00     0.020 C 
HETATM    7  C12 UNL     1       0.200   8.010  11.497  1.00  0.00    -0.013 C 
HETATM    8  C13 UNL     1       1.426   8.862  11.827  1.00  0.00     0.010 C 
HETATM    9  C14 UNL     1      -0.146   7.036  12.640  1.00  0.00     0.007 C 
HETATM   10  C15 UNL     1      -1.030   7.594  13.773  1.00  0.00     0.090 C 
ENDROOT
BRANCH  10  11
HETATM   11  C16 UNL     1      -0.547   8.633  14.768  1.00  0.00     0.072 A 
HETATM   12  C17 UNL     1       0.629   8.718  15.410  1.00  0.00     0.076 A 
HETATM   13  C18 UNL     1       1.891   7.888  15.418  1.00  0.00     0.261 A 
HETATM   14  C20 UNL     1       0.861   9.762  16.369  1.00  0.00     0.038 A 
HETATM   15  O5  UNL     1       2.130   6.922  14.722  1.00  0.00    -0.267 OA
HETATM   16  N1  UNL     1       2.778   8.442  16.337  1.00  0.00    -0.303 N 
HETATM   17  C19 UNL     1       2.195   9.469  16.853  1.00  0.00     0.154 A 
ATOM     18  H1  UNL     1       3.712   8.099  16.560  1.00  0.00     0.171 HD
HETATM   19  C21 UNL     1      -0.046  10.701  16.659  1.00  0.00    -0.036 A 
HETATM   20  C27 UNL     1      -1.386  10.647  15.948  1.00  0.00     0.154 A 
HETATM   21  C28 UNL     1      -1.705  11.929  15.181  1.00  0.00     0.045 C 
HETATM   22  O7  UNL     1      -1.551   9.566  15.003  1.00  0.00    -0.344 OA
BRANCH  17  23
HETATM   23  O6  UNL     1       2.784  10.221  17.772  1.00  0.00    -0.345 OA
HETATM   24  H22 UNL     1       3.662   9.843  17.948  1.00  0.00     0.219 HD
ENDBRANCH  17  23
BRANCH  19  25
HETATM   25  C22 UNL     1       0.142  11.754  17.726  1.00  0.00     0.038 C 
BRANCH  25  26
HETATM   26  C23 UNL     1      -0.299  11.285  19.118  1.00  0.00     0.004 C 
BRANCH  26  27
HETATM   27  C24 UNL     1       0.753  11.643  20.172  1.00  0.00    -0.000 C 
BRANCH  27  28
HETATM   28  C25 UNL     1       1.400  10.421  20.826  1.00  0.00    -0.005 C 
HETATM   29  C26 UNL     1       2.592  10.761  21.709  1.00  0.00     0.005 C 
ENDBRANCH  27  28
ENDBRANCH  26  27
ENDBRANCH  25  26
ENDBRANCH  19  25
ENDBRANCH  10  11
BRANCH   1  30
HETATM   30  C4  UNL     1      -3.096   6.575  14.915  1.00  0.00     0.183 C 
HETATM   31  O1  UNL     1      -3.313   6.866  16.095  1.00  0.00    -0.290 OA
BRANCH  30  32
HETATM   32  C3  UNL     1      -4.214   6.485  13.928  1.00  0.00     0.049 C 
HETATM   33  C2  UNL     1      -5.262   5.678  14.146  1.00  0.00    -0.027 C 
HETATM   34  C1  UNL     1      -6.426   5.557  13.216  1.00  0.00     0.036 C 
ENDBRANCH  30  32
ENDBRANCH   1  30
BRANCH   1  35
HETATM   35  O2  UNL     1      -0.861   5.909  15.561  1.00  0.00    -0.381 OA
HETATM   36  H6  UNL     1      -1.395   6.110  16.358  1.00  0.00     0.211 HD
ENDBRANCH   1  35
BRANCH   5  37
HETATM   37  C10 UNL     1       2.181   5.544  10.717  1.00  0.00     0.143 C 
HETATM   38  O3  UNL     1       2.868   6.299  11.383  1.00  0.00    -0.650 OA
BRANCH  37  39
HETATM   39  O4  UNL     1       2.654   4.322  10.400  1.00  0.00    -0.776 OA
HETATM   40  H13 UNL     1       3.567   4.337  10.760  1.00  0.00     0.167 HD
ENDBRANCH  37  39
ENDBRANCH   5  37
TORSDOF 11
ENDMDL
