MODEL 1
REMARK minimizedAffinity -10.5703888
REMARK  4 active torsions:
REMARK  status: ('A' for Active; 'I' for Inactive)
REMARK    1  A    between atoms: C10_14  and  C11_15 
REMARK    2  A    between atoms: C11_15  and  C12_16 
REMARK    3  A    between atoms: C12_16  and  N3_17 
REMARK    4  A    between atoms: C15_20  and  C16_21 
ROOT
HETATM    1  N3  UNL     1      -2.711   8.180  13.961  1.00  0.00     0.088 N 
HETATM    2  C13 UNL     1      -2.854   6.932  14.709  1.00  0.00     0.273 C 
HETATM    3  C14 UNL     1      -4.191   6.883  15.439  1.00  0.00     0.041 C 
HETATM    4  C15 UNL     1      -5.401   7.196  14.552  1.00  0.00     0.042 C 
HETATM    5  C23 UNL     1      -5.144   8.361  13.589  1.00  0.00     0.041 C 
HETATM    6  C24 UNL     1      -3.756   8.358  12.953  1.00  0.00     0.273 C 
ENDROOT
BRANCH   1   7
HETATM    7  C12 UNL     1      -1.358   8.384  13.416  1.00  0.00     0.277 C 
BRANCH   7   8
HETATM    8  C11 UNL     1      -1.263   8.844  11.949  1.00  0.00     0.076 C 
BRANCH   8   9
HETATM    9  C10 UNL     1      -0.207   8.075  11.195  1.00  0.00     0.034 A 
HETATM   10  C2  UNL     1       0.605   7.129  11.699  1.00  0.00     0.018 A 
HETATM   11  C1  UNL     1       0.619   6.738  13.156  1.00  0.00     0.069 C 
HETATM   12  N1  UNL     1       1.521   6.438  10.951  1.00  0.00    -0.345 N 
HETATM   13  C3  UNL     1       1.626   6.700   9.685  1.00  0.00     0.120 A 
ATOM     14  H1  UNL     1       2.112   5.728  11.383  1.00  0.00     0.167 HD
HETATM   15  C4  UNL     1       2.631   5.948   8.855  1.00  0.00    -0.017 A 
HETATM   16  N2  UNL     1       0.854   7.652   9.033  1.00  0.00    -0.274 N 
HETATM   17  C5  UNL     1       3.469   4.919   9.546  1.00  0.00     0.052 C 
HETATM   18  C6  UNL     1       2.732   6.227   7.546  1.00  0.00     0.012 A 
HETATM   19  C7  UNL     1       1.902   7.226   6.935  1.00  0.00     0.018 A 
HETATM   20  C8  UNL     1       1.009   7.894   7.673  1.00  0.00     0.102 A 
HETATM   21  C9  UNL     1      -0.091   8.380   9.740  1.00  0.00     0.261 A 
HETATM   22  O1  UNL     1      -0.818   9.242   9.245  1.00  0.00    -0.267 OA
ENDBRANCH   8   9
ENDBRANCH   7   8
ENDBRANCH   1   7
BRANCH   4  23
HETATM   23  C16 UNL     1      -6.038   5.984  13.917  1.00  0.00     0.050 A 
HETATM   24  N4  UNL     1      -7.375   5.878  14.029  1.00  0.00    -0.264 N 
HETATM   25  O2  UNL     1      -7.734   4.715  13.388  1.00  0.00    -0.237 OA
ATOM     26  H4  UNL     1      -8.001   6.532  14.498  1.00  0.00     0.194 HD
HETATM   27  C17 UNL     1      -6.630   4.112  12.889  1.00  0.00     0.114 A 
HETATM   28  C18 UNL     1      -6.619   2.914  12.180  1.00  0.00     0.082 A 
HETATM   29  C22 UNL     1      -5.507   4.873  13.193  1.00  0.00     0.025 A 
HETATM   30  C19 UNL     1      -5.371   2.473  11.758  1.00  0.00     0.119 A 
HETATM   31  F1  UNL     1      -5.284   1.327  11.070  1.00  0.00    -0.206 F 
HETATM   32  C20 UNL     1      -4.208   3.186  12.031  1.00  0.00     0.043 A 
HETATM   33  C21 UNL     1      -4.259   4.392  12.749  1.00  0.00     0.019 A 
ENDBRANCH   4  23
TORSDOF 4
ENDMDL
MODEL 2
REMARK minimizedAffinity -10.4370556
REMARK  4 active torsions:
REMARK  status: ('A' for Active; 'I' for Inactive)
REMARK    1  A    between atoms: C10_14  and  C11_15 
REMARK    2  A    between atoms: C11_15  and  C12_16 
REMARK    3  A    between atoms: C12_16  and  N3_17 
REMARK    4  A    between atoms: C15_20  and  C16_21 
ROOT
HETATM    1  N3  UNL     1      -0.684   7.247  14.023  1.00  0.00     0.088 N 
HETATM    2  C13 UNL     1      -0.566   8.110  12.849  1.00  0.00     0.273 C 
HETATM    3  C14 UNL     1       0.847   8.669  12.722  1.00  0.00     0.041 C 
HETATM    4  C15 UNL     1       1.950   7.608  12.804  1.00  0.00     0.042 C 
HETATM    5  C23 UNL     1       1.682   6.557  13.888  1.00  0.00     0.041 C 
HETATM    6  C24 UNL     1       0.227   6.103  13.979  1.00  0.00     0.273 C 
ENDROOT
BRANCH   1   7
HETATM    7  C12 UNL     1      -2.071   6.854  14.324  1.00  0.00     0.277 C 
BRANCH   7   8
HETATM    8  C11 UNL     1      -3.122   7.122  13.230  1.00  0.00     0.076 C 
BRANCH   8   9
HETATM    9  C10 UNL     1      -3.894   5.872  12.886  1.00  0.00     0.034 A 
HETATM   10  C2  UNL     1      -3.438   4.819  12.187  1.00  0.00     0.018 A 
HETATM   11  C1  UNL     1      -2.063   4.764  11.570  1.00  0.00     0.069 C 
HETATM   12  N1  UNL     1      -4.180   3.693  11.940  1.00  0.00    -0.345 N 
HETATM   13  C3  UNL     1      -5.392   3.627  12.396  1.00  0.00     0.120 A 
ATOM     14  H1  UNL     1      -3.784   2.920  11.405  1.00  0.00     0.167 HD
HETATM   15  C4  UNL     1      -6.216   2.396  12.128  1.00  0.00    -0.017 A 
HETATM   16  N2  UNL     1      -5.992   4.640  13.131  1.00  0.00    -0.274 N 
HETATM   17  C5  UNL     1      -5.581   1.295  11.337  1.00  0.00     0.052 C 
HETATM   18  C6  UNL     1      -7.469   2.336  12.604  1.00  0.00     0.012 A 
HETATM   19  C7  UNL     1      -8.029   3.423  13.357  1.00  0.00     0.018 A 
HETATM   20  C8  UNL     1      -7.296   4.516  13.594  1.00  0.00     0.102 A 
HETATM   21  C9  UNL     1      -5.287   5.801  13.413  1.00  0.00     0.261 A 
HETATM   22  O1  UNL     1      -5.738   6.749  14.056  1.00  0.00    -0.267 OA
ENDBRANCH   8   9
ENDBRANCH   7   8
ENDBRANCH   1   7
BRANCH   4  23
HETATM   23  C16 UNL     1       2.371   7.042  11.469  1.00  0.00     0.050 A 
HETATM   24  N4  UNL     1       3.319   6.088  11.491  1.00  0.00    -0.264 N 
HETATM   25  O2  UNL     1       3.543   5.725  10.184  1.00  0.00    -0.237 OA
ATOM     26  H4  UNL     1       3.782   5.708  12.317  1.00  0.00     0.194 HD
HETATM   27  C17 UNL     1       2.744   6.449   9.367  1.00  0.00     0.114 A 
HETATM   28  C18 UNL     1       2.705   6.343   7.980  1.00  0.00     0.082 A 
HETATM   29  C22 UNL     1       1.965   7.314  10.127  1.00  0.00     0.025 A 
HETATM   30  C19 UNL     1       1.807   7.185   7.335  1.00  0.00     0.119 A 
HETATM   31  F1  UNL     1       1.716   7.139   5.999  1.00  0.00    -0.206 F 
HETATM   32  C20 UNL     1       1.000   8.075   8.036  1.00  0.00     0.043 A 
HETATM   33  C21 UNL     1       1.067   8.152   9.436  1.00  0.00     0.019 A 
ENDBRANCH   4  23
TORSDOF 4
ENDMDL
MODEL 3
REMARK minimizedAffinity -10.3606148
REMARK  4 active torsions:
REMARK  status: ('A' for Active; 'I' for Inactive)
REMARK    1  A    between atoms: C10_14  and  C11_15 
REMARK    2  A    between atoms: C11_15  and  C12_16 
REMARK    3  A    between atoms: C12_16  and  N3_17 
REMARK    4  A    between atoms: C15_20  and  C16_21 
ROOT
HETATM    1  N3  UNL     1      -0.658   7.335  14.015  1.00  0.00     0.088 N 
HETATM    2  C13 UNL     1      -0.548   8.151  12.808  1.00  0.00     0.273 C 
HETATM    3  C14 UNL     1       0.862   8.709  12.651  1.00  0.00     0.041 C 
HETATM    4  C15 UNL     1       1.969   7.655  12.770  1.00  0.00     0.042 C 
HETATM    5  C23 UNL     1       1.709   6.647  13.895  1.00  0.00     0.041 C 
HETATM    6  C24 UNL     1       0.257   6.193  14.011  1.00  0.00     0.273 C 
ENDROOT
BRANCH   1   7
HETATM    7  C12 UNL     1      -2.042   6.951  14.338  1.00  0.00     0.277 C 
BRANCH   7   8
HETATM    8  C11 UNL     1      -3.121   7.301  13.297  1.00  0.00     0.076 C 
BRANCH   8   9
HETATM    9  C10 UNL     1      -4.116   6.178  13.131  1.00  0.00     0.034 A 
HETATM   10  C2  UNL     1      -5.395   6.177  13.544  1.00  0.00     0.018 A 
HETATM   11  C1  UNL     1      -6.019   7.313  14.317  1.00  0.00     0.069 C 
HETATM   12  N1  UNL     1      -6.261   5.138  13.330  1.00  0.00    -0.345 N 
HETATM   13  C3  UNL     1      -5.838   4.087  12.697  1.00  0.00     0.120 A 
ATOM     14  H1  UNL     1      -7.224   5.189  13.663  1.00  0.00     0.167 HD
HETATM   15  C4  UNL     1      -6.781   2.939  12.458  1.00  0.00    -0.017 A 
HETATM   16  N2  UNL     1      -4.543   3.951  12.217  1.00  0.00    -0.274 N 
HETATM   17  C5  UNL     1      -8.181   3.072  12.971  1.00  0.00     0.052 C 
HETATM   18  C6  UNL     1      -6.334   1.856  11.803  1.00  0.00     0.012 A 
HETATM   19  C7  UNL     1      -4.979   1.781  11.333  1.00  0.00     0.018 A 
HETATM   20  C8  UNL     1      -4.143   2.802  11.546  1.00  0.00     0.102 A 
HETATM   21  C9  UNL     1      -3.625   4.974  12.404  1.00  0.00     0.261 A 
HETATM   22  O1  UNL     1      -2.457   4.940  12.012  1.00  0.00    -0.267 OA
ENDBRANCH   8   9
ENDBRANCH   7   8
ENDBRANCH   1   7
BRANCH   4  23
HETATM   23  C16 UNL     1       2.385   7.038  11.456  1.00  0.00     0.050 A 
HETATM   24  N4  UNL     1       3.292   6.046  11.517  1.00  0.00    -0.264 N 
HETATM   25  O2  UNL     1       3.519   5.640  10.223  1.00  0.00    -0.237 OA
ATOM     26  H4  UNL     1       3.726   5.668  12.359  1.00  0.00     0.194 HD
HETATM   27  C17 UNL     1       2.763   6.376   9.376  1.00  0.00     0.114 A 
HETATM   28  C18 UNL     1       2.740   6.237   7.991  1.00  0.00     0.082 A 
HETATM   29  C22 UNL     1       2.011   7.292  10.101  1.00  0.00     0.025 A 
HETATM   30  C19 UNL     1       1.888   7.099   7.311  1.00  0.00     0.119 A 
HETATM   31  F1  UNL     1       1.814   7.022   5.976  1.00  0.00    -0.206 F 
HETATM   32  C20 UNL     1       1.109   8.039   7.977  1.00  0.00     0.043 A 
HETATM   33  C21 UNL     1       1.159   8.149   9.376  1.00  0.00     0.019 A 
ENDBRANCH   4  23
TORSDOF 4
ENDMDL
MODEL 4
REMARK minimizedAffinity -10.0699043
REMARK  4 active torsions:
REMARK  status: ('A' for Active; 'I' for Inactive)
REMARK    1  A    between atoms: C10_14  and  C11_15 
REMARK    2  A    between atoms: C11_15  and  C12_16 
REMARK    3  A    between atoms: C12_16  and  N3_17 
REMARK    4  A    between atoms: C15_20  and  C16_21 
ROOT
HETATM    1  N3  UNL     1      -2.663   7.012  14.555  1.00  0.00     0.088 N 
HETATM    2  C13 UNL     1      -3.403   6.173  15.496  1.00  0.00     0.273 C 
HETATM    3  C14 UNL     1      -4.871   6.579  15.553  1.00  0.00     0.041 C 
HETATM    4  C15 UNL     1      -5.545   6.683  14.181  1.00  0.00     0.042 C 
HETATM    5  C23 UNL     1      -4.650   7.350  13.130  1.00  0.00     0.041 C 
HETATM    6  C24 UNL     1      -3.185   6.926  13.191  1.00  0.00     0.273 C 
ENDROOT
BRANCH   1   7
HETATM    7  C12 UNL     1      -1.205   6.817  14.616  1.00  0.00     0.277 C 
BRANCH   7   8
HETATM    8  C11 UNL     1      -0.654   5.505  14.026  1.00  0.00     0.076 C 
BRANCH   8   9
HETATM    9  C10 UNL     1       0.264   5.767  12.857  1.00  0.00     0.034 A 
HETATM   10  C2  UNL     1       0.030   5.452  11.571  1.00  0.00     0.018 A 
HETATM   11  C1  UNL     1      -1.198   4.707  11.110  1.00  0.00     0.069 C 
HETATM   12  N1  UNL     1       0.890   5.751  10.548  1.00  0.00    -0.345 N 
HETATM   13  C3  UNL     1       1.997   6.370  10.818  1.00  0.00     0.120 A 
ATOM     14  H1  UNL     1       0.663   5.491   9.588  1.00  0.00     0.167 HD
HETATM   15  C4  UNL     1       2.950   6.702   9.701  1.00  0.00    -0.017 A 
HETATM   16  N2  UNL     1       2.369   6.753  12.099  1.00  0.00    -0.274 N 
HETATM   17  C5  UNL     1       2.562   6.294   8.314  1.00  0.00     0.052 C 
HETATM   18  C6  UNL     1       4.093   7.341   9.990  1.00  0.00     0.012 A 
HETATM   19  C7  UNL     1       4.417   7.709  11.340  1.00  0.00     0.018 A 
HETATM   20  C8  UNL     1       3.569   7.413  12.332  1.00  0.00     0.102 A 
HETATM   21  C9  UNL     1       1.535   6.478  13.173  1.00  0.00     0.261 A 
HETATM   22  O1  UNL     1       1.783   6.781  14.341  1.00  0.00    -0.267 OA
ENDBRANCH   8   9
ENDBRANCH   7   8
ENDBRANCH   1   7
BRANCH   4  23
HETATM   23  C16 UNL     1      -6.219   5.414  13.720  1.00  0.00     0.050 A 
HETATM   24  N4  UNL     1      -7.499   5.240  14.099  1.00  0.00    -0.264 N 
HETATM   25  O2  UNL     1      -7.905   4.035  13.575  1.00  0.00    -0.237 OA
ATOM     26  H4  UNL     1      -8.059   5.877  14.664  1.00  0.00     0.194 HD
HETATM   27  C17 UNL     1      -6.886   3.473  12.884  1.00  0.00     0.114 A 
HETATM   28  C18 UNL     1      -6.942   2.250  12.221  1.00  0.00     0.082 A 
HETATM   29  C22 UNL     1      -5.774   4.305  12.937  1.00  0.00     0.025 A 
HETATM   30  C19 UNL     1      -5.776   1.861  11.572  1.00  0.00     0.119 A 
HETATM   31  F1  UNL     1      -5.756   0.695  10.913  1.00  0.00    -0.206 F 
HETATM   32  C20 UNL     1      -4.629   2.647  11.587  1.00  0.00     0.043 A 
HETATM   33  C21 UNL     1      -4.611   3.876  12.267  1.00  0.00     0.019 A 
ENDBRANCH   4  23
TORSDOF 4
ENDMDL
MODEL 5
REMARK minimizedAffinity -9.87377357
REMARK  4 active torsions:
REMARK  status: ('A' for Active; 'I' for Inactive)
REMARK    1  A    between atoms: C10_14  and  C11_15 
REMARK    2  A    between atoms: C11_15  and  C12_16 
REMARK    3  A    between atoms: C12_16  and  N3_17 
REMARK    4  A    between atoms: C15_20  and  C16_21 
ROOT
HETATM    1  N3  UNL     1      -0.183   6.692  11.809  1.00  0.00     0.088 N 
HETATM    2  C13 UNL     1       0.543   5.838  10.871  1.00  0.00     0.273 C 
HETATM    3  C14 UNL     1       1.361   6.672   9.893  1.00  0.00     0.041 C 
HETATM    4  C15 UNL     1       2.251   7.727  10.560  1.00  0.00     0.042 C 
HETATM    5  C23 UNL     1       1.549   8.448  11.717  1.00  0.00     0.041 C 
HETATM    6  C24 UNL     1       0.705   7.539  12.606  1.00  0.00     0.273 C 
ENDROOT
BRANCH   1   7
HETATM    7  C12 UNL     1      -1.158   5.960  12.635  1.00  0.00     0.277 C 
BRANCH   7   8
HETATM    8  C11 UNL     1      -2.474   6.690  12.965  1.00  0.00     0.076 C 
BRANCH   8   9
HETATM    9  C10 UNL     1      -3.658   5.757  12.892  1.00  0.00     0.034 A 
HETATM   10  C2  UNL     1      -4.902   6.009  13.334  1.00  0.00     0.018 A 
HETATM   11  C1  UNL     1      -5.287   7.279  14.050  1.00  0.00     0.069 C 
HETATM   12  N1  UNL     1      -5.946   5.132  13.203  1.00  0.00    -0.345 N 
HETATM   13  C3  UNL     1      -5.738   3.989  12.626  1.00  0.00     0.120 A 
ATOM     14  H1  UNL     1      -6.872   5.374  13.555  1.00  0.00     0.167 HD
HETATM   15  C4  UNL     1      -6.879   3.017  12.479  1.00  0.00    -0.017 A 
HETATM   16  N2  UNL     1      -4.505   3.596  12.124  1.00  0.00    -0.274 N 
HETATM   17  C5  UNL     1      -8.214   3.429  13.015  1.00  0.00     0.052 C 
HETATM   18  C6  UNL     1      -6.654   1.837  11.881  1.00  0.00     0.012 A 
HETATM   19  C7  UNL     1      -5.351   1.493  11.385  1.00  0.00     0.018 A 
HETATM   20  C8  UNL     1      -4.339   2.358  11.516  1.00  0.00     0.102 A 
HETATM   21  C9  UNL     1      -3.414   4.445  12.227  1.00  0.00     0.261 A 
HETATM   22  O1  UNL     1      -2.285   4.180  11.811  1.00  0.00    -0.267 OA
ENDBRANCH   8   9
ENDBRANCH   7   8
ENDBRANCH   1   7
BRANCH   4  23
HETATM   23  C16 UNL     1       3.651   7.254  10.870  1.00  0.00     0.050 A 
HETATM   24  N4  UNL     1       4.267   6.531   9.917  1.00  0.00    -0.264 N 
HETATM   25  O2  UNL     1       5.512   6.212  10.407  1.00  0.00    -0.237 OA
ATOM     26  H4  UNL     1       3.885   6.269   9.008  1.00  0.00     0.194 HD
HETATM   27  C17 UNL     1       5.659   6.732  11.648  1.00  0.00     0.114 A 
HETATM   28  C18 UNL     1       6.795   6.605  12.443  1.00  0.00     0.082 A 
HETATM   29  C22 UNL     1       4.502   7.413  12.006  1.00  0.00     0.025 A 
HETATM   30  C19 UNL     1       6.732   7.220  13.688  1.00  0.00     0.119 A 
HETATM   31  F1  UNL     1       7.788   7.139  14.508  1.00  0.00    -0.206 F 
HETATM   32  C20 UNL     1       5.603   7.916  14.108  1.00  0.00     0.043 A 
HETATM   33  C21 UNL     1       4.477   8.022  13.277  1.00  0.00     0.019 A 
ENDBRANCH   4  23
TORSDOF 4
ENDMDL
MODEL 6
REMARK minimizedAffinity -9.84318256
REMARK  4 active torsions:
REMARK  status: ('A' for Active; 'I' for Inactive)
REMARK    1  A    between atoms: C10_14  and  C11_15 
REMARK    2  A    between atoms: C11_15  and  C12_16 
REMARK    3  A    between atoms: C12_16  and  N3_17 
REMARK    4  A    between atoms: C15_20  and  C16_21 
ROOT
HETATM    1  N3  UNL     1       1.085   6.098  10.417  1.00  0.00     0.088 N 
HETATM    2  C13 UNL     1       2.148   5.147  10.737  1.00  0.00     0.273 C 
HETATM    3  C14 UNL     1       3.365   5.367   9.846  1.00  0.00     0.041 C 
HETATM    4  C15 UNL     1       3.850   6.820   9.797  1.00  0.00     0.042 C 
HETATM    5  C23 UNL     1       2.698   7.827   9.711  1.00  0.00     0.041 C 
HETATM    6  C24 UNL     1       1.499   7.490  10.593  1.00  0.00     0.273 C 
ENDROOT
BRANCH   1   7
HETATM    7  C12 UNL     1      -0.191   5.798  11.087  1.00  0.00     0.277 C 
BRANCH   7   8
HETATM    8  C11 UNL     1      -0.293   4.442  11.811  1.00  0.00     0.076 C 
BRANCH   8   9
HETATM    9  C10 UNL     1      -1.700   3.898  11.771  1.00  0.00     0.034 A 
HETATM   10  C2  UNL     1      -2.086   2.718  11.253  1.00  0.00     0.018 A 
HETATM   11  C1  UNL     1      -1.142   1.770  10.557  1.00  0.00     0.069 C 
HETATM   12  N1  UNL     1      -3.378   2.263  11.282  1.00  0.00    -0.345 N 
HETATM   13  C3  UNL     1      -4.292   3.001  11.831  1.00  0.00     0.120 A 
ATOM     14  H1  UNL     1      -3.616   1.359  10.876  1.00  0.00     0.167 HD
HETATM   15  C4  UNL     1      -5.715   2.511  11.865  1.00  0.00    -0.017 A 
HETATM   16  N2  UNL     1      -4.038   4.240  12.402  1.00  0.00    -0.274 N 
HETATM   17  C5  UNL     1      -6.003   1.176  11.253  1.00  0.00     0.052 C 
HETATM   18  C6  UNL     1      -6.654   3.281  12.435  1.00  0.00     0.012 A 
HETATM   19  C7  UNL     1      -6.322   4.555  13.007  1.00  0.00     0.018 A 
HETATM   20  C8  UNL     1      -5.057   4.989  12.976  1.00  0.00     0.102 A 
HETATM   21  C9  UNL     1      -2.748   4.749  12.404  1.00  0.00     0.261 A 
HETATM   22  O1  UNL     1      -2.430   5.837  12.887  1.00  0.00    -0.267 OA
ENDBRANCH   8   9
ENDBRANCH   7   8
ENDBRANCH   1   7
BRANCH   4  23
HETATM   23  C16 UNL     1       4.907   7.158  10.821  1.00  0.00     0.050 A 
HETATM   24  N4  UNL     1       5.210   6.199  11.714  1.00  0.00    -0.264 N 
HETATM   25  O2  UNL     1       6.181   6.718  12.537  1.00  0.00    -0.237 OA
ATOM     26  H4  UNL     1       4.798   5.267  11.770  1.00  0.00     0.194 HD
HETATM   27  C17 UNL     1       6.472   7.983  12.155  1.00  0.00     0.114 A 
HETATM   28  C18 UNL     1       7.410   8.812  12.765  1.00  0.00     0.082 A 
HETATM   29  C22 UNL     1       5.690   8.329  11.060  1.00  0.00     0.025 A 
HETATM   30  C19 UNL     1       7.549  10.078  12.210  1.00  0.00     0.119 A 
HETATM   31  F1  UNL     1       8.433  10.930  12.745  1.00  0.00    -0.206 F 
HETATM   32  C20 UNL     1       6.796  10.487  11.114  1.00  0.00     0.043 A 
HETATM   33  C21 UNL     1       5.860   9.622  10.525  1.00  0.00     0.019 A 
ENDBRANCH   4  23
TORSDOF 4
ENDMDL
MODEL 7
REMARK minimizedAffinity -9.6805172
REMARK  4 active torsions:
REMARK  status: ('A' for Active; 'I' for Inactive)
REMARK    1  A    between atoms: C10_14  and  C11_15 
REMARK    2  A    between atoms: C11_15  and  C12_16 
REMARK    3  A    between atoms: C12_16  and  N3_17 
REMARK    4  A    between atoms: C15_20  and  C16_21 
ROOT
HETATM    1  N3  UNL     1      -0.592   7.905  13.728  1.00  0.00     0.088 N 
HETATM    2  C13 UNL     1      -0.098   8.752  12.644  1.00  0.00     0.273 C 
HETATM    3  C14 UNL     1       1.425   8.814  12.649  1.00  0.00     0.041 C 
HETATM    4  C15 UNL     1       2.107   7.442  12.700  1.00  0.00     0.042 C 
HETATM    5  C23 UNL     1       1.418   6.474  13.668  1.00  0.00     0.041 C 
HETATM    6  C24 UNL     1      -0.107   6.528  13.634  1.00  0.00     0.273 C 
ENDROOT
BRANCH   1   7
HETATM    7  C12 UNL     1      -2.051   7.981  13.912  1.00  0.00     0.277 C 
BRANCH   7   8
HETATM    8  C11 UNL     1      -2.685   6.947  14.862  1.00  0.00     0.076 C 
BRANCH   8   9
HETATM    9  C10 UNL     1      -4.089   6.594  14.438  1.00  0.00     0.034 A 
HETATM   10  C2  UNL     1      -4.451   5.563  13.654  1.00  0.00     0.018 A 
HETATM   11  C1  UNL     1      -3.462   4.622  13.011  1.00  0.00     0.069 C 
HETATM   12  N1  UNL     1      -5.751   5.273  13.335  1.00  0.00    -0.345 N 
HETATM   13  C3  UNL     1      -6.697   6.025  13.804  1.00  0.00     0.120 A 
ATOM     14  H1  UNL     1      -5.971   4.477  12.736  1.00  0.00     0.167 HD
HETATM   15  C4  UNL     1      -8.129   5.715  13.458  1.00  0.00    -0.017 A 
HETATM   16  N2  UNL     1      -6.469   7.122  14.624  1.00  0.00    -0.274 N 
HETATM   17  C5  UNL     1      -8.389   4.535  12.575  1.00  0.00     0.052 C 
HETATM   18  C6  UNL     1      -9.101   6.500  13.949  1.00  0.00     0.012 A 
HETATM   19  C7  UNL     1      -8.794   7.622  14.791  1.00  0.00     0.018 A 
HETATM   20  C8  UNL     1      -7.521   7.895  15.098  1.00  0.00     0.102 A 
HETATM   21  C9  UNL     1      -5.173   7.461  14.981  1.00  0.00     0.261 A 
HETATM   22  O1  UNL     1      -4.877   8.416  15.702  1.00  0.00    -0.267 OA
ENDBRANCH   8   9
ENDBRANCH   7   8
ENDBRANCH   1   7
BRANCH   4  23
HETATM   23  C16 UNL     1       2.429   6.856  11.347  1.00  0.00     0.050 A 
HETATM   24  N4  UNL     1       3.249   5.789  11.332  1.00  0.00    -0.264 N 
HETATM   25  O2  UNL     1       3.402   5.427  10.014  1.00  0.00    -0.237 OA
ATOM     26  H4  UNL     1       3.674   5.336  12.141  1.00  0.00     0.194 HD
HETATM   27  C17 UNL     1       2.687   6.264   9.227  1.00  0.00     0.114 A 
HETATM   28  C18 UNL     1       2.611   6.194   7.839  1.00  0.00     0.082 A 
HETATM   29  C22 UNL     1       2.038   7.205  10.018  1.00  0.00     0.025 A 
HETATM   30  C19 UNL     1       1.816   7.156   7.228  1.00  0.00     0.119 A 
HETATM   31  F1  UNL     1       1.696   7.150   5.894  1.00  0.00    -0.206 F 
HETATM   32  C20 UNL     1       1.141   8.126   7.962  1.00  0.00     0.043 A 
HETATM   33  C21 UNL     1       1.242   8.164   9.362  1.00  0.00     0.019 A 
ENDBRANCH   4  23
TORSDOF 4
ENDMDL
MODEL 8
REMARK minimizedAffinity -9.66912174
REMARK  4 active torsions:
REMARK  status: ('A' for Active; 'I' for Inactive)
REMARK    1  A    between atoms: C10_14  and  C11_15 
REMARK    2  A    between atoms: C11_15  and  C12_16 
REMARK    3  A    between atoms: C12_16  and  N3_17 
REMARK    4  A    between atoms: C15_20  and  C16_21 
ROOT
HETATM    1  N3  UNL     1      -3.097   7.376  14.572  1.00  0.00     0.088 N 
HETATM    2  C13 UNL     1      -3.742   6.398  15.446  1.00  0.00     0.273 C 
HETATM    3  C14 UNL     1      -5.242   6.652  15.539  1.00  0.00     0.041 C 
HETATM    4  C15 UNL     1      -5.937   6.798  14.181  1.00  0.00     0.042 C 
HETATM    5  C23 UNL     1      -5.122   7.629  13.184  1.00  0.00     0.041 C 
HETATM    6  C24 UNL     1      -3.622   7.347  13.207  1.00  0.00     0.273 C 
ENDROOT
BRANCH   1   7
HETATM    7  C12 UNL     1      -1.626   7.321  14.614  1.00  0.00     0.277 C 
BRANCH   7   8
HETATM    8  C11 UNL     1      -0.964   6.042  14.068  1.00  0.00     0.076 C 
BRANCH   8   9
HETATM    9  C10 UNL     1       0.336   6.350  13.365  1.00  0.00     0.034 A 
HETATM   10  C2  UNL     1       1.465   6.803  13.936  1.00  0.00     0.018 A 
HETATM   11  C1  UNL     1       1.575   7.143  15.401  1.00  0.00     0.069 C 
HETATM   12  N1  UNL     1       2.627   7.028  13.246  1.00  0.00    -0.345 N 
HETATM   13  C3  UNL     1       2.655   6.798  11.970  1.00  0.00     0.120 A 
ATOM     14  H1  UNL     1       3.457   7.371  13.729  1.00  0.00     0.167 HD
HETATM   15  C4  UNL     1       3.927   7.043  11.203  1.00  0.00    -0.017 A 
HETATM   16  N2  UNL     1       1.564   6.330  11.251  1.00  0.00    -0.274 N 
HETATM   17  C5  UNL     1       5.111   7.548  11.966  1.00  0.00     0.052 C 
HETATM   18  C6  UNL     1       3.946   6.803   9.883  1.00  0.00     0.012 A 
HETATM   19  C7  UNL     1       2.779   6.320   9.200  1.00  0.00     0.018 A 
HETATM   20  C8  UNL     1       1.650   6.102   9.883  1.00  0.00     0.102 A 
HETATM   21  C9  UNL     1       0.363   6.083  11.898  1.00  0.00     0.261 A 
HETATM   22  O1  UNL     1      -0.655   5.668  11.341  1.00  0.00    -0.267 OA
ENDBRANCH   8   9
ENDBRANCH   7   8
ENDBRANCH   1   7
BRANCH   4  23
HETATM   23  C16 UNL     1      -6.489   5.508  13.623  1.00  0.00     0.050 A 
HETATM   24  N4  UNL     1      -7.809   5.300  13.781  1.00  0.00    -0.264 N 
HETATM   25  O2  UNL     1      -8.088   4.082  13.205  1.00  0.00    -0.237 OA
ATOM     26  H4  UNL     1      -8.474   5.923  14.239  1.00  0.00     0.194 HD
HETATM   27  C17 UNL     1      -6.952   3.548  12.700  1.00  0.00     0.114 A 
HETATM   28  C18 UNL     1      -6.862   2.322  12.047  1.00  0.00     0.082 A 
HETATM   29  C22 UNL     1      -5.888   4.411  12.934  1.00  0.00     0.025 A 
HETATM   30  C19 UNL     1      -5.593   1.964  11.608  1.00  0.00     0.119 A 
HETATM   31  F1  UNL     1      -5.430   0.796  10.970  1.00  0.00    -0.206 F 
HETATM   32  C20 UNL     1      -4.486   2.781  11.811  1.00  0.00     0.043 A 
HETATM   33  C21 UNL     1      -4.617   4.012  12.474  1.00  0.00     0.019 A 
ENDBRANCH   4  23
TORSDOF 4
ENDMDL
MODEL 9
REMARK minimizedAffinity -9.3216362
REMARK  4 active torsions:
REMARK  status: ('A' for Active; 'I' for Inactive)
REMARK    1  A    between atoms: C10_14  and  C11_15 
REMARK    2  A    between atoms: C11_15  and  C12_16 
REMARK    3  A    between atoms: C12_16  and  N3_17 
REMARK    4  A    between atoms: C15_20  and  C16_21 
ROOT
HETATM    1  N3  UNL     1      -0.351   6.457  11.544  1.00  0.00     0.088 N 
HETATM    2  C13 UNL     1       0.533   5.435  12.101  1.00  0.00     0.273 C 
HETATM    3  C14 UNL     1       1.411   4.821  11.017  1.00  0.00     0.041 C 
HETATM    4  C15 UNL     1       2.147   5.849  10.151  1.00  0.00     0.042 C 
HETATM    5  C23 UNL     1       1.269   7.048   9.778  1.00  0.00     0.041 C 
HETATM    6  C24 UNL     1       0.381   7.555  10.911  1.00  0.00     0.273 C 
ENDROOT
BRANCH   1   7
HETATM    7  C12 UNL     1      -1.372   6.930  12.493  1.00  0.00     0.277 C 
BRANCH   7   8
HETATM    8  C11 UNL     1      -1.780   5.957  13.616  1.00  0.00     0.076 C 
BRANCH   8   9
HETATM    9  C10 UNL     1      -3.048   5.216  13.272  1.00  0.00     0.034 A 
HETATM   10  C2  UNL     1      -3.137   4.044  12.619  1.00  0.00     0.018 A 
HETATM   11  C1  UNL     1      -1.942   3.313  12.061  1.00  0.00     0.069 C 
HETATM   12  N1  UNL     1      -4.321   3.402  12.370  1.00  0.00    -0.345 N 
HETATM   13  C3  UNL     1      -5.427   3.942  12.777  1.00  0.00     0.120 A 
ATOM     14  H1  UNL     1      -4.332   2.512  11.871  1.00  0.00     0.167 HD
HETATM   15  C4  UNL     1      -6.734   3.246  12.507  1.00  0.00    -0.017 A 
HETATM   16  N2  UNL     1      -5.485   5.149  13.461  1.00  0.00    -0.274 N 
HETATM   17  C5  UNL     1      -6.686   1.944  11.770  1.00  0.00     0.052 C 
HETATM   18  C6  UNL     1      -7.873   3.813  12.932  1.00  0.00     0.012 A 
HETATM   19  C7  UNL     1      -7.861   5.065  13.634  1.00  0.00     0.018 A 
HETATM   20  C8  UNL     1      -6.700   5.683  13.874  1.00  0.00     0.102 A 
HETATM   21  C9  UNL     1      -4.317   5.841  13.743  1.00  0.00     0.261 A 
HETATM   22  O1  UNL     1      -4.273   6.916  14.344  1.00  0.00    -0.267 OA
ENDBRANCH   8   9
ENDBRANCH   7   8
ENDBRANCH   1   7
BRANCH   4  23
HETATM   23  C16 UNL     1       3.527   6.209  10.649  1.00  0.00     0.050 A 
HETATM   24  N4  UNL     1       4.566   5.734   9.939  1.00  0.00    -0.264 N 
HETATM   25  O2  UNL     1       5.707   6.179  10.565  1.00  0.00    -0.237 OA
ATOM     26  H4  UNL     1       4.518   5.157   9.100  1.00  0.00     0.194 HD
HETATM   27  C17 UNL     1       5.372   6.917  11.649  1.00  0.00     0.114 A 
HETATM   28  C18 UNL     1       6.275   7.524  12.518  1.00  0.00     0.082 A 
HETATM   29  C22 UNL     1       3.989   6.976  11.761  1.00  0.00     0.025 A 
HETATM   30  C19 UNL     1       5.713   8.237  13.570  1.00  0.00     0.119 A 
HETATM   31  F1  UNL     1       6.521   8.848  14.447  1.00  0.00    -0.206 F 
HETATM   32  C20 UNL     1       4.336   8.335  13.740  1.00  0.00     0.043 A 
HETATM   33  C21 UNL     1       3.458   7.708  12.842  1.00  0.00     0.019 A 
ENDBRANCH   4  23
TORSDOF 4
ENDMDL
