MODEL 1
REMARK minimizedAffinity -8.51104641
REMARK  13 active torsions:
REMARK  status: ('A' for Active; 'I' for Inactive)
REMARK    1  A    between atoms: C4_4  and  C5_5 
REMARK    2  A    between atoms: C5_5  and  C6_6 
REMARK    3  A    between atoms: C6_6  and  C7_7 
REMARK    4  A    between atoms: C9_9  and  C10_10 
REMARK    5  A    between atoms: C11_11  and  C12_12 
REMARK    6  A    between atoms: C14_14  and  C15_15 
REMARK    7  A    between atoms: C18_18  and  O1_19 
REMARK    8  A    between atoms: C19_21  and  C20_22 
REMARK    9  A    between atoms: C20_22  and  C21_23 
REMARK   10  A    between atoms: C21_23  and  C22_24 
REMARK   11  A    between atoms: C22_24  and  O3_25 
REMARK   12  A    between atoms: C24_27  and  C26_29 
REMARK   13  A    between atoms: C29_33  and  O5_35 
ROOT
HETATM    1  C15 UNL     1      -7.472  46.872 -27.630  1.00  0.00     0.149 C 
HETATM    2  C16 UNL     1      -6.918  46.200 -28.883  1.00  0.00     0.054 C 
HETATM    3  C17 UNL     1      -7.909  46.555 -30.013  1.00  0.00     0.050 C 
HETATM    4  C18 UNL     1      -8.445  47.900 -29.476  1.00  0.00     0.270 C 
HETATM    5  O2  UNL     1      -8.471  47.810 -28.054  1.00  0.00    -0.351 OA
HETATM    6  C19 UNL     1      -7.120  46.724 -31.367  1.00  0.00     0.032 C 
HETATM    7  C23 UNL     1      -6.593  45.364 -31.860  1.00  0.00    -0.066 C 
HETATM    8  C24 UNL     1      -5.293  45.041 -32.090  1.00  0.00    -0.021 C 
HETATM    9  C25 UNL     1      -4.835  43.718 -32.658  1.00  0.00     0.052 C 
HETATM   10  C27 UNL     1      -7.713  44.350 -32.042  1.00  0.00     0.038 C 
HETATM   11  C28 UNL     1      -8.517  44.166 -30.756  1.00  0.00     0.042 C 
HETATM   12  C29 UNL     1      -9.057  45.486 -30.166  1.00  0.00     0.067 C 
HETATM   13  C30 UNL     1      -9.837  45.152 -28.885  1.00  0.00     0.047 C 
ENDROOT
BRANCH   4  14
HETATM   14  O1  UNL     1      -7.579  48.985 -29.789  1.00  0.00    -0.370 OA
HETATM   15  H26 UNL     1      -8.020  49.750 -29.374  1.00  0.00     0.212 HD
ENDBRANCH   4  14
BRANCH   6  16
HETATM   16  C20 UNL     1      -7.907  47.462 -32.488  1.00  0.00     0.012 C 
BRANCH  16  17
HETATM   17  C21 UNL     1      -7.500  47.065 -33.916  1.00  0.00     0.027 C 
BRANCH  17  18
HETATM   18  C22 UNL     1      -6.300  47.820 -34.485  1.00  0.00     0.164 C 
BRANCH  18  19
HETATM   19  O3  UNL     1      -6.440  48.052 -35.879  1.00  0.00    -0.401 OA
HETATM   20  H34 UNL     1      -7.109  48.758 -35.990  1.00  0.00     0.209 HD
ENDBRANCH  18  19
ENDBRANCH  17  18
ENDBRANCH  16  17
ENDBRANCH   6  16
BRANCH  12  21
HETATM   21  O5  UNL     1     -10.030  46.008 -31.086  1.00  0.00    -0.389 OA
HETATM   22  H46 UNL     1     -10.736  45.349 -31.202  1.00  0.00     0.210 HD
ENDBRANCH  12  21
BRANCH   1  23
HETATM   23  C14 UNL     1      -6.430  47.617 -26.846  1.00  0.00     0.011 C 
HETATM   24  C12 UNL     1      -5.234  48.065 -27.285  1.00  0.00    -0.063 C 
HETATM   25  C13 UNL     1      -4.765  47.920 -28.710  1.00  0.00     0.048 C 
BRANCH  24  26
HETATM   26  C11 UNL     1      -4.349  48.740 -26.335  1.00  0.00     0.006 C 
HETATM   27  C10 UNL     1      -3.060  49.062 -26.533  1.00  0.00     0.001 C 
BRANCH  27  28
HETATM   28  C9  UNL     1      -2.255  49.716 -25.521  1.00  0.00     0.002 C 
HETATM   29  C7  UNL     1      -2.217  51.037 -25.250  1.00  0.00    -0.084 C 
HETATM   30  C8  UNL     1      -3.077  52.080 -25.914  1.00  0.00     0.043 C 
BRANCH  29  31
HETATM   31  C6  UNL     1      -1.290  51.554 -24.159  1.00  0.00     0.037 C 
BRANCH  31  32
HETATM   32  C5  UNL     1      -0.335  52.670 -24.606  1.00  0.00     0.031 C 
BRANCH  32  33
HETATM   33  C4  UNL     1       0.965  52.174 -25.181  1.00  0.00    -0.024 C 
HETATM   34  C2  UNL     1       1.271  51.998 -26.481  1.00  0.00    -0.091 C 
HETATM   35  C1  UNL     1       0.328  52.238 -27.626  1.00  0.00     0.042 C 
HETATM   36  C3  UNL     1       2.637  51.513 -26.891  1.00  0.00     0.042 C 
ENDBRANCH  32  33
ENDBRANCH  31  32
ENDBRANCH  29  31
ENDBRANCH  27  28
ENDBRANCH  24  26
ENDBRANCH   1  23
BRANCH   8  37
HETATM   37  C26 UNL     1      -4.157  45.977 -31.807  1.00  0.00     0.265 C 
HETATM   38  O4  UNL     1      -3.741  46.788 -32.627  1.00  0.00    -0.302 OA
ENDBRANCH   8  37
TORSDOF 13
ENDMDL
MODEL 2
REMARK minimizedAffinity -8.38496971
REMARK  13 active torsions:
REMARK  status: ('A' for Active; 'I' for Inactive)
REMARK    1  A    between atoms: C4_4  and  C5_5 
REMARK    2  A    between atoms: C5_5  and  C6_6 
REMARK    3  A    between atoms: C6_6  and  C7_7 
REMARK    4  A    between atoms: C9_9  and  C10_10 
REMARK    5  A    between atoms: C11_11  and  C12_12 
REMARK    6  A    between atoms: C14_14  and  C15_15 
REMARK    7  A    between atoms: C18_18  and  O1_19 
REMARK    8  A    between atoms: C19_21  and  C20_22 
REMARK    9  A    between atoms: C20_22  and  C21_23 
REMARK   10  A    between atoms: C21_23  and  C22_24 
REMARK   11  A    between atoms: C22_24  and  O3_25 
REMARK   12  A    between atoms: C24_27  and  C26_29 
REMARK   13  A    between atoms: C29_33  and  O5_35 
ROOT
HETATM    1  C15 UNL     1      -7.343  46.966 -27.398  1.00  0.00     0.149 C 
HETATM    2  C16 UNL     1      -6.960  46.262 -28.697  1.00  0.00     0.054 C 
HETATM    3  C17 UNL     1      -8.073  46.624 -29.705  1.00  0.00     0.050 C 
HETATM    4  C18 UNL     1      -8.510  47.989 -29.131  1.00  0.00     0.270 C 
HETATM    5  O2  UNL     1      -8.365  47.921 -27.715  1.00  0.00    -0.351 OA
HETATM    6  C19 UNL     1      -7.451  46.754 -31.148  1.00  0.00     0.032 C 
HETATM    7  C23 UNL     1      -7.018  45.374 -31.677  1.00  0.00    -0.066 C 
HETATM    8  C24 UNL     1      -5.763  45.016 -32.057  1.00  0.00    -0.021 C 
HETATM    9  C25 UNL     1      -5.407  43.675 -32.653  1.00  0.00     0.052 C 
HETATM   10  C27 UNL     1      -8.173  44.386 -31.704  1.00  0.00     0.038 C 
HETATM   11  C28 UNL     1      -8.820  44.240 -30.327  1.00  0.00     0.042 C 
HETATM   12  C29 UNL     1      -9.254  45.582 -29.700  1.00  0.00     0.067 C 
HETATM   13  C30 UNL     1      -9.881  45.285 -28.328  1.00  0.00     0.047 C 
ENDROOT
BRANCH   4  14
HETATM   14  O1  UNL     1      -7.663  49.049 -29.565  1.00  0.00    -0.370 OA
HETATM   15  H26 UNL     1      -8.034  49.830 -29.113  1.00  0.00     0.212 HD
ENDBRANCH   4  14
BRANCH   6  16
HETATM   16  C20 UNL     1      -8.351  47.494 -32.178  1.00  0.00     0.012 C 
BRANCH  16  17
HETATM   17  C21 UNL     1      -8.581  46.725 -33.488  1.00  0.00     0.027 C 
BRANCH  17  18
HETATM   18  C22 UNL     1      -7.953  47.351 -34.732  1.00  0.00     0.164 C 
BRANCH  18  19
HETATM   19  O3  UNL     1      -6.598  47.711 -34.509  1.00  0.00    -0.401 OA
HETATM   20  H34 UNL     1      -6.075  46.883 -34.496  1.00  0.00     0.209 HD
ENDBRANCH  18  19
ENDBRANCH  17  18
ENDBRANCH  16  17
ENDBRANCH   6  16
BRANCH  12  21
HETATM   21  O5  UNL     1     -10.320  46.113 -30.504  1.00  0.00    -0.389 OA
HETATM   22  H46 UNL     1     -11.050  45.470 -30.523  1.00  0.00     0.210 HD
ENDBRANCH  12  21
BRANCH   1  23
HETATM   23  C14 UNL     1      -6.197  47.696 -26.759  1.00  0.00     0.011 C 
HETATM   24  C12 UNL     1      -5.092  48.183 -27.363  1.00  0.00    -0.063 C 
HETATM   25  C13 UNL     1      -4.855  48.104 -28.850  1.00  0.00     0.048 C 
BRANCH  24  26
HETATM   26  C11 UNL     1      -4.073  48.834 -26.538  1.00  0.00     0.006 C 
HETATM   27  C10 UNL     1      -2.786  49.034 -26.867  1.00  0.00     0.001 C 
BRANCH  27  28
HETATM   28  C9  UNL     1      -1.844  49.675 -25.973  1.00  0.00     0.002 C 
HETATM   29  C7  UNL     1      -1.041  50.721 -26.260  1.00  0.00    -0.084 C 
HETATM   30  C8  UNL     1      -1.036  51.471 -27.567  1.00  0.00     0.043 C 
BRANCH  29  31
HETATM   31  C6  UNL     1      -0.092  51.255 -25.198  1.00  0.00     0.037 C 
BRANCH  31  32
HETATM   32  C5  UNL     1      -0.768  51.662 -23.881  1.00  0.00     0.031 C 
BRANCH  32  33
HETATM   33  C4  UNL     1       0.048  52.601 -23.035  1.00  0.00    -0.024 C 
HETATM   34  C2  UNL     1       0.456  52.415 -21.764  1.00  0.00    -0.091 C 
HETATM   35  C1  UNL     1       0.126  51.213 -20.924  1.00  0.00     0.042 C 
HETATM   36  C3  UNL     1       1.294  53.453 -21.065  1.00  0.00     0.042 C 
ENDBRANCH  32  33
ENDBRANCH  31  32
ENDBRANCH  29  31
ENDBRANCH  27  28
ENDBRANCH  24  26
ENDBRANCH   1  23
BRANCH   8  37
HETATM   37  C26 UNL     1      -4.580  45.929 -31.929  1.00  0.00     0.265 C 
HETATM   38  O4  UNL     1      -4.542  46.863 -31.135  1.00  0.00    -0.302 OA
ENDBRANCH   8  37
TORSDOF 13
ENDMDL
MODEL 3
REMARK minimizedAffinity -8.34373951
REMARK  13 active torsions:
REMARK  status: ('A' for Active; 'I' for Inactive)
REMARK    1  A    between atoms: C4_4  and  C5_5 
REMARK    2  A    between atoms: C5_5  and  C6_6 
REMARK    3  A    between atoms: C6_6  and  C7_7 
REMARK    4  A    between atoms: C9_9  and  C10_10 
REMARK    5  A    between atoms: C11_11  and  C12_12 
REMARK    6  A    between atoms: C14_14  and  C15_15 
REMARK    7  A    between atoms: C18_18  and  O1_19 
REMARK    8  A    between atoms: C19_21  and  C20_22 
REMARK    9  A    between atoms: C20_22  and  C21_23 
REMARK   10  A    between atoms: C21_23  and  C22_24 
REMARK   11  A    between atoms: C22_24  and  O3_25 
REMARK   12  A    between atoms: C24_27  and  C26_29 
REMARK   13  A    between atoms: C29_33  and  O5_35 
ROOT
HETATM    1  C15 UNL     1      -2.265  50.781 -26.746  1.00  0.00     0.149 C 
HETATM    2  C16 UNL     1      -1.992  50.227 -25.351  1.00  0.00     0.054 C 
HETATM    3  C17 UNL     1      -2.245  51.404 -24.383  1.00  0.00     0.050 C 
HETATM    4  C18 UNL     1      -3.280  52.200 -25.207  1.00  0.00     0.270 C 
HETATM    5  O2  UNL     1      -2.950  52.031 -26.583  1.00  0.00    -0.351 OA
HETATM    6  C19 UNL     1      -2.849  50.854 -23.035  1.00  0.00     0.032 C 
HETATM    7  C23 UNL     1      -1.788  50.058 -22.252  1.00  0.00    -0.066 C 
HETATM    8  C24 UNL     1      -1.878  48.756 -21.873  1.00  0.00    -0.021 C 
HETATM    9  C25 UNL     1      -0.847  48.045 -21.029  1.00  0.00     0.052 C 
HETATM   10  C27 UNL     1      -0.552  50.893 -21.957  1.00  0.00     0.038 C 
HETATM   11  C28 UNL     1       0.060  51.463 -23.236  1.00  0.00     0.042 C 
HETATM   12  C29 UNL     1      -0.944  52.249 -24.107  1.00  0.00     0.067 C 
HETATM   13  C30 UNL     1      -0.198  52.757 -25.351  1.00  0.00     0.047 C 
ENDROOT
BRANCH   4  14
HETATM   14  O1  UNL     1      -4.599  51.685 -25.051  1.00  0.00    -0.370 OA
HETATM   15  H26 UNL     1      -5.132  52.255 -25.636  1.00  0.00     0.212 HD
ENDBRANCH   4  14
BRANCH   6  16
HETATM   16  C20 UNL     1      -3.519  51.933 -22.137  1.00  0.00     0.012 C 
BRANCH  16  17
HETATM   17  C21 UNL     1      -4.711  51.421 -21.314  1.00  0.00     0.027 C 
BRANCH  17  18
HETATM   18  C22 UNL     1      -5.604  50.404 -22.020  1.00  0.00     0.164 C 
BRANCH  18  19
HETATM   19  O3  UNL     1      -6.554  51.037 -22.865  1.00  0.00    -0.401 OA
HETATM   20  H34 UNL     1      -6.071  51.363 -23.652  1.00  0.00     0.209 HD
ENDBRANCH  18  19
ENDBRANCH  17  18
ENDBRANCH  16  17
ENDBRANCH   6  16
BRANCH  12  21
HETATM   21  O5  UNL     1      -1.324  53.426 -23.377  1.00  0.00    -0.389 OA
HETATM   22  H46 UNL     1      -0.526  53.948 -23.185  1.00  0.00     0.210 HD
ENDBRANCH  12  21
BRANCH   1  23
HETATM   23  C14 UNL     1      -3.125  49.879 -27.584  1.00  0.00     0.011 C 
HETATM   24  C12 UNL     1      -3.863  48.827 -27.169  1.00  0.00    -0.063 C 
HETATM   25  C13 UNL     1      -3.977  48.410 -25.725  1.00  0.00     0.048 C 
BRANCH  24  26
HETATM   26  C11 UNL     1      -4.604  48.055 -28.168  1.00  0.00     0.006 C 
HETATM   27  C10 UNL     1      -5.885  47.659 -28.084  1.00  0.00     0.001 C 
BRANCH  27  28
HETATM   28  C9  UNL     1      -6.529  46.879 -29.121  1.00  0.00     0.002 C 
HETATM   29  C7  UNL     1      -7.422  45.883 -28.944  1.00  0.00    -0.084 C 
HETATM   30  C8  UNL     1      -7.975  45.446 -27.613  1.00  0.00     0.043 C 
BRANCH  29  31
HETATM   31  C6  UNL     1      -7.984  45.152 -30.156  1.00  0.00     0.037 C 
BRANCH  31  32
HETATM   32  C5  UNL     1      -7.318  45.520 -31.490  1.00  0.00     0.031 C 
BRANCH  32  33
HETATM   33  C4  UNL     1      -6.383  44.467 -32.021  1.00  0.00    -0.024 C 
HETATM   34  C2  UNL     1      -5.066  44.595 -32.276  1.00  0.00    -0.091 C 
HETATM   35  C1  UNL     1      -4.277  45.864 -32.106  1.00  0.00     0.042 C 
HETATM   36  C3  UNL     1      -4.264  43.427 -32.785  1.00  0.00     0.042 C 
ENDBRANCH  32  33
ENDBRANCH  31  32
ENDBRANCH  29  31
ENDBRANCH  27  28
ENDBRANCH  24  26
ENDBRANCH   1  23
BRANCH   8  37
HETATM   37  C26 UNL     1      -3.029  47.873 -22.252  1.00  0.00     0.265 C 
HETATM   38  O4  UNL     1      -3.476  47.005 -21.509  1.00  0.00    -0.302 OA
ENDBRANCH   8  37
TORSDOF 13
ENDMDL
MODEL 4
REMARK minimizedAffinity -8.24342251
REMARK  13 active torsions:
REMARK  status: ('A' for Active; 'I' for Inactive)
REMARK    1  A    between atoms: C4_4  and  C5_5 
REMARK    2  A    between atoms: C5_5  and  C6_6 
REMARK    3  A    between atoms: C6_6  and  C7_7 
REMARK    4  A    between atoms: C9_9  and  C10_10 
REMARK    5  A    between atoms: C11_11  and  C12_12 
REMARK    6  A    between atoms: C14_14  and  C15_15 
REMARK    7  A    between atoms: C18_18  and  O1_19 
REMARK    8  A    between atoms: C19_21  and  C20_22 
REMARK    9  A    between atoms: C20_22  and  C21_23 
REMARK   10  A    between atoms: C21_23  and  C22_24 
REMARK   11  A    between atoms: C22_24  and  O3_25 
REMARK   12  A    between atoms: C24_27  and  C26_29 
REMARK   13  A    between atoms: C29_33  and  O5_35 
ROOT
HETATM    1  C15 UNL     1      -7.185  47.026 -26.888  1.00  0.00     0.149 C 
HETATM    2  C16 UNL     1      -6.824  46.410 -28.237  1.00  0.00     0.054 C 
HETATM    3  C17 UNL     1      -8.087  46.567 -29.112  1.00  0.00     0.050 C 
HETATM    4  C18 UNL     1      -8.699  47.826 -28.462  1.00  0.00     0.270 C 
HETATM    5  O2  UNL     1      -8.391  47.780 -27.072  1.00  0.00    -0.351 OA
HETATM    6  C19 UNL     1      -7.660  46.814 -30.609  1.00  0.00     0.032 C 
HETATM    7  C23 UNL     1      -7.044  45.539 -31.214  1.00  0.00    -0.066 C 
HETATM    8  C24 UNL     1      -5.795  45.418 -31.734  1.00  0.00    -0.021 C 
HETATM    9  C25 UNL     1      -5.268  44.167 -32.396  1.00  0.00     0.052 C 
HETATM   10  C27 UNL     1      -7.998  44.356 -31.141  1.00  0.00     0.038 C 
HETATM   11  C28 UNL     1      -8.453  44.088 -29.708  1.00  0.00     0.042 C 
HETATM   12  C29 UNL     1      -9.053  45.326 -29.006  1.00  0.00     0.067 C 
HETATM   13  C30 UNL     1      -9.461  44.914 -27.582  1.00  0.00     0.047 C 
ENDROOT
BRANCH   4  14
HETATM   14  O1  UNL     1      -8.111  49.024 -28.958  1.00  0.00    -0.370 OA
HETATM   15  H26 UNL     1      -8.566  49.723 -28.451  1.00  0.00     0.212 HD
ENDBRANCH   4  14
BRANCH   6  16
HETATM   16  C20 UNL     1      -8.787  47.381 -31.519  1.00  0.00     0.012 C 
BRANCH  16  17
HETATM   17  C21 UNL     1      -8.282  48.161 -32.743  1.00  0.00     0.027 C 
BRANCH  17  18
HETATM   18  C22 UNL     1      -8.192  47.358 -34.039  1.00  0.00     0.164 C 
BRANCH  18  19
HETATM   19  O3  UNL     1      -6.990  47.633 -34.743  1.00  0.00    -0.401 OA
HETATM   20  H34 UNL     1      -6.262  47.192 -34.260  1.00  0.00     0.209 HD
ENDBRANCH  18  19
ENDBRANCH  17  18
ENDBRANCH  16  17
ENDBRANCH   6  16
BRANCH  12  21
HETATM   21  O5  UNL     1     -10.278  45.657 -29.679  1.00  0.00    -0.389 OA
HETATM   22  H46 UNL     1     -10.877  44.891 -29.635  1.00  0.00     0.210 HD
ENDBRANCH  12  21
BRANCH   1  23
HETATM   23  C14 UNL     1      -6.127  47.951 -26.358  1.00  0.00     0.011 C 
HETATM   24  C12 UNL     1      -5.812  48.188 -25.067  1.00  0.00    -0.063 C 
HETATM   25  C13 UNL     1      -6.476  47.488 -23.908  1.00  0.00     0.048 C 
BRANCH  24  26
HETATM   26  C11 UNL     1      -4.763  49.164 -24.770  1.00  0.00     0.006 C 
HETATM   27  C10 UNL     1      -3.615  48.929 -24.113  1.00  0.00     0.001 C 
BRANCH  27  28
HETATM   28  C9  UNL     1      -2.640  49.969 -23.850  1.00  0.00     0.002 C 
HETATM   29  C7  UNL     1      -1.769  50.016 -22.821  1.00  0.00    -0.084 C 
HETATM   30  C8  UNL     1      -1.598  48.937 -21.784  1.00  0.00     0.043 C 
BRANCH  29  31
HETATM   31  C6  UNL     1      -0.826  51.203 -22.688  1.00  0.00     0.037 C 
BRANCH  31  32
HETATM   32  C5  UNL     1      -0.779  52.124 -23.916  1.00  0.00     0.031 C 
BRANCH  32  33
HETATM   33  C4  UNL     1       0.518  52.070 -24.677  1.00  0.00    -0.024 C 
HETATM   34  C2  UNL     1       0.749  51.469 -25.861  1.00  0.00    -0.091 C 
HETATM   35  C1  UNL     1      -0.272  50.688 -26.641  1.00  0.00     0.042 C 
HETATM   36  C3  UNL     1       2.110  51.530 -26.502  1.00  0.00     0.042 C 
ENDBRANCH  32  33
ENDBRANCH  31  32
ENDBRANCH  29  31
ENDBRANCH  27  28
ENDBRANCH  24  26
ENDBRANCH   1  23
BRANCH   8  37
HETATM   37  C26 UNL     1      -4.790  46.530 -31.711  1.00  0.00     0.265 C 
HETATM   38  O4  UNL     1      -3.604  46.363 -31.974  1.00  0.00    -0.302 OA
ENDBRANCH   8  37
TORSDOF 13
ENDMDL
MODEL 5
REMARK minimizedAffinity -8.15533447
REMARK  13 active torsions:
REMARK  status: ('A' for Active; 'I' for Inactive)
REMARK    1  A    between atoms: C4_4  and  C5_5 
REMARK    2  A    between atoms: C5_5  and  C6_6 
REMARK    3  A    between atoms: C6_6  and  C7_7 
REMARK    4  A    between atoms: C9_9  and  C10_10 
REMARK    5  A    between atoms: C11_11  and  C12_12 
REMARK    6  A    between atoms: C14_14  and  C15_15 
REMARK    7  A    between atoms: C18_18  and  O1_19 
REMARK    8  A    between atoms: C19_21  and  C20_22 
REMARK    9  A    between atoms: C20_22  and  C21_23 
REMARK   10  A    between atoms: C21_23  and  C22_24 
REMARK   11  A    between atoms: C22_24  and  O3_25 
REMARK   12  A    between atoms: C24_27  and  C26_29 
REMARK   13  A    between atoms: C29_33  and  O5_35 
ROOT
HETATM    1  C15 UNL     1       0.716  50.156 -16.181  1.00  0.00     0.149 C 
HETATM    2  C16 UNL     1      -0.306  50.347 -15.064  1.00  0.00     0.054 C 
HETATM    3  C17 UNL     1       0.476  50.985 -13.896  1.00  0.00     0.050 C 
HETATM    4  C18 UNL     1       1.578  51.719 -14.690  1.00  0.00     0.270 C 
HETATM    5  O2  UNL     1       1.875  50.926 -15.836  1.00  0.00    -0.351 OA
HETATM    6  C19 UNL     1      -0.465  51.983 -13.118  1.00  0.00     0.032 C 
HETATM    7  C23 UNL     1      -1.555  51.212 -12.351  1.00  0.00    -0.066 C 
HETATM    8  C24 UNL     1      -2.898  51.350 -12.505  1.00  0.00    -0.021 C 
HETATM    9  C25 UNL     1      -3.927  50.633 -11.665  1.00  0.00     0.052 C 
HETATM   10  C27 UNL     1      -0.962  50.203 -11.379  1.00  0.00     0.038 C 
HETATM   11  C28 UNL     1      -0.027  49.223 -12.087  1.00  0.00     0.042 C 
HETATM   12  C29 UNL     1       1.080  49.910 -12.915  1.00  0.00     0.067 C 
HETATM   13  C30 UNL     1       1.936  48.812 -13.568  1.00  0.00     0.047 C 
ENDROOT
BRANCH   4  14
HETATM   14  O1  UNL     1       1.134  52.978 -15.184  1.00  0.00    -0.370 OA
HETATM   15  H26 UNL     1       1.907  53.310 -15.678  1.00  0.00     0.212 HD
ENDBRANCH   4  14
BRANCH   6  16
HETATM   16  C20 UNL     1       0.279  52.982 -12.187  1.00  0.00     0.012 C 
BRANCH  16  17
HETATM   17  C21 UNL     1      -0.553  53.474 -10.991  1.00  0.00     0.027 C 
BRANCH  17  18
HETATM   18  C22 UNL     1      -0.310  54.925 -10.580  1.00  0.00     0.164 C 
BRANCH  18  19
HETATM   19  O3  UNL     1      -1.511  55.681 -10.593  1.00  0.00    -0.401 OA
HETATM   20  H34 UNL     1      -2.037  55.405  -9.814  1.00  0.00     0.209 HD
ENDBRANCH  18  19
ENDBRANCH  17  18
ENDBRANCH  16  17
ENDBRANCH   6  16
BRANCH  12  21
HETATM   21  O5  UNL     1       1.954  50.586 -11.996  1.00  0.00    -0.389 OA
HETATM   22  H46 UNL     1       2.320  49.934 -11.374  1.00  0.00     0.210 HD
ENDBRANCH  12  21
BRANCH   1  23
HETATM   23  C14 UNL     1       0.223  50.621 -17.522  1.00  0.00     0.011 C 
HETATM   24  C12 UNL     1      -0.614  49.975 -18.361  1.00  0.00    -0.063 C 
HETATM   25  C13 UNL     1      -1.246  48.644 -18.041  1.00  0.00     0.048 C 
BRANCH  24  26
HETATM   26  C11 UNL     1      -0.938  50.599 -19.645  1.00  0.00     0.006 C 
HETATM   27  C10 UNL     1      -0.414  50.284 -20.841  1.00  0.00     0.001 C 
BRANCH  27  28
HETATM   28  C9  UNL     1      -0.786  50.974 -22.060  1.00  0.00     0.002 C 
HETATM   29  C7  UNL     1      -0.206  52.080 -22.571  1.00  0.00    -0.084 C 
HETATM   30  C8  UNL     1       1.005  52.765 -21.992  1.00  0.00     0.043 C 
BRANCH  29  31
HETATM   31  C6  UNL     1      -0.744  52.685 -23.859  1.00  0.00     0.037 C 
BRANCH  31  32
HETATM   32  C5  UNL     1       0.318  53.344 -24.750  1.00  0.00     0.031 C 
BRANCH  32  33
HETATM   33  C4  UNL     1       0.258  52.923 -26.194  1.00  0.00    -0.024 C 
HETATM   34  C2  UNL     1       1.085  52.074 -26.834  1.00  0.00    -0.091 C 
HETATM   35  C1  UNL     1       2.278  51.403 -26.212  1.00  0.00     0.042 C 
HETATM   36  C3  UNL     1       0.869  51.737 -28.286  1.00  0.00     0.042 C 
ENDBRANCH  32  33
ENDBRANCH  31  32
ENDBRANCH  29  31
ENDBRANCH  27  28
ENDBRANCH  24  26
ENDBRANCH   1  23
BRANCH   8  37
HETATM   37  C26 UNL     1      -3.512  52.247 -13.538  1.00  0.00     0.265 C 
HETATM   38  O4  UNL     1      -3.561  51.957 -14.729  1.00  0.00    -0.302 OA
ENDBRANCH   8  37
TORSDOF 13
ENDMDL
MODEL 6
REMARK minimizedAffinity -8.10848904
REMARK  13 active torsions:
REMARK  status: ('A' for Active; 'I' for Inactive)
REMARK    1  A    between atoms: C4_4  and  C5_5 
REMARK    2  A    between atoms: C5_5  and  C6_6 
REMARK    3  A    between atoms: C6_6  and  C7_7 
REMARK    4  A    between atoms: C9_9  and  C10_10 
REMARK    5  A    between atoms: C11_11  and  C12_12 
REMARK    6  A    between atoms: C14_14  and  C15_15 
REMARK    7  A    between atoms: C18_18  and  O1_19 
REMARK    8  A    between atoms: C19_21  and  C20_22 
REMARK    9  A    between atoms: C20_22  and  C21_23 
REMARK   10  A    between atoms: C21_23  and  C22_24 
REMARK   11  A    between atoms: C22_24  and  O3_25 
REMARK   12  A    between atoms: C24_27  and  C26_29 
REMARK   13  A    between atoms: C29_33  and  O5_35 
ROOT
HETATM    1  C15 UNL     1      -7.584  47.051 -27.665  1.00  0.00     0.149 C 
HETATM    2  C16 UNL     1      -7.217  46.282 -28.931  1.00  0.00     0.054 C 
HETATM    3  C17 UNL     1      -8.245  46.725 -29.995  1.00  0.00     0.050 C 
HETATM    4  C18 UNL     1      -8.570  48.140 -29.468  1.00  0.00     0.270 C 
HETATM    5  O2  UNL     1      -8.493  48.093 -28.046  1.00  0.00    -0.351 OA
HETATM    6  C19 UNL     1      -7.552  46.758 -31.410  1.00  0.00     0.032 C 
HETATM    7  C23 UNL     1      -7.235  45.330 -31.891  1.00  0.00    -0.066 C 
HETATM    8  C24 UNL     1      -6.006  44.842 -32.207  1.00  0.00    -0.021 C 
HETATM    9  C25 UNL     1      -5.759  43.458 -32.759  1.00  0.00     0.052 C 
HETATM   10  C27 UNL     1      -8.480  44.458 -31.949  1.00  0.00     0.038 C 
HETATM   11  C28 UNL     1      -9.196  44.410 -30.600  1.00  0.00     0.042 C 
HETATM   12  C29 UNL     1      -9.522  45.803 -30.020  1.00  0.00     0.067 C 
HETATM   13  C30 UNL     1     -10.232  45.603 -28.672  1.00  0.00     0.047 C 
ENDROOT
BRANCH   4  14
HETATM   14  O1  UNL     1      -7.605  49.101 -29.886  1.00  0.00    -0.370 OA
HETATM   15  H26 UNL     1      -7.916  49.926 -29.467  1.00  0.00     0.212 HD
ENDBRANCH   4  14
BRANCH   6  16
HETATM   16  C20 UNL     1      -8.331  47.556 -32.494  1.00  0.00     0.012 C 
BRANCH  16  17
HETATM   17  C21 UNL     1      -8.446  46.841 -33.849  1.00  0.00     0.027 C 
BRANCH  17  18
HETATM   18  C22 UNL     1      -7.724  47.521 -35.011  1.00  0.00     0.164 C 
BRANCH  18  19
HETATM   19  O3  UNL     1      -6.351  47.736 -34.720  1.00  0.00    -0.401 OA
HETATM   20  H34 UNL     1      -5.903  46.866 -34.772  1.00  0.00     0.209 HD
ENDBRANCH  18  19
ENDBRANCH  17  18
ENDBRANCH  16  17
ENDBRANCH   6  16
BRANCH  12  21
HETATM   21  O5  UNL     1     -10.495  46.416 -30.883  1.00  0.00    -0.389 OA
HETATM   22  H46 UNL     1     -11.283  45.846 -30.920  1.00  0.00     0.210 HD
ENDBRANCH  12  21
BRANCH   1  23
HETATM   23  C14 UNL     1      -6.399  47.682 -26.991  1.00  0.00     0.011 C 
HETATM   24  C12 UNL     1      -5.221  48.028 -27.551  1.00  0.00    -0.063 C 
HETATM   25  C13 UNL     1      -4.921  47.868 -29.020  1.00  0.00     0.048 C 
BRANCH  24  26
HETATM   26  C11 UNL     1      -4.181  48.601 -26.695  1.00  0.00     0.006 C 
HETATM   27  C10 UNL     1      -4.056  48.434 -25.368  1.00  0.00     0.001 C 
BRANCH  27  28
HETATM   28  C9  UNL     1      -2.998  49.059 -24.600  1.00  0.00     0.002 C 
HETATM   29  C7  UNL     1      -2.777  48.929 -23.276  1.00  0.00    -0.084 C 
HETATM   30  C8  UNL     1      -3.562  48.033 -22.354  1.00  0.00     0.043 C 
BRANCH  29  31
HETATM   31  C6  UNL     1      -1.623  49.682 -22.628  1.00  0.00     0.037 C 
BRANCH  31  32
HETATM   32  C5  UNL     1      -1.549  51.173 -22.988  1.00  0.00     0.031 C 
BRANCH  32  33
HETATM   33  C4  UNL     1      -0.602  51.966 -22.129  1.00  0.00    -0.024 C 
HETATM   34  C2  UNL     1       0.340  52.838 -22.539  1.00  0.00    -0.091 C 
HETATM   35  C1  UNL     1       0.648  53.158 -23.975  1.00  0.00     0.042 C 
HETATM   36  C3  UNL     1       1.195  53.573 -21.540  1.00  0.00     0.042 C 
ENDBRANCH  32  33
ENDBRANCH  31  32
ENDBRANCH  29  31
ENDBRANCH  27  28
ENDBRANCH  24  26
ENDBRANCH   1  23
BRANCH   8  37
HETATM   37  C26 UNL     1      -4.746  45.638 -32.045  1.00  0.00     0.265 C 
HETATM   38  O4  UNL     1      -4.376  46.473 -32.864  1.00  0.00    -0.302 OA
ENDBRANCH   8  37
TORSDOF 13
ENDMDL
MODEL 7
REMARK minimizedAffinity -8.08772087
REMARK  13 active torsions:
REMARK  status: ('A' for Active; 'I' for Inactive)
REMARK    1  A    between atoms: C4_4  and  C5_5 
REMARK    2  A    between atoms: C5_5  and  C6_6 
REMARK    3  A    between atoms: C6_6  and  C7_7 
REMARK    4  A    between atoms: C9_9  and  C10_10 
REMARK    5  A    between atoms: C11_11  and  C12_12 
REMARK    6  A    between atoms: C14_14  and  C15_15 
REMARK    7  A    between atoms: C18_18  and  O1_19 
REMARK    8  A    between atoms: C19_21  and  C20_22 
REMARK    9  A    between atoms: C20_22  and  C21_23 
REMARK   10  A    between atoms: C21_23  and  C22_24 
REMARK   11  A    between atoms: C22_24  and  O3_25 
REMARK   12  A    between atoms: C24_27  and  C26_29 
REMARK   13  A    between atoms: C29_33  and  O5_35 
ROOT
HETATM    1  C15 UNL     1      -2.492  50.721 -26.649  1.00  0.00     0.149 C 
HETATM    2  C16 UNL     1      -2.188  50.144 -25.269  1.00  0.00     0.054 C 
HETATM    3  C17 UNL     1      -2.524  51.271 -24.268  1.00  0.00     0.050 C 
HETATM    4  C18 UNL     1      -3.607  52.020 -25.074  1.00  0.00     0.270 C 
HETATM    5  O2  UNL     1      -3.260  51.917 -26.452  1.00  0.00    -0.351 OA
HETATM    6  C19 UNL     1      -3.096  50.640 -22.942  1.00  0.00     0.032 C 
HETATM    7  C23 UNL     1      -1.988  49.893 -22.176  1.00  0.00    -0.066 C 
HETATM    8  C24 UNL     1      -1.991  48.577 -21.837  1.00  0.00    -0.021 C 
HETATM    9  C25 UNL     1      -0.919  47.911 -21.009  1.00  0.00     0.052 C 
HETATM   10  C27 UNL     1      -0.811  50.800 -21.848  1.00  0.00     0.038 C 
HETATM   11  C28 UNL     1      -0.234  51.448 -23.105  1.00  0.00     0.042 C 
HETATM   12  C29 UNL     1      -1.284  52.192 -23.958  1.00  0.00     0.067 C 
HETATM   13  C30 UNL     1      -0.568  52.787 -25.182  1.00  0.00     0.047 C 
ENDROOT
BRANCH   4  14
HETATM   14  O1  UNL     1      -4.889  51.414 -24.942  1.00  0.00    -0.370 OA
HETATM   15  H26 UNL     1      -5.457  51.964 -25.513  1.00  0.00     0.212 HD
ENDBRANCH   4  14
BRANCH   6  16
HETATM   16  C20 UNL     1      -3.841  51.643 -22.015  1.00  0.00     0.012 C 
BRANCH  16  17
HETATM   17  C21 UNL     1      -4.854  50.993 -21.060  1.00  0.00     0.027 C 
BRANCH  17  18
HETATM   18  C22 UNL     1      -5.998  50.241 -21.736  1.00  0.00     0.164 C 
BRANCH  18  19
HETATM   19  O3  UNL     1      -6.634  51.034 -22.727  1.00  0.00    -0.401 OA
HETATM   20  H34 UNL     1      -6.029  51.080 -23.496  1.00  0.00     0.209 HD
ENDBRANCH  18  19
ENDBRANCH  17  18
ENDBRANCH  16  17
ENDBRANCH   6  16
BRANCH  12  21
HETATM   21  O5  UNL     1      -1.746  53.318 -23.195  1.00  0.00    -0.389 OA
HETATM   22  H46 UNL     1      -0.985  53.886 -22.982  1.00  0.00     0.210 HD
ENDBRANCH  12  21
BRANCH   1  23
HETATM   23  C14 UNL     1      -3.286  49.789 -27.519  1.00  0.00     0.011 C 
HETATM   24  C12 UNL     1      -4.057  48.753 -27.127  1.00  0.00    -0.063 C 
HETATM   25  C13 UNL     1      -4.285  48.387 -25.683  1.00  0.00     0.048 C 
BRANCH  24  26
HETATM   26  C11 UNL     1      -4.719  47.946 -28.153  1.00  0.00     0.006 C 
HETATM   27  C10 UNL     1      -6.011  47.578 -28.172  1.00  0.00     0.001 C 
BRANCH  27  28
HETATM   28  C9  UNL     1      -6.573  46.758 -29.226  1.00  0.00     0.002 C 
HETATM   29  C7  UNL     1      -7.373  45.683 -29.072  1.00  0.00    -0.084 C 
HETATM   30  C8  UNL     1      -7.895  45.177 -27.753  1.00  0.00     0.043 C 
BRANCH  29  31
HETATM   31  C6  UNL     1      -7.857  44.924 -30.300  1.00  0.00     0.037 C 
BRANCH  31  32
HETATM   32  C5  UNL     1      -8.726  45.748 -31.261  1.00  0.00     0.031 C 
BRANCH  32  33
HETATM   33  C4  UNL     1     -10.009  46.247 -30.654  1.00  0.00    -0.024 C 
HETATM   34  C2  UNL     1     -10.318  47.516 -30.320  1.00  0.00    -0.091 C 
HETATM   35  C1  UNL     1      -9.393  48.692 -30.464  1.00  0.00     0.042 C 
HETATM   36  C3  UNL     1     -11.667  47.852 -29.741  1.00  0.00     0.042 C 
ENDBRANCH  32  33
ENDBRANCH  31  32
ENDBRANCH  29  31
ENDBRANCH  27  28
ENDBRANCH  24  26
ENDBRANCH   1  23
BRANCH   8  37
HETATM   37  C26 UNL     1      -3.078  47.631 -22.250  1.00  0.00     0.265 C 
HETATM   38  O4  UNL     1      -4.049  47.980 -22.915  1.00  0.00    -0.302 OA
ENDBRANCH   8  37
TORSDOF 13
ENDMDL
MODEL 8
REMARK minimizedAffinity -8.08286285
REMARK  13 active torsions:
REMARK  status: ('A' for Active; 'I' for Inactive)
REMARK    1  A    between atoms: C4_4  and  C5_5 
REMARK    2  A    between atoms: C5_5  and  C6_6 
REMARK    3  A    between atoms: C6_6  and  C7_7 
REMARK    4  A    between atoms: C9_9  and  C10_10 
REMARK    5  A    between atoms: C11_11  and  C12_12 
REMARK    6  A    between atoms: C14_14  and  C15_15 
REMARK    7  A    between atoms: C18_18  and  O1_19 
REMARK    8  A    between atoms: C19_21  and  C20_22 
REMARK    9  A    between atoms: C20_22  and  C21_23 
REMARK   10  A    between atoms: C21_23  and  C22_24 
REMARK   11  A    between atoms: C22_24  and  O3_25 
REMARK   12  A    between atoms: C24_27  and  C26_29 
REMARK   13  A    between atoms: C29_33  and  O5_35 
ROOT
HETATM    1  C15 UNL     1      -7.822  46.988 -25.728  1.00  0.00     0.149 C 
HETATM    2  C16 UNL     1      -7.709  46.256 -27.062  1.00  0.00     0.054 C 
HETATM    3  C17 UNL     1      -9.034  46.543 -27.802  1.00  0.00     0.050 C 
HETATM    4  C18 UNL     1      -9.390  47.909 -27.177  1.00  0.00     0.270 C 
HETATM    5  O2  UNL     1      -8.929  47.894 -25.829  1.00  0.00    -0.351 OA
HETATM    6  C19 UNL     1      -8.757  46.647 -29.350  1.00  0.00     0.032 C 
HETATM    7  C23 UNL     1      -8.394  45.268 -29.930  1.00  0.00    -0.066 C 
HETATM    8  C24 UNL     1      -7.242  44.944 -30.574  1.00  0.00    -0.021 C 
HETATM    9  C25 UNL     1      -6.970  43.598 -31.202  1.00  0.00     0.052 C 
HETATM   10  C27 UNL     1      -9.482  44.237 -29.671  1.00  0.00     0.038 C 
HETATM   11  C28 UNL     1      -9.796  44.113 -28.181  1.00  0.00     0.042 C 
HETATM   12  C29 UNL     1     -10.137  45.458 -27.505  1.00  0.00     0.067 C 
HETATM   13  C30 UNL     1     -10.427  45.185 -26.020  1.00  0.00     0.047 C 
ENDROOT
BRANCH   4  14
HETATM   14  O1  UNL     1      -8.710  48.984 -27.816  1.00  0.00    -0.370 OA
HETATM   15  H26 UNL     1      -9.004  49.766 -27.312  1.00  0.00     0.212 HD
ENDBRANCH   4  14
BRANCH   6  16
HETATM   16  C20 UNL     1      -9.897  47.319 -30.169  1.00  0.00     0.012 C 
BRANCH  16  17
HETATM   17  C21 UNL     1      -9.423  48.055 -31.431  1.00  0.00     0.027 C 
BRANCH  17  18
HETATM   18  C22 UNL     1      -8.375  49.141 -31.199  1.00  0.00     0.164 C 
BRANCH  18  19
HETATM   19  O3  UNL     1      -8.910  50.239 -30.475  1.00  0.00    -0.401 OA
HETATM   20  H34 UNL     1      -9.014  49.951 -29.545  1.00  0.00     0.209 HD
ENDBRANCH  18  19
ENDBRANCH  17  18
ENDBRANCH  16  17
ENDBRANCH   6  16
BRANCH  12  21
HETATM   21  O5  UNL     1     -11.378  45.922 -28.061  1.00  0.00    -0.389 OA
HETATM   22  H46 UNL     1     -12.065  45.252 -27.899  1.00  0.00     0.210 HD
ENDBRANCH  12  21
BRANCH   1  23
HETATM   23  C14 UNL     1      -6.594  47.782 -25.381  1.00  0.00     0.011 C 
HETATM   24  C12 UNL     1      -5.584  48.135 -26.203  1.00  0.00    -0.063 C 
HETATM   25  C13 UNL     1      -5.558  47.810 -27.675  1.00  0.00     0.048 C 
BRANCH  24  26
HETATM   26  C11 UNL     1      -4.457  48.884 -25.645  1.00  0.00     0.006 C 
HETATM   27  C10 UNL     1      -3.181  48.838 -26.062  1.00  0.00     0.001 C 
BRANCH  27  28
HETATM   28  C9  UNL     1      -2.126  49.606 -25.431  1.00  0.00     0.002 C 
HETATM   29  C7  UNL     1      -1.386  50.579 -26.001  1.00  0.00    -0.084 C 
HETATM   30  C8  UNL     1      -1.578  51.103 -27.400  1.00  0.00     0.043 C 
BRANCH  29  31
HETATM   31  C6  UNL     1      -0.298  51.269 -25.189  1.00  0.00     0.037 C 
BRANCH  31  32
HETATM   32  C5  UNL     1      -0.809  52.054 -23.973  1.00  0.00     0.031 C 
BRANCH  32  33
HETATM   33  C4  UNL     1       0.283  52.620 -23.105  1.00  0.00    -0.024 C 
HETATM   34  C2  UNL     1       0.359  52.588 -21.760  1.00  0.00    -0.091 C 
HETATM   35  C1  UNL     1      -0.685  51.996 -20.854  1.00  0.00     0.042 C 
HETATM   36  C3  UNL     1       1.541  53.184 -21.041  1.00  0.00     0.042 C 
ENDBRANCH  32  33
ENDBRANCH  31  32
ENDBRANCH  29  31
ENDBRANCH  27  28
ENDBRANCH  24  26
ENDBRANCH   1  23
BRANCH   8  37
HETATM   37  C26 UNL     1      -6.101  45.903 -30.738  1.00  0.00     0.265 C 
HETATM   38  O4  UNL     1      -5.964  46.612 -31.729  1.00  0.00    -0.302 OA
ENDBRANCH   8  37
TORSDOF 13
ENDMDL
MODEL 9
REMARK minimizedAffinity -7.90330315
REMARK  13 active torsions:
REMARK  status: ('A' for Active; 'I' for Inactive)
REMARK    1  A    between atoms: C4_4  and  C5_5 
REMARK    2  A    between atoms: C5_5  and  C6_6 
REMARK    3  A    between atoms: C6_6  and  C7_7 
REMARK    4  A    between atoms: C9_9  and  C10_10 
REMARK    5  A    between atoms: C11_11  and  C12_12 
REMARK    6  A    between atoms: C14_14  and  C15_15 
REMARK    7  A    between atoms: C18_18  and  O1_19 
REMARK    8  A    between atoms: C19_21  and  C20_22 
REMARK    9  A    between atoms: C20_22  and  C21_23 
REMARK   10  A    between atoms: C21_23  and  C22_24 
REMARK   11  A    between atoms: C22_24  and  O3_25 
REMARK   12  A    between atoms: C24_27  and  C26_29 
REMARK   13  A    between atoms: C29_33  and  O5_35 
ROOT
HETATM    1  C15 UNL     1      -7.656  47.352 -25.271  1.00  0.00     0.149 C 
HETATM    2  C16 UNL     1      -7.549  46.653 -26.623  1.00  0.00     0.054 C 
HETATM    3  C17 UNL     1      -8.937  46.816 -27.282  1.00  0.00     0.050 C 
HETATM    4  C18 UNL     1      -9.389  48.131 -26.612  1.00  0.00     0.270 C 
HETATM    5  O2  UNL     1      -8.851  48.144 -25.293  1.00  0.00    -0.351 OA
HETATM    6  C19 UNL     1      -8.762  46.968 -28.841  1.00  0.00     0.032 C 
HETATM    7  C23 UNL     1      -8.298  45.639 -29.466  1.00  0.00    -0.066 C 
HETATM    8  C24 UNL     1      -7.160  45.440 -30.180  1.00  0.00    -0.021 C 
HETATM    9  C25 UNL     1      -6.793  44.135 -30.847  1.00  0.00     0.052 C 
HETATM   10  C27 UNL     1      -9.263  44.501 -29.166  1.00  0.00     0.038 C 
HETATM   11  C28 UNL     1      -9.477  44.327 -27.663  1.00  0.00     0.042 C 
HETATM   12  C29 UNL     1      -9.909  45.623 -26.943  1.00  0.00     0.067 C 
HETATM   13  C30 UNL     1     -10.083  45.302 -25.450  1.00  0.00     0.047 C 
ENDROOT
BRANCH   4  14
HETATM   14  O1  UNL     1      -8.856  49.277 -27.268  1.00  0.00    -0.370 OA
HETATM   15  H26 UNL     1      -9.196  50.019 -26.733  1.00  0.00     0.212 HD
ENDBRANCH   4  14
BRANCH   6  16
HETATM   16  C20 UNL     1     -10.008  47.533 -29.581  1.00  0.00     0.012 C 
BRANCH  16  17
HETATM   17  C21 UNL     1      -9.724  48.048 -31.000  1.00  0.00     0.027 C 
BRANCH  17  18
HETATM   18  C22 UNL     1      -8.658  49.138 -31.098  1.00  0.00     0.164 C 
BRANCH  18  19
HETATM   19  O3  UNL     1      -8.961  50.243 -30.260  1.00  0.00    -0.401 OA
HETATM   20  H34 UNL     1      -8.785  49.965 -29.337  1.00  0.00     0.209 HD
ENDBRANCH  18  19
ENDBRANCH  17  18
ENDBRANCH  16  17
ENDBRANCH   6  16
BRANCH  12  21
HETATM   21  O5  UNL     1     -11.220  45.968 -27.420  1.00  0.00    -0.389 OA
HETATM   22  H46 UNL     1     -11.826  45.231 -27.232  1.00  0.00     0.210 HD
ENDBRANCH  12  21
BRANCH   1  23
HETATM   23  C14 UNL     1      -6.495  48.259 -24.980  1.00  0.00     0.011 C 
HETATM   24  C12 UNL     1      -5.704  48.258 -23.886  1.00  0.00    -0.063 C 
HETATM   25  C13 UNL     1      -5.846  47.267 -22.758  1.00  0.00     0.048 C 
BRANCH  24  26
HETATM   26  C11 UNL     1      -4.643  49.262 -23.789  1.00  0.00     0.006 C 
HETATM   27  C10 UNL     1      -3.321  49.037 -23.856  1.00  0.00     0.001 C 
BRANCH  27  28
HETATM   28  C9  UNL     1      -2.341  50.098 -23.730  1.00  0.00     0.002 C 
HETATM   29  C7  UNL     1      -2.496  51.386 -24.098  1.00  0.00    -0.084 C 
HETATM   30  C8  UNL     1      -3.767  51.981 -24.648  1.00  0.00     0.043 C 
BRANCH  29  31
HETATM   31  C6  UNL     1      -1.345  52.365 -23.911  1.00  0.00     0.037 C 
BRANCH  31  32
HETATM   32  C5  UNL     1      -0.010  51.907 -24.515  1.00  0.00     0.031 C 
BRANCH  32  33
HETATM   33  C4  UNL     1       0.028  51.944 -26.019  1.00  0.00    -0.024 C 
HETATM   34  C2  UNL     1       1.079  51.673 -26.818  1.00  0.00    -0.091 C 
HETATM   35  C1  UNL     1       2.455  51.308 -26.335  1.00  0.00     0.042 C 
HETATM   36  C3  UNL     1       0.941  51.733 -28.317  1.00  0.00     0.042 C 
ENDBRANCH  32  33
ENDBRANCH  31  32
ENDBRANCH  29  31
ENDBRANCH  27  28
ENDBRANCH  24  26
ENDBRANCH   1  23
BRANCH   8  37
HETATM   37  C26 UNL     1      -6.131  46.510 -30.390  1.00  0.00     0.265 C 
HETATM   38  O4  UNL     1      -5.634  47.147 -29.467  1.00  0.00    -0.302 OA
ENDBRANCH   8  37
TORSDOF 13
ENDMDL
