MODEL 1
REMARK minimizedAffinity -7.56583738
REMARK CNNscore 0.850287139
REMARK CNNaffinity 7.40055418
REMARK  7 active torsions:
REMARK  status: ('A' for Active; 'I' for Inactive)
REMARK    1  A    between atoms: C2_2  and  O2_4 
REMARK    2  A    between atoms: O2_4  and  C3_5 
REMARK    3  A    between atoms: C3_5  and  C4_6 
REMARK    4  A    between atoms: C3_5  and  C9_12 
REMARK    5  A    between atoms: C5_7  and  C6_8 
REMARK    6  A    between atoms: C6_8  and  O3_11 
REMARK    7  A    between atoms: C9_12  and  C11_14 
ROOT
HETATM    1  C11 UNL     1       2.462  53.461 -10.807  1.00  0.00     0.001 C 
HETATM    2  C12 UNL     1       1.482  54.671 -10.756  1.00  0.00     0.007 C 
HETATM    3  C13 UNL     1       2.043  55.697  -9.755  1.00  0.00     0.015 C 
HETATM    4  C14 UNL     1       3.498  55.264  -9.525  1.00  0.00    -0.013 C 
HETATM    5  C15 UNL     1       4.339  55.843 -10.706  1.00  0.00     0.021 C 
HETATM    6  C16 UNL     1       4.219  55.730  -8.262  1.00  0.00    -0.068 C 
HETATM    7  C17 UNL     1       5.217  54.976  -7.732  1.00  0.00    -0.068 C 
HETATM    8  C18 UNL     1       5.575  53.602  -8.322  1.00  0.00     0.036 C 
HETATM    9  C19 UNL     1       4.746  53.102  -9.523  1.00  0.00     0.015 C 
HETATM   10  C20 UNL     1       3.331  53.695  -9.523  1.00  0.00    -0.029 C 
HETATM   11  C21 UNL     1       2.558  53.168  -8.271  1.00  0.00     0.016 C 
HETATM   12  C22 UNL     1       6.035  55.436  -6.491  1.00  0.00    -0.015 C 
HETATM   13  C23 UNL     1       5.554  54.582  -5.292  1.00  0.00     0.020 C 
HETATM   14  C24 UNL     1       7.555  55.182  -6.721  1.00  0.00     0.021 C 
HETATM   15  C25 UNL     1       8.506  56.052  -5.903  1.00  0.00     0.080 C 
HETATM   16  C26 UNL     1       7.851  56.702  -4.710  1.00  0.00     0.135 C 
HETATM   17  O4  UNL     1       8.367  56.622  -3.595  1.00  0.00    -0.297 OA
HETATM   18  C27 UNL     1       6.590  57.531  -4.974  1.00  0.00     0.018 C 
HETATM   19  C28 UNL     1       5.717  57.555  -3.703  1.00  0.00     0.023 C 
HETATM   20  C29 UNL     1       7.060  58.980  -5.235  1.00  0.00     0.023 C 
HETATM   21  C30 UNL     1       5.858  56.980  -6.246  1.00  0.00     0.013 C 
HETATM   22  C31 UNL     1       4.381  57.381  -6.326  1.00  0.00     0.011 C 
HETATM   23  C32 UNL     1       3.806  57.069  -7.703  1.00  0.00     0.036 C 
ENDROOT
BRANCH   1  24
HETATM   24  C9  UNL     1       1.732  52.090 -11.004  1.00  0.00     0.020 C 
HETATM   25  C10 UNL     1       1.806  51.221  -9.735  1.00  0.00     0.013 C 
BRANCH  24  26
HETATM   26  C3  UNL     1       2.271  51.218 -12.190  1.00  0.00     0.158 C 
BRANCH  26  27
HETATM   27  O2  UNL     1       3.582  50.711 -11.865  1.00  0.00    -0.312 OA
BRANCH  27  28
HETATM   28  C2  UNL     1       4.005  49.616 -12.554  1.00  0.00     0.255 C 
HETATM   29  C1  UNL     1       3.032  48.491 -12.372  1.00  0.00     0.126 C 
HETATM   30  O1  UNL     1       5.004  49.548 -13.254  1.00  0.00    -0.266 OA
ENDBRANCH  27  28
ENDBRANCH  26  27
BRANCH  26  31
HETATM   31  C4  UNL     1       2.408  51.938 -13.508  1.00  0.00     0.005 C 
HETATM   32  C5  UNL     1       1.805  51.542 -14.644  1.00  0.00     0.008 C 
BRANCH  32  33
HETATM   33  C6  UNL     1       1.890  52.192 -16.006  1.00  0.00     0.068 C 
HETATM   34  C7  UNL     1       1.076  51.381 -17.018  1.00  0.00     0.050 C 
HETATM   35  C8  UNL     1       3.307  52.420 -16.545  1.00  0.00     0.050 C 
BRANCH  33  36
HETATM   36  O3  UNL     1       1.260  53.468 -15.881  1.00  0.00    -0.387 OA
HETATM   37  H13 UNL     1       1.743  53.953 -15.188  1.00  0.00     0.211 HD
ENDBRANCH  33  36
ENDBRANCH  32  33
ENDBRANCH  26  31
ENDBRANCH  24  26
ENDBRANCH   1  24
TORSDOF 7
ENDMDL
MODEL 2
REMARK minimizedAffinity -7.29481077
REMARK CNNscore 0.802054524
REMARK CNNaffinity 7.43710136
REMARK  7 active torsions:
REMARK  status: ('A' for Active; 'I' for Inactive)
REMARK    1  A    between atoms: C2_2  and  O2_4 
REMARK    2  A    between atoms: O2_4  and  C3_5 
REMARK    3  A    between atoms: C3_5  and  C4_6 
REMARK    4  A    between atoms: C3_5  and  C9_12 
REMARK    5  A    between atoms: C5_7  and  C6_8 
REMARK    6  A    between atoms: C6_8  and  O3_11 
REMARK    7  A    between atoms: C9_12  and  C11_14 
ROOT
HETATM    1  C11 UNL     1       4.751  56.013  -8.152  1.00  0.00     0.001 C 
HETATM    2  C12 UNL     1       5.624  55.139  -9.103  1.00  0.00     0.007 C 
HETATM    3  C13 UNL     1       4.678  54.306  -9.987  1.00  0.00     0.015 C 
HETATM    4  C14 UNL     1       3.302  54.965  -9.817  1.00  0.00    -0.013 C 
HETATM    5  C15 UNL     1       3.258  56.186 -10.788  1.00  0.00     0.021 C 
HETATM    6  C16 UNL     1       2.048  54.157 -10.143  1.00  0.00    -0.068 C 
HETATM    7  C17 UNL     1       0.877  54.433  -9.512  1.00  0.00    -0.068 C 
HETATM    8  C18 UNL     1       0.807  55.485  -8.393  1.00  0.00     0.036 C 
HETATM    9  C19 UNL     1       2.117  56.199  -8.000  1.00  0.00     0.015 C 
HETATM   10  C20 UNL     1       3.347  55.326  -8.282  1.00  0.00    -0.029 C 
HETATM   11  C21 UNL     1       3.299  54.065  -7.360  1.00  0.00     0.016 C 
HETATM   12  C22 UNL     1      -0.446  53.693  -9.857  1.00  0.00    -0.015 C 
HETATM   13  C23 UNL     1      -0.732  52.714  -8.691  1.00  0.00     0.020 C 
HETATM   14  C24 UNL     1      -1.621  54.710  -9.968  1.00  0.00     0.021 C 
HETATM   15  C25 UNL     1      -2.808  54.266 -10.820  1.00  0.00     0.080 C 
HETATM   16  C26 UNL     1      -2.852  52.778 -11.060  1.00  0.00     0.135 C 
HETATM   17  O4  UNL     1      -3.887  52.144 -10.854  1.00  0.00    -0.297 OA
HETATM   18  C27 UNL     1      -1.597  52.131 -11.656  1.00  0.00     0.018 C 
HETATM   19  C28 UNL     1      -1.538  50.648 -11.236  1.00  0.00     0.023 C 
HETATM   20  C29 UNL     1      -1.767  52.167 -13.191  1.00  0.00     0.023 C 
HETATM   21  C30 UNL     1      -0.334  52.966 -11.247  1.00  0.00     0.013 C 
HETATM   22  C31 UNL     1       0.978  52.182 -11.350  1.00  0.00     0.011 C 
HETATM   23  C32 UNL     1       2.179  53.113 -11.224  1.00  0.00     0.036 C 
ENDROOT
BRANCH   1  24
HETATM   24  C9  UNL     1       5.389  56.200  -6.735  1.00  0.00     0.020 C 
HETATM   25  C10 UNL     1       5.859  57.650  -6.513  1.00  0.00     0.013 C 
BRANCH  24  26
HETATM   26  C3  UNL     1       6.613  55.269  -6.434  1.00  0.00     0.158 C 
BRANCH  26  27
HETATM   27  O2  UNL     1       7.843  55.988  -6.668  1.00  0.00    -0.312 OA
BRANCH  27  28
HETATM   28  C2  UNL     1       8.767  55.965  -5.670  1.00  0.00     0.255 C 
HETATM   29  C1  UNL     1       8.126  55.523  -4.389  1.00  0.00     0.126 C 
HETATM   30  O1  UNL     1       9.956  56.224  -5.784  1.00  0.00    -0.266 OA
ENDBRANCH  27  28
ENDBRANCH  26  27
BRANCH  26  31
HETATM   31  C4  UNL     1       6.689  54.015  -7.268  1.00  0.00     0.005 C 
HETATM   32  C5  UNL     1       6.738  52.773  -6.752  1.00  0.00     0.008 C 
BRANCH  32  33
HETATM   33  C6  UNL     1       6.823  51.465  -7.505  1.00  0.00     0.068 C 
HETATM   34  C7  UNL     1       7.928  50.593  -6.904  1.00  0.00     0.050 C 
HETATM   35  C8  UNL     1       7.023  51.584  -9.020  1.00  0.00     0.050 C 
BRANCH  33  36
HETATM   36  O3  UNL     1       5.582  50.793  -7.279  1.00  0.00    -0.387 OA
HETATM   37  H13 UNL     1       4.880  51.384  -7.604  1.00  0.00     0.211 HD
ENDBRANCH  33  36
ENDBRANCH  32  33
ENDBRANCH  26  31
ENDBRANCH  24  26
ENDBRANCH   1  24
TORSDOF 7
ENDMDL
MODEL 3
REMARK minimizedAffinity -7.42567015
REMARK CNNscore 0.763955712
REMARK CNNaffinity 7.23664236
REMARK  7 active torsions:
REMARK  status: ('A' for Active; 'I' for Inactive)
REMARK    1  A    between atoms: C2_2  and  O2_4 
REMARK    2  A    between atoms: O2_4  and  C3_5 
REMARK    3  A    between atoms: C3_5  and  C4_6 
REMARK    4  A    between atoms: C3_5  and  C9_12 
REMARK    5  A    between atoms: C5_7  and  C6_8 
REMARK    6  A    between atoms: C6_8  and  O3_11 
REMARK    7  A    between atoms: C9_12  and  C11_14 
ROOT
HETATM    1  C11 UNL     1       4.839  56.136  -8.127  1.00  0.00     0.001 C 
HETATM    2  C12 UNL     1       5.714  55.255  -9.069  1.00  0.00     0.007 C 
HETATM    3  C13 UNL     1       4.770  54.409  -9.943  1.00  0.00     0.015 C 
HETATM    4  C14 UNL     1       3.392  55.065  -9.777  1.00  0.00    -0.013 C 
HETATM    5  C15 UNL     1       3.341  56.275 -10.762  1.00  0.00     0.021 C 
HETATM    6  C16 UNL     1       2.140  54.248 -10.092  1.00  0.00    -0.068 C 
HETATM    7  C17 UNL     1       0.969  54.527  -9.462  1.00  0.00    -0.068 C 
HETATM    8  C18 UNL     1       0.897  55.591  -8.355  1.00  0.00     0.036 C 
HETATM    9  C19 UNL     1       2.205  56.315  -7.971  1.00  0.00     0.015 C 
HETATM   10  C20 UNL     1       3.438  55.443  -8.247  1.00  0.00    -0.029 C 
HETATM   11  C21 UNL     1       3.396  54.192  -7.310  1.00  0.00     0.016 C 
HETATM   12  C22 UNL     1      -0.352  53.779  -9.796  1.00  0.00    -0.015 C 
HETATM   13  C23 UNL     1      -0.632  52.811  -8.619  1.00  0.00     0.020 C 
HETATM   14  C24 UNL     1      -1.531  54.790  -9.917  1.00  0.00     0.021 C 
HETATM   15  C25 UNL     1      -2.718  54.333 -10.761  1.00  0.00     0.080 C 
HETATM   16  C26 UNL     1      -2.757  52.841 -10.985  1.00  0.00     0.135 C 
HETATM   17  O4  UNL     1      -3.789  52.206 -10.770  1.00  0.00    -0.297 OA
HETATM   18  C27 UNL     1      -1.501  52.193 -11.575  1.00  0.00     0.018 C 
HETATM   19  C28 UNL     1      -1.435  50.714 -11.139  1.00  0.00     0.023 C 
HETATM   20  C29 UNL     1      -1.673  52.211 -13.111  1.00  0.00     0.023 C 
HETATM   21  C30 UNL     1      -0.240  53.036 -11.178  1.00  0.00     0.013 C 
HETATM   22  C31 UNL     1       1.075  52.256 -11.275  1.00  0.00     0.011 C 
HETATM   23  C32 UNL     1       2.273  53.193 -11.162  1.00  0.00     0.036 C 
ENDROOT
BRANCH   1  24
HETATM   24  C9  UNL     1       5.480  56.342  -6.713  1.00  0.00     0.020 C 
HETATM   25  C10 UNL     1       5.810  57.823  -6.451  1.00  0.00     0.013 C 
BRANCH  24  26
HETATM   26  C3  UNL     1       6.793  55.526  -6.458  1.00  0.00     0.158 C 
BRANCH  26  27
HETATM   27  O2  UNL     1       6.521  54.428  -5.562  1.00  0.00    -0.312 OA
BRANCH  27  28
HETATM   28  C2  UNL     1       6.842  53.182  -6.002  1.00  0.00     0.255 C 
HETATM   29  C1  UNL     1       7.125  52.284  -4.836  1.00  0.00     0.126 C 
HETATM   30  O1  UNL     1       6.865  52.814  -7.168  1.00  0.00    -0.266 OA
ENDBRANCH  27  28
ENDBRANCH  26  27
BRANCH  26  31
HETATM   31  C4  UNL     1       7.926  56.306  -5.841  1.00  0.00     0.005 C 
HETATM   32  C5  UNL     1       9.108  55.765  -5.494  1.00  0.00     0.008 C 
BRANCH  32  33
HETATM   33  C6  UNL     1      10.293  56.462  -4.866  1.00  0.00     0.068 C 
HETATM   34  C7  UNL     1      10.446  56.014  -3.410  1.00  0.00     0.050 C 
HETATM   35  C8  UNL     1      10.275  57.994  -4.937  1.00  0.00     0.050 C 
BRANCH  33  36
HETATM   36  O3  UNL     1      11.448  56.006  -5.573  1.00  0.00    -0.387 OA
HETATM   37  H13 UNL     1      11.312  56.235  -6.510  1.00  0.00     0.211 HD
ENDBRANCH  33  36
ENDBRANCH  32  33
ENDBRANCH  26  31
ENDBRANCH  24  26
ENDBRANCH   1  24
TORSDOF 7
ENDMDL
MODEL 4
REMARK minimizedAffinity -7.97257376
REMARK CNNscore 0.664514482
REMARK CNNaffinity 7.06217527
REMARK  7 active torsions:
REMARK  status: ('A' for Active; 'I' for Inactive)
REMARK    1  A    between atoms: C2_2  and  O2_4 
REMARK    2  A    between atoms: O2_4  and  C3_5 
REMARK    3  A    between atoms: C3_5  and  C4_6 
REMARK    4  A    between atoms: C3_5  and  C9_12 
REMARK    5  A    between atoms: C5_7  and  C6_8 
REMARK    6  A    between atoms: C6_8  and  O3_11 
REMARK    7  A    between atoms: C9_12  and  C11_14 
ROOT
HETATM    1  C11 UNL     1      -3.997  49.580 -23.584  1.00  0.00     0.001 C 
HETATM    2  C12 UNL     1      -3.012  48.426 -23.229  1.00  0.00     0.007 C 
HETATM    3  C13 UNL     1      -3.656  47.571 -22.123  1.00  0.00     0.015 C 
HETATM    4  C14 UNL     1      -5.132  47.995 -22.112  1.00  0.00    -0.013 C 
HETATM    5  C15 UNL     1      -5.845  47.197 -23.248  1.00  0.00     0.021 C 
HETATM    6  C16 UNL     1      -5.968  47.732 -20.861  1.00  0.00    -0.068 C 
HETATM    7  C17 UNL     1      -7.023  48.536 -20.567  1.00  0.00    -0.068 C 
HETATM    8  C18 UNL     1      -7.338  49.777 -21.419  1.00  0.00     0.036 C 
HETATM    9  C19 UNL     1      -6.401  50.087 -22.605  1.00  0.00     0.015 C 
HETATM   10  C20 UNL     1      -4.985  49.545 -22.367  1.00  0.00    -0.029 C 
HETATM   11  C21 UNL     1      -4.346  50.302 -21.158  1.00  0.00     0.016 C 
HETATM   12  C22 UNL     1      -7.954  48.272 -19.350  1.00  0.00    -0.015 C 
HETATM   13  C23 UNL     1      -7.604  49.334 -18.277  1.00  0.00     0.020 C 
HETATM   14  C24 UNL     1      -9.447  48.438 -19.763  1.00  0.00     0.021 C 
HETATM   15  C25 UNL     1     -10.463  47.695 -18.901  1.00  0.00     0.080 C 
HETATM   16  C26 UNL     1      -9.921  47.279 -17.556  1.00  0.00     0.135 C 
HETATM   17  O4  UNL     1     -10.546  47.535 -16.527  1.00  0.00    -0.297 OA
HETATM   18  C27 UNL     1      -8.630  46.454 -17.551  1.00  0.00     0.018 C 
HETATM   19  C28 UNL     1      -7.886  46.675 -16.217  1.00  0.00     0.023 C 
HETATM   20  C29 UNL     1      -9.054  44.969 -17.599  1.00  0.00     0.023 C 
HETATM   21  C30 UNL     1      -7.783  46.800 -18.824  1.00  0.00     0.013 C 
HETATM   22  C31 UNL     1      -6.300  46.435 -18.691  1.00  0.00     0.011 C 
HETATM   23  C32 UNL     1      -5.596  46.522 -20.041  1.00  0.00     0.036 C 
ENDROOT
BRANCH   1  24
HETATM   24  C9  UNL     1      -3.268  50.918 -23.946  1.00  0.00     0.020 C 
HETATM   25  C10 UNL     1      -4.154  52.143 -23.655  1.00  0.00     0.013 C 
BRANCH  24  26
HETATM   26  C3  UNL     1      -2.800  51.032 -25.437  1.00  0.00     0.158 C 
BRANCH  26  27
HETATM   27  O2  UNL     1      -2.690  49.715 -26.017  1.00  0.00    -0.312 OA
BRANCH  27  28
HETATM   28  C2  UNL     1      -3.405  49.482 -27.151  1.00  0.00     0.255 C 
HETATM   29  C1  UNL     1      -4.347  48.336 -26.935  1.00  0.00     0.126 C 
HETATM   30  O1  UNL     1      -3.335  50.122 -28.190  1.00  0.00    -0.266 OA
ENDBRANCH  27  28
ENDBRANCH  26  27
BRANCH  26  31
HETATM   31  C4  UNL     1      -1.464  51.700 -25.644  1.00  0.00     0.005 C 
HETATM   32  C5  UNL     1      -0.530  51.257 -26.505  1.00  0.00     0.008 C 
BRANCH  32  33
HETATM   33  C6  UNL     1       0.833  51.853 -26.772  1.00  0.00     0.068 C 
HETATM   34  C7  UNL     1       1.091  51.902 -28.281  1.00  0.00     0.050 C 
HETATM   35  C8  UNL     1       2.008  51.164 -26.068  1.00  0.00     0.050 C 
BRANCH  33  36
HETATM   36  O3  UNL     1       0.777  53.204 -26.308  1.00  0.00    -0.387 OA
HETATM   37  H13 UNL     1       0.547  53.166 -25.363  1.00  0.00     0.211 HD
ENDBRANCH  33  36
ENDBRANCH  32  33
ENDBRANCH  26  31
ENDBRANCH  24  26
ENDBRANCH   1  24
TORSDOF 7
ENDMDL
MODEL 5
REMARK minimizedAffinity -7.19739723
REMARK CNNscore 0.619844496
REMARK CNNaffinity 7.25593805
REMARK  7 active torsions:
REMARK  status: ('A' for Active; 'I' for Inactive)
REMARK    1  A    between atoms: C2_2  and  O2_4 
REMARK    2  A    between atoms: O2_4  and  C3_5 
REMARK    3  A    between atoms: C3_5  and  C4_6 
REMARK    4  A    between atoms: C3_5  and  C9_12 
REMARK    5  A    between atoms: C5_7  and  C6_8 
REMARK    6  A    between atoms: C6_8  and  O3_11 
REMARK    7  A    between atoms: C9_12  and  C11_14 
ROOT
HETATM    1  C11 UNL     1      -1.521  53.068  -9.883  1.00  0.00     0.001 C 
HETATM    2  C12 UNL     1      -0.796  51.701 -10.068  1.00  0.00     0.007 C 
HETATM    3  C13 UNL     1       0.624  51.831  -9.486  1.00  0.00     0.015 C 
HETATM    4  C14 UNL     1       0.585  53.115  -8.645  1.00  0.00    -0.013 C 
HETATM    5  C15 UNL     1      -0.029  52.736  -7.261  1.00  0.00     0.021 C 
HETATM    6  C16 UNL     1       1.897  53.823  -8.314  1.00  0.00    -0.068 C 
HETATM    7  C17 UNL     1       1.911  55.165  -8.102  1.00  0.00    -0.068 C 
HETATM    8  C18 UNL     1       0.641  56.012  -8.288  1.00  0.00     0.036 C 
HETATM    9  C19 UNL     1      -0.642  55.287  -8.744  1.00  0.00     0.015 C 
HETATM   10  C20 UNL     1      -0.324  54.026  -9.559  1.00  0.00    -0.029 C 
HETATM   11  C21 UNL     1       0.380  54.445 -10.890  1.00  0.00     0.016 C 
HETATM   12  C22 UNL     1       3.202  55.927  -7.689  1.00  0.00    -0.015 C 
HETATM   13  C23 UNL     1       3.679  56.715  -8.936  1.00  0.00     0.020 C 
HETATM   14  C24 UNL     1       2.894  56.931  -6.539  1.00  0.00     0.021 C 
HETATM   15  C25 UNL     1       4.080  57.323  -5.661  1.00  0.00     0.080 C 
HETATM   16  C26 UNL     1       5.418  57.028  -6.292  1.00  0.00     0.135 C 
HETATM   17  O4  UNL     1       6.289  57.896  -6.339  1.00  0.00    -0.297 OA
HETATM   18  C27 UNL     1       5.660  55.592  -6.770  1.00  0.00     0.018 C 
HETATM   19  C28 UNL     1       6.697  55.602  -7.913  1.00  0.00     0.023 C 
HETATM   20  C29 UNL     1       6.294  54.832  -5.584  1.00  0.00     0.023 C 
HETATM   21  C30 UNL     1       4.292  54.929  -7.150  1.00  0.00     0.013 C 
HETATM   22  C31 UNL     1       4.434  53.719  -8.080  1.00  0.00     0.011 C 
HETATM   23  C32 UNL     1       3.120  52.951  -8.178  1.00  0.00     0.036 C 
ENDROOT
BRANCH   1  24
HETATM   24  C9  UNL     1      -2.487  53.413 -11.066  1.00  0.00     0.020 C 
HETATM   25  C10 UNL     1      -3.819  53.995 -10.558  1.00  0.00     0.013 C 
BRANCH  24  26
HETATM   26  C3  UNL     1      -2.840  52.208 -12.003  1.00  0.00     0.158 C 
BRANCH  26  27
HETATM   27  O2  UNL     1      -2.763  50.973 -11.261  1.00  0.00    -0.312 OA
BRANCH  27  28
HETATM   28  C2  UNL     1      -3.829  50.133 -11.354  1.00  0.00     0.255 C 
HETATM   29  C1  UNL     1      -4.850  50.484 -10.315  1.00  0.00     0.126 C 
HETATM   30  O1  UNL     1      -3.972  49.242 -12.179  1.00  0.00    -0.266 OA
ENDBRANCH  27  28
ENDBRANCH  26  27
BRANCH  26  31
HETATM   31  C4  UNL     1      -1.941  52.040 -13.202  1.00  0.00     0.005 C 
HETATM   32  C5  UNL     1      -0.645  51.688 -13.124  1.00  0.00     0.008 C 
BRANCH  32  33
HETATM   33  C6  UNL     1       0.331  51.504 -14.264  1.00  0.00     0.068 C 
HETATM   34  C7  UNL     1      -0.405  50.966 -15.494  1.00  0.00     0.050 C 
HETATM   35  C8  UNL     1       1.547  50.622 -13.961  1.00  0.00     0.050 C 
BRANCH  33  36
HETATM   36  O3  UNL     1       0.810  52.810 -14.594  1.00  0.00    -0.387 OA
HETATM   37  H13 UNL     1       1.218  53.171 -13.787  1.00  0.00     0.211 HD
ENDBRANCH  33  36
ENDBRANCH  32  33
ENDBRANCH  26  31
ENDBRANCH  24  26
ENDBRANCH   1  24
TORSDOF 7
ENDMDL
MODEL 6
REMARK minimizedAffinity -8.7080164
REMARK CNNscore 0.611400604
REMARK CNNaffinity 7.05761194
REMARK  7 active torsions:
REMARK  status: ('A' for Active; 'I' for Inactive)
REMARK    1  A    between atoms: C2_2  and  O2_4 
REMARK    2  A    between atoms: O2_4  and  C3_5 
REMARK    3  A    between atoms: C3_5  and  C4_6 
REMARK    4  A    between atoms: C3_5  and  C9_12 
REMARK    5  A    between atoms: C5_7  and  C6_8 
REMARK    6  A    between atoms: C6_8  and  O3_11 
REMARK    7  A    between atoms: C9_12  and  C11_14 
ROOT
HETATM    1  C11 UNL     1      -1.453  50.266 -21.950  1.00  0.00     0.001 C 
HETATM    2  C12 UNL     1      -0.551  49.862 -20.744  1.00  0.00     0.007 C 
HETATM    3  C13 UNL     1      -1.242  48.705 -19.999  1.00  0.00     0.015 C 
HETATM    4  C14 UNL     1      -2.320  48.203 -20.970  1.00  0.00    -0.013 C 
HETATM    5  C15 UNL     1      -1.616  47.236 -21.973  1.00  0.00     0.021 C 
HETATM    6  C16 UNL     1      -3.501  47.408 -20.419  1.00  0.00    -0.068 C 
HETATM    7  C17 UNL     1      -4.698  47.433 -21.062  1.00  0.00    -0.068 C 
HETATM    8  C18 UNL     1      -4.922  48.334 -22.287  1.00  0.00     0.036 C 
HETATM    9  C19 UNL     1      -3.747  49.221 -22.748  1.00  0.00     0.015 C 
HETATM   10  C20 UNL     1      -2.810  49.571 -21.584  1.00  0.00    -0.029 C 
HETATM   11  C21 UNL     1      -3.585  50.456 -20.555  1.00  0.00     0.016 C 
HETATM   12  C22 UNL     1      -5.913  46.585 -20.588  1.00  0.00    -0.015 C 
HETATM   13  C23 UNL     1      -6.915  47.564 -19.926  1.00  0.00     0.020 C 
HETATM   14  C24 UNL     1      -6.600  45.898 -21.805  1.00  0.00     0.021 C 
HETATM   15  C25 UNL     1      -7.404  44.638 -21.493  1.00  0.00     0.080 C 
HETATM   16  C26 UNL     1      -7.763  44.501 -20.034  1.00  0.00     0.135 C 
HETATM   17  O4  UNL     1      -8.923  44.267 -19.698  1.00  0.00    -0.297 OA
HETATM   18  C27 UNL     1      -6.612  44.568 -19.025  1.00  0.00     0.018 C 
HETATM   19  C28 UNL     1      -7.150  45.066 -17.668  1.00  0.00     0.023 C 
HETATM   20  C29 UNL     1      -6.119  43.119 -18.819  1.00  0.00     0.023 C 
HETATM   21  C30 UNL     1      -5.450  45.440 -19.614  1.00  0.00     0.013 C 
HETATM   22  C31 UNL     1      -4.490  45.982 -18.550  1.00  0.00     0.011 C 
HETATM   23  C32 UNL     1      -3.238  46.567 -19.194  1.00  0.00     0.036 C 
ENDROOT
BRANCH   1  24
HETATM   24  C9  UNL     1      -1.428  51.804 -22.243  1.00  0.00     0.020 C 
HETATM   25  C10 UNL     1      -2.259  52.156 -23.491  1.00  0.00     0.013 C 
BRANCH  24  26
HETATM   26  C3  UNL     1      -0.000  52.414 -22.454  1.00  0.00     0.158 C 
BRANCH  26  27
HETATM   27  O2  UNL     1       0.098  53.679 -21.769  1.00  0.00    -0.312 OA
BRANCH  27  28
HETATM   28  C2  UNL     1       1.247  53.918 -21.081  1.00  0.00     0.255 C 
HETATM   29  C1  UNL     1       1.234  53.167 -19.785  1.00  0.00     0.126 C 
HETATM   30  O1  UNL     1       2.183  54.607 -21.461  1.00  0.00    -0.266 OA
ENDBRANCH  27  28
ENDBRANCH  26  27
BRANCH  26  31
HETATM   31  C4  UNL     1       0.381  52.677 -23.889  1.00  0.00     0.005 C 
HETATM   32  C5  UNL     1       0.644  51.709 -24.786  1.00  0.00     0.008 C 
BRANCH  32  33
HETATM   33  C6  UNL     1       1.040  51.877 -26.235  1.00  0.00     0.068 C 
HETATM   34  C7  UNL     1       0.096  51.066 -27.127  1.00  0.00     0.050 C 
HETATM   35  C8  UNL     1       2.495  51.530 -26.569  1.00  0.00     0.050 C 
BRANCH  33  36
HETATM   36  O3  UNL     1       0.837  53.257 -26.547  1.00  0.00    -0.387 OA
HETATM   37  H13 UNL     1       1.390  53.768 -25.930  1.00  0.00     0.211 HD
ENDBRANCH  33  36
ENDBRANCH  32  33
ENDBRANCH  26  31
ENDBRANCH  24  26
ENDBRANCH   1  24
TORSDOF 7
ENDMDL
MODEL 7
REMARK minimizedAffinity -8.9832058
REMARK CNNscore 0.56703198
REMARK CNNaffinity 6.92221689
REMARK  7 active torsions:
REMARK  status: ('A' for Active; 'I' for Inactive)
REMARK    1  A    between atoms: C2_2  and  O2_4 
REMARK    2  A    between atoms: O2_4  and  C3_5 
REMARK    3  A    between atoms: C3_5  and  C4_6 
REMARK    4  A    between atoms: C3_5  and  C9_12 
REMARK    5  A    between atoms: C5_7  and  C6_8 
REMARK    6  A    between atoms: C6_8  and  O3_11 
REMARK    7  A    between atoms: C9_12  and  C11_14 
ROOT
HETATM    1  C11 UNL     1      -1.192  49.554 -20.565  1.00  0.00     0.001 C 
HETATM    2  C12 UNL     1      -1.267  48.467 -19.451  1.00  0.00     0.007 C 
HETATM    3  C13 UNL     1      -2.485  47.571 -19.739  1.00  0.00     0.015 C 
HETATM    4  C14 UNL     1      -2.875  47.897 -21.188  1.00  0.00    -0.013 C 
HETATM    5  C15 UNL     1      -1.941  47.054 -22.113  1.00  0.00     0.021 C 
HETATM    6  C16 UNL     1      -4.291  47.579 -21.663  1.00  0.00    -0.068 C 
HETATM    7  C17 UNL     1      -4.855  48.312 -22.659  1.00  0.00    -0.068 C 
HETATM    8  C18 UNL     1      -4.132  49.530 -23.256  1.00  0.00     0.036 C 
HETATM    9  C19 UNL     1      -2.753  49.902 -22.670  1.00  0.00     0.015 C 
HETATM   10  C20 UNL     1      -2.618  49.453 -21.209  1.00  0.00    -0.029 C 
HETATM   11  C21 UNL     1      -3.640  50.250 -20.335  1.00  0.00     0.016 C 
HETATM   12  C22 UNL     1      -6.263  47.987 -23.233  1.00  0.00    -0.015 C 
HETATM   13  C23 UNL     1      -7.231  49.068 -22.692  1.00  0.00     0.020 C 
HETATM   14  C24 UNL     1      -6.242  48.055 -24.789  1.00  0.00     0.021 C 
HETATM   15  C25 UNL     1      -7.320  47.246 -25.506  1.00  0.00     0.080 C 
HETATM   16  C26 UNL     1      -8.477  46.866 -24.617  1.00  0.00     0.135 C 
HETATM   17  O4  UNL     1      -9.635  47.079 -24.976  1.00  0.00    -0.297 OA
HETATM   18  C27 UNL     1      -8.143  46.127 -23.317  1.00  0.00     0.018 C 
HETATM   19  C28 UNL     1      -9.250  46.396 -22.276  1.00  0.00     0.023 C 
HETATM   20  C29 UNL     1      -8.178  44.617 -23.644  1.00  0.00     0.023 C 
HETATM   21  C30 UNL     1      -6.703  46.528 -22.842  1.00  0.00     0.013 C 
HETATM   22  C31 UNL     1      -6.452  46.261 -21.354  1.00  0.00     0.011 C 
HETATM   23  C32 UNL     1      -4.970  46.395 -21.021  1.00  0.00     0.036 C 
ENDROOT
BRANCH   1  24
HETATM   24  C9  UNL     1      -0.681  50.937 -20.036  1.00  0.00     0.020 C 
HETATM   25  C10 UNL     1      -1.834  51.791 -19.478  1.00  0.00     0.013 C 
BRANCH  24  26
HETATM   26  C3  UNL     1       0.068  51.813 -21.098  1.00  0.00     0.158 C 
BRANCH  26  27
HETATM   27  O2  UNL     1       0.020  53.201 -20.707  1.00  0.00    -0.312 OA
BRANCH  27  28
HETATM   28  C2  UNL     1       1.199  53.782 -20.356  1.00  0.00     0.255 C 
HETATM   29  C1  UNL     1       1.614  53.315 -18.993  1.00  0.00     0.126 C 
HETATM   30  O1  UNL     1       1.860  54.543 -21.047  1.00  0.00    -0.266 OA
ENDBRANCH  27  28
ENDBRANCH  26  27
BRANCH  26  31
HETATM   31  C4  UNL     1      -0.490  51.747 -22.497  1.00  0.00     0.005 C 
HETATM   32  C5  UNL     1      -0.098  52.554 -23.500  1.00  0.00     0.008 C 
BRANCH  32  33
HETATM   33  C6  UNL     1      -0.603  52.567 -24.924  1.00  0.00     0.068 C 
HETATM   34  C7  UNL     1      -0.582  51.146 -25.494  1.00  0.00     0.050 C 
HETATM   35  C8  UNL     1       0.126  53.519 -25.879  1.00  0.00     0.050 C 
BRANCH  33  36
HETATM   36  O3  UNL     1      -1.971  52.977 -24.859  1.00  0.00    -0.387 OA
HETATM   37  H13 UNL     1      -1.982  53.853 -24.435  1.00  0.00     0.211 HD
ENDBRANCH  33  36
ENDBRANCH  32  33
ENDBRANCH  26  31
ENDBRANCH  24  26
ENDBRANCH   1  24
TORSDOF 7
ENDMDL
MODEL 8
REMARK minimizedAffinity -9.38188744
REMARK CNNscore 0.560462296
REMARK CNNaffinity 7.56742811
REMARK  7 active torsions:
REMARK  status: ('A' for Active; 'I' for Inactive)
REMARK    1  A    between atoms: C2_2  and  O2_4 
REMARK    2  A    between atoms: O2_4  and  C3_5 
REMARK    3  A    between atoms: C3_5  and  C4_6 
REMARK    4  A    between atoms: C3_5  and  C9_12 
REMARK    5  A    between atoms: C5_7  and  C6_8 
REMARK    6  A    between atoms: C6_8  and  O3_11 
REMARK    7  A    between atoms: C9_12  and  C11_14 
ROOT
HETATM    1  C11 UNL     1      -1.389  50.964 -22.849  1.00  0.00     0.001 C 
HETATM    2  C12 UNL     1      -0.779  52.397 -22.916  1.00  0.00     0.007 C 
HETATM    3  C13 UNL     1      -0.155  52.715 -21.545  1.00  0.00     0.015 C 
HETATM    4  C14 UNL     1      -0.068  51.358 -20.831  1.00  0.00    -0.013 C 
HETATM    5  C15 UNL     1       1.228  50.654 -21.343  1.00  0.00     0.021 C 
HETATM    6  C16 UNL     1       0.042  51.328 -19.309  1.00  0.00    -0.068 C 
HETATM    7  C17 UNL     1      -0.434  50.262 -18.613  1.00  0.00    -0.068 C 
HETATM    8  C18 UNL     1      -1.179  49.119 -19.322  1.00  0.00     0.036 C 
HETATM    9  C19 UNL     1      -1.384  49.237 -20.847  1.00  0.00     0.015 C 
HETATM   10  C20 UNL     1      -1.423  50.701 -21.303  1.00  0.00    -0.029 C 
HETATM   11  C21 UNL     1      -2.681  51.394 -20.687  1.00  0.00     0.016 C 
HETATM   12  C22 UNL     1      -0.282  50.143 -17.070  1.00  0.00    -0.015 C 
HETATM   13  C23 UNL     1      -1.678  50.417 -16.457  1.00  0.00     0.020 C 
HETATM   14  C24 UNL     1       0.173  48.705 -16.680  1.00  0.00     0.021 C 
HETATM   15  C25 UNL     1       0.892  48.575 -15.340  1.00  0.00     0.080 C 
HETATM   16  C26 UNL     1       0.672  49.752 -14.422  1.00  0.00     0.135 C 
HETATM   17  O4  UNL     1       0.321  49.575 -13.256  1.00  0.00    -0.297 OA
HETATM   18  C27 UNL     1       1.000  51.140 -14.981  1.00  0.00     0.018 C 
HETATM   19  C28 UNL     1       0.149  52.200 -14.250  1.00  0.00     0.023 C 
HETATM   20  C29 UNL     1       2.479  51.420 -14.633  1.00  0.00     0.023 C 
HETATM   21  C30 UNL     1       0.818  51.134 -16.538  1.00  0.00     0.013 C 
HETATM   22  C31 UNL     1       0.632  52.531 -17.139  1.00  0.00     0.011 C 
HETATM   23  C32 UNL     1       0.751  52.490 -18.659  1.00  0.00     0.036 C 
ENDROOT
BRANCH   1  24
HETATM   24  C9  UNL     1      -2.705  50.820 -23.685  1.00  0.00     0.020 C 
HETATM   25  C10 UNL     1      -3.387  49.462 -23.437  1.00  0.00     0.013 C 
BRANCH  24  26
HETATM   26  C3  UNL     1      -2.522  50.966 -25.234  1.00  0.00     0.158 C 
BRANCH  26  27
HETATM   27  O2  UNL     1      -2.437  49.660 -25.842  1.00  0.00    -0.312 OA
BRANCH  27  28
HETATM   28  C2  UNL     1      -3.165  49.460 -26.973  1.00  0.00     0.255 C 
HETATM   29  C1  UNL     1      -4.204  48.407 -26.734  1.00  0.00     0.126 C 
HETATM   30  O1  UNL     1      -3.035  50.064 -28.028  1.00  0.00    -0.266 OA
ENDBRANCH  27  28
ENDBRANCH  26  27
BRANCH  26  31
HETATM   31  C4  UNL     1      -1.289  51.718 -25.669  1.00  0.00     0.005 C 
HETATM   32  C5  UNL     1      -0.208  51.133 -26.217  1.00  0.00     0.008 C 
BRANCH  32  33
HETATM   33  C6  UNL     1       1.069  51.800 -26.673  1.00  0.00     0.068 C 
HETATM   34  C7  UNL     1       1.055  51.958 -28.196  1.00  0.00     0.050 C 
HETATM   35  C8  UNL     1       2.368  51.114 -26.236  1.00  0.00     0.050 C 
BRANCH  33  36
HETATM   36  O3  UNL     1       1.057  53.113 -26.110  1.00  0.00    -0.387 OA
HETATM   37  H13 UNL     1       0.998  53.004 -25.144  1.00  0.00     0.211 HD
ENDBRANCH  33  36
ENDBRANCH  32  33
ENDBRANCH  26  31
ENDBRANCH  24  26
ENDBRANCH   1  24
TORSDOF 7
ENDMDL
MODEL 9
REMARK minimizedAffinity -7.29643631
REMARK CNNscore 0.553281605
REMARK CNNaffinity 7.22117853
REMARK  7 active torsions:
REMARK  status: ('A' for Active; 'I' for Inactive)
REMARK    1  A    between atoms: C2_2  and  O2_4 
REMARK    2  A    between atoms: O2_4  and  C3_5 
REMARK    3  A    between atoms: C3_5  and  C4_6 
REMARK    4  A    between atoms: C3_5  and  C9_12 
REMARK    5  A    between atoms: C5_7  and  C6_8 
REMARK    6  A    between atoms: C6_8  and  O3_11 
REMARK    7  A    between atoms: C9_12  and  C11_14 
ROOT
HETATM    1  C11 UNL     1       1.870  53.282 -11.160  1.00  0.00     0.001 C 
HETATM    2  C12 UNL     1       0.845  54.442 -10.979  1.00  0.00     0.007 C 
HETATM    3  C13 UNL     1       1.412  55.421  -9.934  1.00  0.00     0.015 C 
HETATM    4  C14 UNL     1       2.893  55.037  -9.803  1.00  0.00    -0.013 C 
HETATM    5  C15 UNL     1       3.650  55.733 -10.977  1.00  0.00     0.021 C 
HETATM    6  C16 UNL     1       3.655  55.447  -8.545  1.00  0.00    -0.068 C 
HETATM    7  C17 UNL     1       4.708  54.704  -8.115  1.00  0.00    -0.068 C 
HETATM    8  C18 UNL     1       5.092  53.391  -8.817  1.00  0.00     0.036 C 
HETATM    9  C19 UNL     1       4.227  52.938 -10.011  1.00  0.00     0.015 C 
HETATM   10  C20 UNL     1       2.790  53.466  -9.904  1.00  0.00    -0.029 C 
HETATM   11  C21 UNL     1       2.102  52.821  -8.658  1.00  0.00     0.016 C 
HETATM   12  C22 UNL     1       5.566  55.114  -6.885  1.00  0.00    -0.015 C 
HETATM   13  C23 UNL     1       5.179  54.159  -5.728  1.00  0.00     0.020 C 
HETATM   14  C24 UNL     1       7.082  54.944  -7.201  1.00  0.00     0.021 C 
HETATM   15  C25 UNL     1       8.036  55.796  -6.369  1.00  0.00     0.080 C 
HETATM   16  C26 UNL     1       7.414  56.333  -5.103  1.00  0.00     0.135 C 
HETATM   17  O4  UNL     1       7.987  56.200  -4.023  1.00  0.00    -0.297 OA
HETATM   18  C27 UNL     1       6.109  57.123  -5.251  1.00  0.00     0.018 C 
HETATM   19  C28 UNL     1       5.299  57.020  -3.942  1.00  0.00     0.023 C 
HETATM   20  C29 UNL     1       6.506  58.605  -5.430  1.00  0.00     0.023 C 
HETATM   21  C30 UNL     1       5.339  56.628  -6.523  1.00  0.00     0.013 C 
HETATM   22  C31 UNL     1       3.844  56.967  -6.506  1.00  0.00     0.011 C 
HETATM   23  C32 UNL     1       3.216  56.725  -7.874  1.00  0.00     0.036 C 
ENDROOT
BRANCH   1  24
HETATM   24  C9  UNL     1       1.187  51.897 -11.420  1.00  0.00     0.020 C 
HETATM   25  C10 UNL     1       2.227  50.768 -11.543  1.00  0.00     0.013 C 
BRANCH  24  26
HETATM   26  C3  UNL     1       0.287  51.835 -12.701  1.00  0.00     0.158 C 
BRANCH  26  27
HETATM   27  O2  UNL     1       0.955  52.489 -13.800  1.00  0.00    -0.312 OA
BRANCH  27  28
HETATM   28  C2  UNL     1       1.049  51.792 -14.965  1.00  0.00     0.255 C 
HETATM   29  C1  UNL     1       2.382  52.038 -15.603  1.00  0.00     0.126 C 
HETATM   30  O1  UNL     1       0.201  51.040 -15.423  1.00  0.00    -0.266 OA
ENDBRANCH  27  28
ENDBRANCH  26  27
BRANCH  26  31
HETATM   31  C4  UNL     1      -1.063  52.493 -12.572  1.00  0.00     0.005 C 
HETATM   32  C5  UNL     1      -1.963  52.180 -11.622  1.00  0.00     0.008 C 
BRANCH  32  33
HETATM   33  C6  UNL     1      -3.336  52.777 -11.421  1.00  0.00     0.068 C 
HETATM   34  C7  UNL     1      -3.237  54.016 -10.526  1.00  0.00     0.050 C 
HETATM   35  C8  UNL     1      -4.400  51.822 -10.868  1.00  0.00     0.050 C 
BRANCH  33  36
HETATM   36  O3  UNL     1      -3.773  53.218 -12.708  1.00  0.00    -0.387 OA
HETATM   37  H13 UNL     1      -3.769  52.436 -13.289  1.00  0.00     0.211 HD
ENDBRANCH  33  36
ENDBRANCH  32  33
ENDBRANCH  26  31
ENDBRANCH  24  26
ENDBRANCH   1  24
TORSDOF 7
ENDMDL
