MODEL 1
REMARK minimizedAffinity -9.4379797
REMARK CNNscore 0.708170474
REMARK CNNaffinity 7.20063162
REMARK  11 active torsions:
REMARK  status: ('A' for Active; 'I' for Inactive)
REMARK    1  A    between atoms: C3_4  and  O2_5 
REMARK    2  A    between atoms: O2_5  and  C4_6 
REMARK    3  A    between atoms: C7_9  and  C8_10 
REMARK    4  A    between atoms: N1_11  and  C9_13 
REMARK    5  A    between atoms: C9_13  and  C10_14 
REMARK    6  A    between atoms: C10_14  and  O3_15 
REMARK    7  A    between atoms: C16_21  and  C17_22 
REMARK    8  A    between atoms: C23_30  and  O6_31 
REMARK    9  A    between atoms: C27_35  and  O7_36 
REMARK   10  A    between atoms: C30_39  and  O8_40 
REMARK   11  A    between atoms: C31_41  and  O9_42 
ROOT
HETATM    1  C4  UNL     1       1.523   7.011  10.251  1.00  0.00     0.127 C 
HETATM    2  C5  UNL     1       1.028   5.610  10.607  1.00  0.00     0.033 C 
HETATM    3  C6  UNL     1      -0.236   5.571  11.473  1.00  0.00     0.021 C 
HETATM    4  C7  UNL     1      -0.460   6.786  12.408  1.00  0.00     0.026 C 
HETATM    5  C11 UNL     1      -1.904   6.690  13.038  1.00  0.00     0.009 C 
HETATM    6  C12 UNL     1      -2.175   5.485  13.941  1.00  0.00     0.007 C 
HETATM    7  C13 UNL     1      -3.679   5.368  14.187  1.00  0.00     0.013 C 
HETATM    8  C14 UNL     1      -4.343   6.662  14.727  1.00  0.00    -0.005 C 
HETATM    9  C15 UNL     1      -5.001   6.295  16.085  1.00  0.00     0.019 C 
HETATM   10  C16 UNL     1      -5.391   7.274  13.740  1.00  0.00     0.028 C 
HETATM   11  C21 UNL     1      -5.566   8.726  14.233  1.00  0.00     0.013 C 
HETATM   12  C22 UNL     1      -4.291   9.082  15.009  1.00  0.00     0.040 C 
HETATM   13  C23 UNL     1      -3.353   7.869  14.870  1.00  0.00     0.070 C 
HETATM   14  C24 UNL     1      -2.282   8.020  13.733  1.00  0.00     0.026 C 
HETATM   15  C25 UNL     1      -2.503   9.090  12.647  1.00  0.00     0.011 C 
HETATM   16  C26 UNL     1      -1.678   8.846  11.375  1.00  0.00     0.039 C 
HETATM   17  C27 UNL     1      -0.316   8.153  11.613  1.00  0.00     0.073 C 
HETATM   18  C28 UNL     1       0.354   7.987  10.229  1.00  0.00     0.071 C 
ENDROOT
BRANCH   1  19
HETATM   19  O2  UNL     1       2.097   7.007   8.939  1.00  0.00    -0.356 OA
BRANCH  19  20
HETATM   20  C3  UNL     1       3.218   6.131   8.796  1.00  0.00     0.263 C 
HETATM   21  O1  UNL     1       2.921   5.240   7.714  1.00  0.00    -0.354 OA
HETATM   22  C2  UNL     1       3.987   4.323   7.463  1.00  0.00     0.151 C 
HETATM   23  C1  UNL     1       3.626   3.526   6.214  1.00  0.00     0.042 C 
HETATM   24  C31 UNL     1       4.184   3.405   8.681  1.00  0.00     0.175 C 
HETATM   25  C30 UNL     1       4.440   4.252   9.936  1.00  0.00     0.154 C 
HETATM   26  C29 UNL     1       3.395   5.342  10.090  1.00  0.00     0.095 C 
BRANCH  24  27
HETATM   27  O9  UNL     1       5.304   2.532   8.506  1.00  0.00    -0.390 OA
HETATM   28  H47 UNL     1       5.032   1.837   7.880  1.00  0.00     0.210 HD
ENDBRANCH  24  27
BRANCH  25  29
HETATM   29  O8  UNL     1       5.743   4.849   9.850  1.00  0.00    -0.393 OA
HETATM   30  H45 UNL     1       6.312   4.131   9.503  1.00  0.00     0.210 HD
ENDBRANCH  25  29
ENDBRANCH  19  20
ENDBRANCH   1  19
BRANCH  17  31
HETATM   31  O7  UNL     1       0.460   9.090  12.392  1.00  0.00    -0.389 OA
HETATM   32  H39 UNL     1       0.774   9.794  11.796  1.00  0.00     0.210 HD
ENDBRANCH  17  31
BRANCH   4  33
HETATM   33  C8  UNL     1       0.561   6.726  13.555  1.00  0.00     0.068 C 
HETATM   34  N1  UNL     1       0.763   7.729  14.345  1.00  0.00    -0.399 N 
ATOM     35  H1  UNL     1       0.341   8.645  14.194  1.00  0.00     0.158 HD
BRANCH  34  36
HETATM   36  C9  UNL     1       1.654   7.437  15.481  1.00  0.00     0.144 C 
BRANCH  36  37
HETATM   37  C10 UNL     1       2.188   8.758  16.041  1.00  0.00     0.183 C 
BRANCH  37  38
HETATM   38  O3  UNL     1       2.357   8.677  17.457  1.00  0.00    -0.399 OA
HETATM   39  H16 UNL     1       1.484   8.414  17.814  1.00  0.00     0.209 HD
ENDBRANCH  37  38
ENDBRANCH  36  37
ENDBRANCH  34  36
ENDBRANCH   4  33
BRANCH  13  40
HETATM   40  O6  UNL     1      -2.583   7.716  16.071  1.00  0.00    -0.389 OA
HETATM   41  H33 UNL     1      -3.141   7.926  16.841  1.00  0.00     0.210 HD
ENDBRANCH  13  40
BRANCH  10  42
HETATM   42  C17 UNL     1      -6.679   6.527  13.520  1.00  0.00    -0.045 A 
HETATM   43  C18 UNL     1      -7.899   6.986  13.799  1.00  0.00     0.087 A 
HETATM   44  C19 UNL     1      -8.856   5.938  13.451  1.00  0.00     0.283 A 
HETATM   45  O4  UNL     1     -10.062   6.019  13.595  1.00  0.00    -0.260 OA
HETATM   46  O5  UNL     1      -8.178   4.870  12.953  1.00  0.00    -0.314 OA
HETATM   47  C20 UNL     1      -6.776   5.138  13.008  1.00  0.00     0.213 A 
ENDBRANCH  10  42
TORSDOF 11
ENDMDL
MODEL 2
REMARK minimizedAffinity -10.9152994
REMARK CNNscore 0.645689845
REMARK CNNaffinity 7.0120635
REMARK  11 active torsions:
REMARK  status: ('A' for Active; 'I' for Inactive)
REMARK    1  A    between atoms: C3_4  and  O2_5 
REMARK    2  A    between atoms: O2_5  and  C4_6 
REMARK    3  A    between atoms: C7_9  and  C8_10 
REMARK    4  A    between atoms: N1_11  and  C9_13 
REMARK    5  A    between atoms: C9_13  and  C10_14 
REMARK    6  A    between atoms: C10_14  and  O3_15 
REMARK    7  A    between atoms: C16_21  and  C17_22 
REMARK    8  A    between atoms: C23_30  and  O6_31 
REMARK    9  A    between atoms: C27_35  and  O7_36 
REMARK   10  A    between atoms: C30_39  and  O8_40 
REMARK   11  A    between atoms: C31_41  and  O9_42 
ROOT
HETATM    1  C4  UNL     1       2.407   7.696  11.266  1.00  0.00     0.127 C 
HETATM    2  C5  UNL     1       2.181   6.259  11.737  1.00  0.00     0.033 C 
HETATM    3  C6  UNL     1       0.812   5.996  12.373  1.00  0.00     0.021 C 
HETATM    4  C7  UNL     1       0.137   7.206  13.066  1.00  0.00     0.026 C 
HETATM    5  C11 UNL     1      -1.344   6.818  13.450  1.00  0.00     0.009 C 
HETATM    6  C12 UNL     1      -1.510   5.684  14.463  1.00  0.00     0.007 C 
HETATM    7  C13 UNL     1      -2.967   5.221  14.466  1.00  0.00     0.013 C 
HETATM    8  C14 UNL     1      -4.000   6.357  14.687  1.00  0.00    -0.005 C 
HETATM    9  C15 UNL     1      -4.817   5.979  15.953  1.00  0.00     0.019 C 
HETATM   10  C16 UNL     1      -4.941   6.582  13.457  1.00  0.00     0.028 C 
HETATM   11  C21 UNL     1      -5.535   7.988  13.692  1.00  0.00     0.013 C 
HETATM   12  C22 UNL     1      -4.554   8.729  14.612  1.00  0.00     0.040 C 
HETATM   13  C23 UNL     1      -3.358   7.781  14.815  1.00  0.00     0.070 C 
HETATM   14  C24 UNL     1      -2.143   8.077  13.866  1.00  0.00     0.026 C 
HETATM   15  C25 UNL     1      -2.379   8.939  12.611  1.00  0.00     0.011 C 
HETATM   16  C26 UNL     1      -1.283   8.779  11.547  1.00  0.00     0.039 C 
HETATM   17  C27 UNL     1       0.125   8.476  12.113  1.00  0.00     0.073 C 
HETATM   18  C28 UNL     1       1.077   8.341  10.902  1.00  0.00     0.071 C 
ENDROOT
BRANCH   1  19
HETATM   19  O2  UNL     1       3.218   7.699  10.085  1.00  0.00    -0.356 OA
BRANCH  19  20
HETATM   20  C3  UNL     1       4.617   7.850  10.339  1.00  0.00     0.263 C 
HETATM   21  O1  UNL     1       5.143   6.541  10.590  1.00  0.00    -0.354 OA
HETATM   22  C2  UNL     1       6.549   6.563  10.840  1.00  0.00     0.151 C 
HETATM   23  C1  UNL     1       7.021   5.118  10.952  1.00  0.00     0.042 C 
HETATM   24  C31 UNL     1       6.838   7.354  12.127  1.00  0.00     0.175 C 
HETATM   25  C30 UNL     1       6.254   8.769  12.013  1.00  0.00     0.154 C 
HETATM   26  C29 UNL     1       4.803   8.733  11.569  1.00  0.00     0.095 C 
BRANCH  24  27
HETATM   27  O9  UNL     1       8.245   7.478  12.363  1.00  0.00    -0.390 OA
HETATM   28  H47 UNL     1       8.561   6.615  12.684  1.00  0.00     0.210 HD
ENDBRANCH  24  27
BRANCH  25  29
HETATM   29  O8  UNL     1       7.023   9.527  11.066  1.00  0.00    -0.393 OA
HETATM   30  H45 UNL     1       7.951   9.293  11.272  1.00  0.00     0.210 HD
ENDBRANCH  25  29
ENDBRANCH  19  20
ENDBRANCH   1  19
BRANCH  17  31
HETATM   31  O7  UNL     1       0.497   9.652  12.864  1.00  0.00    -0.389 OA
HETATM   32  H39 UNL     1       0.757  10.347  12.232  1.00  0.00     0.210 HD
ENDBRANCH  17  31
BRANCH   4  33
HETATM   33  C8  UNL     1       0.895   7.522  14.365  1.00  0.00     0.068 C 
HETATM   34  N1  UNL     1       1.915   6.828  14.749  1.00  0.00    -0.399 N 
ATOM     35  H1  UNL     1       2.213   5.974  14.276  1.00  0.00     0.158 HD
BRANCH  34  36
HETATM   36  C9  UNL     1       2.612   7.373  15.926  1.00  0.00     0.144 C 
BRANCH  36  37
HETATM   37  C10 UNL     1       3.960   7.947  15.480  1.00  0.00     0.183 C 
BRANCH  37  38
HETATM   38  O3  UNL     1       4.992   6.967  15.595  1.00  0.00    -0.399 OA
HETATM   39  H16 UNL     1       4.971   6.668  16.527  1.00  0.00     0.209 HD
ENDBRANCH  37  38
ENDBRANCH  36  37
ENDBRANCH  34  36
ENDBRANCH   4  33
BRANCH  13  40
HETATM   40  O6  UNL     1      -2.830   7.950  16.138  1.00  0.00    -0.389 OA
HETATM   41  H33 UNL     1      -3.562   8.092  16.763  1.00  0.00     0.210 HD
ENDBRANCH  13  40
BRANCH  10  42
HETATM   42  C17 UNL     1      -5.956   5.519  13.136  1.00  0.00    -0.045 A 
HETATM   43  C18 UNL     1      -5.679   4.263  12.785  1.00  0.00     0.087 A 
HETATM   44  C19 UNL     1      -6.949   3.580  12.547  1.00  0.00     0.283 A 
HETATM   45  O4  UNL     1      -7.062   2.420  12.194  1.00  0.00    -0.260 OA
HETATM   46  O5  UNL     1      -7.967   4.451  12.776  1.00  0.00    -0.314 OA
HETATM   47  C20 UNL     1      -7.424   5.730  13.107  1.00  0.00     0.213 A 
ENDBRANCH  10  42
TORSDOF 11
ENDMDL
MODEL 3
REMARK minimizedAffinity -9.81768036
REMARK CNNscore 0.575663745
REMARK CNNaffinity 6.5823617
REMARK  11 active torsions:
REMARK  status: ('A' for Active; 'I' for Inactive)
REMARK    1  A    between atoms: C3_4  and  O2_5 
REMARK    2  A    between atoms: O2_5  and  C4_6 
REMARK    3  A    between atoms: C7_9  and  C8_10 
REMARK    4  A    between atoms: N1_11  and  C9_13 
REMARK    5  A    between atoms: C9_13  and  C10_14 
REMARK    6  A    between atoms: C10_14  and  O3_15 
REMARK    7  A    between atoms: C16_21  and  C17_22 
REMARK    8  A    between atoms: C23_30  and  O6_31 
REMARK    9  A    between atoms: C27_35  and  O7_36 
REMARK   10  A    between atoms: C30_39  and  O8_40 
REMARK   11  A    between atoms: C31_41  and  O9_42 
ROOT
HETATM    1  C4  UNL     1       2.456   8.726  13.498  1.00  0.00     0.127 C 
HETATM    2  C5  UNL     1       2.304   7.398  14.239  1.00  0.00     0.033 C 
HETATM    3  C6  UNL     1       0.858   6.931  14.437  1.00  0.00     0.021 C 
HETATM    4  C7  UNL     1      -0.215   8.046  14.516  1.00  0.00     0.026 C 
HETATM    5  C11 UNL     1      -1.648   7.384  14.483  1.00  0.00     0.009 C 
HETATM    6  C12 UNL     1      -1.999   6.463  15.653  1.00  0.00     0.007 C 
HETATM    7  C13 UNL     1      -3.254   5.663  15.304  1.00  0.00     0.013 C 
HETATM    8  C14 UNL     1      -4.463   6.527  14.858  1.00  0.00    -0.005 C 
HETATM    9  C15 UNL     1      -5.625   6.211  15.839  1.00  0.00     0.019 C 
HETATM   10  C16 UNL     1      -4.891   6.268  13.375  1.00  0.00     0.028 C 
HETATM   11  C21 UNL     1      -5.748   7.500  13.013  1.00  0.00     0.013 C 
HETATM   12  C22 UNL     1      -5.322   8.626  13.966  1.00  0.00     0.040 C 
HETATM   13  C23 UNL     1      -4.155   8.062  14.798  1.00  0.00     0.070 C 
HETATM   14  C24 UNL     1      -2.737   8.461  14.257  1.00  0.00     0.026 C 
HETATM   15  C25 UNL     1      -2.616   8.977  12.811  1.00  0.00     0.011 C 
HETATM   16  C26 UNL     1      -1.189   8.891  12.250  1.00  0.00     0.039 C 
HETATM   17  C27 UNL     1      -0.071   9.064  13.306  1.00  0.00     0.073 C 
HETATM   18  C28 UNL     1       1.277   8.937  12.558  1.00  0.00     0.071 C 
ENDROOT
BRANCH   1  19
HETATM   19  O2  UNL     1       3.642   8.702  12.694  1.00  0.00    -0.356 OA
BRANCH  19  20
HETATM   20  C3  UNL     1       3.589   7.777  11.605  1.00  0.00     0.263 C 
HETATM   21  O1  UNL     1       3.367   8.542  10.414  1.00  0.00    -0.354 OA
HETATM   22  C2  UNL     1       3.314   7.721   9.247  1.00  0.00     0.151 C 
HETATM   23  C1  UNL     1       3.218   8.643   8.037  1.00  0.00     0.042 C 
HETATM   24  C31 UNL     1       2.108   6.770   9.331  1.00  0.00     0.175 C 
HETATM   25  C30 UNL     1       2.191   5.935  10.617  1.00  0.00     0.154 C 
HETATM   26  C29 UNL     1       2.428   6.813  11.832  1.00  0.00     0.095 C 
BRANCH  24  27
HETATM   27  O9  UNL     1       2.074   5.866   8.223  1.00  0.00    -0.390 OA
HETATM   28  H47 UNL     1       1.769   6.371   7.448  1.00  0.00     0.210 HD
ENDBRANCH  24  27
BRANCH  25  29
HETATM   29  O8  UNL     1       3.261   4.984  10.500  1.00  0.00    -0.393 OA
HETATM   30  H45 UNL     1       3.177   4.643   9.586  1.00  0.00     0.210 HD
ENDBRANCH  25  29
ENDBRANCH  19  20
ENDBRANCH   1  19
BRANCH  17  31
HETATM   31  O7  UNL     1      -0.205  10.418  13.789  1.00  0.00    -0.389 OA
HETATM   32  H39 UNL     1       0.158  11.020  13.114  1.00  0.00     0.210 HD
ENDBRANCH  17  31
BRANCH   4  33
HETATM   33  C8  UNL     1      -0.067   8.786  15.855  1.00  0.00     0.068 C 
HETATM   34  N1  UNL     1      -0.938   9.651  16.260  1.00  0.00    -0.399 N 
ATOM     35  H1  UNL     1      -1.713   9.970  15.677  1.00  0.00     0.158 HD
BRANCH  34  36
HETATM   36  C9  UNL     1      -0.719  10.136  17.633  1.00  0.00     0.144 C 
BRANCH  36  37
HETATM   37  C10 UNL     1      -0.502  11.651  17.592  1.00  0.00     0.183 C 
BRANCH  37  38
HETATM   38  O3  UNL     1      -1.579  12.300  16.914  1.00  0.00    -0.399 OA
HETATM   39  H16 UNL     1      -1.631  11.877  16.032  1.00  0.00     0.209 HD
ENDBRANCH  37  38
ENDBRANCH  36  37
ENDBRANCH  34  36
ENDBRANCH   4  33
BRANCH  13  40
HETATM   40  O6  UNL     1      -4.201   8.611  16.123  1.00  0.00    -0.389 OA
HETATM   41  H33 UNL     1      -5.128   8.685  16.410  1.00  0.00     0.210 HD
ENDBRANCH  13  40
BRANCH  10  42
HETATM   42  C17 UNL     1      -5.523   4.944  13.040  1.00  0.00    -0.045 A 
HETATM   43  C18 UNL     1      -6.795   4.614  13.263  1.00  0.00     0.087 A 
HETATM   44  C19 UNL     1      -6.981   3.239  12.806  1.00  0.00     0.283 A 
HETATM   45  O4  UNL     1      -8.025   2.615  12.877  1.00  0.00    -0.260 OA
HETATM   46  O5  UNL     1      -5.805   2.778  12.304  1.00  0.00    -0.314 OA
HETATM   47  C20 UNL     1      -4.803   3.785  12.459  1.00  0.00     0.213 A 
ENDBRANCH  10  42
TORSDOF 11
ENDMDL
MODEL 4
REMARK minimizedAffinity -8.67558193
REMARK CNNscore 0.508042097
REMARK CNNaffinity 6.66227531
REMARK  11 active torsions:
REMARK  status: ('A' for Active; 'I' for Inactive)
REMARK    1  A    between atoms: C3_4  and  O2_5 
REMARK    2  A    between atoms: O2_5  and  C4_6 
REMARK    3  A    between atoms: C7_9  and  C8_10 
REMARK    4  A    between atoms: N1_11  and  C9_13 
REMARK    5  A    between atoms: C9_13  and  C10_14 
REMARK    6  A    between atoms: C10_14  and  O3_15 
REMARK    7  A    between atoms: C16_21  and  C17_22 
REMARK    8  A    between atoms: C23_30  and  O6_31 
REMARK    9  A    between atoms: C27_35  and  O7_36 
REMARK   10  A    between atoms: C30_39  and  O8_40 
REMARK   11  A    between atoms: C31_41  and  O9_42 
ROOT
HETATM    1  C4  UNL     1       0.213   6.195  12.886  1.00  0.00     0.127 C 
HETATM    2  C5  UNL     1      -0.921   6.964  12.209  1.00  0.00     0.033 C 
HETATM    3  C6  UNL     1      -1.478   8.139  13.020  1.00  0.00     0.021 C 
HETATM    4  C7  UNL     1      -1.370   8.018  14.560  1.00  0.00     0.026 C 
HETATM    5  C11 UNL     1      -1.769   9.399  15.213  1.00  0.00     0.009 C 
HETATM    6  C12 UNL     1      -3.208   9.867  14.989  1.00  0.00     0.007 C 
HETATM    7  C13 UNL     1      -3.327  11.337  15.389  1.00  0.00     0.013 C 
HETATM    8  C14 UNL     1      -2.827  11.654  16.823  1.00  0.00    -0.005 C 
HETATM    9  C15 UNL     1      -4.026  12.280  17.587  1.00  0.00     0.019 C 
HETATM   10  C16 UNL     1      -1.586  12.607  16.846  1.00  0.00     0.028 C 
HETATM   11  C21 UNL     1      -0.994  12.417  18.259  1.00  0.00     0.013 C 
HETATM   12  C22 UNL     1      -1.467  11.043  18.751  1.00  0.00     0.040 C 
HETATM   13  C23 UNL     1      -2.242  10.412  17.579  1.00  0.00     0.070 C 
HETATM   14  C24 UNL     1      -1.389   9.418  16.714  1.00  0.00     0.026 C 
HETATM   15  C25 UNL     1       0.146   9.471  16.826  1.00  0.00     0.011 C 
HETATM   16  C26 UNL     1       0.867   8.815  15.639  1.00  0.00     0.039 C 
HETATM   17  C27 UNL     1       0.106   7.629  15.000  1.00  0.00     0.073 C 
HETATM   18  C28 UNL     1       0.977   7.114  13.830  1.00  0.00     0.071 C 
ENDROOT
BRANCH   1  19
HETATM   19  O2  UNL     1       1.143   5.731  11.900  1.00  0.00    -0.356 OA
BRANCH  19  20
HETATM   20  C3  UNL     1       1.736   6.773  11.121  1.00  0.00     0.263 C 
HETATM   21  O1  UNL     1       0.815   7.089  10.070  1.00  0.00    -0.354 OA
HETATM   22  C2  UNL     1       1.294   8.140   9.230  1.00  0.00     0.151 C 
HETATM   23  C1  UNL     1       0.184   8.485   8.244  1.00  0.00     0.042 C 
HETATM   24  C31 UNL     1       2.574   7.688   8.506  1.00  0.00     0.175 C 
HETATM   25  C30 UNL     1       3.627   7.250   9.534  1.00  0.00     0.154 C 
HETATM   26  C29 UNL     1       3.048   6.264  10.533  1.00  0.00     0.095 C 
BRANCH  24  27
HETATM   27  O9  UNL     1       3.137   8.747   7.726  1.00  0.00    -0.390 OA
HETATM   28  H47 UNL     1       2.584   8.846   6.931  1.00  0.00     0.210 HD
ENDBRANCH  24  27
BRANCH  25  29
HETATM   29  O8  UNL     1       4.120   8.403  10.233  1.00  0.00    -0.393 OA
HETATM   30  H45 UNL     1       4.233   9.077   9.531  1.00  0.00     0.210 HD
ENDBRANCH  25  29
ENDBRANCH  19  20
ENDBRANCH   1  19
BRANCH  17  31
HETATM   31  O7  UNL     1       0.057   6.610  16.022  1.00  0.00    -0.389 OA
HETATM   32  H39 UNL     1       0.935   6.189  16.074  1.00  0.00     0.210 HD
ENDBRANCH  17  31
BRANCH   4  33
HETATM   33  C8  UNL     1      -2.368   6.957  15.048  1.00  0.00     0.068 C 
HETATM   34  N1  UNL     1      -3.330   7.245  15.862  1.00  0.00    -0.399 N 
ATOM     35  H1  UNL     1      -3.423   8.158  16.308  1.00  0.00     0.158 HD
BRANCH  34  36
HETATM   36  C9  UNL     1      -4.282   6.145  16.091  1.00  0.00     0.144 C 
BRANCH  36  37
HETATM   37  C10 UNL     1      -5.650   6.552  15.536  1.00  0.00     0.183 C 
BRANCH  37  38
HETATM   38  O3  UNL     1      -6.681   6.296  16.490  1.00  0.00    -0.399 OA
HETATM   39  H16 UNL     1      -6.605   5.346  16.715  1.00  0.00     0.209 HD
ENDBRANCH  37  38
ENDBRANCH  36  37
ENDBRANCH  34  36
ENDBRANCH   4  33
BRANCH  13  40
HETATM   40  O6  UNL     1      -3.319   9.612  18.089  1.00  0.00    -0.389 OA
HETATM   41  H33 UNL     1      -3.709  10.052  18.865  1.00  0.00     0.210 HD
ENDBRANCH  13  40
BRANCH  10  42
HETATM   42  C17 UNL     1      -1.785  14.042  16.437  1.00  0.00    -0.045 A 
HETATM   43  C18 UNL     1      -1.007  14.724  15.597  1.00  0.00     0.087 A 
HETATM   44  C19 UNL     1      -1.546  16.078  15.497  1.00  0.00     0.283 A 
HETATM   45  O4  UNL     1      -1.066  16.972  14.823  1.00  0.00    -0.260 OA
HETATM   46  O5  UNL     1      -2.654  16.171  16.279  1.00  0.00    -0.314 OA
HETATM   47  C20 UNL     1      -2.852  14.930  16.958  1.00  0.00     0.213 A 
ENDBRANCH  10  42
TORSDOF 11
ENDMDL
MODEL 5
REMARK minimizedAffinity -9.78232002
REMARK CNNscore 0.50522238
REMARK CNNaffinity 6.6750741
REMARK  11 active torsions:
REMARK  status: ('A' for Active; 'I' for Inactive)
REMARK    1  A    between atoms: C3_4  and  O2_5 
REMARK    2  A    between atoms: O2_5  and  C4_6 
REMARK    3  A    between atoms: C7_9  and  C8_10 
REMARK    4  A    between atoms: N1_11  and  C9_13 
REMARK    5  A    between atoms: C9_13  and  C10_14 
REMARK    6  A    between atoms: C10_14  and  O3_15 
REMARK    7  A    between atoms: C16_21  and  C17_22 
REMARK    8  A    between atoms: C23_30  and  O6_31 
REMARK    9  A    between atoms: C27_35  and  O7_36 
REMARK   10  A    between atoms: C30_39  and  O8_40 
REMARK   11  A    between atoms: C31_41  and  O9_42 
ROOT
HETATM    1  C4  UNL     1       2.320   8.355  12.382  1.00  0.00     0.127 C 
HETATM    2  C5  UNL     1       2.232   6.961  13.005  1.00  0.00     0.033 C 
HETATM    3  C6  UNL     1       0.821   6.527  13.418  1.00  0.00     0.021 C 
HETATM    4  C7  UNL     1      -0.159   7.664  13.801  1.00  0.00     0.026 C 
HETATM    5  C11 UNL     1      -1.608   7.060  13.966  1.00  0.00     0.009 C 
HETATM    6  C12 UNL     1      -1.793   6.033  15.084  1.00  0.00     0.007 C 
HETATM    7  C13 UNL     1      -3.131   5.318  14.894  1.00  0.00     0.013 C 
HETATM    8  C14 UNL     1      -4.352   6.267  14.764  1.00  0.00    -0.005 C 
HETATM    9  C15 UNL     1      -5.336   5.889  15.906  1.00  0.00     0.019 C 
HETATM   10  C16 UNL     1      -5.052   6.182  13.367  1.00  0.00     0.028 C 
HETATM   11  C21 UNL     1      -5.892   7.474  13.291  1.00  0.00     0.013 C 
HETATM   12  C22 UNL     1      -5.243   8.477  14.255  1.00  0.00     0.040 C 
HETATM   13  C23 UNL     1      -3.979   7.788  14.800  1.00  0.00     0.070 C 
HETATM   14  C24 UNL     1      -2.660   8.192  14.050  1.00  0.00     0.026 C 
HETATM   15  C25 UNL     1      -2.772   8.855  12.664  1.00  0.00     0.011 C 
HETATM   16  C26 UNL     1      -1.475   8.779  11.846  1.00  0.00     0.039 C 
HETATM   17  C27 UNL     1      -0.179   8.799  12.690  1.00  0.00     0.073 C 
HETATM   18  C28 UNL     1       1.005   8.705  11.699  1.00  0.00     0.071 C 
ENDROOT
BRANCH   1  19
HETATM   19  O2  UNL     1       3.340   8.374  11.377  1.00  0.00    -0.356 OA
BRANCH  19  20
HETATM   20  C3  UNL     1       4.575   8.951  11.809  1.00  0.00     0.263 C 
HETATM   21  O1  UNL     1       4.260  10.205  12.426  1.00  0.00    -0.354 OA
HETATM   22  C2  UNL     1       5.424  10.870  12.919  1.00  0.00     0.151 C 
HETATM   23  C1  UNL     1       4.961  12.112  13.673  1.00  0.00     0.042 C 
HETATM   24  C31 UNL     1       6.354  11.233  11.749  1.00  0.00     0.175 C 
HETATM   25  C30 UNL     1       6.710   9.968  10.955  1.00  0.00     0.154 C 
HETATM   26  C29 UNL     1       5.468   9.175  10.592  1.00  0.00     0.095 C 
BRANCH  24  27
HETATM   27  O9  UNL     1       7.575  11.819  12.211  1.00  0.00    -0.390 OA
HETATM   28  H47 UNL     1       7.372  12.731  12.484  1.00  0.00     0.210 HD
ENDBRANCH  24  27
BRANCH  25  29
HETATM   29  O8  UNL     1       7.589   9.145  11.738  1.00  0.00    -0.393 OA
HETATM   30  H45 UNL     1       8.218   9.782  12.137  1.00  0.00     0.210 HD
ENDBRANCH  25  29
ENDBRANCH  19  20
ENDBRANCH   1  19
BRANCH  17  31
HETATM   31  O7  UNL     1      -0.152  10.098  13.320  1.00  0.00    -0.389 OA
HETATM   32  H39 UNL     1       0.117  10.755  12.652  1.00  0.00     0.210 HD
ENDBRANCH  17  31
BRANCH   4  33
HETATM   33  C8  UNL     1       0.266   8.253  15.156  1.00  0.00     0.068 C 
HETATM   34  N1  UNL     1       0.539   9.507  15.302  1.00  0.00    -0.399 N 
ATOM     35  H1  UNL     1       0.593  10.157  14.517  1.00  0.00     0.158 HD
BRANCH  34  36
HETATM   36  C9  UNL     1       0.767   9.921  16.697  1.00  0.00     0.144 C 
BRANCH  36  37
HETATM   37  C10 UNL     1       2.265   9.829  17.000  1.00  0.00     0.183 C 
BRANCH  37  38
HETATM   38  O3  UNL     1       2.493   9.744  18.407  1.00  0.00    -0.399 OA
HETATM   39  H16 UNL     1       2.052  10.527  18.796  1.00  0.00     0.209 HD
ENDBRANCH  37  38
ENDBRANCH  36  37
ENDBRANCH  34  36
ENDBRANCH   4  33
BRANCH  13  40
HETATM   40  O6  UNL     1      -3.758   8.194  16.158  1.00  0.00    -0.389 OA
HETATM   41  H33 UNL     1      -4.613   8.270  16.616  1.00  0.00     0.210 HD
ENDBRANCH  13  40
BRANCH  10  42
HETATM   42  C17 UNL     1      -5.804   4.924  13.025  1.00  0.00    -0.045 A 
HETATM   43  C18 UNL     1      -7.103   4.715  13.239  1.00  0.00     0.087 A 
HETATM   44  C19 UNL     1      -7.414   3.363  12.779  1.00  0.00     0.283 A 
HETATM   45  O4  UNL     1      -8.512   2.841  12.842  1.00  0.00    -0.260 OA
HETATM   46  O5  UNL     1      -6.283   2.795  12.283  1.00  0.00    -0.314 OA
HETATM   47  C20 UNL     1      -5.193   3.702  12.447  1.00  0.00     0.213 A 
ENDBRANCH  10  42
TORSDOF 11
ENDMDL
MODEL 6
REMARK minimizedAffinity -10.2066116
REMARK CNNscore 0.381724983
REMARK CNNaffinity 6.742342
REMARK  11 active torsions:
REMARK  status: ('A' for Active; 'I' for Inactive)
REMARK    1  A    between atoms: C3_4  and  O2_5 
REMARK    2  A    between atoms: O2_5  and  C4_6 
REMARK    3  A    between atoms: C7_9  and  C8_10 
REMARK    4  A    between atoms: N1_11  and  C9_13 
REMARK    5  A    between atoms: C9_13  and  C10_14 
REMARK    6  A    between atoms: C10_14  and  O3_15 
REMARK    7  A    between atoms: C16_21  and  C17_22 
REMARK    8  A    between atoms: C23_30  and  O6_31 
REMARK    9  A    between atoms: C27_35  and  O7_36 
REMARK   10  A    between atoms: C30_39  and  O8_40 
REMARK   11  A    between atoms: C31_41  and  O9_42 
ROOT
HETATM    1  C4  UNL     1      -6.307   6.731  14.745  1.00  0.00     0.127 C 
HETATM    2  C5  UNL     1      -6.184   7.615  13.503  1.00  0.00     0.033 C 
HETATM    3  C6  UNL     1      -4.752   7.830  13.003  1.00  0.00     0.021 C 
HETATM    4  C7  UNL     1      -3.636   7.757  14.075  1.00  0.00     0.026 C 
HETATM    5  C11 UNL     1      -2.231   7.766  13.355  1.00  0.00     0.009 C 
HETATM    6  C12 UNL     1      -1.882   9.024  12.558  1.00  0.00     0.007 C 
HETATM    7  C13 UNL     1      -0.669   8.739  11.673  1.00  0.00     0.013 C 
HETATM    8  C14 UNL     1       0.559   8.169  12.431  1.00  0.00    -0.005 C 
HETATM    9  C15 UNL     1       1.735   9.153  12.180  1.00  0.00     0.019 C 
HETATM   10  C16 UNL     1       0.936   6.716  11.990  1.00  0.00     0.028 C 
HETATM   11  C21 UNL     1       1.828   6.197  13.137  1.00  0.00     0.013 C 
HETATM   12  C22 UNL     1       1.472   7.025  14.379  1.00  0.00     0.040 C 
HETATM   13  C23 UNL     1       0.308   7.943  13.961  1.00  0.00     0.070 C 
HETATM   14  C24 UNL     1      -1.109   7.394  14.354  1.00  0.00     0.026 C 
HETATM   15  C25 UNL     1      -1.249   5.901  14.709  1.00  0.00     0.011 C 
HETATM   16  C26 UNL     1      -2.694   5.388  14.619  1.00  0.00     0.039 C 
HETATM   17  C27 UNL     1      -3.775   6.443  14.955  1.00  0.00     0.073 C 
HETATM   18  C28 UNL     1      -5.147   5.746  14.800  1.00  0.00     0.071 C 
ENDROOT
BRANCH   1  19
HETATM   19  O2  UNL     1      -7.514   5.963  14.678  1.00  0.00    -0.356 OA
BRANCH  19  20
HETATM   20  C3  UNL     1      -8.669   6.649  15.169  1.00  0.00     0.263 C 
HETATM   21  O1  UNL     1      -9.548   6.843  14.055  1.00  0.00    -0.354 OA
HETATM   22  C2  UNL     1     -10.755   7.507  14.430  1.00  0.00     0.151 C 
HETATM   23  C1  UNL     1     -11.667   7.534  13.208  1.00  0.00     0.042 C 
HETATM   24  C31 UNL     1     -10.437   8.927  14.929  1.00  0.00     0.175 C 
HETATM   25  C30 UNL     1      -9.436   8.859  16.091  1.00  0.00     0.154 C 
HETATM   26  C29 UNL     1      -8.237   7.997  15.737  1.00  0.00     0.095 C 
BRANCH  24  27
HETATM   27  O9  UNL     1     -11.613   9.593  15.402  1.00  0.00    -0.390 OA
HETATM   28  H47 UNL     1     -12.128   9.858  14.620  1.00  0.00     0.210 HD
ENDBRANCH  24  27
BRANCH  25  29
HETATM   29  O8  UNL     1     -10.087   8.317  17.250  1.00  0.00    -0.393 OA
HETATM   30  H45 UNL     1     -10.962   8.756  17.258  1.00  0.00     0.210 HD
ENDBRANCH  25  29
ENDBRANCH  19  20
ENDBRANCH   1  19
BRANCH  17  31
HETATM   31  O7  UNL     1      -3.576   6.766  16.348  1.00  0.00    -0.389 OA
HETATM   32  H39 UNL     1      -3.935   6.035  16.884  1.00  0.00     0.210 HD
ENDBRANCH  17  31
BRANCH   4  33
HETATM   33  C8  UNL     1      -3.719   9.006  14.966  1.00  0.00     0.068 C 
HETATM   34  N1  UNL     1      -3.908   8.925  16.242  1.00  0.00    -0.399 N 
ATOM     35  H1  UNL     1      -4.118   8.046  16.716  1.00  0.00     0.158 HD
BRANCH  34  36
HETATM   36  C9  UNL     1      -3.797  10.209  16.955  1.00  0.00     0.144 C 
BRANCH  36  37
HETATM   37  C10 UNL     1      -2.727  10.079  18.042  1.00  0.00     0.183 C 
BRANCH  37  38
HETATM   38  O3  UNL     1      -3.307   9.657  19.277  1.00  0.00    -0.399 OA
HETATM   39  H16 UNL     1      -4.007  10.311  19.479  1.00  0.00     0.209 HD
ENDBRANCH  37  38
ENDBRANCH  36  37
ENDBRANCH  34  36
ENDBRANCH   4  33
BRANCH  13  40
HETATM   40  O6  UNL     1       0.412   9.196  14.653  1.00  0.00    -0.389 OA
HETATM   41  H33 UNL     1       1.349   9.451  14.721  1.00  0.00     0.210 HD
ENDBRANCH  13  40
BRANCH  10  42
HETATM   42  C17 UNL     1       1.507   6.518  10.612  1.00  0.00    -0.045 A 
HETATM   43  C18 UNL     1       2.401   5.591  10.270  1.00  0.00     0.087 A 
HETATM   44  C19 UNL     1       2.695   5.764   8.849  1.00  0.00     0.283 A 
HETATM   45  O4  UNL     1       3.486   5.091   8.213  1.00  0.00    -0.260 OA
HETATM   46  O5  UNL     1       1.951   6.795   8.367  1.00  0.00    -0.314 OA
HETATM   47  C20 UNL     1       1.200   7.370   9.437  1.00  0.00     0.213 A 
ENDBRANCH  10  42
TORSDOF 11
ENDMDL
MODEL 7
REMARK minimizedAffinity -7.66774321
REMARK CNNscore 0.368000358
REMARK CNNaffinity 5.89265585
REMARK  11 active torsions:
REMARK  status: ('A' for Active; 'I' for Inactive)
REMARK    1  A    between atoms: C3_4  and  O2_5 
REMARK    2  A    between atoms: O2_5  and  C4_6 
REMARK    3  A    between atoms: C7_9  and  C8_10 
REMARK    4  A    between atoms: N1_11  and  C9_13 
REMARK    5  A    between atoms: C9_13  and  C10_14 
REMARK    6  A    between atoms: C10_14  and  O3_15 
REMARK    7  A    between atoms: C16_21  and  C17_22 
REMARK    8  A    between atoms: C23_30  and  O6_31 
REMARK    9  A    between atoms: C27_35  and  O7_36 
REMARK   10  A    between atoms: C30_39  and  O8_40 
REMARK   11  A    between atoms: C31_41  and  O9_42 
ROOT
HETATM    1  C4  UNL     1      -6.300  -9.666   9.474  1.00  0.00     0.127 C 
HETATM    2  C5  UNL     1      -6.710  -8.385  10.200  1.00  0.00     0.033 C 
HETATM    3  C6  UNL     1      -7.759  -8.574  11.301  1.00  0.00     0.021 C 
HETATM    4  C7  UNL     1      -8.734  -9.765  11.118  1.00  0.00     0.026 C 
HETATM    5  C11 UNL     1      -9.576  -9.946  12.441  1.00  0.00     0.009 C 
HETATM    6  C12 UNL     1     -10.494  -8.785  12.827  1.00  0.00     0.007 C 
HETATM    7  C13 UNL     1     -10.968  -8.976  14.268  1.00  0.00     0.013 C 
HETATM    8  C14 UNL     1     -11.619 -10.355  14.552  1.00  0.00    -0.005 C 
HETATM    9  C15 UNL     1     -13.058 -10.073  15.066  1.00  0.00     0.019 C 
HETATM   10  C16 UNL     1     -10.813 -11.218  15.578  1.00  0.00     0.028 C 
HETATM   11  C21 UNL     1     -11.346 -12.651  15.363  1.00  0.00     0.013 C 
HETATM   12  C22 UNL     1     -11.922 -12.695  13.941  1.00  0.00     0.040 C 
HETATM   13  C23 UNL     1     -11.624 -11.319  13.316  1.00  0.00     0.070 C 
HETATM   14  C24 UNL     1     -10.338 -11.293  12.417  1.00  0.00     0.026 C 
HETATM   15  C25 UNL     1      -9.313 -12.434  12.561  1.00  0.00     0.011 C 
HETATM   16  C26 UNL     1      -7.926 -12.080  12.004  1.00  0.00     0.039 C 
HETATM   17  C27 UNL     1      -7.944 -11.106  10.803  1.00  0.00     0.073 C 
HETATM   18  C28 UNL     1      -6.470 -10.866  10.396  1.00  0.00     0.071 C 
ENDROOT
BRANCH   1  19
HETATM   19  O2  UNL     1      -4.915  -9.600   9.113  1.00  0.00    -0.356 OA
BRANCH  19  20
HETATM   20  C3  UNL     1      -4.685  -9.366   7.722  1.00  0.00     0.263 C 
HETATM   21  O1  UNL     1      -5.579 -10.221   6.998  1.00  0.00    -0.354 OA
HETATM   22  C2  UNL     1      -5.453 -10.060   5.585  1.00  0.00     0.151 C 
HETATM   23  C1  UNL     1      -6.537 -10.905   4.925  1.00  0.00     0.042 C 
HETATM   24  C31 UNL     1      -4.047 -10.491   5.133  1.00  0.00     0.175 C 
HETATM   25  C30 UNL     1      -2.985  -9.690   5.898  1.00  0.00     0.154 C 
HETATM   26  C29 UNL     1      -3.238  -9.723   7.394  1.00  0.00     0.095 C 
BRANCH  24  27
HETATM   27  O9  UNL     1      -3.850 -10.257   3.735  1.00  0.00    -0.390 OA
HETATM   28  H47 UNL     1      -4.342 -10.947   3.255  1.00  0.00     0.210 HD
ENDBRANCH  24  27
BRANCH  25  29
HETATM   29  O8  UNL     1      -2.995  -8.328   5.443  1.00  0.00    -0.393 OA
HETATM   30  H45 UNL     1      -3.083  -8.403   4.471  1.00  0.00     0.210 HD
ENDBRANCH  25  29
ENDBRANCH  19  20
ENDBRANCH   1  19
BRANCH  17  31
HETATM   31  O7  UNL     1      -8.606 -11.822   9.738  1.00  0.00    -0.389 OA
HETATM   32  H39 UNL     1      -7.978 -12.471   9.371  1.00  0.00     0.210 HD
ENDBRANCH  17  31
BRANCH   4  33
HETATM   33  C8  UNL     1      -9.709  -9.440   9.976  1.00  0.00     0.068 C 
HETATM   34  N1  UNL     1      -9.842  -8.242   9.509  1.00  0.00    -0.399 N 
ATOM     35  H1  UNL     1      -9.393  -7.430   9.934  1.00  0.00     0.158 HD
BRANCH  34  36
HETATM   36  C9  UNL     1     -10.696  -8.148   8.313  1.00  0.00     0.144 C 
BRANCH  36  37
HETATM   37  C10 UNL     1     -12.156  -8.338   8.733  1.00  0.00     0.183 C 
BRANCH  37  38
HETATM   38  O3  UNL     1     -12.659  -7.160   9.365  1.00  0.00    -0.399 OA
HETATM   39  H16 UNL     1     -12.048  -6.976  10.108  1.00  0.00     0.209 HD
ENDBRANCH  37  38
ENDBRANCH  36  37
ENDBRANCH  34  36
ENDBRANCH   4  33
BRANCH  13  40
HETATM   40  O6  UNL     1     -12.691 -10.954  12.429  1.00  0.00    -0.389 OA
HETATM   41  H33 UNL     1     -13.540 -11.240  12.808  1.00  0.00     0.210 HD
ENDBRANCH  13  40
BRANCH  10  42
HETATM   42  C17 UNL     1     -10.784 -10.769  17.015  1.00  0.00    -0.045 A 
HETATM   43  C18 UNL     1     -11.465 -11.328  18.015  1.00  0.00     0.087 A 
HETATM   44  C19 UNL     1     -11.164 -10.573  19.229  1.00  0.00     0.283 A 
HETATM   45  O4  UNL     1     -11.633 -10.805  20.329  1.00  0.00    -0.260 OA
HETATM   46  O5  UNL     1     -10.290  -9.577  18.924  1.00  0.00    -0.314 OA
HETATM   47  C20 UNL     1     -10.031  -9.595  17.520  1.00  0.00     0.213 A 
ENDBRANCH  10  42
TORSDOF 11
ENDMDL
MODEL 8
REMARK minimizedAffinity -8.31340313
REMARK CNNscore 0.34923175
REMARK CNNaffinity 5.68643808
REMARK  11 active torsions:
REMARK  status: ('A' for Active; 'I' for Inactive)
REMARK    1  A    between atoms: C3_4  and  O2_5 
REMARK    2  A    between atoms: O2_5  and  C4_6 
REMARK    3  A    between atoms: C7_9  and  C8_10 
REMARK    4  A    between atoms: N1_11  and  C9_13 
REMARK    5  A    between atoms: C9_13  and  C10_14 
REMARK    6  A    between atoms: C10_14  and  O3_15 
REMARK    7  A    between atoms: C16_21  and  C17_22 
REMARK    8  A    between atoms: C23_30  and  O6_31 
REMARK    9  A    between atoms: C27_35  and  O7_36 
REMARK   10  A    between atoms: C30_39  and  O8_40 
REMARK   11  A    between atoms: C31_41  and  O9_42 
ROOT
HETATM    1  C4  UNL     1      -3.806 -10.312   6.896  1.00  0.00     0.127 C 
HETATM    2  C5  UNL     1      -2.875  -9.768   5.812  1.00  0.00     0.033 C 
HETATM    3  C6  UNL     1      -3.377  -9.957   4.377  1.00  0.00     0.021 C 
HETATM    4  C7  UNL     1      -4.304 -11.174   4.131  1.00  0.00     0.026 C 
HETATM    5  C11 UNL     1      -4.904 -11.078   2.674  1.00  0.00     0.009 C 
HETATM    6  C12 UNL     1      -3.903 -11.149   1.520  1.00  0.00     0.007 C 
HETATM    7  C13 UNL     1      -4.593 -10.713   0.228  1.00  0.00     0.013 C 
HETATM    8  C14 UNL     1      -5.905 -11.478  -0.089  1.00  0.00    -0.005 C 
HETATM    9  C15 UNL     1      -5.710 -12.146  -1.477  1.00  0.00     0.019 C 
HETATM   10  C16 UNL     1      -7.172 -10.559  -0.079  1.00  0.00     0.028 C 
HETATM   11  C21 UNL     1      -8.350 -11.548   0.050  1.00  0.00     0.013 C 
HETATM   12  C22 UNL     1      -7.783 -12.825   0.684  1.00  0.00     0.040 C 
HETATM   13  C23 UNL     1      -6.308 -12.524   1.006  1.00  0.00     0.070 C 
HETATM   14  C24 UNL     1      -6.057 -12.095   2.495  1.00  0.00     0.026 C 
HETATM   15  C25 UNL     1      -7.256 -11.624   3.340  1.00  0.00     0.011 C 
HETATM   16  C26 UNL     1      -6.847 -10.811   4.578  1.00  0.00     0.039 C 
HETATM   17  C27 UNL     1      -5.485 -11.214   5.192  1.00  0.00     0.073 C 
HETATM   18  C28 UNL     1      -5.248 -10.286   6.407  1.00  0.00     0.071 C 
ENDROOT
BRANCH   1  19
HETATM   19  O2  UNL     1      -3.738  -9.479   8.060  1.00  0.00    -0.356 OA
BRANCH  19  20
HETATM   20  C3  UNL     1      -4.673  -9.828   9.083  1.00  0.00     0.263 C 
HETATM   21  O1  UNL     1      -5.818  -8.982   8.912  1.00  0.00    -0.354 OA
HETATM   22  C2  UNL     1      -6.837  -9.254   9.875  1.00  0.00     0.151 C 
HETATM   23  C1  UNL     1      -8.051  -8.405   9.515  1.00  0.00     0.042 C 
HETATM   24  C31 UNL     1      -6.321  -8.934  11.287  1.00  0.00     0.175 C 
HETATM   25  C30 UNL     1      -5.040  -9.732  11.569  1.00  0.00     0.154 C 
HETATM   26  C29 UNL     1      -4.033  -9.574  10.444  1.00  0.00     0.095 C 
BRANCH  24  27
HETATM   27  O9  UNL     1      -7.283  -9.281  12.289  1.00  0.00    -0.390 OA
HETATM   28  H47 UNL     1      -7.982  -8.604  12.265  1.00  0.00     0.210 HD
ENDBRANCH  24  27
BRANCH  25  29
HETATM   29  O8  UNL     1      -5.368 -11.121  11.723  1.00  0.00    -0.393 OA
HETATM   30  H45 UNL     1      -6.183 -11.114  12.266  1.00  0.00     0.210 HD
ENDBRANCH  25  29
ENDBRANCH  19  20
ENDBRANCH   1  19
BRANCH  17  31
HETATM   31  O7  UNL     1      -5.665 -12.565   5.670  1.00  0.00    -0.389 OA
HETATM   32  H39 UNL     1      -6.177 -12.528   6.499  1.00  0.00     0.210 HD
ENDBRANCH  17  31
BRANCH   4  33
HETATM   33  C8  UNL     1      -3.470 -12.461   4.215  1.00  0.00     0.068 C 
HETATM   34  N1  UNL     1      -2.219 -12.447   4.542  1.00  0.00    -0.399 N 
ATOM     35  H1  UNL     1      -1.688 -11.584   4.659  1.00  0.00     0.158 HD
BRANCH  34  36
HETATM   36  C9  UNL     1      -1.625 -13.781   4.729  1.00  0.00     0.144 C 
BRANCH  36  37
HETATM   37  C10 UNL     1      -1.103 -13.891   6.164  1.00  0.00     0.183 C 
BRANCH  37  38
HETATM   38  O3  UNL     1      -1.030 -12.604   6.778  1.00  0.00    -0.399 OA
HETATM   39  H16 UNL     1      -0.470 -12.059   6.187  1.00  0.00     0.209 HD
ENDBRANCH  37  38
ENDBRANCH  36  37
ENDBRANCH  34  36
ENDBRANCH   4  33
BRANCH  13  40
HETATM   40  O6  UNL     1      -5.526 -13.716   0.840  1.00  0.00    -0.389 OA
HETATM   41  H33 UNL     1      -5.856 -14.214   0.071  1.00  0.00     0.210 HD
ENDBRANCH  13  40
BRANCH  10  42
HETATM   42  C17 UNL     1      -7.322  -9.545  -1.181  1.00  0.00    -0.045 A 
HETATM   43  C18 UNL     1      -8.128  -8.484  -1.154  1.00  0.00     0.087 A 
HETATM   44  C19 UNL     1      -7.978  -7.783  -2.427  1.00  0.00     0.283 A 
HETATM   45  O4  UNL     1      -8.584  -6.775  -2.744  1.00  0.00    -0.260 OA
HETATM   46  O5  UNL     1      -7.065  -8.442  -3.188  1.00  0.00    -0.314 OA
HETATM   47  C20 UNL     1      -6.631  -9.610  -2.492  1.00  0.00     0.213 A 
ENDBRANCH  10  42
TORSDOF 11
ENDMDL
MODEL 9
REMARK minimizedAffinity -10.2015877
REMARK CNNscore 0.33580029
REMARK CNNaffinity 7.02303839
REMARK  11 active torsions:
REMARK  status: ('A' for Active; 'I' for Inactive)
REMARK    1  A    between atoms: C3_4  and  O2_5 
REMARK    2  A    between atoms: O2_5  and  C4_6 
REMARK    3  A    between atoms: C7_9  and  C8_10 
REMARK    4  A    between atoms: N1_11  and  C9_13 
REMARK    5  A    between atoms: C9_13  and  C10_14 
REMARK    6  A    between atoms: C10_14  and  O3_15 
REMARK    7  A    between atoms: C16_21  and  C17_22 
REMARK    8  A    between atoms: C23_30  and  O6_31 
REMARK    9  A    between atoms: C27_35  and  O7_36 
REMARK   10  A    between atoms: C30_39  and  O8_40 
REMARK   11  A    between atoms: C31_41  and  O9_42 
ROOT
HETATM    1  C4  UNL     1      -5.773   7.154  15.060  1.00  0.00     0.127 C 
HETATM    2  C5  UNL     1      -5.685   7.974  13.772  1.00  0.00     0.033 C 
HETATM    3  C6  UNL     1      -4.271   8.130  13.202  1.00  0.00     0.021 C 
HETATM    4  C7  UNL     1      -3.111   8.081  14.228  1.00  0.00     0.026 C 
HETATM    5  C11 UNL     1      -1.739   8.021  13.449  1.00  0.00     0.009 C 
HETATM    6  C12 UNL     1      -1.398   9.230  12.577  1.00  0.00     0.007 C 
HETATM    7  C13 UNL     1      -0.232   8.873  11.656  1.00  0.00     0.013 C 
HETATM    8  C14 UNL     1       1.015   8.311  12.388  1.00  0.00    -0.005 C 
HETATM    9  C15 UNL     1       2.201   9.252  12.040  1.00  0.00     0.019 C 
HETATM   10  C16 UNL     1       1.340   6.830  12.003  1.00  0.00     0.028 C 
HETATM   11  C21 UNL     1       2.270   6.344  13.135  1.00  0.00     0.013 C 
HETATM   12  C22 UNL     1       1.987   7.239  14.349  1.00  0.00     0.040 C 
HETATM   13  C23 UNL     1       0.827   8.165  13.937  1.00  0.00     0.070 C 
HETATM   14  C24 UNL     1      -0.583   7.670  14.416  1.00  0.00     0.026 C 
HETATM   15  C25 UNL     1      -0.742   6.200  14.850  1.00  0.00     0.011 C 
HETATM   16  C26 UNL     1      -2.200   5.718  14.847  1.00  0.00     0.039 C 
HETATM   17  C27 UNL     1      -3.241   6.814  15.176  1.00  0.00     0.073 C 
HETATM   18  C28 UNL     1      -4.634   6.144  15.114  1.00  0.00     0.071 C 
ENDROOT
BRANCH   1  19
HETATM   19  O2  UNL     1      -6.999   6.414  15.083  1.00  0.00    -0.356 OA
BRANCH  19  20
HETATM   20  C3  UNL     1      -6.928   5.147  14.423  1.00  0.00     0.263 C 
HETATM   21  O1  UNL     1      -5.752   5.165  13.604  1.00  0.00    -0.354 OA
HETATM   22  C2  UNL     1      -5.564   3.934  12.905  1.00  0.00     0.151 C 
HETATM   23  C1  UNL     1      -4.223   4.013  12.184  1.00  0.00     0.042 C 
HETATM   24  C31 UNL     1      -6.723   3.710  11.919  1.00  0.00     0.175 C 
HETATM   25  C30 UNL     1      -8.061   3.742  12.672  1.00  0.00     0.154 C 
HETATM   26  C29 UNL     1      -8.170   4.974  13.554  1.00  0.00     0.095 C 
BRANCH  24  27
HETATM   27  O9  UNL     1      -6.619   2.441  11.265  1.00  0.00    -0.390 OA
HETATM   28  H47 UNL     1      -5.914   2.518  10.598  1.00  0.00     0.210 HD
ENDBRANCH  24  27
BRANCH  25  29
HETATM   29  O8  UNL     1      -8.180   2.564  13.483  1.00  0.00    -0.393 OA
HETATM   30  H45 UNL     1      -7.852   1.844  12.906  1.00  0.00     0.210 HD
ENDBRANCH  25  29
ENDBRANCH  19  20
ENDBRANCH   1  19
BRANCH  17  31
HETATM   31  O7  UNL     1      -2.974   7.198  16.542  1.00  0.00    -0.389 OA
HETATM   32  H39 UNL     1      -3.326   6.503  17.128  1.00  0.00     0.210 HD
ENDBRANCH  17  31
BRANCH   4  33
HETATM   33  C8  UNL     1      -3.127   9.373  15.059  1.00  0.00     0.068 C 
HETATM   34  N1  UNL     1      -3.523   9.390  16.290  1.00  0.00    -0.399 N 
ATOM     35  H1  UNL     1      -3.943   8.581  16.747  1.00  0.00     0.158 HD
BRANCH  34  36
HETATM   36  C9  UNL     1      -3.316  10.677  16.976  1.00  0.00     0.144 C 
BRANCH  36  37
HETATM   37  C10 UNL     1      -2.599  10.418  18.304  1.00  0.00     0.183 C 
BRANCH  37  38
HETATM   38  O3  UNL     1      -3.513   9.932  19.287  1.00  0.00    -0.399 OA
HETATM   39  H16 UNL     1      -4.227  10.600  19.340  1.00  0.00     0.209 HD
ENDBRANCH  37  38
ENDBRANCH  36  37
ENDBRANCH  34  36
ENDBRANCH   4  33
BRANCH  13  40
HETATM   40  O6  UNL     1       0.989   9.446  14.562  1.00  0.00    -0.389 OA
HETATM   41  H33 UNL     1       1.934   9.681  14.577  1.00  0.00     0.210 HD
ENDBRANCH  13  40
BRANCH  10  42
HETATM   42  C17 UNL     1       1.846   6.552  10.613  1.00  0.00    -0.045 A 
HETATM   43  C18 UNL     1       2.611   5.520  10.259  1.00  0.00     0.087 A 
HETATM   44  C19 UNL     1       2.886   5.644   8.829  1.00  0.00     0.283 A 
HETATM   45  O4  UNL     1       3.572   4.874   8.181  1.00  0.00    -0.260 OA
HETATM   46  O5  UNL     1       2.260   6.754   8.355  1.00  0.00    -0.314 OA
HETATM   47  C20 UNL     1       1.613   7.425   9.437  1.00  0.00     0.213 A 
ENDBRANCH  10  42
TORSDOF 11
ENDMDL
