MODEL 1
REMARK minimizedAffinity -8.63997078
REMARK  12 active torsions:
REMARK  status: ('A' for Active; 'I' for Inactive)
REMARK    1  A    between atoms: C3_3  and  O1_4 
REMARK    2  A    between atoms: O1_4  and  C4_5 
REMARK    3  A    between atoms: C5_7  and  C6_8 
REMARK    4  A    between atoms: C6_8  and  O3_9 
REMARK    5  A    between atoms: C7_10  and  O4_11 
REMARK    6  A    between atoms: C8_12  and  O5_13 
REMARK    7  A    between atoms: C9_14  and  O6_15 
REMARK    8  A    between atoms: C10_16  and  O7_17 
REMARK    9  A    between atoms: C15_22  and  O8_23 
REMARK   10  A    between atoms: C15_22  and  C16_24 
REMARK   11  A    between atoms: C17_25  and  C18_26 
REMARK   12  A    between atoms: C18_26  and  O9_28 
ROOT
HETATM    1  C1  UNL     1       1.972  66.020 -36.220  1.00  0.00     0.016 C 
HETATM    2  C2  UNL     1       3.334  66.690 -36.504  1.00  0.00     0.052 C 
HETATM    3  C3  UNL     1       4.158  66.840 -35.202  1.00  0.00     0.160 C 
HETATM    4  C10 UNL     1       5.473  67.629 -35.403  1.00  0.00     0.148 C 
HETATM    5  C11 UNL     1       5.322  68.873 -36.279  1.00  0.00     0.046 C 
HETATM    6  C12 UNL     1       4.637  68.612 -37.635  1.00  0.00    -0.010 C 
HETATM    7  C13 UNL     1       4.572  69.962 -38.398  1.00  0.00     0.018 C 
HETATM    8  C14 UNL     1       5.527  67.684 -38.501  1.00  0.00     0.018 C 
HETATM    9  C15 UNL     1       3.211  67.983 -37.375  1.00  0.00     0.088 C 
ENDROOT
BRANCH   3  10
HETATM   10  O1  UNL     1       4.382  65.492 -34.737  1.00  0.00    -0.350 OA
BRANCH  10  11
HETATM   11  C4  UNL     1       5.033  65.354 -33.484  1.00  0.00     0.292 C 
HETATM   12  O2  UNL     1       6.273  64.656 -33.602  1.00  0.00    -0.348 OA
HETATM   13  C5  UNL     1       6.186  63.296 -34.069  1.00  0.00     0.179 C 
HETATM   14  C7  UNL     1       4.814  62.637 -33.860  1.00  0.00     0.180 C 
HETATM   15  C8  UNL     1       4.268  63.108 -32.517  1.00  0.00     0.183 C 
HETATM   16  C9  UNL     1       4.080  64.629 -32.498  1.00  0.00     0.204 C 
BRANCH  13  17
HETATM   17  C6  UNL     1       6.707  63.153 -35.508  1.00  0.00     0.198 C 
BRANCH  17  18
HETATM   18  O3  UNL     1       5.659  63.055 -36.466  1.00  0.00    -0.398 OA
HETATM   19  H10 UNL     1       6.079  62.878 -37.326  1.00  0.00     0.209 HD
ENDBRANCH  17  18
ENDBRANCH  13  17
BRANCH  14  20
HETATM   20  O4  UNL     1       4.944  61.208 -33.842  1.00  0.00    -0.390 OA
HETATM   21  H12 UNL     1       4.097  60.890 -33.467  1.00  0.00     0.210 HD
ENDBRANCH  14  20
BRANCH  15  22
HETATM   22  O5  UNL     1       3.028  62.434 -32.238  1.00  0.00    -0.390 OA
HETATM   23  H14 UNL     1       2.658  62.861 -31.441  1.00  0.00     0.210 HD
ENDBRANCH  15  22
BRANCH  16  24
HETATM   24  O6  UNL     1       4.289  65.072 -31.139  1.00  0.00    -0.388 OA
HETATM   25  H16 UNL     1       5.252  65.056 -30.981  1.00  0.00     0.210 HD
ENDBRANCH  16  24
ENDBRANCH  10  11
ENDBRANCH   3  10
BRANCH   4  26
HETATM   26  O7  UNL     1       5.987  68.080 -34.138  1.00  0.00    -0.393 OA
HETATM   27  H18 UNL     1       5.388  68.757 -33.784  1.00  0.00     0.210 HD
ENDBRANCH   4  26
BRANCH   9  28
HETATM   28  O8  UNL     1       2.673  67.530 -38.634  1.00  0.00    -0.385 OA
HETATM   29  H27 UNL     1       2.684  68.270 -39.260  1.00  0.00     0.211 HD
ENDBRANCH   9  28
BRANCH   9  30
HETATM   30  C16 UNL     1       2.210  69.032 -36.903  1.00  0.00     0.010 C 
HETATM   31  C17 UNL     1       1.102  68.911 -36.147  1.00  0.00     0.003 C 
BRANCH  31  32
HETATM   32  C18 UNL     1       0.191  70.039 -35.733  1.00  0.00     0.136 C 
HETATM   33  C19 UNL     1      -1.054  70.081 -36.607  1.00  0.00     0.043 C 
BRANCH  32  34
HETATM   34  O9  UNL     1      -0.214  69.896 -34.378  1.00  0.00    -0.392 OA
HETATM   35  H34 UNL     1       0.599  69.921 -33.842  1.00  0.00     0.210 HD
ENDBRANCH  32  34
ENDBRANCH  31  32
ENDBRANCH   9  30
TORSDOF 12
ENDMDL
MODEL 2
REMARK minimizedAffinity -8.56473732
REMARK  12 active torsions:
REMARK  status: ('A' for Active; 'I' for Inactive)
REMARK    1  A    between atoms: C3_3  and  O1_4 
REMARK    2  A    between atoms: O1_4  and  C4_5 
REMARK    3  A    between atoms: C5_7  and  C6_8 
REMARK    4  A    between atoms: C6_8  and  O3_9 
REMARK    5  A    between atoms: C7_10  and  O4_11 
REMARK    6  A    between atoms: C8_12  and  O5_13 
REMARK    7  A    between atoms: C9_14  and  O6_15 
REMARK    8  A    between atoms: C10_16  and  O7_17 
REMARK    9  A    between atoms: C15_22  and  O8_23 
REMARK   10  A    between atoms: C15_22  and  C16_24 
REMARK   11  A    between atoms: C17_25  and  C18_26 
REMARK   12  A    between atoms: C18_26  and  O9_28 
ROOT
HETATM    1  C1  UNL     1       0.620  52.305 -22.592  1.00  0.00     0.016 C 
HETATM    2  C2  UNL     1      -0.798  51.749 -22.845  1.00  0.00     0.052 C 
HETATM    3  C3  UNL     1      -0.919  50.292 -22.337  1.00  0.00     0.160 C 
HETATM    4  C10 UNL     1      -2.276  49.637 -22.688  1.00  0.00     0.148 C 
HETATM    5  C11 UNL     1      -2.750  49.918 -24.114  1.00  0.00     0.046 C 
HETATM    6  C12 UNL     1      -2.759  51.412 -24.494  1.00  0.00    -0.010 C 
HETATM    7  C13 UNL     1      -3.270  51.524 -25.955  1.00  0.00     0.018 C 
HETATM    8  C14 UNL     1      -3.799  52.167 -23.628  1.00  0.00     0.018 C 
HETATM    9  C15 UNL     1      -1.302  51.996 -24.305  1.00  0.00     0.088 C 
ENDROOT
BRANCH   3  10
HETATM   10  O1  UNL     1      -0.688  50.366 -20.914  1.00  0.00    -0.350 OA
BRANCH  10  11
HETATM   11  C4  UNL     1      -1.813  50.670 -20.104  1.00  0.00     0.292 C 
HETATM   12  O2  UNL     1      -1.636  51.889 -19.382  1.00  0.00    -0.348 OA
HETATM   13  C5  UNL     1      -0.547  51.908 -18.439  1.00  0.00     0.179 C 
HETATM   14  C7  UNL     1      -0.096  50.520 -17.959  1.00  0.00     0.180 C 
HETATM   15  C8  UNL     1      -1.339  49.652 -17.801  1.00  0.00     0.183 C 
HETATM   16  C9  UNL     1      -2.072  49.485 -19.137  1.00  0.00     0.204 C 
BRANCH  13  17
HETATM   17  C6  UNL     1       0.618  52.782 -18.930  1.00  0.00     0.198 C 
BRANCH  17  18
HETATM   18  O3  UNL     1       0.196  54.074 -19.351  1.00  0.00    -0.398 OA
HETATM   19  H10 UNL     1       0.978  54.517 -19.726  1.00  0.00     0.209 HD
ENDBRANCH  17  18
ENDBRANCH  13  17
BRANCH  14  20
HETATM   20  O4  UNL     1       0.572  50.623 -16.693  1.00  0.00    -0.390 OA
HETATM   21  H12 UNL     1       0.600  49.703 -16.356  1.00  0.00     0.210 HD
ENDBRANCH  14  20
BRANCH  15  22
HETATM   22  O5  UNL     1      -0.967  48.373 -17.256  1.00  0.00    -0.390 OA
HETATM   23  H14 UNL     1      -1.768  47.816 -17.297  1.00  0.00     0.210 HD
ENDBRANCH  15  22
BRANCH  16  24
HETATM   24  O6  UNL     1      -3.478  49.341 -18.842  1.00  0.00    -0.388 OA
HETATM   25  H16 UNL     1      -3.812  50.231 -18.618  1.00  0.00     0.210 HD
ENDBRANCH  16  24
ENDBRANCH  10  11
ENDBRANCH   3  10
BRANCH   4  26
HETATM   26  O7  UNL     1      -2.192  48.207 -22.560  1.00  0.00    -0.393 OA
HETATM   27  H18 UNL     1      -1.607  47.868 -23.257  1.00  0.00     0.210 HD
ENDBRANCH   4  26
BRANCH   9  28
HETATM   28  O8  UNL     1      -1.363  53.431 -24.438  1.00  0.00    -0.385 OA
HETATM   29  H27 UNL     1      -1.782  53.647 -25.284  1.00  0.00     0.211 HD
ENDBRANCH   9  28
BRANCH   9  30
HETATM   30  C16 UNL     1      -0.371  51.562 -25.431  1.00  0.00     0.010 C 
HETATM   31  C17 UNL     1       0.854  52.003 -25.778  1.00  0.00     0.003 C 
BRANCH  31  32
HETATM   32  C18 UNL     1       1.689  51.478 -26.920  1.00  0.00     0.136 C 
HETATM   33  C19 UNL     1       1.006  51.735 -28.255  1.00  0.00     0.043 C 
BRANCH  32  34
HETATM   34  O9  UNL     1       2.968  52.097 -26.940  1.00  0.00    -0.392 OA
HETATM   35  H34 UNL     1       3.397  51.876 -26.094  1.00  0.00     0.210 HD
ENDBRANCH  32  34
ENDBRANCH  31  32
ENDBRANCH   9  30
TORSDOF 12
ENDMDL
MODEL 3
REMARK minimizedAffinity -8.43205547
REMARK  12 active torsions:
REMARK  status: ('A' for Active; 'I' for Inactive)
REMARK    1  A    between atoms: C3_3  and  O1_4 
REMARK    2  A    between atoms: O1_4  and  C4_5 
REMARK    3  A    between atoms: C5_7  and  C6_8 
REMARK    4  A    between atoms: C6_8  and  O3_9 
REMARK    5  A    between atoms: C7_10  and  O4_11 
REMARK    6  A    between atoms: C8_12  and  O5_13 
REMARK    7  A    between atoms: C9_14  and  O6_15 
REMARK    8  A    between atoms: C10_16  and  O7_17 
REMARK    9  A    between atoms: C15_22  and  O8_23 
REMARK   10  A    between atoms: C15_22  and  C16_24 
REMARK   11  A    between atoms: C17_25  and  C18_26 
REMARK   12  A    between atoms: C18_26  and  O9_28 
ROOT
HETATM    1  C1  UNL     1      -1.165  50.828 -22.506  1.00  0.00     0.016 C 
HETATM    2  C2  UNL     1      -2.396  50.402 -23.335  1.00  0.00     0.052 C 
HETATM    3  C3  UNL     1      -3.214  51.638 -23.784  1.00  0.00     0.160 C 
HETATM    4  C10 UNL     1      -4.532  51.266 -24.502  1.00  0.00     0.148 C 
HETATM    5  C11 UNL     1      -5.302  50.128 -23.832  1.00  0.00     0.046 C 
HETATM    6  C12 UNL     1      -4.459  48.865 -23.565  1.00  0.00    -0.010 C 
HETATM    7  C13 UNL     1      -5.384  47.813 -22.898  1.00  0.00     0.018 C 
HETATM    8  C14 UNL     1      -4.015  48.238 -24.911  1.00  0.00     0.018 C 
HETATM    9  C15 UNL     1      -3.222  49.257 -22.663  1.00  0.00     0.088 C 
ENDROOT
BRANCH   3  10
HETATM   10  O1  UNL     1      -2.319  52.401 -24.622  1.00  0.00    -0.350 OA
BRANCH  10  11
HETATM   11  C4  UNL     1      -1.618  51.678 -25.623  1.00  0.00     0.292 C 
HETATM   12  O2  UNL     1      -0.203  51.782 -25.463  1.00  0.00    -0.348 OA
HETATM   13  C5  UNL     1       0.346  53.109 -25.582  1.00  0.00     0.179 C 
HETATM   14  C7  UNL     1      -0.532  54.093 -26.369  1.00  0.00     0.180 C 
HETATM   15  C8  UNL     1      -1.168  53.332 -27.526  1.00  0.00     0.183 C 
HETATM   16  C9  UNL     1      -2.059  52.193 -27.018  1.00  0.00     0.204 C 
BRANCH  13  17
HETATM   17  C6  UNL     1       0.799  53.663 -24.222  1.00  0.00     0.198 C 
BRANCH  17  18
HETATM   18  O3  UNL     1       1.366  54.964 -24.319  1.00  0.00    -0.398 OA
HETATM   19  H10 UNL     1       1.703  55.192 -23.435  1.00  0.00     0.209 HD
ENDBRANCH  17  18
ENDBRANCH  13  17
BRANCH  14  20
HETATM   20  O4  UNL     1       0.264  55.167 -26.891  1.00  0.00    -0.390 OA
HETATM   21  H12 UNL     1      -0.308  55.593 -27.561  1.00  0.00     0.210 HD
ENDBRANCH  14  20
BRANCH  15  22
HETATM   22  O5  UNL     1      -1.921  54.245 -28.347  1.00  0.00    -0.390 OA
HETATM   23  H14 UNL     1      -2.409  53.694 -28.990  1.00  0.00     0.210 HD
ENDBRANCH  15  22
BRANCH  16  24
HETATM   24  O6  UNL     1      -2.018  51.141 -28.007  1.00  0.00    -0.388 OA
HETATM   25  H16 UNL     1      -1.158  50.691 -27.906  1.00  0.00     0.210 HD
ENDBRANCH  16  24
ENDBRANCH  10  11
ENDBRANCH   3  10
BRANCH   4  26
HETATM   26  O7  UNL     1      -5.421  52.396 -24.537  1.00  0.00    -0.393 OA
HETATM   27  H18 UNL     1      -5.719  52.583 -23.632  1.00  0.00     0.210 HD
ENDBRANCH   4  26
BRANCH   9  28
HETATM   28  O8  UNL     1      -2.321  48.134 -22.608  1.00  0.00    -0.385 OA
HETATM   29  H27 UNL     1      -2.813  47.355 -22.308  1.00  0.00     0.211 HD
ENDBRANCH   9  28
BRANCH   9  30
HETATM   30  C16 UNL     1      -3.631  49.473 -21.210  1.00  0.00     0.010 C 
HETATM   31  C17 UNL     1      -3.015  50.138 -20.214  1.00  0.00     0.003 C 
BRANCH  31  32
HETATM   32  C18 UNL     1      -3.533  50.291 -18.805  1.00  0.00     0.136 C 
HETATM   33  C19 UNL     1      -3.164  49.084 -17.957  1.00  0.00     0.043 C 
BRANCH  32  34
HETATM   34  O9  UNL     1      -2.997  51.456 -18.190  1.00  0.00    -0.392 OA
HETATM   35  H34 UNL     1      -3.288  52.213 -18.729  1.00  0.00     0.210 HD
ENDBRANCH  32  34
ENDBRANCH  31  32
ENDBRANCH   9  30
TORSDOF 12
ENDMDL
MODEL 4
REMARK minimizedAffinity -8.39652348
REMARK  12 active torsions:
REMARK  status: ('A' for Active; 'I' for Inactive)
REMARK    1  A    between atoms: C3_3  and  O1_4 
REMARK    2  A    between atoms: O1_4  and  C4_5 
REMARK    3  A    between atoms: C5_7  and  C6_8 
REMARK    4  A    between atoms: C6_8  and  O3_9 
REMARK    5  A    between atoms: C7_10  and  O4_11 
REMARK    6  A    between atoms: C8_12  and  O5_13 
REMARK    7  A    between atoms: C9_14  and  O6_15 
REMARK    8  A    between atoms: C10_16  and  O7_17 
REMARK    9  A    between atoms: C15_22  and  O8_23 
REMARK   10  A    between atoms: C15_22  and  C16_24 
REMARK   11  A    between atoms: C17_25  and  C18_26 
REMARK   12  A    between atoms: C18_26  and  O9_28 
ROOT
HETATM    1  C1  UNL     1      -2.982  48.809 -24.849  1.00  0.00     0.016 C 
HETATM    2  C2  UNL     1      -3.079  49.971 -23.836  1.00  0.00     0.052 C 
HETATM    3  C3  UNL     1      -1.672  50.397 -23.348  1.00  0.00     0.160 C 
HETATM    4  C10 UNL     1      -1.715  51.464 -22.230  1.00  0.00     0.148 C 
HETATM    5  C11 UNL     1      -2.772  51.197 -21.158  1.00  0.00     0.046 C 
HETATM    6  C12 UNL     1      -4.187  50.943 -21.714  1.00  0.00    -0.010 C 
HETATM    7  C13 UNL     1      -5.132  50.702 -20.508  1.00  0.00     0.018 C 
HETATM    8  C14 UNL     1      -4.714  52.224 -22.409  1.00  0.00     0.018 C 
HETATM    9  C15 UNL     1      -4.132  49.716 -22.709  1.00  0.00     0.088 C 
ENDROOT
BRANCH   3  10
HETATM   10  O1  UNL     1      -0.984  50.856 -24.531  1.00  0.00    -0.350 OA
BRANCH  10  11
HETATM   11  C4  UNL     1      -0.817  52.260 -24.662  1.00  0.00     0.292 C 
HETATM   12  O2  UNL     1      -1.774  52.829 -25.555  1.00  0.00    -0.348 OA
HETATM   13  C5  UNL     1      -1.711  52.370 -26.920  1.00  0.00     0.179 C 
HETATM   14  C7  UNL     1      -0.353  51.785 -27.332  1.00  0.00     0.180 C 
HETATM   15  C8  UNL     1       0.737  52.617 -26.667  1.00  0.00     0.183 C 
HETATM   16  C9  UNL     1       0.630  52.552 -25.139  1.00  0.00     0.204 C 
BRANCH  13  17
HETATM   17  C6  UNL     1      -2.893  51.450 -27.266  1.00  0.00     0.198 C 
BRANCH  17  18
HETATM   18  O3  UNL     1      -2.712  50.765 -28.500  1.00  0.00    -0.398 OA
HETATM   19  H10 UNL     1      -3.539  50.283 -28.679  1.00  0.00     0.209 HD
ENDBRANCH  17  18
ENDBRANCH  13  17
BRANCH  14  20
HETATM   20  O4  UNL     1      -0.193  51.850 -28.757  1.00  0.00    -0.390 OA
HETATM   21  H12 UNL     1       0.763  51.695 -28.904  1.00  0.00     0.210 HD
ENDBRANCH  14  20
BRANCH  15  22
HETATM   22  O5  UNL     1       2.029  52.161 -27.110  1.00  0.00    -0.390 OA
HETATM   23  H14 UNL     1       2.687  52.632 -26.563  1.00  0.00     0.210 HD
ENDBRANCH  15  22
BRANCH  16  24
HETATM   24  O6  UNL     1       1.114  53.809 -24.620  1.00  0.00    -0.388 OA
HETATM   25  H16 UNL     1       0.411  54.468 -24.774  1.00  0.00     0.210 HD
ENDBRANCH  16  24
ENDBRANCH  10  11
ENDBRANCH   3  10
BRANCH   4  26
HETATM   26  O7  UNL     1      -0.450  51.529 -21.549  1.00  0.00    -0.393 OA
HETATM   27  H18 UNL     1      -0.324  50.706 -21.050  1.00  0.00     0.210 HD
ENDBRANCH   4  26
BRANCH   9  28
HETATM   28  O8  UNL     1      -5.396  49.627 -23.397  1.00  0.00    -0.385 OA
HETATM   29  H27 UNL     1      -6.106  49.587 -22.739  1.00  0.00     0.211 HD
ENDBRANCH   9  28
BRANCH   9  30
HETATM   30  C16 UNL     1      -4.026  48.391 -21.962  1.00  0.00     0.010 C 
HETATM   31  C17 UNL     1      -4.963  47.463 -21.682  1.00  0.00     0.003 C 
BRANCH  31  32
HETATM   32  C18 UNL     1      -4.728  46.172 -20.937  1.00  0.00     0.136 C 
HETATM   33  C19 UNL     1      -5.592  45.055 -21.501  1.00  0.00     0.043 C 
BRANCH  32  34
HETATM   34  O9  UNL     1      -3.365  45.776 -21.023  1.00  0.00    -0.392 OA
HETATM   35  H34 UNL     1      -2.843  46.489 -20.613  1.00  0.00     0.210 HD
ENDBRANCH  32  34
ENDBRANCH  31  32
ENDBRANCH   9  30
TORSDOF 12
ENDMDL
MODEL 5
REMARK minimizedAffinity -8.21848869
REMARK  12 active torsions:
REMARK  status: ('A' for Active; 'I' for Inactive)
REMARK    1  A    between atoms: C3_3  and  O1_4 
REMARK    2  A    between atoms: O1_4  and  C4_5 
REMARK    3  A    between atoms: C5_7  and  C6_8 
REMARK    4  A    between atoms: C6_8  and  O3_9 
REMARK    5  A    between atoms: C7_10  and  O4_11 
REMARK    6  A    between atoms: C8_12  and  O5_13 
REMARK    7  A    between atoms: C9_14  and  O6_15 
REMARK    8  A    between atoms: C10_16  and  O7_17 
REMARK    9  A    between atoms: C15_22  and  O8_23 
REMARK   10  A    between atoms: C15_22  and  C16_24 
REMARK   11  A    between atoms: C17_25  and  C18_26 
REMARK   12  A    between atoms: C18_26  and  O9_28 
ROOT
HETATM    1  C1  UNL     1       0.761  51.715 -22.421  1.00  0.00     0.016 C 
HETATM    2  C2  UNL     1      -0.657  51.107 -22.399  1.00  0.00     0.052 C 
HETATM    3  C3  UNL     1      -1.700  52.117 -22.938  1.00  0.00     0.160 C 
HETATM    4  C10 UNL     1      -3.156  51.612 -22.811  1.00  0.00     0.148 C 
HETATM    5  C11 UNL     1      -3.466  50.939 -21.474  1.00  0.00     0.046 C 
HETATM    6  C12 UNL     1      -2.474  49.826 -21.081  1.00  0.00    -0.010 C 
HETATM    7  C13 UNL     1      -2.932  49.246 -19.717  1.00  0.00     0.018 C 
HETATM    8  C14 UNL     1      -2.576  48.655 -22.091  1.00  0.00     0.018 C 
HETATM    9  C15 UNL     1      -1.016  50.434 -21.034  1.00  0.00     0.088 C 
ENDROOT
BRANCH   3  10
HETATM   10  O1  UNL     1      -1.314  52.368 -24.306  1.00  0.00    -0.350 OA
BRANCH  10  11
HETATM   11  C4  UNL     1      -1.699  51.392 -25.262  1.00  0.00     0.292 C 
HETATM   12  O2  UNL     1      -0.570  50.726 -25.828  1.00  0.00    -0.348 OA
HETATM   13  C5  UNL     1       0.343  51.558 -26.569  1.00  0.00     0.179 C 
HETATM   14  C7  UNL     1      -0.268  52.866 -27.092  1.00  0.00     0.180 C 
HETATM   15  C8  UNL     1      -1.696  52.571 -27.536  1.00  0.00     0.183 C 
HETATM   16  C9  UNL     1      -2.550  52.076 -26.363  1.00  0.00     0.204 C 
BRANCH  13  17
HETATM   17  C6  UNL     1       1.662  51.773 -25.810  1.00  0.00     0.198 C 
BRANCH  17  18
HETATM   18  O3  UNL     1       2.750  52.081 -26.674  1.00  0.00    -0.398 OA
HETATM   19  H10 UNL     1       3.550  52.109 -26.121  1.00  0.00     0.209 HD
ENDBRANCH  17  18
ENDBRANCH  13  17
BRANCH  14  20
HETATM   20  O4  UNL     1       0.483  53.355 -28.213  1.00  0.00    -0.390 OA
HETATM   21  H12 UNL     1      -0.100  54.027 -28.624  1.00  0.00     0.210 HD
ENDBRANCH  14  20
BRANCH  15  22
HETATM   22  O5  UNL     1      -2.271  53.751 -28.127  1.00  0.00    -0.390 OA
HETATM   23  H14 UNL     1      -3.215  53.551 -28.273  1.00  0.00     0.210 HD
ENDBRANCH  15  22
BRANCH  16  24
HETATM   24  O6  UNL     1      -3.540  51.173 -26.903  1.00  0.00    -0.388 OA
HETATM   25  H16 UNL     1      -3.082  50.334 -27.096  1.00  0.00     0.210 HD
ENDBRANCH  16  24
ENDBRANCH  10  11
ENDBRANCH   3  10
BRANCH   4  26
HETATM   26  O7  UNL     1      -4.081  52.706 -22.941  1.00  0.00    -0.393 OA
HETATM   27  H18 UNL     1      -3.989  53.283 -22.165  1.00  0.00     0.210 HD
ENDBRANCH   4  26
BRANCH   9  28
HETATM   28  O8  UNL     1      -0.072  49.353 -20.895  1.00  0.00    -0.385 OA
HETATM   29  H27 UNL     1      -0.318  48.823 -20.122  1.00  0.00     0.211 HD
ENDBRANCH   9  28
BRANCH   9  30
HETATM   30  C16 UNL     1      -0.798  51.276 -19.781  1.00  0.00     0.010 C 
HETATM   31  C17 UNL     1       0.043  51.103 -18.743  1.00  0.00     0.003 C 
BRANCH  31  32
HETATM   32  C18 UNL     1       0.175  52.023 -17.554  1.00  0.00     0.136 C 
HETATM   33  C19 UNL     1       0.848  51.313 -16.389  1.00  0.00     0.043 C 
BRANCH  32  34
HETATM   34  O9  UNL     1       0.940  53.174 -17.884  1.00  0.00    -0.392 OA
HETATM   35  H34 UNL     1       0.461  53.631 -18.598  1.00  0.00     0.210 HD
ENDBRANCH  32  34
ENDBRANCH  31  32
ENDBRANCH   9  30
TORSDOF 12
ENDMDL
MODEL 6
REMARK minimizedAffinity -8.1978302
REMARK  12 active torsions:
REMARK  status: ('A' for Active; 'I' for Inactive)
REMARK    1  A    between atoms: C3_3  and  O1_4 
REMARK    2  A    between atoms: O1_4  and  C4_5 
REMARK    3  A    between atoms: C5_7  and  C6_8 
REMARK    4  A    between atoms: C6_8  and  O3_9 
REMARK    5  A    between atoms: C7_10  and  O4_11 
REMARK    6  A    between atoms: C8_12  and  O5_13 
REMARK    7  A    between atoms: C9_14  and  O6_15 
REMARK    8  A    between atoms: C10_16  and  O7_17 
REMARK    9  A    between atoms: C15_22  and  O8_23 
REMARK   10  A    between atoms: C15_22  and  C16_24 
REMARK   11  A    between atoms: C17_25  and  C18_26 
REMARK   12  A    between atoms: C18_26  and  O9_28 
ROOT
HETATM    1  C1  UNL     1       0.318  51.198 -22.655  1.00  0.00     0.016 C 
HETATM    2  C2  UNL     1      -1.105  50.628 -22.479  1.00  0.00     0.052 C 
HETATM    3  C3  UNL     1      -2.164  51.589 -23.074  1.00  0.00     0.160 C 
HETATM    4  C10 UNL     1      -3.617  51.134 -22.804  1.00  0.00     0.148 C 
HETATM    5  C11 UNL     1      -3.856  50.633 -21.379  1.00  0.00     0.046 C 
HETATM    6  C12 UNL     1      -2.858  49.554 -20.913  1.00  0.00    -0.010 C 
HETATM    7  C13 UNL     1      -3.243  49.151 -19.465  1.00  0.00     0.018 C 
HETATM    8  C14 UNL     1      -3.038  48.272 -21.767  1.00  0.00     0.018 C 
HETATM    9  C15 UNL     1      -1.391  50.131 -21.023  1.00  0.00     0.088 C 
ENDROOT
BRANCH   3  10
HETATM   10  O1  UNL     1      -1.856  51.665 -24.482  1.00  0.00    -0.350 OA
BRANCH  10  11
HETATM   11  C4  UNL     1      -1.863  52.961 -25.063  1.00  0.00     0.292 C 
HETATM   12  O2  UNL     1      -2.667  53.011 -26.243  1.00  0.00    -0.348 OA
HETATM   13  C5  UNL     1      -2.235  52.173 -27.332  1.00  0.00     0.179 C 
HETATM   14  C7  UNL     1      -0.750  51.785 -27.287  1.00  0.00     0.180 C 
HETATM   15  C8  UNL     1       0.035  52.991 -26.783  1.00  0.00     0.183 C 
HETATM   16  C9  UNL     1      -0.403  53.384 -25.368  1.00  0.00     0.204 C 
BRANCH  13  17
HETATM   17  C6  UNL     1      -3.166  50.966 -27.527  1.00  0.00     0.198 C 
BRANCH  17  18
HETATM   18  O3  UNL     1      -3.367  50.641 -28.898  1.00  0.00    -0.398 OA
HETATM   19  H10 UNL     1      -4.033  49.932 -28.924  1.00  0.00     0.209 HD
ENDBRANCH  17  18
ENDBRANCH  13  17
BRANCH  14  20
HETATM   20  O4  UNL     1      -0.285  51.435 -28.600  1.00  0.00    -0.390 OA
HETATM   21  H12 UNL     1       0.691  51.445 -28.524  1.00  0.00     0.210 HD
ENDBRANCH  14  20
BRANCH  15  22
HETATM   22  O5  UNL     1       1.444  52.699 -26.822  1.00  0.00    -0.390 OA
HETATM   23  H14 UNL     1       1.889  53.443 -26.373  1.00  0.00     0.210 HD
ENDBRANCH  15  22
BRANCH  16  24
HETATM   24  O6  UNL     1      -0.230  54.813 -25.245  1.00  0.00    -0.388 OA
HETATM   25  H16 UNL     1      -0.967  55.229 -25.732  1.00  0.00     0.210 HD
ENDBRANCH  16  24
ENDBRANCH  10  11
ENDBRANCH   3  10
BRANCH   4  26
HETATM   26  O7  UNL     1      -4.531  52.225 -23.011  1.00  0.00    -0.393 OA
HETATM   27  H18 UNL     1      -4.385  52.888 -22.317  1.00  0.00     0.210 HD
ENDBRANCH   4  26
BRANCH   9  28
HETATM   28  O8  UNL     1      -0.457  49.054 -20.810  1.00  0.00    -0.385 OA
HETATM   29  H27 UNL     1      -0.665  48.626 -19.966  1.00  0.00     0.211 HD
ENDBRANCH   9  28
BRANCH   9  30
HETATM   30  C16 UNL     1      -1.087  51.111 -19.896  1.00  0.00     0.010 C 
HETATM   31  C17 UNL     1      -0.080  51.136 -19.001  1.00  0.00     0.003 C 
BRANCH  31  32
HETATM   32  C18 UNL     1       0.120  52.178 -17.928  1.00  0.00     0.136 C 
HETATM   33  C19 UNL     1       1.018  51.650 -16.819  1.00  0.00     0.043 C 
BRANCH  32  34
HETATM   34  O9  UNL     1       0.711  53.354 -18.466  1.00  0.00    -0.392 OA
HETATM   35  H34 UNL     1       0.093  53.692 -19.138  1.00  0.00     0.210 HD
ENDBRANCH  32  34
ENDBRANCH  31  32
ENDBRANCH   9  30
TORSDOF 12
ENDMDL
MODEL 7
REMARK minimizedAffinity -8.11760426
REMARK  12 active torsions:
REMARK  status: ('A' for Active; 'I' for Inactive)
REMARK    1  A    between atoms: C3_3  and  O1_4 
REMARK    2  A    between atoms: O1_4  and  C4_5 
REMARK    3  A    between atoms: C5_7  and  C6_8 
REMARK    4  A    between atoms: C6_8  and  O3_9 
REMARK    5  A    between atoms: C7_10  and  O4_11 
REMARK    6  A    between atoms: C8_12  and  O5_13 
REMARK    7  A    between atoms: C9_14  and  O6_15 
REMARK    8  A    between atoms: C10_16  and  O7_17 
REMARK    9  A    between atoms: C15_22  and  O8_23 
REMARK   10  A    between atoms: C15_22  and  C16_24 
REMARK   11  A    between atoms: C17_25  and  C18_26 
REMARK   12  A    between atoms: C18_26  and  O9_28 
ROOT
HETATM    1  C1  UNL     1      -2.880  50.691 -21.897  1.00  0.00     0.016 C 
HETATM    2  C2  UNL     1      -2.678  50.513 -23.417  1.00  0.00     0.052 C 
HETATM    3  C3  UNL     1      -2.627  51.886 -24.132  1.00  0.00     0.160 C 
HETATM    4  C10 UNL     1      -2.564  51.767 -25.672  1.00  0.00     0.148 C 
HETATM    5  C11 UNL     1      -3.510  50.716 -26.253  1.00  0.00     0.046 C 
HETATM    6  C12 UNL     1      -3.388  49.325 -25.599  1.00  0.00    -0.010 C 
HETATM    7  C13 UNL     1      -4.400  48.382 -26.303  1.00  0.00     0.018 C 
HETATM    8  C14 UNL     1      -1.987  48.730 -25.893  1.00  0.00     0.018 C 
HETATM    9  C15 UNL     1      -3.652  49.464 -24.047  1.00  0.00     0.088 C 
ENDROOT
BRANCH   3  10
HETATM   10  O1  UNL     1      -1.476  52.559 -23.577  1.00  0.00    -0.350 OA
BRANCH  10  11
HETATM   11  C4  UNL     1      -0.211  52.191 -24.106  1.00  0.00     0.292 C 
HETATM   12  O2  UNL     1       0.631  51.605 -23.112  1.00  0.00    -0.348 OA
HETATM   13  C5  UNL     1       0.982  52.457 -22.005  1.00  0.00     0.179 C 
HETATM   14  C7  UNL     1       0.870  53.960 -22.297  1.00  0.00     0.180 C 
HETATM   15  C8  UNL     1       1.339  54.195 -23.728  1.00  0.00     0.183 C 
HETATM   16  C9  UNL     1       0.456  53.443 -24.731  1.00  0.00     0.204 C 
BRANCH  13  17
HETATM   17  C6  UNL     1       0.259  52.040 -20.714  1.00  0.00     0.198 C 
BRANCH  17  18
HETATM   18  O3  UNL     1      -0.018  53.143 -19.858  1.00  0.00    -0.398 OA
HETATM   19  H10 UNL     1      -0.390  52.775 -19.037  1.00  0.00     0.209 HD
ENDBRANCH  17  18
ENDBRANCH  13  17
BRANCH  14  20
HETATM   20  O4  UNL     1       1.704  54.707 -21.399  1.00  0.00    -0.390 OA
HETATM   21  H12 UNL     1       1.763  55.597 -21.803  1.00  0.00     0.210 HD
ENDBRANCH  14  20
BRANCH  15  22
HETATM   22  O5  UNL     1       1.343  55.608 -24.007  1.00  0.00    -0.390 OA
HETATM   23  H14 UNL     1       1.522  55.696 -24.963  1.00  0.00     0.210 HD
ENDBRANCH  15  22
BRANCH  16  24
HETATM   24  O6  UNL     1       1.289  53.091 -25.857  1.00  0.00    -0.388 OA
HETATM   25  H16 UNL     1       1.842  52.338 -25.576  1.00  0.00     0.210 HD
ENDBRANCH  16  24
ENDBRANCH  10  11
ENDBRANCH   3  10
BRANCH   4  26
HETATM   26  O7  UNL     1      -2.916  53.018 -26.288  1.00  0.00    -0.393 OA
HETATM   27  H18 UNL     1      -3.858  53.187 -26.128  1.00  0.00     0.210 HD
ENDBRANCH   4  26
BRANCH   9  28
HETATM   28  O8  UNL     1      -3.312  48.215 -23.411  1.00  0.00    -0.385 OA
HETATM   29  H27 UNL     1      -3.803  47.502 -23.845  1.00  0.00     0.211 HD
ENDBRANCH   9  28
BRANCH   9  30
HETATM   30  C16 UNL     1      -5.135  49.641 -23.743  1.00  0.00     0.010 C 
HETATM   31  C17 UNL     1      -5.971  48.901 -22.987  1.00  0.00     0.003 C 
BRANCH  31  32
HETATM   32  C18 UNL     1      -7.433  49.190 -22.752  1.00  0.00     0.136 C 
HETATM   33  C19 UNL     1      -7.867  48.713 -21.374  1.00  0.00     0.043 C 
BRANCH  32  34
HETATM   34  O9  UNL     1      -7.699  50.583 -22.852  1.00  0.00    -0.392 OA
HETATM   35  H34 UNL     1      -7.456  50.847 -23.758  1.00  0.00     0.210 HD
ENDBRANCH  32  34
ENDBRANCH  31  32
ENDBRANCH   9  30
TORSDOF 12
ENDMDL
MODEL 8
REMARK minimizedAffinity -7.76257467
REMARK  12 active torsions:
REMARK  status: ('A' for Active; 'I' for Inactive)
REMARK    1  A    between atoms: C3_3  and  O1_4 
REMARK    2  A    between atoms: O1_4  and  C4_5 
REMARK    3  A    between atoms: C5_7  and  C6_8 
REMARK    4  A    between atoms: C6_8  and  O3_9 
REMARK    5  A    between atoms: C7_10  and  O4_11 
REMARK    6  A    between atoms: C8_12  and  O5_13 
REMARK    7  A    between atoms: C9_14  and  O6_15 
REMARK    8  A    between atoms: C10_16  and  O7_17 
REMARK    9  A    between atoms: C15_22  and  O8_23 
REMARK   10  A    between atoms: C15_22  and  C16_24 
REMARK   11  A    between atoms: C17_25  and  C18_26 
REMARK   12  A    between atoms: C18_26  and  O9_28 
ROOT
HETATM    1  C1  UNL     1      -3.955  52.592 -22.867  1.00  0.00     0.016 C 
HETATM    2  C2  UNL     1      -3.209  51.247 -23.004  1.00  0.00     0.052 C 
HETATM    3  C3  UNL     1      -3.191  50.772 -24.478  1.00  0.00     0.160 C 
HETATM    4  C10 UNL     1      -2.578  49.364 -24.654  1.00  0.00     0.148 C 
HETATM    5  C11 UNL     1      -3.034  48.352 -23.603  1.00  0.00     0.046 C 
HETATM    6  C12 UNL     1      -2.868  48.833 -22.148  1.00  0.00    -0.010 C 
HETATM    7  C13 UNL     1      -3.363  47.696 -21.216  1.00  0.00     0.018 C 
HETATM    8  C14 UNL     1      -1.362  49.013 -21.826  1.00  0.00     0.018 C 
HETATM    9  C15 UNL     1      -3.674  50.179 -21.959  1.00  0.00     0.088 C 
ENDROOT
BRANCH   3  10
HETATM   10  O1  UNL     1      -2.463  51.792 -25.195  1.00  0.00    -0.350 OA
BRANCH  10  11
HETATM   11  C4  UNL     1      -1.321  51.363 -25.921  1.00  0.00     0.292 C 
HETATM   12  O2  UNL     1      -0.174  51.232 -25.080  1.00  0.00    -0.348 OA
HETATM   13  C5  UNL     1       0.283  52.444 -24.450  1.00  0.00     0.179 C 
HETATM   14  C7  UNL     1      -0.155  53.735 -25.158  1.00  0.00     0.180 C 
HETATM   15  C8  UNL     1      -0.097  53.488 -26.660  1.00  0.00     0.183 C 
HETATM   16  C9  UNL     1      -1.053  52.364 -27.075  1.00  0.00     0.204 C 
BRANCH  13  17
HETATM   17  C6  UNL     1      -0.021  52.452 -22.943  1.00  0.00     0.198 C 
BRANCH  17  18
HETATM   18  O3  UNL     1       1.122  52.154 -22.150  1.00  0.00    -0.398 OA
HETATM   19  H10 UNL     1       0.817  52.092 -21.228  1.00  0.00     0.209 HD
ENDBRANCH  17  18
ENDBRANCH  13  17
BRANCH  14  20
HETATM   20  O4  UNL     1       0.731  54.814 -24.822  1.00  0.00    -0.390 OA
HETATM   21  H12 UNL     1       0.535  55.506 -25.486  1.00  0.00     0.210 HD
ENDBRANCH  14  20
BRANCH  15  22
HETATM   22  O5  UNL     1      -0.404  54.707 -27.361  1.00  0.00    -0.390 OA
HETATM   23  H14 UNL     1      -0.482  54.467 -28.305  1.00  0.00     0.210 HD
ENDBRANCH  15  22
BRANCH  16  24
HETATM   24  O6  UNL     1      -0.472  51.705 -28.221  1.00  0.00    -0.388 OA
HETATM   25  H16 UNL     1       0.254  51.145 -27.887  1.00  0.00     0.210 HD
ENDBRANCH  16  24
ENDBRANCH  10  11
ENDBRANCH   3  10
BRANCH   4  26
HETATM   26  O7  UNL     1      -2.940  48.815 -25.933  1.00  0.00    -0.393 OA
HETATM   27  H18 UNL     1      -3.893  48.631 -25.933  1.00  0.00     0.210 HD
ENDBRANCH   4  26
BRANCH   9  28
HETATM   28  O8  UNL     1      -3.331  50.743 -20.677  1.00  0.00    -0.385 OA
HETATM   29  H27 UNL     1      -3.487  50.075 -19.993  1.00  0.00     0.211 HD
ENDBRANCH   9  28
BRANCH   9  30
HETATM   30  C16 UNL     1      -5.174  49.928 -21.861  1.00  0.00     0.010 C 
HETATM   31  C17 UNL     1      -5.982  49.839 -20.787  1.00  0.00     0.003 C 
BRANCH  31  32
HETATM   32  C18 UNL     1      -7.470  49.595 -20.821  1.00  0.00     0.136 C 
HETATM   33  C19 UNL     1      -7.820  48.509 -21.827  1.00  0.00     0.043 C 
BRANCH  32  34
HETATM   34  O9  UNL     1      -7.950  49.199 -19.543  1.00  0.00    -0.392 OA
HETATM   35  H34 UNL     1      -7.754  49.933 -18.933  1.00  0.00     0.210 HD
ENDBRANCH  32  34
ENDBRANCH  31  32
ENDBRANCH   9  30
TORSDOF 12
ENDMDL
MODEL 9
REMARK minimizedAffinity -7.69069433
REMARK  12 active torsions:
REMARK  status: ('A' for Active; 'I' for Inactive)
REMARK    1  A    between atoms: C3_3  and  O1_4 
REMARK    2  A    between atoms: O1_4  and  C4_5 
REMARK    3  A    between atoms: C5_7  and  C6_8 
REMARK    4  A    between atoms: C6_8  and  O3_9 
REMARK    5  A    between atoms: C7_10  and  O4_11 
REMARK    6  A    between atoms: C8_12  and  O5_13 
REMARK    7  A    between atoms: C9_14  and  O6_15 
REMARK    8  A    between atoms: C10_16  and  O7_17 
REMARK    9  A    between atoms: C15_22  and  O8_23 
REMARK   10  A    between atoms: C15_22  and  C16_24 
REMARK   11  A    between atoms: C17_25  and  C18_26 
REMARK   12  A    between atoms: C18_26  and  O9_28 
ROOT
HETATM    1  C1  UNL     1      -0.390  52.047 -22.291  1.00  0.00     0.016 C 
HETATM    2  C2  UNL     1      -1.662  51.498 -22.972  1.00  0.00     0.052 C 
HETATM    3  C3  UNL     1      -1.924  50.030 -22.553  1.00  0.00     0.160 C 
HETATM    4  C10 UNL     1      -3.108  49.385 -23.311  1.00  0.00     0.148 C 
HETATM    5  C11 UNL     1      -3.131  49.696 -24.807  1.00  0.00     0.046 C 
HETATM    6  C12 UNL     1      -3.031  51.197 -25.143  1.00  0.00    -0.010 C 
HETATM    7  C13 UNL     1      -3.077  51.339 -26.687  1.00  0.00     0.018 C 
HETATM    8  C14 UNL     1      -4.288  51.936 -24.616  1.00  0.00     0.018 C 
HETATM    9  C15 UNL     1      -1.703  51.775 -24.511  1.00  0.00     0.088 C 
ENDROOT
BRANCH   3  10
HETATM   10  O1  UNL     1      -2.134  50.076 -21.126  1.00  0.00    -0.350 OA
BRANCH  10  11
HETATM   11  C4  UNL     1      -3.306  50.738 -20.678  1.00  0.00     0.292 C 
HETATM   12  O2  UNL     1      -3.020  51.699 -19.661  1.00  0.00    -0.348 OA
HETATM   13  C5  UNL     1      -2.463  51.174 -18.440  1.00  0.00     0.179 C 
HETATM   14  C7  UNL     1      -2.751  49.685 -18.198  1.00  0.00     0.180 C 
HETATM   15  C8  UNL     1      -4.171  49.399 -18.673  1.00  0.00     0.183 C 
HETATM   16  C9  UNL     1      -4.321  49.680 -20.172  1.00  0.00     0.204 C 
BRANCH  13  17
HETATM   17  C6  UNL     1      -0.975  51.529 -18.294  1.00  0.00     0.198 C 
BRANCH  17  18
HETATM   18  O3  UNL     1      -0.124  50.643 -19.012  1.00  0.00    -0.398 OA
HETATM   19  H10 UNL     1       0.791  50.888 -18.788  1.00  0.00     0.209 HD
ENDBRANCH  17  18
ENDBRANCH  13  17
BRANCH  14  20
HETATM   20  O4  UNL     1      -2.651  49.378 -16.799  1.00  0.00    -0.390 OA
HETATM   21  H12 UNL     1      -3.079  48.502 -16.710  1.00  0.00     0.210 HD
ENDBRANCH  14  20
BRANCH  15  22
HETATM   22  O5  UNL     1      -4.514  48.034 -18.370  1.00  0.00    -0.390 OA
HETATM   23  H14 UNL     1      -5.372  47.866 -18.805  1.00  0.00     0.210 HD
ENDBRANCH  15  22
BRANCH  16  24
HETATM   24  O6  UNL     1      -5.683  50.104 -20.397  1.00  0.00    -0.388 OA
HETATM   25  H16 UNL     1      -5.748  51.025 -20.082  1.00  0.00     0.210 HD
ENDBRANCH  16  24
ENDBRANCH  10  11
ENDBRANCH   3  10
BRANCH   4  26
HETATM   26  O7  UNL     1      -3.060  47.953 -23.192  1.00  0.00    -0.393 OA
HETATM   27  H18 UNL     1      -2.290  47.627 -23.686  1.00  0.00     0.210 HD
ENDBRANCH   4  26
BRANCH   9  28
HETATM   28  O8  UNL     1      -1.727  53.212 -24.627  1.00  0.00    -0.385 OA
HETATM   29  H27 UNL     1      -1.872  53.446 -25.556  1.00  0.00     0.211 HD
ENDBRANCH   9  28
BRANCH   9  30
HETATM   30  C16 UNL     1      -0.472  51.362 -25.311  1.00  0.00     0.010 C 
HETATM   31  C17 UNL     1       0.412  52.103 -26.007  1.00  0.00     0.003 C 
BRANCH  31  32
HETATM   32  C18 UNL     1       1.609  51.572 -26.756  1.00  0.00     0.136 C 
HETATM   33  C19 UNL     1       1.404  51.686 -28.259  1.00  0.00     0.043 C 
BRANCH  32  34
HETATM   34  O9  UNL     1       2.787  52.287 -26.406  1.00  0.00    -0.392 OA
HETATM   35  H34 UNL     1       2.917  52.157 -25.449  1.00  0.00     0.210 HD
ENDBRANCH  32  34
ENDBRANCH  31  32
ENDBRANCH   9  30
TORSDOF 12
ENDMDL
