MODEL 1
REMARK minimizedAffinity -8.38861752
REMARK CNNscore 0.86647284
REMARK CNNaffinity 7.59513283
REMARK  11 active torsions:
REMARK  status: ('A' for Active; 'I' for Inactive)
REMARK    1  A    between atoms: C4_4  and  C5_5 
REMARK    2  A    between atoms: C5_5  and  C6_6 
REMARK    3  A    between atoms: C6_6  and  C7_7 
REMARK    4  A    between atoms: C9_9  and  C10_10 
REMARK    5  A    between atoms: C10_10  and  C11_11 
REMARK    6  A    between atoms: C11_11  and  C12_12 
REMARK    7  A    between atoms: C14_14  and  C15_15 
REMARK    8  A    between atoms: C15_15  and  C16_16 
REMARK    9  A    between atoms: C16_16  and  O1_17 
REMARK   10  A    between atoms: O1_17  and  C17_18 
REMARK   11  A    between atoms: C23_24  and  O2_25 
ROOT
HETATM    1  C16 UNL     1      -4.055  50.316 -19.920  1.00  0.00     0.175 C 
ENDROOT
BRANCH   1   2
HETATM    2  C15 UNL     1      -5.312  49.561 -20.391  1.00  0.00     0.054 C 
BRANCH   2   3
HETATM    3  C14 UNL     1      -5.106  48.910 -21.737  1.00  0.00    -0.022 C 
HETATM    4  C12 UNL     1      -5.376  49.430 -22.953  1.00  0.00    -0.087 C 
HETATM    5  C13 UNL     1      -5.869  50.833 -23.187  1.00  0.00     0.043 C 
BRANCH   4   6
HETATM    6  C11 UNL     1      -5.176  48.594 -24.204  1.00  0.00     0.037 C 
BRANCH   6   7
HETATM    7  C10 UNL     1      -3.694  48.318 -24.495  1.00  0.00     0.031 C 
BRANCH   7   8
HETATM    8  C9  UNL     1      -3.108  49.357 -25.420  1.00  0.00    -0.024 C 
HETATM    9  C7  UNL     1      -3.227  49.419 -26.761  1.00  0.00    -0.087 C 
HETATM   10  C8  UNL     1      -4.029  48.429 -27.571  1.00  0.00     0.043 C 
BRANCH   9  11
HETATM   11  C6  UNL     1      -2.583  50.501 -27.623  1.00  0.00     0.037 C 
BRANCH  11  12
HETATM   12  C5  UNL     1      -1.641  51.499 -26.931  1.00  0.00     0.031 C 
BRANCH  12  13
HETATM   13  C4  UNL     1      -0.321  51.603 -27.649  1.00  0.00    -0.024 C 
HETATM   14  C2  UNL     1       0.903  51.718 -27.097  1.00  0.00    -0.091 C 
HETATM   15  C1  UNL     1       1.164  51.844 -25.620  1.00  0.00     0.042 C 
HETATM   16  C3  UNL     1       2.137  51.748 -27.960  1.00  0.00     0.042 C 
ENDBRANCH  12  13
ENDBRANCH  11  12
ENDBRANCH   9  11
ENDBRANCH   7   8
ENDBRANCH   6   7
ENDBRANCH   4   6
ENDBRANCH   2   3
ENDBRANCH   1   2
BRANCH   1  17
HETATM   17  O1  UNL     1      -2.880  49.520 -20.092  1.00  0.00    -0.355 OA
BRANCH  17  18
HETATM   18  C17 UNL     1      -1.758  50.181 -20.713  1.00  0.00     0.166 C 
HETATM   19  C18 UNL     1      -0.779  49.041 -21.035  1.00  0.00     0.079 C 
HETATM   20  C19 UNL     1      -2.307  50.869 -21.967  1.00  0.00     0.073 C 
HETATM   21  C20 UNL     1      -1.204  51.576 -22.733  1.00  0.00     0.047 C 
HETATM   22  C21 UNL     1      -0.318  52.338 -21.794  1.00  0.00    -0.021 A 
HETATM   23  C22 UNL     1       0.551  53.312 -22.302  1.00  0.00     0.046 A 
HETATM   24  C27 UNL     1      -0.314  52.070 -20.417  1.00  0.00     0.085 A 
HETATM   25  C23 UNL     1       1.387  54.015 -21.445  1.00  0.00     0.066 A 
HETATM   26  C24 UNL     1       1.371  53.779 -20.072  1.00  0.00     0.046 A 
HETATM   27  C25 UNL     1       0.513  52.804 -19.545  1.00  0.00    -0.025 A 
HETATM   28  C26 UNL     1       0.493  52.538 -18.065  1.00  0.00     0.051 C 
HETATM   29  O3  UNL     1      -1.102  51.110 -19.839  1.00  0.00    -0.314 OA
BRANCH  25  30
HETATM   30  O2  UNL     1       2.230  54.938 -21.998  1.00  0.00    -0.361 OA
HETATM   31  H36 UNL     1       2.774  55.317 -21.287  1.00  0.00     0.217 HD
ENDBRANCH  25  30
ENDBRANCH  17  18
ENDBRANCH   1  17
TORSDOF 11
ENDMDL
MODEL 2
REMARK minimizedAffinity -8.25990391
REMARK CNNscore 0.790592551
REMARK CNNaffinity 6.57595587
REMARK  11 active torsions:
REMARK  status: ('A' for Active; 'I' for Inactive)
REMARK    1  A    between atoms: C4_4  and  C5_5 
REMARK    2  A    between atoms: C5_5  and  C6_6 
REMARK    3  A    between atoms: C6_6  and  C7_7 
REMARK    4  A    between atoms: C9_9  and  C10_10 
REMARK    5  A    between atoms: C10_10  and  C11_11 
REMARK    6  A    between atoms: C11_11  and  C12_12 
REMARK    7  A    between atoms: C14_14  and  C15_15 
REMARK    8  A    between atoms: C15_15  and  C16_16 
REMARK    9  A    between atoms: C16_16  and  O1_17 
REMARK   10  A    between atoms: O1_17  and  C17_18 
REMARK   11  A    between atoms: C23_24  and  O2_25 
ROOT
HETATM    1  C16 UNL     1      -1.351  47.953 -20.274  1.00  0.00     0.175 C 
ENDROOT
BRANCH   1   2
HETATM    2  C15 UNL     1      -2.216  47.146 -21.261  1.00  0.00     0.054 C 
BRANCH   2   3
HETATM    3  C14 UNL     1      -2.432  47.890 -22.557  1.00  0.00    -0.022 C 
HETATM    4  C12 UNL     1      -3.513  48.609 -22.923  1.00  0.00    -0.087 C 
HETATM    5  C13 UNL     1      -4.699  48.875 -22.033  1.00  0.00     0.043 C 
BRANCH   4   6
HETATM    6  C11 UNL     1      -3.588  49.229 -24.307  1.00  0.00     0.037 C 
BRANCH   6   7
HETATM    7  C10 UNL     1      -2.666  48.527 -25.315  1.00  0.00     0.031 C 
BRANCH   7   8
HETATM    8  C9  UNL     1      -3.157  48.704 -26.731  1.00  0.00    -0.024 C 
HETATM    9  C7  UNL     1      -4.392  48.448 -27.207  1.00  0.00    -0.087 C 
HETATM   10  C8  UNL     1      -5.529  47.954 -26.346  1.00  0.00     0.043 C 
BRANCH   9  11
HETATM   11  C6  UNL     1      -4.799  48.641 -28.665  1.00  0.00     0.037 C 
BRANCH  11  12
HETATM   12  C5  UNL     1      -5.288  47.407 -29.439  1.00  0.00     0.031 C 
BRANCH  12  13
HETATM   13  C4  UNL     1      -5.679  47.758 -30.851  1.00  0.00    -0.024 C 
HETATM   14  C2  UNL     1      -5.277  47.152 -31.985  1.00  0.00    -0.091 C 
HETATM   15  C1  UNL     1      -4.274  46.031 -32.044  1.00  0.00     0.042 C 
HETATM   16  C3  UNL     1      -5.814  47.588 -33.323  1.00  0.00     0.042 C 
ENDBRANCH  12  13
ENDBRANCH  11  12
ENDBRANCH   9  11
ENDBRANCH   7   8
ENDBRANCH   6   7
ENDBRANCH   4   6
ENDBRANCH   2   3
ENDBRANCH   1   2
BRANCH   1  17
HETATM   17  O1  UNL     1      -2.125  48.956 -19.611  1.00  0.00    -0.355 OA
BRANCH  17  18
HETATM   18  C17 UNL     1      -1.646  50.311 -19.746  1.00  0.00     0.166 C 
HETATM   19  C18 UNL     1      -2.879  51.178 -19.448  1.00  0.00     0.079 C 
HETATM   20  C19 UNL     1      -0.534  50.476 -18.705  1.00  0.00     0.073 C 
HETATM   21  C20 UNL     1       0.031  51.884 -18.725  1.00  0.00     0.047 C 
HETATM   22  C21 UNL     1       0.257  52.340 -20.135  1.00  0.00    -0.021 A 
HETATM   23  C22 UNL     1       1.064  53.459 -20.378  1.00  0.00     0.046 A 
HETATM   24  C27 UNL     1      -0.353  51.690 -21.217  1.00  0.00     0.085 A 
HETATM   25  C23 UNL     1       1.271  53.901 -21.678  1.00  0.00     0.066 A 
HETATM   26  C24 UNL     1       0.697  53.238 -22.760  1.00  0.00     0.046 A 
HETATM   27  C25 UNL     1      -0.119  52.120 -22.537  1.00  0.00    -0.025 A 
HETATM   28  C26 UNL     1      -0.748  51.402 -23.700  1.00  0.00     0.051 C 
HETATM   29  O3  UNL     1      -1.187  50.613 -21.071  1.00  0.00    -0.314 OA
BRANCH  25  30
HETATM   30  O2  UNL     1       2.049  55.010 -21.854  1.00  0.00    -0.361 OA
HETATM   31  H36 UNL     1       2.070  55.218 -22.804  1.00  0.00     0.217 HD
ENDBRANCH  25  30
ENDBRANCH  17  18
ENDBRANCH   1  17
TORSDOF 11
ENDMDL
MODEL 3
REMARK minimizedAffinity -8.39183903
REMARK CNNscore 0.76746279
REMARK CNNaffinity 7.36445236
REMARK  11 active torsions:
REMARK  status: ('A' for Active; 'I' for Inactive)
REMARK    1  A    between atoms: C4_4  and  C5_5 
REMARK    2  A    between atoms: C5_5  and  C6_6 
REMARK    3  A    between atoms: C6_6  and  C7_7 
REMARK    4  A    between atoms: C9_9  and  C10_10 
REMARK    5  A    between atoms: C10_10  and  C11_11 
REMARK    6  A    between atoms: C11_11  and  C12_12 
REMARK    7  A    between atoms: C14_14  and  C15_15 
REMARK    8  A    between atoms: C15_15  and  C16_16 
REMARK    9  A    between atoms: C16_16  and  O1_17 
REMARK   10  A    between atoms: O1_17  and  C17_18 
REMARK   11  A    between atoms: C23_24  and  O2_25 
ROOT
HETATM    1  C16 UNL     1      -3.694  49.006 -19.303  1.00  0.00     0.175 C 
ENDROOT
BRANCH   1   2
HETATM    2  C15 UNL     1      -4.138  47.575 -19.660  1.00  0.00     0.054 C 
BRANCH   2   3
HETATM    3  C14 UNL     1      -4.438  47.429 -21.132  1.00  0.00    -0.022 C 
HETATM    4  C12 UNL     1      -5.378  48.081 -21.849  1.00  0.00    -0.087 C 
HETATM    5  C13 UNL     1      -6.263  49.168 -21.301  1.00  0.00     0.043 C 
BRANCH   4   6
HETATM    6  C11 UNL     1      -5.590  47.746 -23.315  1.00  0.00     0.037 C 
BRANCH   6   7
HETATM    7  C10 UNL     1      -5.454  48.977 -24.223  1.00  0.00     0.031 C 
BRANCH   7   8
HETATM    8  C9  UNL     1      -4.054  49.106 -24.772  1.00  0.00    -0.024 C 
HETATM    9  C7  UNL     1      -3.634  48.818 -26.021  1.00  0.00    -0.087 C 
HETATM   10  C8  UNL     1      -4.553  48.329 -27.114  1.00  0.00     0.043 C 
BRANCH   9  11
HETATM   11  C6  UNL     1      -2.190  48.963 -26.487  1.00  0.00     0.037 C 
BRANCH  11  12
HETATM   12  C5  UNL     1      -1.663  50.383 -26.750  1.00  0.00     0.031 C 
BRANCH  12  13
HETATM   13  C4  UNL     1      -0.212  50.516 -26.366  1.00  0.00    -0.024 C 
HETATM   14  C2  UNL     1       0.714  51.311 -26.935  1.00  0.00    -0.091 C 
HETATM   15  C1  UNL     1       0.471  52.176 -28.142  1.00  0.00     0.042 C 
HETATM   16  C3  UNL     1       2.116  51.373 -26.388  1.00  0.00     0.042 C 
ENDBRANCH  12  13
ENDBRANCH  11  12
ENDBRANCH   9  11
ENDBRANCH   7   8
ENDBRANCH   6   7
ENDBRANCH   4   6
ENDBRANCH   2   3
ENDBRANCH   1   2
BRANCH   1  17
HETATM   17  O1  UNL     1      -2.269  49.103 -19.242  1.00  0.00    -0.355 OA
BRANCH  17  18
HETATM   18  C17 UNL     1      -1.722  50.430 -19.400  1.00  0.00     0.166 C 
HETATM   19  C18 UNL     1      -2.887  51.364 -19.035  1.00  0.00     0.079 C 
HETATM   20  C19 UNL     1      -0.549  50.528 -18.421  1.00  0.00     0.073 C 
HETATM   21  C20 UNL     1       0.093  51.902 -18.468  1.00  0.00     0.047 C 
HETATM   22  C21 UNL     1       0.269  52.351 -19.888  1.00  0.00    -0.021 A 
HETATM   23  C22 UNL     1       1.123  53.424 -20.172  1.00  0.00     0.046 A 
HETATM   24  C27 UNL     1      -0.435  51.741 -20.937  1.00  0.00     0.085 A 
HETATM   25  C23 UNL     1       1.284  53.858 -21.481  1.00  0.00     0.066 A 
HETATM   26  C24 UNL     1       0.617  53.234 -22.532  1.00  0.00     0.046 A 
HETATM   27  C25 UNL     1      -0.248  52.162 -22.267  1.00  0.00    -0.025 A 
HETATM   28  C26 UNL     1      -0.978  51.486 -23.395  1.00  0.00     0.051 C 
HETATM   29  O3  UNL     1      -1.319  50.711 -20.747  1.00  0.00    -0.314 OA
BRANCH  25  30
HETATM   30  O2  UNL     1       2.113  54.923 -21.697  1.00  0.00    -0.361 OA
HETATM   31  H36 UNL     1       2.095  55.133 -22.647  1.00  0.00     0.217 HD
ENDBRANCH  25  30
ENDBRANCH  17  18
ENDBRANCH   1  17
TORSDOF 11
ENDMDL
MODEL 4
REMARK minimizedAffinity -7.93464613
REMARK CNNscore 0.580371499
REMARK CNNaffinity 7.22219849
REMARK  11 active torsions:
REMARK  status: ('A' for Active; 'I' for Inactive)
REMARK    1  A    between atoms: C4_4  and  C5_5 
REMARK    2  A    between atoms: C5_5  and  C6_6 
REMARK    3  A    between atoms: C6_6  and  C7_7 
REMARK    4  A    between atoms: C9_9  and  C10_10 
REMARK    5  A    between atoms: C10_10  and  C11_11 
REMARK    6  A    between atoms: C11_11  and  C12_12 
REMARK    7  A    between atoms: C14_14  and  C15_15 
REMARK    8  A    between atoms: C15_15  and  C16_16 
REMARK    9  A    between atoms: C16_16  and  O1_17 
REMARK   10  A    between atoms: O1_17  and  C17_18 
REMARK   11  A    between atoms: C23_24  and  O2_25 
ROOT
HETATM    1  C16 UNL     1      -3.574  47.920 -22.098  1.00  0.00     0.175 C 
ENDROOT
BRANCH   1   2
HETATM    2  C15 UNL     1      -3.222  47.809 -20.603  1.00  0.00     0.054 C 
BRANCH   2   3
HETATM    3  C14 UNL     1      -3.018  49.164 -19.972  1.00  0.00    -0.022 C 
HETATM    4  C12 UNL     1      -1.852  49.729 -19.592  1.00  0.00    -0.087 C 
HETATM    5  C13 UNL     1      -0.496  49.116 -19.822  1.00  0.00     0.043 C 
BRANCH   4   6
HETATM    6  C11 UNL     1      -1.846  51.078 -18.896  1.00  0.00     0.037 C 
BRANCH   6   7
HETATM    7  C10 UNL     1      -0.951  52.102 -19.609  1.00  0.00     0.031 C 
BRANCH   7   8
HETATM    8  C9  UNL     1      -0.931  51.876 -21.101  1.00  0.00    -0.024 C 
HETATM    9  C7  UNL     1      -0.067  52.396 -21.996  1.00  0.00    -0.087 C 
HETATM   10  C8  UNL     1       1.082  53.298 -21.616  1.00  0.00     0.043 C 
BRANCH   9  11
HETATM   11  C6  UNL     1      -0.131  52.126 -23.496  1.00  0.00     0.037 C 
BRANCH  11  12
HETATM   12  C5  UNL     1       0.846  52.890 -24.402  1.00  0.00     0.031 C 
BRANCH  12  13
HETATM   13  C4  UNL     1       0.554  52.648 -25.861  1.00  0.00    -0.024 C 
HETATM   14  C2  UNL     1       1.286  51.926 -26.731  1.00  0.00    -0.091 C 
HETATM   15  C1  UNL     1       2.604  51.278 -26.406  1.00  0.00     0.042 C 
HETATM   16  C3  UNL     1       0.820  51.728 -28.150  1.00  0.00     0.042 C 
ENDBRANCH  12  13
ENDBRANCH  11  12
ENDBRANCH   9  11
ENDBRANCH   7   8
ENDBRANCH   6   7
ENDBRANCH   4   6
ENDBRANCH   2   3
ENDBRANCH   1   2
BRANCH   1  17
HETATM   17  O1  UNL     1      -4.786  48.654 -22.290  1.00  0.00    -0.355 OA
BRANCH  17  18
HETATM   18  C17 UNL     1      -4.732  49.715 -23.268  1.00  0.00     0.166 C 
HETATM   19  C18 UNL     1      -6.206  50.044 -23.550  1.00  0.00     0.079 C 
HETATM   20  C19 UNL     1      -3.977  50.870 -22.604  1.00  0.00     0.073 C 
HETATM   21  C20 UNL     1      -3.885  52.069 -23.530  1.00  0.00     0.047 C 
HETATM   22  C21 UNL     1      -3.511  51.635 -24.915  1.00  0.00    -0.021 A 
HETATM   23  C22 UNL     1      -3.058  52.586 -25.838  1.00  0.00     0.046 A 
HETATM   24  C27 UNL     1      -3.642  50.299 -25.320  1.00  0.00     0.085 A 
HETATM   25  C23 UNL     1      -2.721  52.200 -27.129  1.00  0.00     0.066 A 
HETATM   26  C24 UNL     1      -2.815  50.868 -27.527  1.00  0.00     0.046 A 
HETATM   27  C25 UNL     1      -3.274  49.903 -26.620  1.00  0.00    -0.025 A 
HETATM   28  C26 UNL     1      -3.384  48.463 -27.043  1.00  0.00     0.051 C 
HETATM   29  O3  UNL     1      -4.113  49.310 -24.497  1.00  0.00    -0.314 OA
BRANCH  25  30
HETATM   30  O2  UNL     1      -2.305  53.173 -27.993  1.00  0.00    -0.361 OA
HETATM   31  H36 UNL     1      -2.145  52.761 -28.859  1.00  0.00     0.217 HD
ENDBRANCH  25  30
ENDBRANCH  17  18
ENDBRANCH   1  17
TORSDOF 11
ENDMDL
MODEL 5
REMARK minimizedAffinity -7.73401833
REMARK CNNscore 0.554218948
REMARK CNNaffinity 6.51052475
REMARK  11 active torsions:
REMARK  status: ('A' for Active; 'I' for Inactive)
REMARK    1  A    between atoms: C4_4  and  C5_5 
REMARK    2  A    between atoms: C5_5  and  C6_6 
REMARK    3  A    between atoms: C6_6  and  C7_7 
REMARK    4  A    between atoms: C9_9  and  C10_10 
REMARK    5  A    between atoms: C10_10  and  C11_11 
REMARK    6  A    between atoms: C11_11  and  C12_12 
REMARK    7  A    between atoms: C14_14  and  C15_15 
REMARK    8  A    between atoms: C15_15  and  C16_16 
REMARK    9  A    between atoms: C16_16  and  O1_17 
REMARK   10  A    between atoms: O1_17  and  C17_18 
REMARK   11  A    between atoms: C23_24  and  O2_25 
ROOT
HETATM    1  C16 UNL     1      -4.161  48.446 -21.041  1.00  0.00     0.175 C 
ENDROOT
BRANCH   1   2
HETATM    2  C15 UNL     1      -4.926  48.467 -22.378  1.00  0.00     0.054 C 
BRANCH   2   3
HETATM    3  C14 UNL     1      -4.005  48.712 -23.548  1.00  0.00    -0.022 C 
HETATM    4  C12 UNL     1      -3.951  49.806 -24.337  1.00  0.00    -0.087 C 
HETATM    5  C13 UNL     1      -4.770  51.051 -24.124  1.00  0.00     0.043 C 
BRANCH   4   6
HETATM    6  C11 UNL     1      -3.007  49.845 -25.526  1.00  0.00     0.037 C 
BRANCH   6   7
HETATM    7  C10 UNL     1      -2.834  48.469 -26.185  1.00  0.00     0.031 C 
BRANCH   7   8
HETATM    8  C9  UNL     1      -3.527  48.405 -27.524  1.00  0.00    -0.024 C 
HETATM    9  C7  UNL     1      -4.816  48.092 -27.765  1.00  0.00    -0.087 C 
HETATM   10  C8  UNL     1      -5.812  47.775 -26.675  1.00  0.00     0.043 C 
BRANCH   9  11
HETATM   11  C6  UNL     1      -5.431  48.034 -29.159  1.00  0.00     0.037 C 
BRANCH  11  12
HETATM   12  C5  UNL     1      -6.964  48.016 -29.264  1.00  0.00     0.031 C 
BRANCH  12  13
HETATM   13  C4  UNL     1      -7.420  47.698 -30.665  1.00  0.00    -0.024 C 
HETATM   14  C2  UNL     1      -8.225  48.440 -31.450  1.00  0.00    -0.091 C 
HETATM   15  C1  UNL     1      -8.891  49.720 -31.023  1.00  0.00     0.042 C 
HETATM   16  C3  UNL     1      -8.536  48.007 -32.859  1.00  0.00     0.042 C 
ENDBRANCH  12  13
ENDBRANCH  11  12
ENDBRANCH   9  11
ENDBRANCH   7   8
ENDBRANCH   6   7
ENDBRANCH   4   6
ENDBRANCH   2   3
ENDBRANCH   1   2
BRANCH   1  17
HETATM   17  O1  UNL     1      -2.751  48.550 -21.252  1.00  0.00    -0.355 OA
BRANCH  17  18
HETATM   18  C17 UNL     1      -2.151  49.810 -20.882  1.00  0.00     0.166 C 
HETATM   19  C18 UNL     1      -3.330  50.657 -20.379  1.00  0.00     0.079 C 
HETATM   20  C19 UNL     1      -1.132  49.492 -19.784  1.00  0.00     0.073 C 
HETATM   21  C20 UNL     1      -0.453  50.753 -19.283  1.00  0.00     0.047 C 
HETATM   22  C21 UNL     1      -0.058  51.629 -20.434  1.00  0.00    -0.021 A 
HETATM   23  C22 UNL     1       0.858  52.669 -20.227  1.00  0.00     0.046 A 
HETATM   24  C27 UNL     1      -0.615  51.453 -21.708  1.00  0.00     0.085 A 
HETATM   25  C23 UNL     1       1.222  53.497 -21.281  1.00  0.00     0.066 A 
HETATM   26  C24 UNL     1       0.699  53.305 -22.558  1.00  0.00     0.046 A 
HETATM   27  C25 UNL     1      -0.224  52.274 -22.783  1.00  0.00    -0.025 A 
HETATM   28  C26 UNL     1      -0.798  52.063 -24.157  1.00  0.00     0.051 C 
HETATM   29  O3  UNL     1      -1.545  50.488 -21.992  1.00  0.00    -0.314 OA
BRANCH  25  30
HETATM   30  O2  UNL     1       2.102  54.508 -21.017  1.00  0.00    -0.361 OA
HETATM   31  H36 UNL     1       2.230  55.020 -21.834  1.00  0.00     0.217 HD
ENDBRANCH  25  30
ENDBRANCH  17  18
ENDBRANCH   1  17
TORSDOF 11
ENDMDL
MODEL 6
REMARK minimizedAffinity -7.75899029
REMARK CNNscore 0.542609632
REMARK CNNaffinity 6.07689333
REMARK  11 active torsions:
REMARK  status: ('A' for Active; 'I' for Inactive)
REMARK    1  A    between atoms: C4_4  and  C5_5 
REMARK    2  A    between atoms: C5_5  and  C6_6 
REMARK    3  A    between atoms: C6_6  and  C7_7 
REMARK    4  A    between atoms: C9_9  and  C10_10 
REMARK    5  A    between atoms: C10_10  and  C11_11 
REMARK    6  A    between atoms: C11_11  and  C12_12 
REMARK    7  A    between atoms: C14_14  and  C15_15 
REMARK    8  A    between atoms: C15_15  and  C16_16 
REMARK    9  A    between atoms: C16_16  and  O1_17 
REMARK   10  A    between atoms: O1_17  and  C17_18 
REMARK   11  A    between atoms: C23_24  and  O2_25 
ROOT
HETATM    1  C16 UNL     1      -3.014  49.880 -25.677  1.00  0.00     0.175 C 
ENDROOT
BRANCH   1   2
HETATM    2  C15 UNL     1      -3.287  48.496 -26.295  1.00  0.00     0.054 C 
BRANCH   2   3
HETATM    3  C14 UNL     1      -3.790  48.603 -27.714  1.00  0.00    -0.022 C 
HETATM    4  C12 UNL     1      -4.960  48.148 -28.209  1.00  0.00    -0.087 C 
HETATM    5  C13 UNL     1      -6.042  47.506 -27.382  1.00  0.00     0.043 C 
BRANCH   4   6
HETATM    6  C11 UNL     1      -5.266  48.277 -29.691  1.00  0.00     0.037 C 
BRANCH   6   7
HETATM    7  C10 UNL     1      -5.086  46.952 -30.446  1.00  0.00     0.031 C 
BRANCH   7   8
HETATM    8  C9  UNL     1      -6.414  46.308 -30.758  1.00  0.00    -0.024 C 
HETATM    9  C7  UNL     1      -7.252  46.608 -31.771  1.00  0.00    -0.087 C 
HETATM   10  C8  UNL     1      -6.954  47.660 -32.812  1.00  0.00     0.043 C 
BRANCH   9  11
HETATM   11  C6  UNL     1      -8.590  45.914 -32.003  1.00  0.00     0.037 C 
BRANCH  11  12
HETATM   12  C5  UNL     1      -9.732  46.747 -32.607  1.00  0.00     0.031 C 
BRANCH  12  13
HETATM   13  C4  UNL     1     -10.941  46.763 -31.709  1.00  0.00    -0.024 C 
HETATM   14  C2  UNL     1     -11.096  47.446 -30.558  1.00  0.00    -0.091 C 
HETATM   15  C1  UNL     1     -10.024  48.278 -29.909  1.00  0.00     0.042 C 
HETATM   16  C3  UNL     1     -12.401  47.402 -29.807  1.00  0.00     0.042 C 
ENDBRANCH  12  13
ENDBRANCH  11  12
ENDBRANCH   9  11
ENDBRANCH   7   8
ENDBRANCH   6   7
ENDBRANCH   4   6
ENDBRANCH   2   3
ENDBRANCH   1   2
BRANCH   1  17
HETATM   17  O1  UNL     1      -2.201  50.679 -26.540  1.00  0.00    -0.355 OA
BRANCH  17  18
HETATM   18  C17 UNL     1      -1.079  51.338 -25.916  1.00  0.00     0.166 C 
HETATM   19  C18 UNL     1       0.150  50.605 -26.478  1.00  0.00     0.079 C 
HETATM   20  C19 UNL     1      -1.149  52.805 -26.349  1.00  0.00     0.073 C 
HETATM   21  C20 UNL     1       0.011  53.601 -25.779  1.00  0.00     0.047 C 
HETATM   22  C21 UNL     1       0.222  53.261 -24.335  1.00  0.00    -0.021 A 
HETATM   23  C22 UNL     1       1.011  54.099 -23.536  1.00  0.00     0.046 A 
HETATM   24  C27 UNL     1      -0.323  52.098 -23.773  1.00  0.00     0.085 A 
HETATM   25  C23 UNL     1       1.226  53.789 -22.200  1.00  0.00     0.066 A 
HETATM   26  C24 UNL     1       0.658  52.654 -21.626  1.00  0.00     0.046 A 
HETATM   27  C25 UNL     1      -0.129  51.799 -22.411  1.00  0.00    -0.025 A 
HETATM   28  C26 UNL     1      -0.742  50.568 -21.801  1.00  0.00     0.051 C 
HETATM   29  O3  UNL     1      -1.074  51.202 -24.488  1.00  0.00    -0.314 OA
BRANCH  25  30
HETATM   30  O2  UNL     1       2.021  54.631 -21.474  1.00  0.00    -0.361 OA
HETATM   31  H36 UNL     1       2.109  54.266 -20.577  1.00  0.00     0.217 HD
ENDBRANCH  25  30
ENDBRANCH  17  18
ENDBRANCH   1  17
TORSDOF 11
ENDMDL
MODEL 7
REMARK minimizedAffinity -8.21239281
REMARK CNNscore 0.512493134
REMARK CNNaffinity 6.31492567
REMARK  11 active torsions:
REMARK  status: ('A' for Active; 'I' for Inactive)
REMARK    1  A    between atoms: C4_4  and  C5_5 
REMARK    2  A    between atoms: C5_5  and  C6_6 
REMARK    3  A    between atoms: C6_6  and  C7_7 
REMARK    4  A    between atoms: C9_9  and  C10_10 
REMARK    5  A    between atoms: C10_10  and  C11_11 
REMARK    6  A    between atoms: C11_11  and  C12_12 
REMARK    7  A    between atoms: C14_14  and  C15_15 
REMARK    8  A    between atoms: C15_15  and  C16_16 
REMARK    9  A    between atoms: C16_16  and  O1_17 
REMARK   10  A    between atoms: O1_17  and  C17_18 
REMARK   11  A    between atoms: C23_24  and  O2_25 
ROOT
HETATM    1  C16 UNL     1      -1.860  51.690 -26.093  1.00  0.00     0.175 C 
ENDROOT
BRANCH   1   2
HETATM    2  C15 UNL     1      -1.618  50.261 -26.614  1.00  0.00     0.054 C 
BRANCH   2   3
HETATM    3  C14 UNL     1      -2.906  49.581 -27.011  1.00  0.00    -0.022 C 
HETATM    4  C12 UNL     1      -3.702  48.811 -26.240  1.00  0.00    -0.087 C 
HETATM    5  C13 UNL     1      -3.478  48.559 -24.772  1.00  0.00     0.043 C 
BRANCH   4   6
HETATM    6  C11 UNL     1      -4.928  48.141 -26.835  1.00  0.00     0.037 C 
BRANCH   6   7
HETATM    7  C10 UNL     1      -4.887  48.097 -28.369  1.00  0.00     0.031 C 
BRANCH   7   8
HETATM    8  C9  UNL     1      -6.270  47.955 -28.956  1.00  0.00    -0.024 C 
HETATM    9  C7  UNL     1      -7.397  47.586 -28.316  1.00  0.00    -0.087 C 
HETATM   10  C8  UNL     1      -7.451  47.277 -26.839  1.00  0.00     0.043 C 
BRANCH   9  11
HETATM   11  C6  UNL     1      -8.756  47.450 -28.995  1.00  0.00     0.037 C 
BRANCH  11  12
HETATM   12  C5  UNL     1      -9.089  48.433 -30.129  1.00  0.00     0.031 C 
BRANCH  12  13
HETATM   13  C4  UNL     1      -8.791  47.840 -31.482  1.00  0.00    -0.024 C 
HETATM   14  C2  UNL     1      -9.621  47.114 -32.256  1.00  0.00    -0.091 C 
HETATM   15  C1  UNL     1     -11.009  46.691 -31.858  1.00  0.00     0.042 C 
HETATM   16  C3  UNL     1      -9.186  46.644 -33.620  1.00  0.00     0.042 C 
ENDBRANCH  12  13
ENDBRANCH  11  12
ENDBRANCH   9  11
ENDBRANCH   7   8
ENDBRANCH   6   7
ENDBRANCH   4   6
ENDBRANCH   2   3
ENDBRANCH   1   2
BRANCH   1  17
HETATM   17  O1  UNL     1      -0.701  52.508 -26.276  1.00  0.00    -0.355 OA
BRANCH  17  18
HETATM   18  C17 UNL     1       0.140  52.675 -25.114  1.00  0.00     0.166 C 
HETATM   19  C18 UNL     1       1.467  52.008 -25.510  1.00  0.00     0.079 C 
HETATM   20  C19 UNL     1       0.273  54.185 -24.897  1.00  0.00     0.073 C 
HETATM   21  C20 UNL     1       1.172  54.492 -23.714  1.00  0.00     0.047 C 
HETATM   22  C21 UNL     1       0.840  53.600 -22.556  1.00  0.00    -0.021 A 
HETATM   23  C22 UNL     1       1.312  53.923 -21.278  1.00  0.00     0.046 A 
HETATM   24  C27 UNL     1       0.095  52.425 -22.732  1.00  0.00     0.085 A 
HETATM   25  C23 UNL     1       1.022  53.098 -20.199  1.00  0.00     0.066 A 
HETATM   26  C24 UNL     1       0.253  51.949 -20.360  1.00  0.00     0.046 A 
HETATM   27  C25 UNL     1      -0.222  51.604 -21.633  1.00  0.00    -0.025 A 
HETATM   28  C26 UNL     1      -1.049  50.361 -21.818  1.00  0.00     0.051 C 
HETATM   29  O3  UNL     1      -0.374  52.011 -23.951  1.00  0.00    -0.314 OA
BRANCH  25  30
HETATM   30  O2  UNL     1       1.527  53.452 -18.979  1.00  0.00    -0.361 OA
HETATM   31  H36 UNL     1       1.276  52.765 -18.337  1.00  0.00     0.217 HD
ENDBRANCH  25  30
ENDBRANCH  17  18
ENDBRANCH   1  17
TORSDOF 11
ENDMDL
MODEL 8
REMARK minimizedAffinity -7.54805231
REMARK CNNscore 0.510068893
REMARK CNNaffinity 6.70745516
REMARK  11 active torsions:
REMARK  status: ('A' for Active; 'I' for Inactive)
REMARK    1  A    between atoms: C4_4  and  C5_5 
REMARK    2  A    between atoms: C5_5  and  C6_6 
REMARK    3  A    between atoms: C6_6  and  C7_7 
REMARK    4  A    between atoms: C9_9  and  C10_10 
REMARK    5  A    between atoms: C10_10  and  C11_11 
REMARK    6  A    between atoms: C11_11  and  C12_12 
REMARK    7  A    between atoms: C14_14  and  C15_15 
REMARK    8  A    between atoms: C15_15  and  C16_16 
REMARK    9  A    between atoms: C16_16  and  O1_17 
REMARK   10  A    between atoms: O1_17  and  C17_18 
REMARK   11  A    between atoms: C23_24  and  O2_25 
ROOT
HETATM    1  C16 UNL     1      -2.899  50.314 -26.536  1.00  0.00     0.175 C 
ENDROOT
BRANCH   1   2
HETATM    2  C15 UNL     1      -2.953  48.776 -26.576  1.00  0.00     0.054 C 
BRANCH   2   3
HETATM    3  C14 UNL     1      -4.353  48.256 -26.358  1.00  0.00    -0.022 C 
HETATM    4  C12 UNL     1      -5.309  48.048 -27.288  1.00  0.00    -0.087 C 
HETATM    5  C13 UNL     1      -5.106  48.224 -28.770  1.00  0.00     0.043 C 
BRANCH   4   6
HETATM    6  C11 UNL     1      -6.696  47.592 -26.872  1.00  0.00     0.037 C 
BRANCH   6   7
HETATM    7  C10 UNL     1      -6.814  47.380 -25.356  1.00  0.00     0.031 C 
BRANCH   7   8
HETATM    8  C9  UNL     1      -6.419  48.620 -24.591  1.00  0.00    -0.024 C 
HETATM    9  C7  UNL     1      -6.945  49.070 -23.434  1.00  0.00    -0.087 C 
HETATM   10  C8  UNL     1      -8.035  48.348 -22.680  1.00  0.00     0.043 C 
BRANCH   9  11
HETATM   11  C6  UNL     1      -6.495  50.350 -22.736  1.00  0.00     0.037 C 
BRANCH  11  12
HETATM   12  C5  UNL     1      -5.038  50.425 -22.251  1.00  0.00     0.031 C 
BRANCH  12  13
HETATM   13  C4  UNL     1      -4.710  49.296 -21.309  1.00  0.00    -0.024 C 
HETATM   14  C2  UNL     1      -3.851  48.279 -21.520  1.00  0.00    -0.091 C 
HETATM   15  C1  UNL     1      -3.106  48.045 -22.805  1.00  0.00     0.042 C 
HETATM   16  C3  UNL     1      -3.588  47.259 -20.443  1.00  0.00     0.042 C 
ENDBRANCH  12  13
ENDBRANCH  11  12
ENDBRANCH   9  11
ENDBRANCH   7   8
ENDBRANCH   6   7
ENDBRANCH   4   6
ENDBRANCH   2   3
ENDBRANCH   1   2
BRANCH   1  17
HETATM   17  O1  UNL     1      -1.815  50.813 -27.324  1.00  0.00    -0.355 OA
BRANCH  17  18
HETATM   18  C17 UNL     1      -0.773  51.498 -26.597  1.00  0.00     0.166 C 
HETATM   19  C18 UNL     1       0.516  50.767 -27.006  1.00  0.00     0.079 C 
HETATM   20  C19 UNL     1      -0.809  52.955 -27.070  1.00  0.00     0.073 C 
HETATM   21  C20 UNL     1       0.275  53.777 -26.398  1.00  0.00     0.047 C 
HETATM   22  C21 UNL     1       0.332  53.472 -24.932  1.00  0.00    -0.021 A 
HETATM   23  C22 UNL     1       1.021  54.338 -24.073  1.00  0.00     0.046 A 
HETATM   24  C27 UNL     1      -0.261  52.316 -24.404  1.00  0.00     0.085 A 
HETATM   25  C23 UNL     1       1.093  54.060 -22.714  1.00  0.00     0.066 A 
HETATM   26  C24 UNL     1       0.476  52.932 -22.178  1.00  0.00     0.046 A 
HETATM   27  C25 UNL     1      -0.213  52.050 -23.023  1.00  0.00    -0.025 A 
HETATM   28  C26 UNL     1      -0.877  50.826 -22.454  1.00  0.00     0.051 C 
HETATM   29  O3  UNL     1      -0.922  51.395 -25.174  1.00  0.00    -0.314 OA
BRANCH  25  30
HETATM   30  O2  UNL     1       1.797  54.928 -21.927  1.00  0.00    -0.361 OA
HETATM   31  H36 UNL     1       1.791  54.584 -21.017  1.00  0.00     0.217 HD
ENDBRANCH  25  30
ENDBRANCH  17  18
ENDBRANCH   1  17
TORSDOF 11
ENDMDL
MODEL 9
REMARK minimizedAffinity -7.7987237
REMARK CNNscore 0.464926749
REMARK CNNaffinity 6.52361298
REMARK  11 active torsions:
REMARK  status: ('A' for Active; 'I' for Inactive)
REMARK    1  A    between atoms: C4_4  and  C5_5 
REMARK    2  A    between atoms: C5_5  and  C6_6 
REMARK    3  A    between atoms: C6_6  and  C7_7 
REMARK    4  A    between atoms: C9_9  and  C10_10 
REMARK    5  A    between atoms: C10_10  and  C11_11 
REMARK    6  A    between atoms: C11_11  and  C12_12 
REMARK    7  A    between atoms: C14_14  and  C15_15 
REMARK    8  A    between atoms: C15_15  and  C16_16 
REMARK    9  A    between atoms: C16_16  and  O1_17 
REMARK   10  A    between atoms: O1_17  and  C17_18 
REMARK   11  A    between atoms: C23_24  and  O2_25 
ROOT
HETATM    1  C16 UNL     1      -1.824  52.241 -27.079  1.00  0.00     0.175 C 
ENDROOT
BRANCH   1   2
HETATM    2  C15 UNL     1      -3.062  51.352 -27.299  1.00  0.00     0.054 C 
BRANCH   2   3
HETATM    3  C14 UNL     1      -3.076  50.165 -26.367  1.00  0.00    -0.022 C 
HETATM    4  C12 UNL     1      -3.471  50.135 -25.078  1.00  0.00    -0.087 C 
HETATM    5  C13 UNL     1      -4.071  51.306 -24.345  1.00  0.00     0.043 C 
BRANCH   4   6
HETATM    6  C11 UNL     1      -3.340  48.858 -24.266  1.00  0.00     0.037 C 
BRANCH   6   7
HETATM    7  C10 UNL     1      -4.701  48.303 -23.821  1.00  0.00     0.031 C 
BRANCH   7   8
HETATM    8  C9  UNL     1      -5.651  48.167 -24.986  1.00  0.00    -0.024 C 
HETATM    9  C7  UNL     1      -6.939  47.771 -24.951  1.00  0.00    -0.087 C 
HETATM   10  C8  UNL     1      -7.665  47.417 -23.675  1.00  0.00     0.043 C 
BRANCH   9  11
HETATM   11  C6  UNL     1      -7.825  47.645 -26.186  1.00  0.00     0.037 C 
BRANCH  11  12
HETATM   12  C5  UNL     1      -7.401  46.640 -27.269  1.00  0.00     0.031 C 
BRANCH  12  13
HETATM   13  C4  UNL     1      -7.375  47.276 -28.635  1.00  0.00    -0.024 C 
HETATM   14  C2  UNL     1      -6.324  47.861 -29.244  1.00  0.00    -0.091 C 
HETATM   15  C1  UNL     1      -4.972  48.052 -28.615  1.00  0.00     0.042 C 
HETATM   16  C3  UNL     1      -6.450  48.397 -30.646  1.00  0.00     0.042 C 
ENDBRANCH  12  13
ENDBRANCH  11  12
ENDBRANCH   9  11
ENDBRANCH   7   8
ENDBRANCH   6   7
ENDBRANCH   4   6
ENDBRANCH   2   3
ENDBRANCH   1   2
BRANCH   1  17
HETATM   17  O1  UNL     1      -0.681  51.455 -26.730  1.00  0.00    -0.355 OA
BRANCH  17  18
HETATM   18  C17 UNL     1       0.124  51.963 -25.645  1.00  0.00     0.166 C 
HETATM   19  C18 UNL     1       1.522  51.384 -25.909  1.00  0.00     0.079 C 
HETATM   20  C19 UNL     1       0.079  53.490 -25.758  1.00  0.00     0.073 C 
HETATM   21  C20 UNL     1       0.925  54.145 -24.682  1.00  0.00     0.047 C 
HETATM   22  C21 UNL     1       0.687  53.490 -23.355  1.00  0.00    -0.021 A 
HETATM   23  C22 UNL     1       1.106  54.132 -22.183  1.00  0.00     0.046 A 
HETATM   24  C27 UNL     1       0.085  52.227 -23.264  1.00  0.00     0.085 A 
HETATM   25  C23 UNL     1       0.904  53.530 -20.948  1.00  0.00     0.066 A 
HETATM   26  C24 UNL     1       0.274  52.292 -20.847  1.00  0.00     0.046 A 
HETATM   27  C25 UNL     1      -0.146  51.630 -22.010  1.00  0.00    -0.025 A 
HETATM   28  C26 UNL     1      -0.821  50.289 -21.911  1.00  0.00     0.051 C 
HETATM   29  O3  UNL     1      -0.321  51.510 -24.358  1.00  0.00    -0.314 OA
BRANCH  25  30
HETATM   30  O2  UNL     1       1.352  54.192 -19.839  1.00  0.00    -0.361 OA
HETATM   31  H36 UNL     1       1.176  53.635 -19.062  1.00  0.00     0.217 HD
ENDBRANCH  25  30
ENDBRANCH  17  18
ENDBRANCH   1  17
TORSDOF 11
ENDMDL
