MODEL 1
REMARK minimizedAffinity -6.30948877
REMARK CNNscore 0.570421398
REMARK CNNaffinity 5.57666636
REMARK  2 active torsions:
REMARK  status: ('A' for Active; 'I' for Inactive)
REMARK    1  A    between atoms: C13_16  and  C14_17 
REMARK    2  A    between atoms: C14_17  and  O4_19 
ROOT
HETATM    1  C1  UNL     1     -14.717  40.673 -22.575  1.00  0.00     0.046 C 
HETATM    2  C2  UNL     1     -15.987  41.292 -23.090  1.00  0.00    -0.054 C 
HETATM    3  C3  UNL     1     -17.136  40.605 -23.135  1.00  0.00     0.011 C 
HETATM    4  C4  UNL     1     -18.417  41.161 -23.702  1.00  0.00     0.159 C 
HETATM    5  O1  UNL     1     -19.450  40.576 -22.887  1.00  0.00    -0.372 OA
HETATM    6  C5  UNL     1     -20.005  41.407 -21.877  1.00  0.00     0.162 C 
HETATM    7  C6  UNL     1     -18.931  42.029 -20.950  1.00  0.00     0.068 C 
HETATM    8  C7  UNL     1     -18.853  43.490 -21.417  1.00  0.00     0.147 C 
HETATM    9  O2  UNL     1     -17.571  44.119 -21.341  1.00  0.00    -0.312 OA
HETATM   10  C8  UNL     1     -17.597  45.334 -20.723  1.00  0.00     0.283 C 
HETATM   11  O3  UNL     1     -18.396  45.689 -19.865  1.00  0.00    -0.260 OA
HETATM   12  C9  UNL     1     -16.749  46.319 -21.418  1.00  0.00     0.082 C 
HETATM   13  C10 UNL     1     -15.482  46.240 -21.841  1.00  0.00     0.006 C 
HETATM   14  C11 UNL     1     -14.525  45.193 -21.595  1.00  0.00    -0.001 C 
HETATM   15  C12 UNL     1     -13.388  44.992 -22.287  1.00  0.00     0.007 C 
HETATM   16  C13 UNL     1     -12.880  45.624 -23.572  1.00  0.00     0.172 C 
HETATM   17  O5  UNL     1     -13.965  46.162 -24.335  1.00  0.00    -0.379 OA
HETATM   18  C16 UNL     1     -14.138  45.519 -25.602  1.00  0.00     0.173 C 
HETATM   19  C17 UNL     1     -15.442  46.009 -26.250  1.00  0.00     0.060 C 
HETATM   20  C18 UNL     1     -15.825  45.260 -27.518  1.00  0.00    -0.076 C 
HETATM   21  C19 UNL     1     -14.811  45.316 -28.630  1.00  0.00     0.043 C 
HETATM   22  C20 UNL     1     -16.973  44.568 -27.700  1.00  0.00     0.084 C 
HETATM   23  C21 UNL     1     -18.072  44.476 -26.714  1.00  0.00     0.283 C 
HETATM   24  O6  UNL     1     -18.579  45.436 -26.160  1.00  0.00    -0.260 OA
HETATM   25  O7  UNL     1     -18.370  43.167 -26.510  1.00  0.00    -0.317 OA
HETATM   26  C22 UNL     1     -19.259  42.900 -25.404  1.00  0.00     0.195 C 
HETATM   27  C23 UNL     1     -18.540  42.743 -23.991  1.00  0.00     0.053 C 
HETATM   28  C24 UNL     1     -17.145  43.379 -24.037  1.00  0.00     0.170 A 
HETATM   29  O8  UNL     1     -16.243  42.836 -25.022  1.00  0.00    -0.370 OA
HETATM   30  C25 UNL     1     -15.888  42.627 -23.660  1.00  0.00     0.180 A 
HETATM   31  C26 UNL     1     -19.453  43.488 -22.872  1.00  0.00     0.034 C 
HETATM   32  C27 UNL     1     -19.858  44.932 -23.220  1.00  0.00     0.022 C 
HETATM   33  C28 UNL     1     -20.609  42.576 -22.573  1.00  0.00     0.119 A 
HETATM   34  C29 UNL     1     -22.054  42.979 -22.381  1.00  0.00     0.210 A 
HETATM   35  O9  UNL     1     -21.585  42.337 -23.584  1.00  0.00    -0.371 OA
ENDROOT
BRANCH  16  36
HETATM   36  C14 UNL     1     -11.792  46.705 -23.349  1.00  0.00     0.146 C 
HETATM   37  C15 UNL     1     -10.548  46.215 -22.618  1.00  0.00     0.042 C 
BRANCH  36  38
HETATM   38  O4  UNL     1     -11.407  47.307 -24.590  1.00  0.00    -0.393 OA
HETATM   39  H19 UNL     1     -10.806  46.687 -25.038  1.00  0.00     0.210 HD
ENDBRANCH  36  38
ENDBRANCH  16  36
TORSDOF 2
ENDMDL
MODEL 2
REMARK minimizedAffinity -7.7894783
REMARK CNNscore 0.56014967
REMARK CNNaffinity 6.59973001
REMARK  2 active torsions:
REMARK  status: ('A' for Active; 'I' for Inactive)
REMARK    1  A    between atoms: C13_16  and  C14_17 
REMARK    2  A    between atoms: C14_17  and  O4_19 
ROOT
HETATM    1  C1  UNL     1       3.350  56.498 -11.293  1.00  0.00     0.046 C 
HETATM    2  C2  UNL     1       3.942  55.363 -10.505  1.00  0.00    -0.054 C 
HETATM    3  C3  UNL     1       5.197  55.410 -10.039  1.00  0.00     0.011 C 
HETATM    4  C4  UNL     1       5.854  54.271  -9.301  1.00  0.00     0.159 C 
HETATM    5  O1  UNL     1       6.709  54.918  -8.339  1.00  0.00    -0.372 OA
HETATM    6  C5  UNL     1       6.227  54.977  -7.004  1.00  0.00     0.162 C 
HETATM    7  C6  UNL     1       4.809  55.591  -6.902  1.00  0.00     0.068 C 
HETATM    8  C7  UNL     1       3.906  54.374  -6.650  1.00  0.00     0.147 C 
HETATM    9  O2  UNL     1       2.592  54.425  -7.210  1.00  0.00    -0.312 OA
HETATM   10  C8  UNL     1       1.607  54.121  -6.318  1.00  0.00     0.283 C 
HETATM   11  O3  UNL     1       1.656  54.289  -5.105  1.00  0.00    -0.260 OA
HETATM   12  C9  UNL     1       0.572  53.261  -6.918  1.00  0.00     0.082 C 
HETATM   13  C10 UNL     1      -0.108  53.378  -8.065  1.00  0.00     0.006 C 
HETATM   14  C11 UNL     1      -0.120  54.488  -8.982  1.00  0.00    -0.001 C 
HETATM   15  C12 UNL     1      -0.551  54.447 -10.257  1.00  0.00     0.007 C 
HETATM   16  C13 UNL     1      -0.945  53.272 -11.136  1.00  0.00     0.172 C 
HETATM   17  O5  UNL     1      -0.351  52.061 -10.659  1.00  0.00    -0.379 OA
HETATM   18  C16 UNL     1       0.572  51.480 -11.587  1.00  0.00     0.173 C 
HETATM   19  C17 UNL     1       1.313  50.318 -10.911  1.00  0.00     0.060 C 
HETATM   20  C18 UNL     1       2.450  49.740 -11.741  1.00  0.00    -0.076 C 
HETATM   21  C19 UNL     1       2.052  49.197 -13.088  1.00  0.00     0.043 C 
HETATM   22  C20 UNL     1       3.747  49.689 -11.362  1.00  0.00     0.084 C 
HETATM   23  C21 UNL     1       4.264  50.137 -10.050  1.00  0.00     0.283 C 
HETATM   24  O6  UNL     1       3.797  49.799  -8.976  1.00  0.00    -0.260 OA
HETATM   25  O7  UNL     1       5.291  51.003 -10.254  1.00  0.00    -0.317 OA
HETATM   26  C22 UNL     1       5.748  51.708  -9.080  1.00  0.00     0.195 C 
HETATM   27  C23 UNL     1       4.953  53.050  -8.755  1.00  0.00     0.053 C 
HETATM   28  C24 UNL     1       3.593  53.041  -9.464  1.00  0.00     0.170 A 
HETATM   29  O8  UNL     1       3.639  52.927 -10.900  1.00  0.00    -0.370 OA
HETATM   30  C25 UNL     1       3.140  54.155 -10.382  1.00  0.00     0.180 A 
HETATM   31  C26 UNL     1       4.740  53.136  -7.146  1.00  0.00     0.034 C 
HETATM   32  C27 UNL     1       4.140  51.872  -6.502  1.00  0.00     0.022 C 
HETATM   33  C28 UNL     1       6.050  53.569  -6.553  1.00  0.00     0.119 A 
HETATM   34  C29 UNL     1       6.699  53.030  -5.298  1.00  0.00     0.210 A 
HETATM   35  O9  UNL     1       7.169  52.687  -6.618  1.00  0.00    -0.371 OA
ENDROOT
BRANCH  16  36
HETATM   36  C14 UNL     1      -2.477  53.095 -11.292  1.00  0.00     0.146 C 
HETATM   37  C15 UNL     1      -3.315  54.164 -10.601  1.00  0.00     0.042 C 
BRANCH  36  38
HETATM   38  O4  UNL     1      -2.845  53.022 -12.674  1.00  0.00    -0.393 OA
HETATM   39  H19 UNL     1      -2.839  53.930 -13.023  1.00  0.00     0.210 HD
ENDBRANCH  36  38
ENDBRANCH  16  36
TORSDOF 2
ENDMDL
MODEL 3
REMARK minimizedAffinity -7.36912251
REMARK CNNscore 0.379774392
REMARK CNNaffinity 5.62660217
REMARK  2 active torsions:
REMARK  status: ('A' for Active; 'I' for Inactive)
REMARK    1  A    between atoms: C13_16  and  C14_17 
REMARK    2  A    between atoms: C14_17  and  O4_19 
ROOT
HETATM    1  C1  UNL     1     -14.675  41.280 -22.935  1.00  0.00     0.046 C 
HETATM    2  C2  UNL     1     -15.877  42.155 -22.708  1.00  0.00    -0.054 C 
HETATM    3  C3  UNL     1     -16.680  41.983 -21.650  1.00  0.00     0.011 C 
HETATM    4  C4  UNL     1     -17.932  42.791 -21.415  1.00  0.00     0.159 C 
HETATM    5  O1  UNL     1     -18.006  42.924 -19.983  1.00  0.00    -0.372 OA
HETATM    6  C5  UNL     1     -17.581  44.167 -19.441  1.00  0.00     0.162 C 
HETATM    7  C6  UNL     1     -16.162  44.575 -19.906  1.00  0.00     0.068 C 
HETATM    8  C7  UNL     1     -16.424  45.679 -20.941  1.00  0.00     0.147 C 
HETATM    9  O2  UNL     1     -15.512  45.757 -22.039  1.00  0.00    -0.312 OA
HETATM   10  C8  UNL     1     -15.027  47.013 -22.256  1.00  0.00     0.283 C 
HETATM   11  O3  UNL     1     -14.891  47.889 -21.410  1.00  0.00    -0.260 OA
HETATM   12  C9  UNL     1     -14.973  47.336 -23.693  1.00  0.00     0.082 C 
HETATM   13  C10 UNL     1     -14.467  46.653 -24.726  1.00  0.00     0.006 C 
HETATM   14  C11 UNL     1     -13.684  45.445 -24.696  1.00  0.00    -0.001 C 
HETATM   15  C12 UNL     1     -13.470  44.623 -25.741  1.00  0.00     0.007 C 
HETATM   16  C13 UNL     1     -14.093  44.592 -27.127  1.00  0.00     0.172 C 
HETATM   17  O5  UNL     1     -15.365  45.250 -27.125  1.00  0.00    -0.379 OA
HETATM   18  C16 UNL     1     -16.454  44.374 -27.434  1.00  0.00     0.173 C 
HETATM   19  C17 UNL     1     -17.782  45.108 -27.199  1.00  0.00     0.060 C 
HETATM   20  C18 UNL     1     -19.012  44.221 -27.320  1.00  0.00    -0.076 C 
HETATM   21  C19 UNL     1     -19.190  43.544 -28.654  1.00  0.00     0.043 C 
HETATM   22  C20 UNL     1     -19.919  44.004 -26.341  1.00  0.00     0.084 C 
HETATM   23  C21 UNL     1     -19.894  44.644 -25.006  1.00  0.00     0.283 C 
HETATM   24  O6  UNL     1     -19.780  45.843 -24.822  1.00  0.00    -0.260 OA
HETATM   25  O7  UNL     1     -19.970  43.678 -24.055  1.00  0.00    -0.317 OA
HETATM   26  C22 UNL     1     -19.722  44.121 -22.703  1.00  0.00     0.195 C 
HETATM   27  C23 UNL     1     -18.188  44.132 -22.275  1.00  0.00     0.053 C 
HETATM   28  C24 UNL     1     -17.293  44.136 -23.521  1.00  0.00     0.170 A 
HETATM   29  O8  UNL     1     -17.463  43.018 -24.416  1.00  0.00    -0.370 OA
HETATM   30  C25 UNL     1     -16.207  43.110 -23.754  1.00  0.00     0.180 A 
HETATM   31  C26 UNL     1     -17.916  45.470 -21.393  1.00  0.00     0.034 C 
HETATM   32  C27 UNL     1     -18.405  46.781 -22.036  1.00  0.00     0.022 C 
HETATM   33  C28 UNL     1     -18.471  45.210 -20.022  1.00  0.00     0.119 A 
HETATM   34  C29 UNL     1     -19.259  46.176 -19.165  1.00  0.00     0.210 A 
HETATM   35  O9  UNL     1     -19.880  45.073 -19.856  1.00  0.00    -0.371 OA
ENDROOT
BRANCH  16  36
HETATM   36  C14 UNL     1     -13.184  45.184 -28.233  1.00  0.00     0.146 C 
HETATM   37  C15 UNL     1     -12.254  44.177 -28.899  1.00  0.00     0.042 C 
BRANCH  36  38
HETATM   38  O4  UNL     1     -13.964  45.844 -29.237  1.00  0.00    -0.393 OA
HETATM   39  H19 UNL     1     -14.341  45.155 -29.810  1.00  0.00     0.210 HD
ENDBRANCH  36  38
ENDBRANCH  16  36
TORSDOF 2
ENDMDL
MODEL 4
REMARK minimizedAffinity -6.63365078
REMARK CNNscore 0.312729776
REMARK CNNaffinity 5.84418106
REMARK  2 active torsions:
REMARK  status: ('A' for Active; 'I' for Inactive)
REMARK    1  A    between atoms: C13_16  and  C14_17 
REMARK    2  A    between atoms: C14_17  and  O4_19 
ROOT
HETATM    1  C1  UNL     1       2.037  50.609  -5.295  1.00  0.00     0.046 C 
HETATM    2  C2  UNL     1       3.346  50.864  -5.991  1.00  0.00    -0.054 C 
HETATM    3  C3  UNL     1       4.494  50.341  -5.541  1.00  0.00     0.011 C 
HETATM    4  C4  UNL     1       5.838  50.621  -6.167  1.00  0.00     0.159 C 
HETATM    5  O1  UNL     1       6.566  49.389  -6.009  1.00  0.00    -0.372 OA
HETATM    6  C5  UNL     1       6.653  48.554  -7.155  1.00  0.00     0.162 C 
HETATM    7  C6  UNL     1       5.270  48.239  -7.777  1.00  0.00     0.068 C 
HETATM    8  C7  UNL     1       5.229  49.121  -9.033  1.00  0.00     0.147 C 
HETATM    9  O2  UNL     1       3.951  49.639  -9.410  1.00  0.00    -0.312 OA
HETATM   10  C8  UNL     1       3.647  49.437 -10.724  1.00  0.00     0.283 C 
HETATM   11  O3  UNL     1       4.059  48.521 -11.426  1.00  0.00    -0.260 OA
HETATM   12  C9  UNL     1       3.013  50.623 -11.327  1.00  0.00     0.082 C 
HETATM   13  C10 UNL     1       1.988  51.375 -10.909  1.00  0.00     0.006 C 
HETATM   14  C11 UNL     1       1.105  51.137  -9.797  1.00  0.00    -0.001 C 
HETATM   15  C12 UNL     1       0.306  52.055  -9.220  1.00  0.00     0.007 C 
HETATM   16  C13 UNL     1       0.227  53.561  -9.404  1.00  0.00     0.172 C 
HETATM   17  O5  UNL     1       1.458  54.073  -9.927  1.00  0.00    -0.379 OA
HETATM   18  C16 UNL     1       2.122  54.970  -9.030  1.00  0.00     0.173 C 
HETATM   19  C17 UNL     1       3.520  55.295  -9.577  1.00  0.00     0.060 C 
HETATM   20  C18 UNL     1       4.390  56.096  -8.619  1.00  0.00    -0.076 C 
HETATM   21  C19 UNL     1       3.831  57.431  -8.204  1.00  0.00     0.043 C 
HETATM   22  C20 UNL     1       5.587  55.697  -8.131  1.00  0.00     0.084 C 
HETATM   23  C21 UNL     1       6.273  54.437  -8.496  1.00  0.00     0.283 C 
HETATM   24  O6  UNL     1       6.464  54.067  -9.641  1.00  0.00    -0.260 OA
HETATM   25  O7  UNL     1       6.598  53.769  -7.359  1.00  0.00    -0.317 OA
HETATM   26  C22 UNL     1       7.062  52.415  -7.550  1.00  0.00     0.195 C 
HETATM   27  C23 UNL     1       5.910  51.317  -7.620  1.00  0.00     0.053 C 
HETATM   28  C24 UNL     1       4.568  51.983  -7.952  1.00  0.00     0.170 A 
HETATM   29  O8  UNL     1       4.123  52.989  -7.021  1.00  0.00    -0.370 OA
HETATM   30  C25 UNL     1       3.333  51.808  -7.098  1.00  0.00     0.180 A 
HETATM   31  C26 UNL     1       6.300  50.246  -8.779  1.00  0.00     0.034 C 
HETATM   32  C27 UNL     1       6.668  50.866 -10.139  1.00  0.00     0.022 C 
HETATM   33  C28 UNL     1       7.355  49.345  -8.204  1.00  0.00     0.119 A 
HETATM   34  C29 UNL     1       8.597  48.842  -8.905  1.00  0.00     0.210 A 
HETATM   35  O9  UNL     1       8.641  49.881  -7.906  1.00  0.00    -0.371 OA
ENDROOT
BRANCH  16  36
HETATM   36  C14 UNL     1      -0.963  54.021 -10.283  1.00  0.00     0.146 C 
HETATM   37  C15 UNL     1      -1.324  55.495 -10.145  1.00  0.00     0.042 C 
BRANCH  36  38
HETATM   38  O4  UNL     1      -0.726  53.718 -11.663  1.00  0.00    -0.393 OA
HETATM   39  H19 UNL     1      -0.114  54.392 -12.006  1.00  0.00     0.210 HD
ENDBRANCH  36  38
ENDBRANCH  16  36
TORSDOF 2
ENDMDL
MODEL 5
REMARK minimizedAffinity -6.46237326
REMARK CNNscore 0.295696318
REMARK CNNaffinity 5.62512159
REMARK  2 active torsions:
REMARK  status: ('A' for Active; 'I' for Inactive)
REMARK    1  A    between atoms: C13_16  and  C14_17 
REMARK    2  A    between atoms: C14_17  and  O4_19 
ROOT
HETATM    1  C1  UNL     1       2.047  52.215  -4.061  1.00  0.00     0.046 C 
HETATM    2  C2  UNL     1       2.355  52.520  -5.501  1.00  0.00    -0.054 C 
HETATM    3  C3  UNL     1       2.097  51.639  -6.477  1.00  0.00     0.011 C 
HETATM    4  C4  UNL     1       2.447  51.874  -7.925  1.00  0.00     0.159 C 
HETATM    5  O1  UNL     1       1.385  51.233  -8.655  1.00  0.00    -0.372 OA
HETATM    6  C5  UNL     1       0.374  52.085  -9.177  1.00  0.00     0.162 C 
HETATM    7  C6  UNL     1      -0.248  53.011  -8.103  1.00  0.00     0.068 C 
HETATM    8  C7  UNL     1       0.372  54.383  -8.405  1.00  0.00     0.147 C 
HETATM    9  O2  UNL     1       0.622  55.234  -7.285  1.00  0.00    -0.312 OA
HETATM   10  C8  UNL     1       0.138  56.500  -7.444  1.00  0.00     0.283 C 
HETATM   11  O3  UNL     1      -0.823  56.823  -8.132  1.00  0.00    -0.260 OA
HETATM   12  C9  UNL     1       1.088  57.513  -6.951  1.00  0.00     0.082 C 
HETATM   13  C10 UNL     1       1.748  57.604  -5.790  1.00  0.00     0.006 C 
HETATM   14  C11 UNL     1       1.595  56.788  -4.613  1.00  0.00    -0.001 C 
HETATM   15  C12 UNL     1       2.478  56.699  -3.601  1.00  0.00     0.007 C 
HETATM   16  C13 UNL     1       3.897  57.226  -3.469  1.00  0.00     0.172 C 
HETATM   17  O5  UNL     1       4.476  57.451  -4.759  1.00  0.00    -0.379 OA
HETATM   18  C16 UNL     1       5.609  56.617  -5.022  1.00  0.00     0.173 C 
HETATM   19  C17 UNL     1       6.026  56.771  -6.492  1.00  0.00     0.060 C 
HETATM   20  C18 UNL     1       7.107  55.796  -6.936  1.00  0.00    -0.076 C 
HETATM   21  C19 UNL     1       8.401  55.876  -6.170  1.00  0.00     0.043 C 
HETATM   22  C20 UNL     1       6.982  54.893  -7.935  1.00  0.00     0.084 C 
HETATM   23  C21 UNL     1       5.790  54.745  -8.799  1.00  0.00     0.283 C 
HETATM   24  O6  UNL     1       5.246  55.666  -9.382  1.00  0.00    -0.260 OA
HETATM   25  O7  UNL     1       5.397  53.444  -8.785  1.00  0.00    -0.317 OA
HETATM   26  C22 UNL     1       4.113  53.181  -9.390  1.00  0.00     0.195 C 
HETATM   27  C23 UNL     1       2.866  53.353  -8.414  1.00  0.00     0.053 C 
HETATM   28  C24 UNL     1       3.258  54.215  -7.207  1.00  0.00     0.170 A 
HETATM   29  O8  UNL     1       4.343  53.709  -6.404  1.00  0.00    -0.370 OA
HETATM   30  C25 UNL     1       3.067  53.759  -5.777  1.00  0.00     0.180 A 
HETATM   31  C26 UNL     1       1.667  54.071  -9.243  1.00  0.00     0.034 C 
HETATM   32  C27 UNL     1       2.072  55.358  -9.986  1.00  0.00     0.022 C 
HETATM   33  C28 UNL     1       1.050  53.019 -10.119  1.00  0.00     0.119 A 
HETATM   34  C29 UNL     1       0.611  53.181 -11.558  1.00  0.00     0.210 A 
HETATM   35  O9  UNL     1       1.812  52.471 -11.191  1.00  0.00    -0.371 OA
ENDROOT
BRANCH  16  36
HETATM   36  C14 UNL     1       4.010  58.504  -2.600  1.00  0.00     0.146 C 
HETATM   37  C15 UNL     1       4.109  59.804  -3.389  1.00  0.00     0.042 C 
BRANCH  36  38
HETATM   38  O4  UNL     1       2.918  58.591  -1.676  1.00  0.00    -0.393 OA
HETATM   39  H19 UNL     1       2.144  58.906  -2.172  1.00  0.00     0.210 HD
ENDBRANCH  36  38
ENDBRANCH  16  36
TORSDOF 2
ENDMDL
MODEL 6
REMARK minimizedAffinity -6.75252056
REMARK CNNscore 0.262478501
REMARK CNNaffinity 5.53162193
REMARK  2 active torsions:
REMARK  status: ('A' for Active; 'I' for Inactive)
REMARK    1  A    between atoms: C13_16  and  C14_17 
REMARK    2  A    between atoms: C14_17  and  O4_19 
ROOT
HETATM    1  C1  UNL     1     -15.594  40.225 -23.787  1.00  0.00     0.046 C 
HETATM    2  C2  UNL     1     -16.153  41.255 -24.729  1.00  0.00    -0.054 C 
HETATM    3  C3  UNL     1     -15.561  41.533 -25.898  1.00  0.00     0.011 C 
HETATM    4  C4  UNL     1     -16.048  42.601 -26.845  1.00  0.00     0.159 C 
HETATM    5  O1  UNL     1     -15.763  42.072 -28.153  1.00  0.00    -0.372 OA
HETATM    6  C5  UNL     1     -16.859  41.509 -28.860  1.00  0.00     0.162 C 
HETATM    7  C6  UNL     1     -17.615  40.432 -28.042  1.00  0.00     0.068 C 
HETATM    8  C7  UNL     1     -18.902  41.148 -27.605  1.00  0.00     0.147 C 
HETATM    9  O2  UNL     1     -19.435  40.785 -26.330  1.00  0.00    -0.312 OA
HETATM   10  C8  UNL     1     -20.765  40.486 -26.361  1.00  0.00     0.283 C 
HETATM   11  O3  UNL     1     -21.382  40.042 -27.322  1.00  0.00    -0.260 OA
HETATM   12  C9  UNL     1     -21.480  41.052 -25.203  1.00  0.00     0.082 C 
HETATM   13  C10 UNL     1     -21.206  41.000 -23.894  1.00  0.00     0.006 C 
HETATM   14  C11 UNL     1     -20.188  40.230 -23.228  1.00  0.00    -0.001 C 
HETATM   15  C12 UNL     1     -19.738  40.442 -21.977  1.00  0.00     0.007 C 
HETATM   16  C13 UNL     1     -19.988  41.587 -21.010  1.00  0.00     0.172 C 
HETATM   17  O5  UNL     1     -20.394  42.765 -21.715  1.00  0.00    -0.379 OA
HETATM   18  C16 UNL     1     -19.467  43.849 -21.585  1.00  0.00     0.173 C 
HETATM   19  C17 UNL     1     -19.870  44.983 -22.538  1.00  0.00     0.060 C 
HETATM   20  C18 UNL     1     -18.856  46.115 -22.621  1.00  0.00    -0.076 C 
HETATM   21  C19 UNL     1     -18.557  46.809 -21.318  1.00  0.00     0.043 C 
HETATM   22  C20 UNL     1     -18.226  46.518 -23.747  1.00  0.00     0.084 C 
HETATM   23  C21 UNL     1     -18.464  45.960 -25.097  1.00  0.00     0.283 C 
HETATM   24  O6  UNL     1     -19.567  45.826 -25.599  1.00  0.00    -0.260 OA
HETATM   25  O7  UNL     1     -17.274  45.592 -25.637  1.00  0.00    -0.317 OA
HETATM   26  C22 UNL     1     -17.359  44.817 -26.852  1.00  0.00     0.195 C 
HETATM   27  C23 UNL     1     -17.511  43.246 -26.634  1.00  0.00     0.053 C 
HETATM   28  C24 UNL     1     -18.013  42.958 -25.213  1.00  0.00     0.170 A 
HETATM   29  O8  UNL     1     -17.175  43.444 -24.144  1.00  0.00    -0.370 OA
HETATM   30  C25 UNL     1     -17.291  42.031 -24.261  1.00  0.00     0.180 A 
HETATM   31  C26 UNL     1     -18.577  42.683 -27.723  1.00  0.00     0.034 C 
HETATM   32  C27 UNL     1     -19.913  43.447 -27.779  1.00  0.00     0.022 C 
HETATM   33  C28 UNL     1     -17.856  42.600 -29.038  1.00  0.00     0.119 A 
HETATM   34  C29 UNL     1     -18.398  42.993 -30.395  1.00  0.00     0.210 A 
HETATM   35  O9  UNL     1     -17.441  43.803 -29.681  1.00  0.00    -0.371 OA
ENDROOT
BRANCH  16  36
HETATM   36  C14 UNL     1     -21.009  41.250 -19.894  1.00  0.00     0.146 C 
HETATM   37  C15 UNL     1     -22.453  41.607 -20.223  1.00  0.00     0.042 C 
BRANCH  36  38
HETATM   38  O4  UNL     1     -20.933  39.866 -19.533  1.00  0.00    -0.393 OA
HETATM   39  H19 UNL     1     -21.403  39.362 -20.219  1.00  0.00     0.210 HD
ENDBRANCH  36  38
ENDBRANCH  16  36
TORSDOF 2
ENDMDL
MODEL 7
REMARK minimizedAffinity -6.25637674
REMARK CNNscore 0.260227948
REMARK CNNaffinity 4.7378974
REMARK  2 active torsions:
REMARK  status: ('A' for Active; 'I' for Inactive)
REMARK    1  A    between atoms: C13_16  and  C14_17 
REMARK    2  A    between atoms: C14_17  and  O4_19 
ROOT
HETATM    1  C1  UNL     1     -14.090  41.055 -23.524  1.00  0.00     0.046 C 
HETATM    2  C2  UNL     1     -14.715  42.245 -24.198  1.00  0.00    -0.054 C 
HETATM    3  C3  UNL     1     -16.028  42.295 -24.460  1.00  0.00     0.011 C 
HETATM    4  C4  UNL     1     -16.688  43.437 -25.191  1.00  0.00     0.159 C 
HETATM    5  O1  UNL     1     -17.988  43.545 -24.581  1.00  0.00    -0.372 OA
HETATM    6  C5  UNL     1     -18.154  44.585 -23.627  1.00  0.00     0.162 C 
HETATM    7  C6  UNL     1     -17.081  44.557 -22.511  1.00  0.00     0.068 C 
HETATM    8  C7  UNL     1     -16.145  45.717 -22.880  1.00  0.00     0.147 C 
HETATM    9  O2  UNL     1     -14.760  45.547 -22.570  1.00  0.00    -0.312 OA
HETATM   10  C8  UNL     1     -14.219  46.603 -21.898  1.00  0.00     0.283 C 
HETATM   11  O3  UNL     1     -14.821  47.372 -21.158  1.00  0.00    -0.260 OA
HETATM   12  C9  UNL     1     -12.873  46.936 -22.397  1.00  0.00     0.082 C 
HETATM   13  C10 UNL     1     -11.805  46.161 -22.620  1.00  0.00     0.006 C 
HETATM   14  C11 UNL     1     -11.627  44.772 -22.283  1.00  0.00    -0.001 C 
HETATM   15  C12 UNL     1     -10.690  43.954 -22.797  1.00  0.00     0.007 C 
HETATM   16  C13 UNL     1      -9.720  44.153 -23.951  1.00  0.00     0.172 C 
HETATM   17  O5  UNL     1     -10.197  45.164 -24.844  1.00  0.00    -0.379 OA
HETATM   18  C16 UNL     1     -10.486  44.669 -26.156  1.00  0.00     0.173 C 
HETATM   19  C17 UNL     1     -11.188  45.763 -26.973  1.00  0.00     0.060 C 
HETATM   20  C18 UNL     1     -11.706  45.294 -28.324  1.00  0.00    -0.076 C 
HETATM   21  C19 UNL     1     -10.663  44.741 -29.258  1.00  0.00     0.043 C 
HETATM   22  C20 UNL     1     -12.998  45.334 -28.722  1.00  0.00     0.084 C 
HETATM   23  C21 UNL     1     -14.112  45.898 -27.927  1.00  0.00     0.283 C 
HETATM   24  O6  UNL     1     -14.096  47.001 -27.408  1.00  0.00    -0.260 OA
HETATM   25  O7  UNL     1     -15.104  44.974 -27.843  1.00  0.00    -0.317 OA
HETATM   26  C22 UNL     1     -16.159  45.282 -26.907  1.00  0.00     0.195 C 
HETATM   27  C23 UNL     1     -15.880  44.816 -25.409  1.00  0.00     0.053 C 
HETATM   28  C24 UNL     1     -14.378  44.584 -25.201  1.00  0.00     0.170 A 
HETATM   29  O8  UNL     1     -13.773  43.597 -26.059  1.00  0.00    -0.370 OA
HETATM   30  C25 UNL     1     -13.815  43.284 -24.672  1.00  0.00     0.180 A 
HETATM   31  C26 UNL     1     -16.406  45.983 -24.409  1.00  0.00     0.034 C 
HETATM   32  C27 UNL     1     -15.896  47.399 -24.737  1.00  0.00     0.022 C 
HETATM   33  C28 UNL     1     -17.902  45.865 -24.345  1.00  0.00     0.119 A 
HETATM   34  C29 UNL     1     -18.902  46.999 -24.361  1.00  0.00     0.210 A 
HETATM   35  O9  UNL     1     -18.673  46.156 -25.509  1.00  0.00    -0.371 OA
ENDROOT
BRANCH  16  36
HETATM   36  C14 UNL     1      -8.272  44.472 -23.501  1.00  0.00     0.146 C 
HETATM   37  C15 UNL     1      -7.836  45.913 -23.736  1.00  0.00     0.042 C 
BRANCH  36  38
HETATM   38  O4  UNL     1      -8.080  44.138 -22.121  1.00  0.00    -0.393 OA
HETATM   39  H19 UNL     1      -8.481  44.848 -21.593  1.00  0.00     0.210 HD
ENDBRANCH  36  38
ENDBRANCH  16  36
TORSDOF 2
ENDMDL
MODEL 8
REMARK minimizedAffinity -6.75318623
REMARK CNNscore 0.257495612
REMARK CNNaffinity 5.27241468
REMARK  2 active torsions:
REMARK  status: ('A' for Active; 'I' for Inactive)
REMARK    1  A    between atoms: C13_16  and  C14_17 
REMARK    2  A    between atoms: C14_17  and  O4_19 
ROOT
HETATM    1  C1  UNL     1     -15.801  41.367 -21.866  1.00  0.00     0.046 C 
HETATM    2  C2  UNL     1     -16.090  41.815 -23.272  1.00  0.00    -0.054 C 
HETATM    3  C3  UNL     1     -16.461  40.948 -24.223  1.00  0.00     0.011 C 
HETATM    4  C4  UNL     1     -16.698  41.339 -25.660  1.00  0.00     0.159 C 
HETATM    5  O1  UNL     1     -17.770  40.479 -26.090  1.00  0.00    -0.372 OA
HETATM    6  C5  UNL     1     -19.066  41.060 -26.136  1.00  0.00     0.162 C 
HETATM    7  C6  UNL     1     -19.472  41.735 -24.802  1.00  0.00     0.068 C 
HETATM    8  C7  UNL     1     -19.328  43.235 -25.098  1.00  0.00     0.147 C 
HETATM    9  O2  UNL     1     -18.909  44.064 -24.012  1.00  0.00    -0.312 OA
HETATM   10  C8  UNL     1     -19.695  45.165 -23.832  1.00  0.00     0.283 C 
HETATM   11  O3  UNL     1     -20.881  45.258 -24.123  1.00  0.00    -0.260 OA
HETATM   12  C9  UNL     1     -18.893  46.366 -23.537  1.00  0.00     0.082 C 
HETATM   13  C10 UNL     1     -17.912  46.568 -22.650  1.00  0.00     0.006 C 
HETATM   14  C11 UNL     1     -17.456  45.682 -21.610  1.00  0.00    -0.001 C 
HETATM   15  C12 UNL     1     -16.282  45.777 -20.959  1.00  0.00     0.007 C 
HETATM   16  C13 UNL     1     -15.067  46.651 -21.220  1.00  0.00     0.172 C 
HETATM   17  O5  UNL     1     -15.039  47.085 -22.584  1.00  0.00    -0.379 OA
HETATM   18  C16 UNL     1     -13.907  46.593 -23.310  1.00  0.00     0.173 C 
HETATM   19  C17 UNL     1     -14.073  46.925 -24.800  1.00  0.00     0.060 C 
HETATM   20  C18 UNL     1     -13.019  46.293 -25.698  1.00  0.00    -0.076 C 
HETATM   21  C19 UNL     1     -11.595  46.672 -25.386  1.00  0.00     0.043 C 
HETATM   22  C20 UNL     1     -13.271  45.440 -26.717  1.00  0.00     0.084 C 
HETATM   23  C21 UNL     1     -14.621  45.028 -27.162  1.00  0.00     0.283 C 
HETATM   24  O6  UNL     1     -15.529  45.802 -27.407  1.00  0.00    -0.260 OA
HETATM   25  O7  UNL     1     -14.675  43.671 -27.201  1.00  0.00    -0.317 OA
HETATM   26  C22 UNL     1     -15.991  43.110 -27.390  1.00  0.00     0.195 C 
HETATM   27  C23 UNL     1     -16.826  42.898 -26.050  1.00  0.00     0.053 C 
HETATM   28  C24 UNL     1     -16.250  43.771 -24.928  1.00  0.00     0.170 A 
HETATM   29  O8  UNL     1     -14.869  43.528 -24.595  1.00  0.00    -0.370 OA
HETATM   30  C25 UNL     1     -15.824  43.209 -23.590  1.00  0.00     0.180 A 
HETATM   31  C26 UNL     1     -18.369  43.318 -26.342  1.00  0.00     0.034 C 
HETATM   32  C27 UNL     1     -18.554  44.701 -26.993  1.00  0.00     0.022 C 
HETATM   33  C28 UNL     1     -18.992  42.186 -27.108  1.00  0.00     0.119 A 
HETATM   34  C29 UNL     1     -19.927  42.299 -28.292  1.00  0.00     0.210 A 
HETATM   35  O9  UNL     1     -18.544  41.913 -28.434  1.00  0.00    -0.371 OA
ENDROOT
BRANCH  16  36
HETATM   36  C14 UNL     1     -14.957  47.868 -20.267  1.00  0.00     0.146 C 
HETATM   37  C15 UNL     1     -14.967  47.519 -18.784  1.00  0.00     0.042 C 
BRANCH  36  38
HETATM   38  O4  UNL     1     -13.790  48.645 -20.563  1.00  0.00    -0.393 OA
HETATM   39  H19 UNL     1     -13.027  48.180 -20.179  1.00  0.00     0.210 HD
ENDBRANCH  36  38
ENDBRANCH  16  36
TORSDOF 2
ENDMDL
MODEL 9
REMARK minimizedAffinity -6.48187304
REMARK CNNscore 0.231091306
REMARK CNNaffinity 5.56795502
REMARK  2 active torsions:
REMARK  status: ('A' for Active; 'I' for Inactive)
REMARK    1  A    between atoms: C13_16  and  C14_17 
REMARK    2  A    between atoms: C14_17  and  O4_19 
ROOT
HETATM    1  C1  UNL     1     -14.870  42.131 -25.155  1.00  0.00     0.046 C 
HETATM    2  C2  UNL     1     -15.699  42.603 -23.993  1.00  0.00    -0.054 C 
HETATM    3  C3  UNL     1     -15.137  43.014 -22.849  1.00  0.00     0.011 C 
HETATM    4  C4  UNL     1     -15.928  43.434 -21.636  1.00  0.00     0.159 C 
HETATM    5  O1  UNL     1     -15.141  44.483 -21.044  1.00  0.00    -0.372 OA
HETATM    6  C5  UNL     1     -15.572  45.814 -21.291  1.00  0.00     0.162 C 
HETATM    7  C6  UNL     1     -15.755  46.119 -22.799  1.00  0.00     0.068 C 
HETATM    8  C7  UNL     1     -17.279  46.115 -22.987  1.00  0.00     0.147 C 
HETATM    9  O2  UNL     1     -17.768  45.638 -24.242  1.00  0.00    -0.312 OA
HETATM   10  C8  UNL     1     -18.672  46.475 -24.827  1.00  0.00     0.283 C 
HETATM   11  O3  UNL     1     -18.730  47.690 -24.680  1.00  0.00    -0.260 OA
HETATM   12  C9  UNL     1     -19.798  45.733 -25.423  1.00  0.00     0.082 C 
HETATM   13  C10 UNL     1     -19.814  44.677 -26.244  1.00  0.00     0.006 C 
HETATM   14  C11 UNL     1     -18.700  44.048 -26.907  1.00  0.00    -0.001 C 
HETATM   15  C12 UNL     1     -18.707  42.819 -27.456  1.00  0.00     0.007 C 
HETATM   16  C13 UNL     1     -19.739  41.705 -27.389  1.00  0.00     0.172 C 
HETATM   17  O5  UNL     1     -20.574  41.858 -26.237  1.00  0.00    -0.379 OA
HETATM   18  C16 UNL     1     -20.450  40.781 -25.302  1.00  0.00     0.173 C 
HETATM   19  C17 UNL     1     -21.209  41.132 -24.014  1.00  0.00     0.060 C 
HETATM   20  C18 UNL     1     -20.998  40.142 -22.878  1.00  0.00    -0.076 C 
HETATM   21  C19 UNL     1     -21.404  38.722 -23.177  1.00  0.00     0.043 C 
HETATM   22  C20 UNL     1     -20.482  40.443 -21.665  1.00  0.00     0.084 C 
HETATM   23  C21 UNL     1     -20.093  41.801 -21.223  1.00  0.00     0.283 C 
HETATM   24  O6  UNL     1     -20.808  42.783 -21.314  1.00  0.00    -0.260 OA
HETATM   25  O7  UNL     1     -18.817  41.762 -20.758  1.00  0.00    -0.317 OA
HETATM   26  C22 UNL     1     -18.211  43.049 -20.509  1.00  0.00     0.195 C 
HETATM   27  C23 UNL     1     -17.511  43.715 -21.775  1.00  0.00     0.053 C 
HETATM   28  C24 UNL     1     -18.046  43.082 -23.066  1.00  0.00     0.170 A 
HETATM   29  O8  UNL     1     -17.854  41.658 -23.190  1.00  0.00    -0.370 OA
HETATM   30  C25 UNL     1     -17.143  42.472 -24.115  1.00  0.00     0.180 A 
HETATM   31  C26 UNL     1     -17.840  45.306 -21.759  1.00  0.00     0.034 C 
HETATM   32  C27 UNL     1     -19.331  45.658 -21.601  1.00  0.00     0.022 C 
HETATM   33  C28 UNL     1     -16.945  45.928 -20.726  1.00  0.00     0.119 A 
HETATM   34  C29 UNL     1     -17.325  46.993 -19.721  1.00  0.00     0.210 A 
HETATM   35  O9  UNL     1     -17.144  45.610 -19.351  1.00  0.00    -0.371 OA
ENDROOT
BRANCH  16  36
HETATM   36  C14 UNL     1     -20.604  41.577 -28.667  1.00  0.00     0.146 C 
HETATM   37  C15 UNL     1     -20.376  42.672 -29.703  1.00  0.00     0.042 C 
BRANCH  36  38
HETATM   38  O4  UNL     1     -20.421  40.297 -29.283  1.00  0.00    -0.393 OA
HETATM   39  H19 UNL     1     -19.577  40.326 -29.766  1.00  0.00     0.210 HD
ENDBRANCH  36  38
ENDBRANCH  16  36
TORSDOF 2
ENDMDL
