MODEL 1
REMARK minimizedAffinity -6.76034641
REMARK CNNscore 0.819078505
REMARK CNNaffinity 7.30089617
REMARK  6 active torsions:
REMARK  status: ('A' for Active; 'I' for Inactive)
REMARK    1  A    between atoms: C2_2  and  C30_32 
REMARK    2  A    between atoms: C3_3  and  C4_4 
REMARK    3  A    between atoms: C4_4  and  C5_5 
REMARK    4  A    between atoms: C5_5  and  C6_6 
REMARK    5  A    between atoms: C6_6  and  C8_8 
REMARK    6  A    between atoms: C30_32  and  O3_33 
ROOT
HETATM    1  C8  UNL     1       4.305  55.264  -8.175  1.00  0.00    -0.002 C 
HETATM    2  C9  UNL     1       3.462  56.503  -7.761  1.00  0.00     0.007 C 
HETATM    3  C10 UNL     1       2.034  56.275  -8.296  1.00  0.00     0.015 C 
HETATM    4  C11 UNL     1       1.971  54.773  -8.640  1.00  0.00    -0.005 C 
HETATM    5  C12 UNL     1       1.691  54.009  -7.308  1.00  0.00     0.021 C 
HETATM    6  C13 UNL     1       0.926  54.241  -9.609  1.00  0.00    -0.000 C 
HETATM    7  C14 UNL     1       1.152  53.133 -10.359  1.00  0.00    -0.060 C 
HETATM    8  C15 UNL     1       2.525  52.438 -10.319  1.00  0.00     0.036 C 
HETATM    9  C16 UNL     1       3.628  53.063  -9.438  1.00  0.00     0.015 C 
HETATM   10  C17 UNL     1       3.416  54.570  -9.249  1.00  0.00    -0.028 C 
HETATM   11  C18 UNL     1       3.596  55.260 -10.633  1.00  0.00     0.016 C 
HETATM   12  C19 UNL     1       0.102  52.512 -11.312  1.00  0.00    -0.014 C 
HETATM   13  C20 UNL     1       0.531  52.860 -12.764  1.00  0.00     0.020 C 
HETATM   14  C21 UNL     1       0.085  50.963 -11.169  1.00  0.00     0.021 C 
HETATM   15  C22 UNL     1      -1.246  50.345 -11.562  1.00  0.00     0.080 C 
HETATM   16  C23 UNL     1      -2.294  50.790 -10.572  1.00  0.00     0.135 C 
HETATM   17  O1  UNL     1      -3.140  49.992 -10.170  1.00  0.00    -0.297 OA
HETATM   18  C24 UNL     1      -2.254  52.257 -10.101  1.00  0.00     0.018 C 
HETATM   19  C25 UNL     1      -1.781  52.261  -8.640  1.00  0.00     0.023 C 
HETATM   20  C26 UNL     1      -3.709  52.776 -10.136  1.00  0.00     0.023 C 
HETATM   21  C27 UNL     1      -1.352  53.081 -11.093  1.00  0.00     0.020 C 
HETATM   22  C28 UNL     1      -1.303  54.589 -10.834  1.00  0.00     0.090 C 
HETATM   23  C29 UNL     1      -0.390  54.940  -9.692  1.00  0.00     0.157 C 
HETATM   24  O2  UNL     1      -0.712  55.803  -8.880  1.00  0.00    -0.293 OA
ENDROOT
BRANCH   1  25
HETATM   25  C6  UNL     1       5.819  55.575  -8.386  1.00  0.00    -0.014 C 
HETATM   26  C7  UNL     1       6.702  54.398  -8.808  1.00  0.00     0.010 C 
BRANCH  25  27
HETATM   27  C5  UNL     1       6.413  56.328  -7.171  1.00  0.00     0.008 C 
BRANCH  27  28
HETATM   28  C4  UNL     1       7.311  55.478  -6.254  1.00  0.00     0.028 C 
BRANCH  28  29
HETATM   29  C3  UNL     1       8.604  56.146  -5.878  1.00  0.00    -0.022 C 
HETATM   30  C2  UNL     1       9.564  55.679  -5.048  1.00  0.00    -0.064 C 
HETATM   31  C1  UNL     1       9.489  54.340  -4.363  1.00  0.00     0.045 C 
BRANCH  30  32
HETATM   32  C30 UNL     1      10.809  56.464  -4.690  1.00  0.00     0.197 C 
BRANCH  32  33
HETATM   33  O3  UNL     1      11.972  55.941  -5.316  1.00  0.00    -0.397 OA
HETATM   34  H46 UNL     1      12.058  55.025  -5.001  1.00  0.00     0.209 HD
ENDBRANCH  32  33
ENDBRANCH  30  32
ENDBRANCH  28  29
ENDBRANCH  27  28
ENDBRANCH  25  27
ENDBRANCH   1  25
TORSDOF 6
ENDMDL
MODEL 2
REMARK minimizedAffinity -7.29090929
REMARK CNNscore 0.751930654
REMARK CNNaffinity 7.1252594
REMARK  6 active torsions:
REMARK  status: ('A' for Active; 'I' for Inactive)
REMARK    1  A    between atoms: C2_2  and  C30_32 
REMARK    2  A    between atoms: C3_3  and  C4_4 
REMARK    3  A    between atoms: C4_4  and  C5_5 
REMARK    4  A    between atoms: C5_5  and  C6_6 
REMARK    5  A    between atoms: C6_6  and  C8_8 
REMARK    6  A    between atoms: C30_32  and  O3_33 
ROOT
HETATM    1  C8  UNL     1      -1.471  52.127 -10.427  1.00  0.00    -0.002 C 
HETATM    2  C9  UNL     1      -0.693  50.786 -10.540  1.00  0.00     0.007 C 
HETATM    3  C10 UNL     1       0.786  51.098 -10.237  1.00  0.00     0.015 C 
HETATM    4  C11 UNL     1       0.773  52.489  -9.571  1.00  0.00    -0.005 C 
HETATM    5  C12 UNL     1       0.417  52.273  -8.067  1.00  0.00     0.021 C 
HETATM    6  C13 UNL     1       2.028  53.349  -9.543  1.00  0.00    -0.000 C 
HETATM    7  C14 UNL     1       1.959  54.704  -9.509  1.00  0.00    -0.060 C 
HETATM    8  C15 UNL     1       0.595  55.412  -9.598  1.00  0.00     0.036 C 
HETATM    9  C16 UNL     1      -0.666  54.537  -9.765  1.00  0.00     0.015 C 
HETATM   10  C17 UNL     1      -0.342  53.198 -10.439  1.00  0.00    -0.028 C 
HETATM   11  C18 UNL     1       0.116  53.490 -11.898  1.00  0.00     0.016 C 
HETATM   12  C19 UNL     1       3.200  55.625  -9.416  1.00  0.00    -0.014 C 
HETATM   13  C20 UNL     1       3.410  56.262 -10.818  1.00  0.00     0.020 C 
HETATM   14  C21 UNL     1       2.952  56.772  -8.394  1.00  0.00     0.021 C 
HETATM   15  C22 UNL     1       4.235  57.322  -7.797  1.00  0.00     0.080 C 
HETATM   16  C23 UNL     1       4.875  56.247  -6.954  1.00  0.00     0.135 C 
HETATM   17  O1  UNL     1       5.388  56.534  -5.873  1.00  0.00    -0.297 OA
HETATM   18  C24 UNL     1       4.856  54.806  -7.501  1.00  0.00     0.018 C 
HETATM   19  C25 UNL     1       3.865  54.000  -6.648  1.00  0.00     0.023 C 
HETATM   20  C26 UNL     1       6.269  54.224  -7.273  1.00  0.00     0.023 C 
HETATM   21  C27 UNL     1       4.522  54.853  -9.038  1.00  0.00     0.020 C 
HETATM   22  C28 UNL     1       4.581  53.506  -9.763  1.00  0.00     0.090 C 
HETATM   23  C29 UNL     1       3.357  52.670  -9.510  1.00  0.00     0.157 C 
HETATM   24  O2  UNL     1       3.457  51.462  -9.319  1.00  0.00    -0.293 OA
ENDROOT
BRANCH   1  25
HETATM   25  C6  UNL     1      -2.732  52.201 -11.342  1.00  0.00    -0.014 C 
HETATM   26  C7  UNL     1      -3.752  53.293 -11.006  1.00  0.00     0.010 C 
BRANCH  25  27
HETATM   27  C5  UNL     1      -3.406  50.814 -11.484  1.00  0.00     0.008 C 
BRANCH  27  28
HETATM   28  C4  UNL     1      -3.996  50.241 -10.183  1.00  0.00     0.028 C 
BRANCH  28  29
HETATM   29  C3  UNL     1      -5.498  50.269 -10.131  1.00  0.00    -0.022 C 
HETATM   30  C2  UNL     1      -6.359  49.350 -10.624  1.00  0.00    -0.064 C 
HETATM   31  C1  UNL     1      -5.918  48.082 -11.308  1.00  0.00     0.045 C 
BRANCH  30  32
HETATM   32  C30 UNL     1      -7.865  49.505 -10.569  1.00  0.00     0.197 C 
BRANCH  32  33
HETATM   33  O3  UNL     1      -8.289  50.242  -9.431  1.00  0.00    -0.397 OA
HETATM   34  H46 UNL     1      -7.981  49.741  -8.656  1.00  0.00     0.209 HD
ENDBRANCH  32  33
ENDBRANCH  30  32
ENDBRANCH  28  29
ENDBRANCH  27  28
ENDBRANCH  25  27
ENDBRANCH   1  25
TORSDOF 6
ENDMDL
MODEL 3
REMARK minimizedAffinity -6.8896184
REMARK CNNscore 0.704697073
REMARK CNNaffinity 7.07720566
REMARK  6 active torsions:
REMARK  status: ('A' for Active; 'I' for Inactive)
REMARK    1  A    between atoms: C2_2  and  C30_32 
REMARK    2  A    between atoms: C3_3  and  C4_4 
REMARK    3  A    between atoms: C4_4  and  C5_5 
REMARK    4  A    between atoms: C5_5  and  C6_6 
REMARK    5  A    between atoms: C6_6  and  C8_8 
REMARK    6  A    between atoms: C30_32  and  O3_33 
ROOT
HETATM    1  C8  UNL     1       1.395  56.161  -7.993  1.00  0.00    -0.002 C 
HETATM    2  C9  UNL     1       2.591  55.206  -7.725  1.00  0.00     0.007 C 
HETATM    3  C10 UNL     1       2.266  53.870  -8.421  1.00  0.00     0.015 C 
HETATM    4  C11 UNL     1       1.114  54.196  -9.394  1.00  0.00    -0.005 C 
HETATM    5  C12 UNL     1       1.759  54.810 -10.676  1.00  0.00     0.021 C 
HETATM    6  C13 UNL     1       0.203  53.096  -9.918  1.00  0.00    -0.000 C 
HETATM    7  C14 UNL     1      -1.082  53.348 -10.275  1.00  0.00    -0.060 C 
HETATM    8  C15 UNL     1      -1.684  54.748 -10.062  1.00  0.00     0.036 C 
HETATM    9  C16 UNL     1      -0.796  55.826  -9.401  1.00  0.00     0.015 C 
HETATM   10  C17 UNL     1       0.280  55.202  -8.504  1.00  0.00    -0.028 C 
HETATM   11  C18 UNL     1      -0.433  54.508  -7.307  1.00  0.00     0.016 C 
HETATM   12  C19 UNL     1      -2.032  52.282 -10.872  1.00  0.00    -0.014 C 
HETATM   13  C20 UNL     1      -3.042  51.885  -9.759  1.00  0.00     0.020 C 
HETATM   14  C21 UNL     1      -2.834  52.875 -12.066  1.00  0.00     0.021 C 
HETATM   15  C22 UNL     1      -3.294  51.818 -13.055  1.00  0.00     0.080 C 
HETATM   16  C23 UNL     1      -2.080  51.221 -13.723  1.00  0.00     0.135 C 
HETATM   17  O1  UNL     1      -2.099  50.974 -14.928  1.00  0.00    -0.297 OA
HETATM   18  C24 UNL     1      -0.846  50.943 -12.843  1.00  0.00     0.018 C 
HETATM   19  C25 UNL     1       0.233  51.968 -13.221  1.00  0.00     0.023 C 
HETATM   20  C26 UNL     1      -0.331  49.538 -13.229  1.00  0.00     0.023 C 
HETATM   21  C27 UNL     1      -1.287  50.970 -11.331  1.00  0.00     0.020 C 
HETATM   22  C28 UNL     1      -0.197  50.593 -10.324  1.00  0.00     0.090 C 
HETATM   23  C29 UNL     1       0.765  51.722 -10.078  1.00  0.00     0.157 C 
HETATM   24  O2  UNL     1       1.968  51.504  -9.978  1.00  0.00    -0.293 OA
ENDROOT
BRANCH   1  25
HETATM   25  C6  UNL     1       1.167  57.216  -6.866  1.00  0.00    -0.014 C 
HETATM   26  C7  UNL     1       2.292  58.232  -6.650  1.00  0.00     0.010 C 
BRANCH  25  27
HETATM   27  C5  UNL     1       0.746  56.538  -5.539  1.00  0.00     0.008 C 
BRANCH  27  28
HETATM   28  C4  UNL     1       0.551  57.498  -4.352  1.00  0.00     0.028 C 
BRANCH  28  29
HETATM   29  C3  UNL     1      -0.887  57.707  -3.967  1.00  0.00    -0.022 C 
HETATM   30  C2  UNL     1      -1.390  58.639  -3.126  1.00  0.00    -0.064 C 
HETATM   31  C1  UNL     1      -0.544  59.678  -2.438  1.00  0.00     0.045 C 
BRANCH  30  32
HETATM   32  C30 UNL     1      -2.857  58.726  -2.760  1.00  0.00     0.197 C 
BRANCH  32  33
HETATM   33  O3  UNL     1      -3.372  60.042  -2.908  1.00  0.00    -0.397 OA
HETATM   34  H46 UNL     1      -2.849  60.603  -2.309  1.00  0.00     0.209 HD
ENDBRANCH  32  33
ENDBRANCH  30  32
ENDBRANCH  28  29
ENDBRANCH  27  28
ENDBRANCH  25  27
ENDBRANCH   1  25
TORSDOF 6
ENDMDL
MODEL 4
REMARK minimizedAffinity -7.34131384
REMARK CNNscore 0.478739083
REMARK CNNaffinity 6.83001328
REMARK  6 active torsions:
REMARK  status: ('A' for Active; 'I' for Inactive)
REMARK    1  A    between atoms: C2_2  and  C30_32 
REMARK    2  A    between atoms: C3_3  and  C4_4 
REMARK    3  A    between atoms: C4_4  and  C5_5 
REMARK    4  A    between atoms: C5_5  and  C6_6 
REMARK    5  A    between atoms: C6_6  and  C8_8 
REMARK    6  A    between atoms: C30_32  and  O3_33 
ROOT
HETATM    1  C8  UNL     1       1.972  50.166 -11.045  1.00  0.00    -0.002 C 
HETATM    2  C9  UNL     1       3.353  49.452 -11.017  1.00  0.00     0.007 C 
HETATM    3  C10 UNL     1       4.387  50.490 -10.539  1.00  0.00     0.015 C 
HETATM    4  C11 UNL     1       3.552  51.632  -9.923  1.00  0.00    -0.005 C 
HETATM    5  C12 UNL     1       3.183  51.197  -8.471  1.00  0.00     0.021 C 
HETATM    6  C13 UNL     1       4.140  53.027  -9.764  1.00  0.00    -0.000 C 
HETATM    7  C14 UNL     1       3.355  54.133  -9.781  1.00  0.00    -0.060 C 
HETATM    8  C15 UNL     1       1.847  54.010 -10.064  1.00  0.00     0.036 C 
HETATM    9  C16 UNL     1       1.279  52.605 -10.363  1.00  0.00     0.015 C 
HETATM   10  C17 UNL     1       2.348  51.674 -10.947  1.00  0.00    -0.028 C 
HETATM   11  C18 UNL     1       2.756  52.225 -12.345  1.00  0.00     0.016 C 
HETATM   12  C19 UNL     1       3.891  55.569  -9.560  1.00  0.00    -0.014 C 
HETATM   13  C20 UNL     1       3.900  56.278 -10.943  1.00  0.00     0.020 C 
HETATM   14  C21 UNL     1       2.945  56.364  -8.614  1.00  0.00     0.021 C 
HETATM   15  C22 UNL     1       3.652  57.488  -7.877  1.00  0.00     0.080 C 
HETATM   16  C23 UNL     1       4.656  56.885  -6.926  1.00  0.00     0.135 C 
HETATM   17  O1  UNL     1       4.798  57.356  -5.798  1.00  0.00    -0.297 OA
HETATM   18  C24 UNL     1       5.476  55.679  -7.425  1.00  0.00     0.018 C 
HETATM   19  C25 UNL     1       4.971  54.435  -6.680  1.00  0.00     0.023 C 
HETATM   20  C26 UNL     1       6.941  55.930  -7.003  1.00  0.00     0.023 C 
HETATM   21  C27 UNL     1       5.362  55.605  -8.994  1.00  0.00     0.020 C 
HETATM   22  C28 UNL     1       6.219  54.528  -9.663  1.00  0.00     0.090 C 
HETATM   23  C29 UNL     1       5.610  53.159  -9.541  1.00  0.00     0.157 C 
HETATM   24  O2  UNL     1       6.314  52.183  -9.301  1.00  0.00    -0.293 OA
ENDROOT
BRANCH   1  25
HETATM   25  C6  UNL     1       0.991  49.595 -12.115  1.00  0.00    -0.014 C 
HETATM   26  C7  UNL     1      -0.124  48.683 -11.596  1.00  0.00     0.010 C 
BRANCH  25  27
HETATM   27  C5  UNL     1       1.759  48.946 -13.292  1.00  0.00     0.008 C 
BRANCH  27  28
HETATM   28  C4  UNL     1       1.123  49.155 -14.678  1.00  0.00     0.028 C 
BRANCH  28  29
HETATM   29  C3  UNL     1       1.277  50.550 -15.215  1.00  0.00    -0.022 C 
HETATM   30  C2  UNL     1       0.873  51.022 -16.416  1.00  0.00    -0.064 C 
HETATM   31  C1  UNL     1       0.143  50.185 -17.434  1.00  0.00     0.045 C 
BRANCH  30  32
HETATM   32  C30 UNL     1       1.132  52.439 -16.885  1.00  0.00     0.197 C 
BRANCH  32  33
HETATM   33  O3  UNL     1       2.177  53.065 -16.154  1.00  0.00    -0.397 OA
HETATM   34  H46 UNL     1       1.888  53.073 -15.225  1.00  0.00     0.209 HD
ENDBRANCH  32  33
ENDBRANCH  30  32
ENDBRANCH  28  29
ENDBRANCH  27  28
ENDBRANCH  25  27
ENDBRANCH   1  25
TORSDOF 6
ENDMDL
MODEL 5
REMARK minimizedAffinity -7.37364244
REMARK CNNscore 0.467007279
REMARK CNNaffinity 5.83311701
REMARK  6 active torsions:
REMARK  status: ('A' for Active; 'I' for Inactive)
REMARK    1  A    between atoms: C2_2  and  C30_32 
REMARK    2  A    between atoms: C3_3  and  C4_4 
REMARK    3  A    between atoms: C4_4  and  C5_5 
REMARK    4  A    between atoms: C5_5  and  C6_6 
REMARK    5  A    between atoms: C6_6  and  C8_8 
REMARK    6  A    between atoms: C30_32  and  O3_33 
ROOT
HETATM    1  C8  UNL     1     -11.446  45.681 -28.081  1.00  0.00    -0.002 C 
HETATM    2  C9  UNL     1     -11.582  44.219 -28.591  1.00  0.00     0.007 C 
HETATM    3  C10 UNL     1     -12.879  43.649 -27.983  1.00  0.00     0.015 C 
HETATM    4  C11 UNL     1     -13.660  44.881 -27.480  1.00  0.00    -0.005 C 
HETATM    5  C12 UNL     1     -14.398  45.489 -28.712  1.00  0.00     0.021 C 
HETATM    6  C13 UNL     1     -14.743  44.735 -26.422  1.00  0.00    -0.000 C 
HETATM    7  C14 UNL     1     -15.042  45.747 -25.568  1.00  0.00    -0.060 C 
HETATM    8  C15 UNL     1     -14.215  47.045 -25.586  1.00  0.00     0.036 C 
HETATM    9  C16 UNL     1     -13.027  47.133 -26.568  1.00  0.00     0.015 C 
HETATM   10  C17 UNL     1     -12.467  45.747 -26.907  1.00  0.00    -0.028 C 
HETATM   11  C18 UNL     1     -11.847  45.147 -25.611  1.00  0.00     0.016 C 
HETATM   12  C19 UNL     1     -16.176  45.677 -24.517  1.00  0.00    -0.014 C 
HETATM   13  C20 UNL     1     -15.508  45.492 -23.126  1.00  0.00     0.020 C 
HETATM   14  C21 UNL     1     -16.982  47.007 -24.495  1.00  0.00     0.021 C 
HETATM   15  C22 UNL     1     -18.404  46.831 -23.990  1.00  0.00     0.080 C 
HETATM   16  C23 UNL     1     -19.166  45.987 -24.982  1.00  0.00     0.135 C 
HETATM   17  O1  UNL     1     -20.330  46.269 -25.265  1.00  0.00    -0.297 OA
HETATM   18  C24 UNL     1     -18.434  44.783 -25.606  1.00  0.00     0.018 C 
HETATM   19  C25 UNL     1     -18.150  45.125 -27.075  1.00  0.00     0.023 C 
HETATM   20  C26 UNL     1     -19.421  43.594 -25.571  1.00  0.00     0.023 C 
HETATM   21  C27 UNL     1     -17.159  44.463 -24.740  1.00  0.00     0.020 C 
HETATM   22  C28 UNL     1     -16.379  43.214 -25.158  1.00  0.00     0.090 C 
HETATM   23  C29 UNL     1     -15.516  43.459 -26.364  1.00  0.00     0.157 C 
HETATM   24  O2  UNL     1     -15.428  42.614 -27.250  1.00  0.00    -0.293 OA
ENDROOT
BRANCH   1  25
HETATM   25  C6  UNL     1      -9.969  46.169 -27.960  1.00  0.00    -0.014 C 
HETATM   26  C7  UNL     1      -9.761  47.682 -27.845  1.00  0.00     0.010 C 
BRANCH  25  27
HETATM   27  C5  UNL     1      -9.080  45.553 -29.068  1.00  0.00     0.008 C 
BRANCH  27  28
HETATM   28  C4  UNL     1      -7.565  45.683 -28.835  1.00  0.00     0.028 C 
BRANCH  28  29
HETATM   29  C3  UNL     1      -6.845  46.444 -29.913  1.00  0.00    -0.022 C 
HETATM   30  C2  UNL     1      -5.997  47.486 -29.763  1.00  0.00    -0.064 C 
HETATM   31  C1  UNL     1      -5.604  48.050 -28.423  1.00  0.00     0.045 C 
BRANCH  30  32
HETATM   32  C30 UNL     1      -5.368  48.222 -30.928  1.00  0.00     0.197 C 
BRANCH  32  33
HETATM   33  O3  UNL     1      -4.726  49.422 -30.523  1.00  0.00    -0.397 OA
HETATM   34  H46 UNL     1      -5.417  49.974 -30.119  1.00  0.00     0.209 HD
ENDBRANCH  32  33
ENDBRANCH  30  32
ENDBRANCH  28  29
ENDBRANCH  27  28
ENDBRANCH  25  27
ENDBRANCH   1  25
TORSDOF 6
ENDMDL
MODEL 6
REMARK minimizedAffinity -6.60727978
REMARK CNNscore 0.407417506
REMARK CNNaffinity 5.85738897
REMARK  6 active torsions:
REMARK  status: ('A' for Active; 'I' for Inactive)
REMARK    1  A    between atoms: C2_2  and  C30_32 
REMARK    2  A    between atoms: C3_3  and  C4_4 
REMARK    3  A    between atoms: C4_4  and  C5_5 
REMARK    4  A    between atoms: C5_5  and  C6_6 
REMARK    5  A    between atoms: C6_6  and  C8_8 
REMARK    6  A    between atoms: C30_32  and  O3_33 
ROOT
HETATM    1  C8  UNL     1     -11.652  45.568 -28.196  1.00  0.00    -0.002 C 
HETATM    2  C9  UNL     1     -11.794  44.085 -28.638  1.00  0.00     0.007 C 
HETATM    3  C10 UNL     1     -13.079  43.541 -27.981  1.00  0.00     0.015 C 
HETATM    4  C11 UNL     1     -13.853  44.793 -27.520  1.00  0.00    -0.005 C 
HETATM    5  C12 UNL     1     -14.615  45.344 -28.765  1.00  0.00     0.021 C 
HETATM    6  C13 UNL     1     -14.917  44.694 -26.437  1.00  0.00    -0.000 C 
HETATM    7  C14 UNL     1     -15.202  45.743 -25.625  1.00  0.00    -0.060 C 
HETATM    8  C15 UNL     1     -14.378  47.040 -25.715  1.00  0.00     0.036 C 
HETATM    9  C16 UNL     1     -13.208  47.085 -26.722  1.00  0.00     0.015 C 
HETATM   10  C17 UNL     1     -12.652  45.686 -27.009  1.00  0.00    -0.028 C 
HETATM   11  C18 UNL     1     -12.007  45.145 -25.699  1.00  0.00     0.016 C 
HETATM   12  C19 UNL     1     -16.317  45.719 -24.551  1.00  0.00    -0.014 C 
HETATM   13  C20 UNL     1     -15.623  45.598 -23.165  1.00  0.00     0.020 C 
HETATM   14  C21 UNL     1     -17.125  47.048 -24.574  1.00  0.00     0.021 C 
HETATM   15  C22 UNL     1     -18.537  46.894 -24.036  1.00  0.00     0.080 C 
HETATM   16  C23 UNL     1     -19.316  46.005 -24.974  1.00  0.00     0.135 C 
HETATM   17  O1  UNL     1     -20.485  46.273 -25.249  1.00  0.00    -0.297 OA
HETATM   18  C24 UNL     1     -18.593  44.775 -25.557  1.00  0.00     0.018 C 
HETATM   19  C25 UNL     1     -18.336  45.051 -27.045  1.00  0.00     0.023 C 
HETATM   20  C26 UNL     1     -19.576  43.588 -25.451  1.00  0.00     0.023 C 
HETATM   21  C27 UNL     1     -17.301  44.496 -24.701  1.00  0.00     0.020 C 
HETATM   22  C28 UNL     1     -16.527  43.230 -25.076  1.00  0.00     0.090 C 
HETATM   23  C29 UNL     1     -15.686  43.421 -26.308  1.00  0.00     0.157 C 
HETATM   24  O2  UNL     1     -15.613  42.537 -27.156  1.00  0.00    -0.293 OA
ENDROOT
BRANCH   1  25
HETATM   25  C6  UNL     1     -10.174  46.063 -28.124  1.00  0.00    -0.014 C 
HETATM   26  C7  UNL     1      -9.881  47.183 -27.123  1.00  0.00     0.010 C 
BRANCH  25  27
HETATM   27  C5  UNL     1      -9.625  46.399 -29.533  1.00  0.00     0.008 C 
BRANCH  27  28
HETATM   28  C4  UNL     1      -9.460  45.190 -30.472  1.00  0.00     0.028 C 
BRANCH  28  29
HETATM   29  C3  UNL     1     -10.056  45.394 -31.837  1.00  0.00    -0.022 C 
HETATM   30  C2  UNL     1     -10.556  44.452 -32.668  1.00  0.00    -0.064 C 
HETATM   31  C1  UNL     1     -10.621  42.988 -32.320  1.00  0.00     0.045 C 
BRANCH  30  32
HETATM   32  C30 UNL     1     -11.082  44.759 -34.055  1.00  0.00     0.197 C 
BRANCH  32  33
HETATM   33  O3  UNL     1     -12.501  44.819 -34.091  1.00  0.00    -0.397 OA
HETATM   34  H46 UNL     1     -12.814  43.943 -33.807  1.00  0.00     0.209 HD
ENDBRANCH  32  33
ENDBRANCH  30  32
ENDBRANCH  28  29
ENDBRANCH  27  28
ENDBRANCH  25  27
ENDBRANCH   1  25
TORSDOF 6
ENDMDL
MODEL 7
REMARK minimizedAffinity -6.97822189
REMARK CNNscore 0.406693518
REMARK CNNaffinity 6.74164343
REMARK  6 active torsions:
REMARK  status: ('A' for Active; 'I' for Inactive)
REMARK    1  A    between atoms: C2_2  and  C30_32 
REMARK    2  A    between atoms: C3_3  and  C4_4 
REMARK    3  A    between atoms: C4_4  and  C5_5 
REMARK    4  A    between atoms: C5_5  and  C6_6 
REMARK    5  A    between atoms: C6_6  and  C8_8 
REMARK    6  A    between atoms: C30_32  and  O3_33 
ROOT
HETATM    1  C8  UNL     1      -0.423  51.535 -10.312  1.00  0.00    -0.002 C 
HETATM    2  C9  UNL     1       0.611  50.404 -10.571  1.00  0.00     0.007 C 
HETATM    3  C10 UNL     1       2.010  51.011 -10.338  1.00  0.00     0.015 C 
HETATM    4  C11 UNL     1       1.753  52.326  -9.574  1.00  0.00    -0.005 C 
HETATM    5  C12 UNL     1       1.566  51.952  -8.070  1.00  0.00     0.021 C 
HETATM    6  C13 UNL     1       2.795  53.435  -9.563  1.00  0.00    -0.000 C 
HETATM    7  C14 UNL     1       2.442  54.738  -9.426  1.00  0.00    -0.060 C 
HETATM    8  C15 UNL     1       0.957  55.138  -9.379  1.00  0.00     0.036 C 
HETATM    9  C16 UNL     1      -0.099  54.021  -9.530  1.00  0.00     0.015 C 
HETATM   10  C17 UNL     1       0.449  52.825 -10.317  1.00  0.00    -0.028 C 
HETATM   11  C18 UNL     1       0.722  53.292 -11.777  1.00  0.00     0.016 C 
HETATM   12  C19 UNL     1       3.463  55.899  -9.345  1.00  0.00    -0.014 C 
HETATM   13  C20 UNL     1       3.426  56.646 -10.707  1.00  0.00     0.020 C 
HETATM   14  C21 UNL     1       3.056  56.905  -8.229  1.00  0.00     0.021 C 
HETATM   15  C22 UNL     1       4.235  57.685  -7.675  1.00  0.00     0.080 C 
HETATM   16  C23 UNL     1       5.151  56.728  -6.953  1.00  0.00     0.135 C 
HETATM   17  O1  UNL     1       5.672  57.057  -5.888  1.00  0.00    -0.297 OA
HETATM   18  C24 UNL     1       5.396  55.350  -7.600  1.00  0.00     0.018 C 
HETATM   19  C25 UNL     1       4.667  54.302  -6.748  1.00  0.00     0.023 C 
HETATM   20  C26 UNL     1       6.914  55.077  -7.504  1.00  0.00     0.023 C 
HETATM   21  C27 UNL     1       4.944  55.412  -9.107  1.00  0.00     0.020 C 
HETATM   22  C28 UNL     1       5.231  54.153  -9.929  1.00  0.00     0.090 C 
HETATM   23  C29 UNL     1       4.236  53.059  -9.661  1.00  0.00     0.157 C 
HETATM   24  O2  UNL     1       4.604  51.892  -9.564  1.00  0.00    -0.293 OA
ENDROOT
BRANCH   1  25
HETATM   25  C6  UNL     1      -1.737  51.387 -11.139  1.00  0.00    -0.014 C 
HETATM   26  C7  UNL     1      -2.338  49.980 -11.214  1.00  0.00     0.010 C 
BRANCH  25  27
HETATM   27  C5  UNL     1      -1.591  52.021 -12.545  1.00  0.00     0.008 C 
BRANCH  27  28
HETATM   28  C4  UNL     1      -1.104  51.060 -13.644  1.00  0.00     0.028 C 
BRANCH  28  29
HETATM   29  C3  UNL     1      -0.183  51.698 -14.646  1.00  0.00    -0.022 C 
HETATM   30  C2  UNL     1       0.480  51.096 -15.659  1.00  0.00    -0.064 C 
HETATM   31  C1  UNL     1       0.366  49.626 -15.968  1.00  0.00     0.045 C 
BRANCH  30  32
HETATM   32  C30 UNL     1       1.435  51.826 -16.580  1.00  0.00     0.197 C 
BRANCH  32  33
HETATM   33  O3  UNL     1       1.523  53.211 -16.276  1.00  0.00    -0.397 OA
HETATM   34  H46 UNL     1       0.625  53.568 -16.383  1.00  0.00     0.209 HD
ENDBRANCH  32  33
ENDBRANCH  30  32
ENDBRANCH  28  29
ENDBRANCH  27  28
ENDBRANCH  25  27
ENDBRANCH   1  25
TORSDOF 6
ENDMDL
MODEL 8
REMARK minimizedAffinity -7.06389904
REMARK CNNscore 0.382699549
REMARK CNNaffinity 6.02014923
REMARK  6 active torsions:
REMARK  status: ('A' for Active; 'I' for Inactive)
REMARK    1  A    between atoms: C2_2  and  C30_32 
REMARK    2  A    between atoms: C3_3  and  C4_4 
REMARK    3  A    between atoms: C4_4  and  C5_5 
REMARK    4  A    between atoms: C5_5  and  C6_6 
REMARK    5  A    between atoms: C6_6  and  C8_8 
REMARK    6  A    between atoms: C30_32  and  O3_33 
ROOT
HETATM    1  C8  UNL     1     -11.622  45.586 -27.908  1.00  0.00    -0.002 C 
HETATM    2  C9  UNL     1     -10.747  44.601 -27.083  1.00  0.00     0.007 C 
HETATM    3  C10 UNL     1      -9.447  44.376 -27.882  1.00  0.00     0.015 C 
HETATM    4  C11 UNL     1      -9.415  45.516 -28.921  1.00  0.00    -0.005 C 
HETATM    5  C12 UNL     1      -8.857  46.780 -28.196  1.00  0.00     0.021 C 
HETATM    6  C13 UNL     1      -8.568  45.396 -30.180  1.00  0.00    -0.000 C 
HETATM    7  C14 UNL     1      -8.909  46.034 -31.328  1.00  0.00    -0.060 C 
HETATM    8  C15 UNL     1     -10.229  46.822 -31.413  1.00  0.00     0.036 C 
HETATM    9  C16 UNL     1     -11.152  46.825 -30.175  1.00  0.00     0.015 C 
HETATM   10  C17 UNL     1     -10.946  45.576 -29.311  1.00  0.00    -0.028 C 
HETATM   11  C18 UNL     1     -11.413  44.339 -30.132  1.00  0.00     0.016 C 
HETATM   12  C19 UNL     1      -8.053  45.998 -32.617  1.00  0.00    -0.014 C 
HETATM   13  C20 UNL     1      -8.770  45.057 -33.624  1.00  0.00     0.020 C 
HETATM   14  C21 UNL     1      -7.968  47.415 -33.254  1.00  0.00     0.021 C 
HETATM   15  C22 UNL     1      -6.726  47.610 -34.105  1.00  0.00     0.080 C 
HETATM   16  C23 UNL     1      -5.514  47.566 -33.207  1.00  0.00     0.135 C 
HETATM   17  O1  UNL     1      -4.584  48.353 -33.388  1.00  0.00    -0.297 OA
HETATM   18  C24 UNL     1      -5.498  46.515 -32.080  1.00  0.00     0.018 C 
HETATM   19  C25 UNL     1      -5.673  47.261 -30.749  1.00  0.00     0.023 C 
HETATM   20  C26 UNL     1      -4.093  45.873 -32.090  1.00  0.00     0.023 C 
HETATM   21  C27 UNL     1      -6.600  45.432 -32.384  1.00  0.00     0.020 C 
HETATM   22  C28 UNL     1      -6.636  44.246 -31.418  1.00  0.00     0.090 C 
HETATM   23  C29 UNL     1      -7.313  44.590 -30.120  1.00  0.00     0.157 C 
HETATM   24  O2  UNL     1      -6.859  44.184 -29.054  1.00  0.00    -0.293 OA
ENDROOT
BRANCH   1  25
HETATM   25  C6  UNL     1     -13.155  45.394 -27.695  1.00  0.00    -0.014 C 
HETATM   26  C7  UNL     1     -14.075  46.264 -28.555  1.00  0.00     0.010 C 
BRANCH  25  27
HETATM   27  C5  UNL     1     -13.529  45.478 -26.194  1.00  0.00     0.008 C 
BRANCH  27  28
HETATM   28  C4  UNL     1     -14.399  46.687 -25.807  1.00  0.00     0.028 C 
BRANCH  28  29
HETATM   29  C3  UNL     1     -14.954  46.616 -24.412  1.00  0.00    -0.022 C 
HETATM   30  C2  UNL     1     -16.243  46.437 -24.044  1.00  0.00    -0.064 C 
HETATM   31  C1  UNL     1     -17.367  46.241 -25.027  1.00  0.00     0.045 C 
BRANCH  30  32
HETATM   32  C30 UNL     1     -16.705  46.440 -22.602  1.00  0.00     0.197 C 
BRANCH  32  33
HETATM   33  O3  UNL     1     -15.732  46.990 -21.726  1.00  0.00    -0.397 OA
HETATM   34  H46 UNL     1     -14.941  46.431 -21.817  1.00  0.00     0.209 HD
ENDBRANCH  32  33
ENDBRANCH  30  32
ENDBRANCH  28  29
ENDBRANCH  27  28
ENDBRANCH  25  27
ENDBRANCH   1  25
TORSDOF 6
ENDMDL
MODEL 9
REMARK minimizedAffinity -6.93717384
REMARK CNNscore 0.343622416
REMARK CNNaffinity 6.48146677
REMARK  6 active torsions:
REMARK  status: ('A' for Active; 'I' for Inactive)
REMARK    1  A    between atoms: C2_2  and  C30_32 
REMARK    2  A    between atoms: C3_3  and  C4_4 
REMARK    3  A    between atoms: C4_4  and  C5_5 
REMARK    4  A    between atoms: C5_5  and  C6_6 
REMARK    5  A    between atoms: C6_6  and  C8_8 
REMARK    6  A    between atoms: C30_32  and  O3_33 
ROOT
HETATM    1  C8  UNL     1      -2.157  52.002 -11.587  1.00  0.00    -0.002 C 
HETATM    2  C9  UNL     1      -3.032  51.614 -10.363  1.00  0.00     0.007 C 
HETATM    3  C10 UNL     1      -2.348  52.205  -9.114  1.00  0.00     0.015 C 
HETATM    4  C11 UNL     1      -1.345  53.242  -9.662  1.00  0.00    -0.005 C 
HETATM    5  C12 UNL     1      -2.149  54.548  -9.951  1.00  0.00     0.021 C 
HETATM    6  C13 UNL     1      -0.165  53.702  -8.818  1.00  0.00    -0.000 C 
HETATM    7  C14 UNL     1       0.993  54.122  -9.388  1.00  0.00    -0.060 C 
HETATM    8  C15 UNL     1       1.177  54.049 -10.914  1.00  0.00     0.036 C 
HETATM    9  C16 UNL     1       0.027  53.452 -11.754  1.00  0.00     0.015 C 
HETATM   10  C17 UNL     1      -0.821  52.469 -10.938  1.00  0.00    -0.028 C 
HETATM   11  C18 UNL     1       0.070  51.243 -10.583  1.00  0.00     0.016 C 
HETATM   12  C19 UNL     1       2.200  54.660  -8.582  1.00  0.00    -0.014 C 
HETATM   13  C20 UNL     1       3.291  53.553  -8.587  1.00  0.00     0.020 C 
HETATM   14  C21 UNL     1       2.791  55.927  -9.265  1.00  0.00     0.021 C 
HETATM   15  C22 UNL     1       3.522  56.838  -8.295  1.00  0.00     0.080 C 
HETATM   16  C23 UNL     1       2.520  57.411  -7.323  1.00  0.00     0.135 C 
HETATM   17  O1  UNL     1       2.597  58.591  -6.983  1.00  0.00    -0.297 OA
HETATM   18  C24 UNL     1       1.423  56.469  -6.791  1.00  0.00     0.018 C 
HETATM   19  C25 UNL     1       0.095  56.895  -7.433  1.00  0.00     0.023 C 
HETATM   20  C26 UNL     1       1.323  56.717  -5.268  1.00  0.00     0.023 C 
HETATM   21  C27 UNL     1       1.852  54.981  -7.077  1.00  0.00     0.020 C 
HETATM   22  C28 UNL     1       0.923  53.909  -6.503  1.00  0.00     0.090 C 
HETATM   23  C29 UNL     1      -0.317  53.726  -7.333  1.00  0.00     0.157 C 
HETATM   24  O2  UNL     1      -1.409  53.566  -6.796  1.00  0.00    -0.293 OA
ENDROOT
BRANCH   1  25
HETATM   25  C6  UNL     1      -2.227  50.977 -12.760  1.00  0.00    -0.014 C 
HETATM   26  C7  UNL     1      -2.018  49.506 -12.391  1.00  0.00     0.010 C 
BRANCH  25  27
HETATM   27  C5  UNL     1      -1.314  51.405 -13.936  1.00  0.00     0.008 C 
BRANCH  27  28
HETATM   28  C4  UNL     1      -0.091  50.502 -14.173  1.00  0.00     0.028 C 
BRANCH  28  29
HETATM   29  C3  UNL     1       0.943  51.103 -15.085  1.00  0.00    -0.022 C 
HETATM   30  C2  UNL     1       2.176  51.548 -14.755  1.00  0.00    -0.064 C 
HETATM   31  C1  UNL     1       2.738  51.478 -13.359  1.00  0.00     0.045 C 
BRANCH  30  32
HETATM   32  C30 UNL     1       3.122  52.193 -15.747  1.00  0.00     0.197 C 
BRANCH  32  33
HETATM   33  O3  UNL     1       2.538  53.313 -16.396  1.00  0.00    -0.397 OA
HETATM   34  H46 UNL     1       1.753  52.975 -16.861  1.00  0.00     0.209 HD
ENDBRANCH  32  33
ENDBRANCH  30  32
ENDBRANCH  28  29
ENDBRANCH  27  28
ENDBRANCH  25  27
ENDBRANCH   1  25
TORSDOF 6
ENDMDL
