MODEL 1
REMARK minimizedAffinity -7.11783028
REMARK CNNscore 0.459721267
REMARK CNNaffinity 6.57475042
REMARK  4 active torsions:
REMARK  status: ('A' for Active; 'I' for Inactive)
REMARK    1  A    between atoms: C13_15  and  C14_16 
REMARK    2  A    between atoms: C14_16  and  C16_18 
REMARK    3  A    between atoms: C16_18  and  C17_19 
REMARK    4  A    between atoms: C17_19  and  C18_20 
ROOT
HETATM    1  C1  UNL     1       5.922  58.602  -4.404  1.00  0.00     0.047 C 
HETATM    2  C2  UNL     1       6.004  57.422  -5.034  1.00  0.00     0.052 C 
HETATM    3  O1  UNL     1       6.548  56.325  -4.311  1.00  0.00    -0.284 OA
HETATM    4  C3  UNL     1       7.653  55.650  -4.756  1.00  0.00     0.263 C 
HETATM    5  O2  UNL     1       8.125  54.703  -4.132  1.00  0.00    -0.265 OA
HETATM    6  C4  UNL     1       8.245  56.122  -6.059  1.00  0.00     0.112 C 
HETATM    7  C5  UNL     1       7.418  55.628  -7.237  1.00  0.00     0.021 C 
HETATM    8  C6  UNL     1       5.910  55.801  -7.044  1.00  0.00    -0.022 A 
HETATM    9  C7  UNL     1       5.147  54.582  -6.587  1.00  0.00     0.022 A 
HETATM   10  C8  UNL     1       4.932  55.071  -8.011  1.00  0.00    -0.027 A 
HETATM   11  C9  UNL     1       5.551  54.220  -9.129  1.00  0.00     0.011 C 
HETATM   12  C10 UNL     1       4.603  53.429 -10.048  1.00  0.00     0.011 C 
HETATM   13  C11 UNL     1       3.114  53.747  -9.865  1.00  0.00    -0.032 C 
HETATM   14  C12 UNL     1       2.601  52.913  -8.662  1.00  0.00     0.016 C 
HETATM   15  C13 UNL     1       2.207  53.501 -11.116  1.00  0.00    -0.002 C 
HETATM   16  C22 UNL     1       1.047  54.524 -10.947  1.00  0.00     0.006 C 
HETATM   17  C23 UNL     1       1.453  55.483  -9.815  1.00  0.00     0.011 C 
HETATM   18  C24 UNL     1       2.976  55.303  -9.673  1.00  0.00    -0.032 C 
HETATM   19  C25 UNL     1       3.638  56.160 -10.799  1.00  0.00     0.016 C 
HETATM   20  C26 UNL     1       3.546  55.705  -8.287  1.00  0.00     0.004 C 
HETATM   21  C27 UNL     1       3.561  57.218  -8.034  1.00  0.00     0.007 C 
HETATM   22  C28 UNL     1       4.043  57.512  -6.619  1.00  0.00     0.012 C 
HETATM   23  C29 UNL     1       5.538  57.182  -6.469  1.00  0.00     0.051 C 
ENDROOT
BRANCH  15  24
HETATM   24  C14 UNL     1       1.736  52.080 -11.556  1.00  0.00    -0.014 C 
HETATM   25  C15 UNL     1       0.508  51.515 -10.833  1.00  0.00     0.010 C 
BRANCH  24  26
HETATM   26  C16 UNL     1       2.918  51.078 -11.564  1.00  0.00     0.008 C 
BRANCH  26  27
HETATM   27  C17 UNL     1       3.269  50.486 -12.938  1.00  0.00     0.028 C 
BRANCH  27  28
HETATM   28  C18 UNL     1       3.009  51.421 -14.088  1.00  0.00    -0.025 C 
HETATM   29  C19 UNL     1       2.065  51.325 -15.044  1.00  0.00    -0.091 C 
HETATM   30  C20 UNL     1       1.955  52.379 -16.116  1.00  0.00     0.042 C 
HETATM   31  C21 UNL     1       1.053  50.219 -15.168  1.00  0.00     0.042 C 
ENDBRANCH  27  28
ENDBRANCH  26  27
ENDBRANCH  24  26
ENDBRANCH  15  24
TORSDOF 4
ENDMDL
MODEL 2
REMARK minimizedAffinity -7.19965363
REMARK CNNscore 0.430267334
REMARK CNNaffinity 5.66550493
REMARK  4 active torsions:
REMARK  status: ('A' for Active; 'I' for Inactive)
REMARK    1  A    between atoms: C13_15  and  C14_16 
REMARK    2  A    between atoms: C14_16  and  C16_18 
REMARK    3  A    between atoms: C16_18  and  C17_19 
REMARK    4  A    between atoms: C17_19  and  C18_20 
ROOT
HETATM    1  C1  UNL     1      -5.326  48.194 -28.883  1.00  0.00     0.047 C 
HETATM    2  C2  UNL     1      -6.416  47.612 -29.401  1.00  0.00     0.052 C 
HETATM    3  O1  UNL     1      -6.223  46.641 -30.422  1.00  0.00    -0.284 OA
HETATM    4  C3  UNL     1      -6.780  46.785 -31.665  1.00  0.00     0.263 C 
HETATM    5  O2  UNL     1      -6.612  45.947 -32.547  1.00  0.00    -0.265 OA
HETATM    6  C4  UNL     1      -7.620  48.017 -31.881  1.00  0.00     0.112 C 
HETATM    7  C5  UNL     1      -8.991  47.854 -31.241  1.00  0.00     0.021 C 
HETATM    8  C6  UNL     1      -8.942  47.274 -29.826  1.00  0.00    -0.022 A 
HETATM    9  C7  UNL     1      -9.213  45.795 -29.696  1.00  0.00     0.022 A 
HETATM   10  C8  UNL     1     -10.259  46.765 -29.169  1.00  0.00    -0.027 A 
HETATM   11  C9  UNL     1     -11.551  46.892 -29.988  1.00  0.00     0.011 C 
HETATM   12  C10 UNL     1     -12.850  46.325 -29.388  1.00  0.00     0.011 C 
HETATM   13  C11 UNL     1     -12.741  45.871 -27.928  1.00  0.00    -0.032 C 
HETATM   14  C12 UNL     1     -12.146  44.438 -27.927  1.00  0.00     0.016 C 
HETATM   15  C13 UNL     1     -14.070  45.902 -27.103  1.00  0.00    -0.002 C 
HETATM   16  C22 UNL     1     -13.600  46.136 -25.640  1.00  0.00     0.006 C 
HETATM   17  C23 UNL     1     -12.109  46.509 -25.699  1.00  0.00     0.011 C 
HETATM   18  C24 UNL     1     -11.865  46.930 -27.161  1.00  0.00    -0.032 C 
HETATM   19  C25 UNL     1     -12.362  48.405 -27.292  1.00  0.00     0.016 C 
HETATM   20  C26 UNL     1     -10.389  46.816 -27.627  1.00  0.00     0.004 C 
HETATM   21  C27 UNL     1      -9.461  47.876 -27.019  1.00  0.00     0.007 C 
HETATM   22  C28 UNL     1      -8.022  47.629 -27.455  1.00  0.00     0.012 C 
HETATM   23  C29 UNL     1      -7.845  47.917 -28.955  1.00  0.00     0.051 C 
ENDROOT
BRANCH  15  24
HETATM   24  C14 UNL     1     -15.181  44.815 -27.244  1.00  0.00    -0.014 C 
HETATM   25  C15 UNL     1     -15.786  44.636 -28.641  1.00  0.00     0.010 C 
BRANCH  24  26
HETATM   26  C16 UNL     1     -16.270  44.986 -26.156  1.00  0.00     0.008 C 
BRANCH  26  27
HETATM   27  C17 UNL     1     -17.702  45.177 -26.684  1.00  0.00     0.028 C 
BRANCH  27  28
HETATM   28  C18 UNL     1     -18.770  44.826 -25.684  1.00  0.00    -0.025 C 
HETATM   29  C19 UNL     1     -19.296  45.604 -24.717  1.00  0.00    -0.091 C 
HETATM   30  C20 UNL     1     -20.378  45.070 -23.813  1.00  0.00     0.042 C 
HETATM   31  C21 UNL     1     -18.899  47.025 -24.424  1.00  0.00     0.042 C 
ENDBRANCH  27  28
ENDBRANCH  26  27
ENDBRANCH  24  26
ENDBRANCH  15  24
TORSDOF 4
ENDMDL
MODEL 3
REMARK minimizedAffinity -7.46191549
REMARK CNNscore 0.406967044
REMARK CNNaffinity 5.64437675
REMARK  4 active torsions:
REMARK  status: ('A' for Active; 'I' for Inactive)
REMARK    1  A    between atoms: C13_15  and  C14_16 
REMARK    2  A    between atoms: C14_16  and  C16_18 
REMARK    3  A    between atoms: C16_18  and  C17_19 
REMARK    4  A    between atoms: C17_19  and  C18_20 
ROOT
HETATM    1  C1  UNL     1     -17.983  44.563 -26.066  1.00  0.00     0.047 C 
HETATM    2  C2  UNL     1     -16.750  44.918 -25.677  1.00  0.00     0.052 C 
HETATM    3  O1  UNL     1     -16.327  44.517 -24.380  1.00  0.00    -0.284 OA
HETATM    4  C3  UNL     1     -15.940  45.431 -23.437  1.00  0.00     0.263 C 
HETATM    5  O2  UNL     1     -15.576  45.085 -22.316  1.00  0.00    -0.265 OA
HETATM    6  C4  UNL     1     -15.972  46.877 -23.857  1.00  0.00     0.112 C 
HETATM    7  C5  UNL     1     -14.771  47.211 -24.730  1.00  0.00     0.021 C 
HETATM    8  C6  UNL     1     -14.494  46.169 -25.815  1.00  0.00    -0.022 A 
HETATM    9  C7  UNL     1     -13.415  45.157 -25.515  1.00  0.00     0.022 A 
HETATM   10  C8  UNL     1     -13.136  46.210 -26.578  1.00  0.00    -0.027 A 
HETATM   11  C9  UNL     1     -12.148  47.323 -26.199  1.00  0.00     0.011 C 
HETATM   12  C10 UNL     1     -10.771  47.335 -26.885  1.00  0.00     0.011 C 
HETATM   13  C11 UNL     1     -10.617  46.335 -28.037  1.00  0.00    -0.032 C 
HETATM   14  C12 UNL     1     -10.265  44.957 -27.417  1.00  0.00     0.016 C 
HETATM   15  C13 UNL     1      -9.566  46.715 -29.133  1.00  0.00    -0.002 C 
HETATM   16  C22 UNL     1     -10.105  46.037 -30.423  1.00  0.00     0.006 C 
HETATM   17  C23 UNL     1     -11.533  45.555 -30.117  1.00  0.00     0.011 C 
HETATM   18  C24 UNL     1     -11.955  46.345 -28.864  1.00  0.00    -0.032 C 
HETATM   19  C25 UNL     1     -12.409  47.757 -29.354  1.00  0.00     0.016 C 
HETATM   20  C26 UNL     1     -13.082  45.678 -28.031  1.00  0.00     0.004 C 
HETATM   21  C27 UNL     1     -14.463  45.727 -28.698  1.00  0.00     0.007 C 
HETATM   22  C28 UNL     1     -15.482  44.968 -27.858  1.00  0.00     0.012 C 
HETATM   23  C29 UNL     1     -15.772  45.711 -26.543  1.00  0.00     0.051 C 
ENDROOT
BRANCH  15  24
HETATM   24  C14 UNL     1      -8.028  46.548 -28.927  1.00  0.00    -0.014 C 
HETATM   25  C15 UNL     1      -7.549  45.169 -28.459  1.00  0.00     0.010 C 
BRANCH  24  26
HETATM   26  C16 UNL     1      -7.455  47.690 -28.050  1.00  0.00     0.008 C 
BRANCH  26  27
HETATM   27  C17 UNL     1      -5.930  47.671 -27.859  1.00  0.00     0.028 C 
BRANCH  27  28
HETATM   28  C18 UNL     1      -5.487  48.025 -26.466  1.00  0.00    -0.025 C 
HETATM   29  C19 UNL     1      -4.261  48.401 -26.050  1.00  0.00    -0.091 C 
HETATM   30  C20 UNL     1      -4.016  48.729 -24.599  1.00  0.00     0.042 C 
HETATM   31  C21 UNL     1      -3.043  48.535 -26.922  1.00  0.00     0.042 C 
ENDBRANCH  27  28
ENDBRANCH  26  27
ENDBRANCH  24  26
ENDBRANCH  15  24
TORSDOF 4
ENDMDL
MODEL 4
REMARK minimizedAffinity -6.78275585
REMARK CNNscore 0.34414804
REMARK CNNaffinity 5.40436125
REMARK  4 active torsions:
REMARK  status: ('A' for Active; 'I' for Inactive)
REMARK    1  A    between atoms: C13_15  and  C14_16 
REMARK    2  A    between atoms: C14_16  and  C16_18 
REMARK    3  A    between atoms: C16_18  and  C17_19 
REMARK    4  A    between atoms: C17_19  and  C18_20 
ROOT
HETATM    1  C1  UNL     1      -4.952  46.793 -31.268  1.00  0.00     0.047 C 
HETATM    2  C2  UNL     1      -6.284  46.683 -31.173  1.00  0.00     0.052 C 
HETATM    3  O1  UNL     1      -6.957  45.937 -32.180  1.00  0.00    -0.284 OA
HETATM    4  C3  UNL     1      -7.935  46.499 -32.956  1.00  0.00     0.263 C 
HETATM    5  O2  UNL     1      -8.516  45.856 -33.826  1.00  0.00    -0.265 OA
HETATM    6  C4  UNL     1      -8.268  47.941 -32.671  1.00  0.00     0.112 C 
HETATM    7  C5  UNL     1      -9.134  48.058 -31.425  1.00  0.00     0.021 C 
HETATM    8  C6  UNL     1      -8.642  47.204 -30.255  1.00  0.00    -0.022 A 
HETATM    9  C7  UNL     1      -9.335  45.879 -30.053  1.00  0.00     0.022 A 
HETATM   10  C8  UNL     1      -9.581  46.980 -29.033  1.00  0.00    -0.027 A 
HETATM   11  C9  UNL     1     -10.960  47.654 -29.070  1.00  0.00     0.011 C 
HETATM   12  C10 UNL     1     -11.933  47.382 -27.908  1.00  0.00     0.011 C 
HETATM   13  C11 UNL     1     -11.326  46.618 -26.726  1.00  0.00    -0.032 C 
HETATM   14  C12 UNL     1     -11.365  45.106 -27.076  1.00  0.00     0.016 C 
HETATM   15  C13 UNL     1     -12.001  46.865 -25.336  1.00  0.00    -0.002 C 
HETATM   16  C22 UNL     1     -10.853  46.634 -24.313  1.00  0.00     0.006 C 
HETATM   17  C23 UNL     1      -9.543  46.553 -25.116  1.00  0.00     0.011 C 
HETATM   18  C24 UNL     1      -9.878  47.183 -26.481  1.00  0.00    -0.032 C 
HETATM   19  C25 UNL     1      -9.806  48.731 -26.291  1.00  0.00     0.016 C 
HETATM   20  C26 UNL     1      -8.947  46.740 -27.641  1.00  0.00     0.004 C 
HETATM   21  C27 UNL     1      -7.530  47.324 -27.561  1.00  0.00     0.007 C 
HETATM   22  C28 UNL     1      -6.663  46.761 -28.680  1.00  0.00     0.012 C 
HETATM   23  C29 UNL     1      -7.118  47.295 -30.048  1.00  0.00     0.051 C 
ENDROOT
BRANCH  15  24
HETATM   24  C14 UNL     1     -13.356  46.209 -24.923  1.00  0.00    -0.014 C 
HETATM   25  C15 UNL     1     -14.590  46.631 -25.730  1.00  0.00     0.010 C 
BRANCH  24  26
HETATM   26  C16 UNL     1     -13.591  46.328 -23.397  1.00  0.00     0.008 C 
BRANCH  26  27
HETATM   27  C17 UNL     1     -14.685  47.323 -22.975  1.00  0.00     0.028 C 
BRANCH  27  28
HETATM   28  C18 UNL     1     -15.361  46.970 -21.679  1.00  0.00    -0.025 C 
HETATM   29  C19 UNL     1     -15.106  47.452 -20.446  1.00  0.00    -0.091 C 
HETATM   30  C20 UNL     1     -15.908  46.978 -19.261  1.00  0.00     0.042 C 
HETATM   31  C21 UNL     1     -14.049  48.465 -20.103  1.00  0.00     0.042 C 
ENDBRANCH  27  28
ENDBRANCH  26  27
ENDBRANCH  24  26
ENDBRANCH  15  24
TORSDOF 4
ENDMDL
MODEL 5
REMARK minimizedAffinity -7.56876135
REMARK CNNscore 0.272981524
REMARK CNNaffinity 6.22471762
REMARK  4 active torsions:
REMARK  status: ('A' for Active; 'I' for Inactive)
REMARK    1  A    between atoms: C13_15  and  C14_16 
REMARK    2  A    between atoms: C14_16  and  C16_18 
REMARK    3  A    between atoms: C16_18  and  C17_19 
REMARK    4  A    between atoms: C17_19  and  C18_20 
ROOT
HETATM    1  C1  UNL     1      -8.815  47.020 -16.120  1.00  0.00     0.047 C 
HETATM    2  C2  UNL     1      -8.821  47.275 -17.436  1.00  0.00     0.052 C 
HETATM    3  O1  UNL     1      -9.957  47.942 -17.973  1.00  0.00    -0.284 OA
HETATM    4  C3  UNL     1     -10.715  47.381 -18.966  1.00  0.00     0.263 C 
HETATM    5  O2  UNL     1     -11.696  47.956 -19.429  1.00  0.00    -0.265 OA
HETATM    6  C4  UNL     1     -10.269  46.032 -19.466  1.00  0.00     0.112 C 
HETATM    7  C5  UNL     1      -9.075  46.172 -20.401  1.00  0.00     0.021 C 
HETATM    8  C6  UNL     1      -7.996  47.122 -19.880  1.00  0.00    -0.022 A 
HETATM    9  C7  UNL     1      -8.012  48.526 -20.434  1.00  0.00     0.022 A 
HETATM   10  C8  UNL     1      -6.876  47.602 -20.849  1.00  0.00    -0.027 A 
HETATM   11  C9  UNL     1      -6.914  47.072 -22.289  1.00  0.00     0.011 C 
HETATM   12  C10 UNL     1      -5.862  47.594 -23.283  1.00  0.00     0.011 C 
HETATM   13  C11 UNL     1      -4.752  48.446 -22.657  1.00  0.00    -0.032 C 
HETATM   14  C12 UNL     1      -5.295  49.893 -22.515  1.00  0.00     0.016 C 
HETATM   15  C13 UNL     1      -3.388  48.458 -23.425  1.00  0.00    -0.002 C 
HETATM   16  C22 UNL     1      -2.332  48.708 -22.311  1.00  0.00     0.006 C 
HETATM   17  C23 UNL     1      -3.052  48.549 -20.962  1.00  0.00     0.011 C 
HETATM   18  C24 UNL     1      -4.344  47.777 -21.293  1.00  0.00    -0.032 C 
HETATM   19  C25 UNL     1      -3.952  46.269 -21.398  1.00  0.00     0.016 C 
HETATM   20  C26 UNL     1      -5.489  47.964 -20.263  1.00  0.00     0.004 C 
HETATM   21  C27 UNL     1      -5.243  47.256 -18.924  1.00  0.00     0.007 C 
HETATM   22  C28 UNL     1      -6.368  47.573 -17.946  1.00  0.00     0.012 C 
HETATM   23  C29 UNL     1      -7.683  46.907 -18.386  1.00  0.00     0.051 C 
ENDROOT
BRANCH  15  24
HETATM   24  C14 UNL     1      -3.150  49.296 -24.720  1.00  0.00    -0.014 C 
HETATM   25  C15 UNL     1      -3.090  48.512 -26.036  1.00  0.00     0.010 C 
BRANCH  24  26
HETATM   26  C16 UNL     1      -1.940  50.248 -24.554  1.00  0.00     0.008 C 
BRANCH  26  27
HETATM   27  C17 UNL     1      -1.569  51.064 -25.804  1.00  0.00     0.028 C 
BRANCH  27  28
HETATM   28  C18 UNL     1      -0.131  50.919 -26.220  1.00  0.00    -0.025 C 
HETATM   29  C19 UNL     1       0.928  51.659 -25.835  1.00  0.00    -0.091 C 
HETATM   30  C20 UNL     1       2.307  51.347 -26.359  1.00  0.00     0.042 C 
HETATM   31  C21 UNL     1       0.882  52.828 -24.890  1.00  0.00     0.042 C 
ENDBRANCH  27  28
ENDBRANCH  26  27
ENDBRANCH  24  26
ENDBRANCH  15  24
TORSDOF 4
ENDMDL
MODEL 6
REMARK minimizedAffinity -6.80533314
REMARK CNNscore 0.268980235
REMARK CNNaffinity 5.57212257
REMARK  4 active torsions:
REMARK  status: ('A' for Active; 'I' for Inactive)
REMARK    1  A    between atoms: C13_15  and  C14_16 
REMARK    2  A    between atoms: C14_16  and  C16_18 
REMARK    3  A    between atoms: C16_18  and  C17_19 
REMARK    4  A    between atoms: C17_19  and  C18_20 
ROOT
HETATM    1  C1  UNL     1      -5.321  45.179 -31.908  1.00  0.00     0.047 C 
HETATM    2  C2  UNL     1      -6.594  45.594 -31.926  1.00  0.00     0.052 C 
HETATM    3  O1  UNL     1      -7.351  45.352 -33.106  1.00  0.00    -0.284 OA
HETATM    4  C3  UNL     1      -7.924  46.374 -33.814  1.00  0.00     0.263 C 
HETATM    5  O2  UNL     1      -8.575  46.165 -34.834  1.00  0.00    -0.265 OA
HETATM    6  C4  UNL     1      -7.723  47.762 -33.263  1.00  0.00     0.112 C 
HETATM    7  C5  UNL     1      -8.647  48.011 -32.079  1.00  0.00     0.021 C 
HETATM    8  C6  UNL     1      -8.685  46.854 -31.078  1.00  0.00    -0.022 A 
HETATM    9  C7  UNL     1      -9.849  45.901 -31.198  1.00  0.00     0.022 A 
HETATM   10  C8  UNL     1      -9.801  46.828 -29.992  1.00  0.00    -0.027 A 
HETATM   11  C9  UNL     1     -10.803  47.991 -29.982  1.00  0.00     0.011 C 
HETATM   12  C10 UNL     1     -11.959  47.945 -28.967  1.00  0.00     0.011 C 
HETATM   13  C11 UNL     1     -11.860  46.821 -27.929  1.00  0.00    -0.032 C 
HETATM   14  C12 UNL     1     -12.417  45.529 -28.582  1.00  0.00     0.016 C 
HETATM   15  C13 UNL     1     -12.581  47.088 -26.566  1.00  0.00    -0.002 C 
HETATM   16  C22 UNL     1     -11.761  46.257 -25.538  1.00  0.00     0.006 C 
HETATM   17  C23 UNL     1     -10.481  45.792 -26.252  1.00  0.00     0.011 C 
HETATM   18  C24 UNL     1     -10.356  46.715 -27.479  1.00  0.00    -0.032 C 
HETATM   19  C25 UNL     1      -9.731  48.054 -26.972  1.00  0.00     0.016 C 
HETATM   20  C26 UNL     1      -9.508  46.133 -28.640  1.00  0.00     0.004 C 
HETATM   21  C27 UNL     1      -8.002  46.084 -28.349  1.00  0.00     0.007 C 
HETATM   22  C28 UNL     1      -7.264  45.411 -29.500  1.00  0.00     0.012 C 
HETATM   23  C29 UNL     1      -7.285  46.296 -30.757  1.00  0.00     0.051 C 
ENDROOT
BRANCH  15  24
HETATM   24  C14 UNL     1     -14.126  46.968 -26.386  1.00  0.00    -0.014 C 
HETATM   25  C15 UNL     1     -14.641  46.911 -24.943  1.00  0.00     0.010 C 
BRANCH  24  26
HETATM   26  C16 UNL     1     -14.702  45.823 -27.255  1.00  0.00     0.008 C 
BRANCH  26  27
HETATM   27  C17 UNL     1     -15.382  44.685 -26.476  1.00  0.00     0.028 C 
BRANCH  27  28
HETATM   28  C18 UNL     1     -16.876  44.640 -26.644  1.00  0.00    -0.025 C 
HETATM   29  C19 UNL     1     -17.586  44.172 -27.689  1.00  0.00    -0.091 C 
HETATM   30  C20 UNL     1     -19.092  44.204 -27.664  1.00  0.00     0.042 C 
HETATM   31  C21 UNL     1     -17.007  43.592 -28.950  1.00  0.00     0.042 C 
ENDBRANCH  27  28
ENDBRANCH  26  27
ENDBRANCH  24  26
ENDBRANCH  15  24
TORSDOF 4
ENDMDL
MODEL 7
REMARK minimizedAffinity -7.7473588
REMARK CNNscore 0.225512385
REMARK CNNaffinity 5.19248819
REMARK  4 active torsions:
REMARK  status: ('A' for Active; 'I' for Inactive)
REMARK    1  A    between atoms: C13_15  and  C14_16 
REMARK    2  A    between atoms: C14_16  and  C16_18 
REMARK    3  A    between atoms: C16_18  and  C17_19 
REMARK    4  A    between atoms: C17_19  and  C18_20 
ROOT
HETATM    1  C1  UNL     1      -7.724  47.424 -33.773  1.00  0.00     0.047 C 
HETATM    2  C2  UNL     1      -7.761  47.480 -32.434  1.00  0.00     0.052 C 
HETATM    3  O1  UNL     1      -6.853  48.362 -31.786  1.00  0.00    -0.284 OA
HETATM    4  C3  UNL     1      -5.942  47.909 -30.869  1.00  0.00     0.263 C 
HETATM    5  O2  UNL     1      -5.158  48.670 -30.310  1.00  0.00    -0.265 OA
HETATM    6  C4  UNL     1      -5.970  46.431 -30.576  1.00  0.00     0.112 C 
HETATM    7  C5  UNL     1      -7.130  46.086 -29.653  1.00  0.00     0.021 C 
HETATM    8  C6  UNL     1      -8.450  46.750 -30.053  1.00  0.00    -0.022 A 
HETATM    9  C7  UNL     1      -8.826  48.004 -29.303  1.00  0.00     0.022 A 
HETATM   10  C8  UNL     1      -9.638  46.743 -29.047  1.00  0.00    -0.027 A 
HETATM   11  C9  UNL     1      -9.415  46.047 -27.697  1.00  0.00     0.011 C 
HETATM   12  C10 UNL     1     -10.549  46.096 -26.658  1.00  0.00     0.011 C 
HETATM   13  C11 UNL     1     -11.872  46.673 -27.176  1.00  0.00    -0.032 C 
HETATM   14  C12 UNL     1     -11.771  48.219 -27.100  1.00  0.00     0.016 C 
HETATM   15  C13 UNL     1     -13.163  46.182 -26.441  1.00  0.00    -0.002 C 
HETATM   16  C22 UNL     1     -14.272  46.273 -27.527  1.00  0.00     0.006 C 
HETATM   17  C23 UNL     1     -13.568  46.522 -28.872  1.00  0.00     0.011 C 
HETATM   18  C24 UNL     1     -12.102  46.116 -28.630  1.00  0.00    -0.032 C 
HETATM   19  C25 UNL     1     -12.040  44.560 -28.749  1.00  0.00     0.016 C 
HETATM   20  C26 UNL     1     -11.083  46.769 -29.601  1.00  0.00     0.004 C 
HETATM   21  C27 UNL     1     -11.146  46.219 -31.032  1.00  0.00     0.007 C 
HETATM   22  C28 UNL     1     -10.183  46.983 -31.933  1.00  0.00     0.012 C 
HETATM   23  C29 UNL     1      -8.723  46.668 -31.568  1.00  0.00     0.051 C 
ENDROOT
BRANCH  15  24
HETATM   24  C14 UNL     1     -13.601  46.722 -25.044  1.00  0.00    -0.014 C 
HETATM   25  C15 UNL     1     -12.571  46.605 -23.915  1.00  0.00     0.010 C 
BRANCH  24  26
HETATM   26  C16 UNL     1     -14.981  46.152 -24.633  1.00  0.00     0.008 C 
BRANCH  26  27
HETATM   27  C17 UNL     1     -16.032  47.199 -24.229  1.00  0.00     0.028 C 
BRANCH  27  28
HETATM   28  C18 UNL     1     -17.418  46.893 -24.728  1.00  0.00    -0.025 C 
HETATM   29  C19 UNL     1     -18.500  46.523 -24.015  1.00  0.00    -0.091 C 
HETATM   30  C20 UNL     1     -19.817  46.271 -24.702  1.00  0.00     0.042 C 
HETATM   31  C21 UNL     1     -18.538  46.319 -22.525  1.00  0.00     0.042 C 
ENDBRANCH  27  28
ENDBRANCH  26  27
ENDBRANCH  24  26
ENDBRANCH  15  24
TORSDOF 4
ENDMDL
MODEL 8
REMARK minimizedAffinity -7.42717028
REMARK CNNscore 0.204296395
REMARK CNNaffinity 5.88404655
REMARK  4 active torsions:
REMARK  status: ('A' for Active; 'I' for Inactive)
REMARK    1  A    between atoms: C13_15  and  C14_16 
REMARK    2  A    between atoms: C14_16  and  C16_18 
REMARK    3  A    between atoms: C16_18  and  C17_19 
REMARK    4  A    between atoms: C17_19  and  C18_20 
ROOT
HETATM    1  C1  UNL     1      -4.292  50.346  -9.911  1.00  0.00     0.047 C 
HETATM    2  C2  UNL     1      -3.567  51.426 -10.230  1.00  0.00     0.052 C 
HETATM    3  O1  UNL     1      -4.215  52.466 -10.952  1.00  0.00    -0.284 OA
HETATM    4  C3  UNL     1      -3.761  52.881 -12.175  1.00  0.00     0.263 C 
HETATM    5  O2  UNL     1      -4.321  53.778 -12.799  1.00  0.00    -0.265 OA
HETATM    6  C4  UNL     1      -2.531  52.188 -12.701  1.00  0.00     0.112 C 
HETATM    7  C5  UNL     1      -1.280  52.715 -12.014  1.00  0.00     0.021 C 
HETATM    8  C6  UNL     1      -1.422  52.842 -10.496  1.00  0.00    -0.022 A 
HETATM    9  C7  UNL     1      -1.738  54.219  -9.963  1.00  0.00     0.022 A 
HETATM   10  C8  UNL     1      -0.353  53.647  -9.699  1.00  0.00    -0.027 A 
HETATM   11  C9  UNL     1       0.806  54.262 -10.496  1.00  0.00     0.011 C 
HETATM   12  C10 UNL     1       1.830  55.126  -9.738  1.00  0.00     0.011 C 
HETATM   13  C11 UNL     1       1.686  55.106  -8.212  1.00  0.00    -0.032 C 
HETATM   14  C12 UNL     1       0.582  56.130  -7.833  1.00  0.00     0.016 C 
HETATM   15  C13 UNL     1       2.991  55.399  -7.400  1.00  0.00    -0.002 C 
HETATM   16  C22 UNL     1       2.785  54.629  -6.065  1.00  0.00     0.006 C 
HETATM   17  C23 UNL     1       1.558  53.721  -6.253  1.00  0.00     0.011 C 
HETATM   18  C24 UNL     1       1.365  53.628  -7.779  1.00  0.00    -0.032 C 
HETATM   19  C25 UNL     1       2.383  52.562  -8.296  1.00  0.00     0.016 C 
HETATM   20  C26 UNL     1      -0.074  53.258  -8.226  1.00  0.00     0.004 C 
HETATM   21  C27 UNL     1      -0.456  51.799  -7.949  1.00  0.00     0.007 C 
HETATM   22  C28 UNL     1      -1.911  51.553  -8.330  1.00  0.00     0.012 C 
HETATM   23  C29 UNL     1      -2.097  51.614  -9.855  1.00  0.00     0.051 C 
ENDROOT
BRANCH  15  24
HETATM   24  C14 UNL     1       3.572  56.836  -7.218  1.00  0.00    -0.014 C 
HETATM   25  C15 UNL     1       3.759  57.662  -8.495  1.00  0.00     0.010 C 
BRANCH  24  26
HETATM   26  C16 UNL     1       4.854  56.812  -6.348  1.00  0.00     0.008 C 
BRANCH  26  27
HETATM   27  C17 UNL     1       6.169  56.618  -7.120  1.00  0.00     0.028 C 
BRANCH  27  28
HETATM   28  C18 UNL     1       6.488  55.181  -7.427  1.00  0.00    -0.025 C 
HETATM   29  C19 UNL     1       6.333  54.521  -8.592  1.00  0.00    -0.091 C 
HETATM   30  C20 UNL     1       6.726  53.070  -8.705  1.00  0.00     0.042 C 
HETATM   31  C21 UNL     1       5.777  55.105  -9.861  1.00  0.00     0.042 C 
ENDBRANCH  27  28
ENDBRANCH  26  27
ENDBRANCH  24  26
ENDBRANCH  15  24
TORSDOF 4
ENDMDL
MODEL 9
REMARK minimizedAffinity -7.52477264
REMARK CNNscore 0.200295404
REMARK CNNaffinity 6.29674196
REMARK  4 active torsions:
REMARK  status: ('A' for Active; 'I' for Inactive)
REMARK    1  A    between atoms: C13_15  and  C14_16 
REMARK    2  A    between atoms: C14_16  and  C16_18 
REMARK    3  A    between atoms: C16_18  and  C17_19 
REMARK    4  A    between atoms: C17_19  and  C18_20 
ROOT
HETATM    1  C1  UNL     1       0.480  53.140 -25.824  1.00  0.00     0.047 C 
HETATM    2  C2  UNL     1      -0.463  52.216 -25.600  1.00  0.00     0.052 C 
HETATM    3  O1  UNL     1      -0.829  51.371 -26.684  1.00  0.00    -0.284 OA
HETATM    4  C3  UNL     1      -2.117  51.311 -27.144  1.00  0.00     0.263 C 
HETATM    5  O2  UNL     1      -2.433  50.583 -28.082  1.00  0.00    -0.265 OA
HETATM    6  C4  UNL     1      -3.123  52.174 -26.428  1.00  0.00     0.112 C 
HETATM    7  C5  UNL     1      -3.525  51.545 -25.101  1.00  0.00     0.021 C 
HETATM    8  C6  UNL     1      -2.341  51.020 -24.288  1.00  0.00    -0.022 A 
HETATM    9  C7  UNL     1      -2.065  49.539 -24.382  1.00  0.00     0.022 A 
HETATM   10  C8  UNL     1      -2.611  50.086 -23.072  1.00  0.00    -0.027 A 
HETATM   11  C9  UNL     1      -4.074  49.755 -22.747  1.00  0.00     0.011 C 
HETATM   12  C10 UNL     1      -4.359  48.772 -21.598  1.00  0.00     0.011 C 
HETATM   13  C11 UNL     1      -3.133  48.386 -20.762  1.00  0.00    -0.032 C 
HETATM   14  C12 UNL     1      -2.393  47.249 -21.515  1.00  0.00     0.016 C 
HETATM   15  C13 UNL     1      -3.423  47.953 -19.286  1.00  0.00    -0.002 C 
HETATM   16  C22 UNL     1      -2.127  48.338 -18.519  1.00  0.00     0.006 C 
HETATM   17  C23 UNL     1      -1.282  49.205 -19.468  1.00  0.00     0.011 C 
HETATM   18  C24 UNL     1      -2.269  49.683 -20.550  1.00  0.00    -0.032 C 
HETATM   19  C25 UNL     1      -3.048  50.894 -19.943  1.00  0.00     0.016 C 
HETATM   20  C26 UNL     1      -1.607  50.090 -21.893  1.00  0.00     0.004 C 
HETATM   21  C27 UNL     1      -0.822  51.407 -21.828  1.00  0.00     0.007 C 
HETATM   22  C28 UNL     1      -0.130  51.675 -23.158  1.00  0.00     0.012 C 
HETATM   23  C29 UNL     1      -1.156  52.005 -24.255  1.00  0.00     0.051 C 
ENDROOT
BRANCH  15  24
HETATM   24  C14 UNL     1      -3.987  46.548 -18.910  1.00  0.00    -0.014 C 
HETATM   25  C15 UNL     1      -3.145  45.716 -17.934  1.00  0.00     0.010 C 
BRANCH  24  26
HETATM   26  C16 UNL     1      -4.373  45.744 -20.176  1.00  0.00     0.008 C 
BRANCH  26  27
HETATM   27  C17 UNL     1      -5.882  45.575 -20.414  1.00  0.00     0.028 C 
BRANCH  27  28
HETATM   28  C18 UNL     1      -6.219  44.792 -21.653  1.00  0.00    -0.025 C 
HETATM   29  C19 UNL     1      -6.651  43.519 -21.745  1.00  0.00    -0.091 C 
HETATM   30  C20 UNL     1      -6.949  42.909 -23.091  1.00  0.00     0.042 C 
HETATM   31  C21 UNL     1      -6.878  42.586 -20.587  1.00  0.00     0.042 C 
ENDBRANCH  27  28
ENDBRANCH  26  27
ENDBRANCH  24  26
ENDBRANCH  15  24
TORSDOF 4
ENDMDL
