MODEL 1
REMARK minimizedAffinity -7.46669865
REMARK  18 active torsions:
REMARK  status: ('A' for Active; 'I' for Inactive)
REMARK    1  A    between atoms: C2_2  and  C14_18 
REMARK    2  A    between atoms: C3_3  and  C4_4 
REMARK    3  A    between atoms: C4_4  and  O2_6 
REMARK    4  A    between atoms: O2_6  and  C5_7 
REMARK    5  A    between atoms: C5_7  and  C6_8 
REMARK    6  A    between atoms: C6_8  and  C7_9 
REMARK    7  A    between atoms: C7_9  and  C8_10 
REMARK    8  A    between atoms: C8_10  and  C9_11 
REMARK    9  A    between atoms: C9_11  and  C10_12 
REMARK   10  A    between atoms: C10_12  and  C11_13 
REMARK   11  A    between atoms: C11_13  and  C12_14 
REMARK   12  A    between atoms: C12_14  and  C13_15 
REMARK   13  A    between atoms: C13_15  and  O4_17 
REMARK   14  A    between atoms: C14_18  and  C15_19 
REMARK   15  A    between atoms: C21_27  and  O7_28 
REMARK   16  A    between atoms: C22_30  and  C23_31 
REMARK   17  A    between atoms: C23_31  and  C25_33 
REMARK   18  A    between atoms: C25_33  and  O9_35 
ROOT
HETATM    1  C15 UNL     1      -5.266   6.527  15.257  1.00  0.00     0.190 C 
HETATM    2  O5  UNL     1      -6.363   6.197  16.143  1.00  0.00    -0.380 OA
HETATM    3  C16 UNL     1      -7.072   5.020  15.761  1.00  0.00     0.175 C 
HETATM    4  C17 UNL     1      -7.795   5.256  14.439  1.00  0.00     0.046 C 
HETATM    5  C18 UNL     1      -7.935   4.000  13.577  1.00  0.00     0.044 C 
HETATM    6  C19 UNL     1      -7.171   4.336  12.294  1.00  0.00     0.152 C 
HETATM    7  O6  UNL     1      -7.399   5.767  12.202  1.00  0.00    -0.372 OA
HETATM    8  C20 UNL     1      -7.054   6.231  13.528  1.00  0.00     0.193 C 
HETATM    9  C21 UNL     1      -5.526   6.107  13.772  1.00  0.00     0.216 C 
HETATM   10  O8  UNL     1      -5.091   4.750  13.559  1.00  0.00    -0.342 OA
HETATM   11  C22 UNL     1      -5.629   4.172  12.343  1.00  0.00     0.160 C 
ENDROOT
BRANCH   1  12
HETATM   12  C14 UNL     1      -3.959   5.933  15.823  1.00  0.00     0.071 C 
BRANCH  12  13
HETATM   13  C2  UNL     1      -2.708   6.633  15.308  1.00  0.00    -0.075 C 
HETATM   14  C1  UNL     1      -1.741   5.750  14.565  1.00  0.00     0.043 C 
HETATM   15  C3  UNL     1      -2.516   7.944  15.565  1.00  0.00     0.084 C 
BRANCH  15  16
HETATM   16  C4  UNL     1      -1.398   8.816  15.142  1.00  0.00     0.283 C 
HETATM   17  O1  UNL     1      -1.221   9.922  15.631  1.00  0.00    -0.260 OA
BRANCH  16  18
HETATM   18  O2  UNL     1      -0.684   8.258  14.138  1.00  0.00    -0.318 OA
BRANCH  18  19
HETATM   19  C5  UNL     1      -0.671   8.983  12.900  1.00  0.00     0.179 C 
BRANCH  19  20
HETATM   20  C6  UNL     1       0.177   8.240  11.873  1.00  0.00     0.027 C 
BRANCH  20  21
HETATM   21  C7  UNL     1      -0.324   8.477  10.448  1.00  0.00     0.002 C 
BRANCH  21  22
HETATM   22  C8  UNL     1       0.455   7.625   9.443  1.00  0.00     0.000 C 
BRANCH  22  23
HETATM   23  C9  UNL     1       0.948   8.413   8.224  1.00  0.00     0.000 C 
BRANCH  23  24
HETATM   24  C10 UNL     1       2.195   7.807   7.577  1.00  0.00     0.001 C 
BRANCH  24  25
HETATM   25  C11 UNL     1       2.471   6.356   7.991  1.00  0.00     0.010 C 
BRANCH  25  26
HETATM   26  C12 UNL     1       3.144   6.198   9.354  1.00  0.00     0.110 C 
BRANCH  26  27
HETATM   27  C13 UNL     1       3.463   4.776   9.726  1.00  0.00     0.139 C 
HETATM   28  O3  UNL     1       2.658   3.936  10.095  1.00  0.00    -0.650 OA
BRANCH  27  29
HETATM   29  O4  UNL     1       4.759   4.455   9.564  1.00  0.00    -0.776 OA
HETATM   30  H21 UNL     1       4.803   3.510   9.818  1.00  0.00     0.167 HD
ENDBRANCH  27  29
ENDBRANCH  26  27
ENDBRANCH  25  26
ENDBRANCH  24  25
ENDBRANCH  23  24
ENDBRANCH  22  23
ENDBRANCH  21  22
ENDBRANCH  20  21
ENDBRANCH  19  20
ENDBRANCH  18  19
ENDBRANCH  16  18
ENDBRANCH  15  16
ENDBRANCH  12  13
ENDBRANCH   1  12
BRANCH   9  31
HETATM   31  O7  UNL     1      -4.799   6.948  12.885  1.00  0.00    -0.361 OA
HETATM   32  H32 UNL     1      -3.862   6.833  13.111  1.00  0.00     0.213 HD
ENDBRANCH   9  31
BRANCH  11  33
HETATM   33  C23 UNL     1      -5.040   2.745  12.193  1.00  0.00     0.041 C 
HETATM   34  C24 UNL     1      -5.878   1.819  11.302  1.00  0.00     0.015 C 
BRANCH  33  35
HETATM   35  C25 UNL     1      -3.557   2.692  11.769  1.00  0.00     0.120 C 
HETATM   36  C26 UNL     1      -3.202   3.654  10.642  1.00  0.00     0.040 C 
BRANCH  35  37
HETATM   37  O9  UNL     1      -3.202   1.368  11.382  1.00  0.00    -0.396 OA
HETATM   38  H42 UNL     1      -2.247   1.364  11.187  1.00  0.00     0.210 HD
ENDBRANCH  35  37
ENDBRANCH  33  35
ENDBRANCH  11  33
TORSDOF 18
ENDMDL
MODEL 2
REMARK minimizedAffinity -7.44301081
REMARK  18 active torsions:
REMARK  status: ('A' for Active; 'I' for Inactive)
REMARK    1  A    between atoms: C2_2  and  C14_18 
REMARK    2  A    between atoms: C3_3  and  C4_4 
REMARK    3  A    between atoms: C4_4  and  O2_6 
REMARK    4  A    between atoms: O2_6  and  C5_7 
REMARK    5  A    between atoms: C5_7  and  C6_8 
REMARK    6  A    between atoms: C6_8  and  C7_9 
REMARK    7  A    between atoms: C7_9  and  C8_10 
REMARK    8  A    between atoms: C8_10  and  C9_11 
REMARK    9  A    between atoms: C9_11  and  C10_12 
REMARK   10  A    between atoms: C10_12  and  C11_13 
REMARK   11  A    between atoms: C11_13  and  C12_14 
REMARK   12  A    between atoms: C12_14  and  C13_15 
REMARK   13  A    between atoms: C13_15  and  O4_17 
REMARK   14  A    between atoms: C14_18  and  C15_19 
REMARK   15  A    between atoms: C21_27  and  O7_28 
REMARK   16  A    between atoms: C22_30  and  C23_31 
REMARK   17  A    between atoms: C23_31  and  C25_33 
REMARK   18  A    between atoms: C25_33  and  O9_35 
ROOT
HETATM    1  C15 UNL     1      -4.125   9.213  15.737  1.00  0.00     0.190 C 
HETATM    2  O5  UNL     1      -4.041  10.656  15.652  1.00  0.00    -0.380 OA
HETATM    3  C16 UNL     1      -2.817  11.124  15.088  1.00  0.00     0.175 C 
HETATM    4  C17 UNL     1      -1.656  10.795  16.021  1.00  0.00     0.046 C 
HETATM    5  C18 UNL     1      -0.334  10.539  15.297  1.00  0.00     0.044 C 
HETATM    6  C19 UNL     1       0.020   9.095  15.657  1.00  0.00     0.152 C 
HETATM    7  O6  UNL     1      -0.543   8.995  16.992  1.00  0.00    -0.372 OA
HETATM    8  C20 UNL     1      -1.883   9.509  16.811  1.00  0.00     0.193 C 
HETATM    9  C21 UNL     1      -2.738   8.527  15.968  1.00  0.00     0.216 C 
HETATM   10  O8  UNL     1      -2.101   8.265  14.702  1.00  0.00    -0.342 OA
HETATM   11  C22 UNL     1      -0.684   7.983  14.834  1.00  0.00     0.160 C 
ENDROOT
BRANCH   1  12
HETATM   12  C14 UNL     1      -4.857   8.672  14.489  1.00  0.00     0.071 C 
BRANCH  12  13
HETATM   13  C2  UNL     1      -6.149   7.938  14.821  1.00  0.00    -0.075 C 
HETATM   14  C1  UNL     1      -7.323   8.824  15.146  1.00  0.00     0.043 C 
HETATM   15  C3  UNL     1      -6.168   6.589  14.848  1.00  0.00     0.084 C 
BRANCH  15  16
HETATM   16  C4  UNL     1      -7.309   5.686  15.119  1.00  0.00     0.283 C 
HETATM   17  O1  UNL     1      -7.468   5.156  16.208  1.00  0.00    -0.260 OA
BRANCH  16  18
HETATM   18  O2  UNL     1      -8.066   5.496  14.015  1.00  0.00    -0.318 OA
BRANCH  18  19
HETATM   19  C5  UNL     1      -7.398   4.907  12.890  1.00  0.00     0.179 C 
BRANCH  19  20
HETATM   20  C6  UNL     1      -6.770   3.578  13.298  1.00  0.00     0.027 C 
BRANCH  20  21
HETATM   21  C7  UNL     1      -7.270   2.426  12.427  1.00  0.00     0.002 C 
BRANCH  21  22
HETATM   22  C8  UNL     1      -6.138   1.851  11.573  1.00  0.00     0.000 C 
BRANCH  22  23
HETATM   23  C9  UNL     1      -5.078   2.889  11.183  1.00  0.00     0.000 C 
BRANCH  23  24
HETATM   24  C10 UNL     1      -3.772   2.743  11.966  1.00  0.00     0.001 C 
BRANCH  24  25
HETATM   25  C11 UNL     1      -2.896   1.570  11.507  1.00  0.00     0.010 C 
BRANCH  25  26
HETATM   26  C12 UNL     1      -1.569   1.976  10.868  1.00  0.00     0.110 C 
BRANCH  26  27
HETATM   27  C13 UNL     1      -0.720   0.820  10.413  1.00  0.00     0.139 C 
HETATM   28  O3  UNL     1      -0.134   0.034  11.140  1.00  0.00    -0.650 OA
BRANCH  27  29
HETATM   29  O4  UNL     1      -0.693   0.667   9.077  1.00  0.00    -0.776 OA
HETATM   30  H21 UNL     1      -0.132  -0.125   8.941  1.00  0.00     0.167 HD
ENDBRANCH  27  29
ENDBRANCH  26  27
ENDBRANCH  25  26
ENDBRANCH  24  25
ENDBRANCH  23  24
ENDBRANCH  22  23
ENDBRANCH  21  22
ENDBRANCH  20  21
ENDBRANCH  19  20
ENDBRANCH  18  19
ENDBRANCH  16  18
ENDBRANCH  15  16
ENDBRANCH  12  13
ENDBRANCH   1  12
BRANCH   9  31
HETATM   31  O7  UNL     1      -2.905   7.287  16.644  1.00  0.00    -0.361 OA
HETATM   32  H32 UNL     1      -3.463   6.739  16.069  1.00  0.00     0.213 HD
ENDBRANCH   9  31
BRANCH  11  33
HETATM   33  C23 UNL     1      -0.130   7.655  13.424  1.00  0.00     0.041 C 
HETATM   34  C24 UNL     1       1.306   8.143  13.193  1.00  0.00     0.015 C 
BRANCH  33  35
HETATM   35  C25 UNL     1      -0.264   6.178  12.997  1.00  0.00     0.120 C 
HETATM   36  C26 UNL     1      -1.705   5.720  12.802  1.00  0.00     0.040 C 
BRANCH  35  37
HETATM   37  O9  UNL     1       0.370   5.329  13.949  1.00  0.00    -0.396 OA
HETATM   38  H42 UNL     1       0.320   4.417  13.611  1.00  0.00     0.210 HD
ENDBRANCH  35  37
ENDBRANCH  33  35
ENDBRANCH  11  33
TORSDOF 18
ENDMDL
MODEL 3
REMARK minimizedAffinity -7.37737465
REMARK  18 active torsions:
REMARK  status: ('A' for Active; 'I' for Inactive)
REMARK    1  A    between atoms: C2_2  and  C14_18 
REMARK    2  A    between atoms: C3_3  and  C4_4 
REMARK    3  A    between atoms: C4_4  and  O2_6 
REMARK    4  A    between atoms: O2_6  and  C5_7 
REMARK    5  A    between atoms: C5_7  and  C6_8 
REMARK    6  A    between atoms: C6_8  and  C7_9 
REMARK    7  A    between atoms: C7_9  and  C8_10 
REMARK    8  A    between atoms: C8_10  and  C9_11 
REMARK    9  A    between atoms: C9_11  and  C10_12 
REMARK   10  A    between atoms: C10_12  and  C11_13 
REMARK   11  A    between atoms: C11_13  and  C12_14 
REMARK   12  A    between atoms: C12_14  and  C13_15 
REMARK   13  A    between atoms: C13_15  and  O4_17 
REMARK   14  A    between atoms: C14_18  and  C15_19 
REMARK   15  A    between atoms: C21_27  and  O7_28 
REMARK   16  A    between atoms: C22_30  and  C23_31 
REMARK   17  A    between atoms: C23_31  and  C25_33 
REMARK   18  A    between atoms: C25_33  and  O9_35 
ROOT
HETATM    1  C15 UNL     1      -2.397   6.712  13.697  1.00  0.00     0.190 C 
HETATM    2  O5  UNL     1      -1.829   7.173  14.946  1.00  0.00    -0.380 OA
HETATM    3  C16 UNL     1      -0.509   7.696  14.814  1.00  0.00     0.175 C 
HETATM    4  C17 UNL     1       0.455   6.581  14.422  1.00  0.00     0.046 C 
HETATM    5  C18 UNL     1       1.626   7.050  13.559  1.00  0.00     0.044 C 
HETATM    6  C19 UNL     1       1.465   6.274  12.250  1.00  0.00     0.152 C 
HETATM    7  O6  UNL     1       0.876   5.037  12.731  1.00  0.00    -0.372 OA
HETATM    8  C20 UNL     1      -0.208   5.504  13.567  1.00  0.00     0.193 C 
HETATM    9  C21 UNL     1      -1.328   6.144  12.706  1.00  0.00     0.216 C 
HETATM   10  O8  UNL     1      -0.793   7.209  11.895  1.00  0.00    -0.342 OA
HETATM   11  C22 UNL     1       0.443   6.841  11.230  1.00  0.00     0.160 C 
ENDROOT
BRANCH   1  12
HETATM   12  C14 UNL     1      -3.245   7.843  13.076  1.00  0.00     0.071 C 
BRANCH  12  13
HETATM   13  C2  UNL     1      -4.376   8.313  13.981  1.00  0.00    -0.075 C 
HETATM   14  C1  UNL     1      -4.127   9.616  14.692  1.00  0.00     0.043 C 
HETATM   15  C3  UNL     1      -5.480   7.552  14.128  1.00  0.00     0.084 C 
BRANCH  15  16
HETATM   16  C4  UNL     1      -6.694   7.828  14.927  1.00  0.00     0.283 C 
HETATM   17  O1  UNL     1      -7.195   8.942  14.978  1.00  0.00    -0.260 OA
BRANCH  16  18
HETATM   18  O2  UNL     1      -7.102   6.734  15.609  1.00  0.00    -0.318 OA
BRANCH  18  19
HETATM   19  C5  UNL     1      -6.943   5.479  14.932  1.00  0.00     0.179 C 
BRANCH  19  20
HETATM   20  C6  UNL     1      -7.999   5.343  13.838  1.00  0.00     0.027 C 
BRANCH  20  21
HETATM   21  C7  UNL     1      -8.042   3.926  13.266  1.00  0.00     0.002 C 
BRANCH  21  22
HETATM   22  C8  UNL     1      -7.048   3.770  12.113  1.00  0.00     0.000 C 
BRANCH  22  23
HETATM   23  C9  UNL     1      -6.027   2.647  12.333  1.00  0.00     0.000 C 
BRANCH  23  24
HETATM   24  C10 UNL     1      -4.928   2.613  11.269  1.00  0.00     0.001 C 
BRANCH  24  25
HETATM   25  C11 UNL     1      -3.509   2.506  11.841  1.00  0.00     0.010 C 
BRANCH  25  26
HETATM   26  C12 UNL     1      -2.715   1.293  11.358  1.00  0.00     0.110 C 
BRANCH  26  27
HETATM   27  C13 UNL     1      -1.355   1.621  10.805  1.00  0.00     0.139 C 
HETATM   28  O3  UNL     1      -0.623   2.518  11.192  1.00  0.00    -0.650 OA
BRANCH  27  29
HETATM   29  O4  UNL     1      -0.951   0.779   9.837  1.00  0.00    -0.776 OA
HETATM   30  H21 UNL     1      -0.056   1.101   9.601  1.00  0.00     0.167 HD
ENDBRANCH  27  29
ENDBRANCH  26  27
ENDBRANCH  25  26
ENDBRANCH  24  25
ENDBRANCH  23  24
ENDBRANCH  22  23
ENDBRANCH  21  22
ENDBRANCH  20  21
ENDBRANCH  19  20
ENDBRANCH  18  19
ENDBRANCH  16  18
ENDBRANCH  15  16
ENDBRANCH  12  13
ENDBRANCH   1  12
BRANCH   9  31
HETATM   31  O7  UNL     1      -1.918   5.182  11.839  1.00  0.00    -0.361 OA
HETATM   32  H32 UNL     1      -2.617   5.649  11.354  1.00  0.00     0.213 HD
ENDBRANCH   9  31
BRANCH  11  33
HETATM   33  C23 UNL     1       0.879   8.036  10.344  1.00  0.00     0.041 C 
HETATM   34  C24 UNL     1       2.400   8.222  10.259  1.00  0.00     0.015 C 
BRANCH  33  35
HETATM   35  C25 UNL     1       0.261   8.061   8.930  1.00  0.00     0.120 C 
HETATM   36  C26 UNL     1       1.287   7.995   7.806  1.00  0.00     0.040 C 
BRANCH  35  37
HETATM   37  O9  UNL     1      -0.541   9.227   8.762  1.00  0.00    -0.396 OA
HETATM   38  H42 UNL     1      -0.963   9.171   7.886  1.00  0.00     0.210 HD
ENDBRANCH  35  37
ENDBRANCH  33  35
ENDBRANCH  11  33
TORSDOF 18
ENDMDL
MODEL 4
REMARK minimizedAffinity -7.37294149
REMARK  18 active torsions:
REMARK  status: ('A' for Active; 'I' for Inactive)
REMARK    1  A    between atoms: C2_2  and  C14_18 
REMARK    2  A    between atoms: C3_3  and  C4_4 
REMARK    3  A    between atoms: C4_4  and  O2_6 
REMARK    4  A    between atoms: O2_6  and  C5_7 
REMARK    5  A    between atoms: C5_7  and  C6_8 
REMARK    6  A    between atoms: C6_8  and  C7_9 
REMARK    7  A    between atoms: C7_9  and  C8_10 
REMARK    8  A    between atoms: C8_10  and  C9_11 
REMARK    9  A    between atoms: C9_11  and  C10_12 
REMARK   10  A    between atoms: C10_12  and  C11_13 
REMARK   11  A    between atoms: C11_13  and  C12_14 
REMARK   12  A    between atoms: C12_14  and  C13_15 
REMARK   13  A    between atoms: C13_15  and  O4_17 
REMARK   14  A    between atoms: C14_18  and  C15_19 
REMARK   15  A    between atoms: C21_27  and  O7_28 
REMARK   16  A    between atoms: C22_30  and  C23_31 
REMARK   17  A    between atoms: C23_31  and  C25_33 
REMARK   18  A    between atoms: C25_33  and  O9_35 
ROOT
HETATM    1  C15 UNL     1      -1.437   7.289  14.301  1.00  0.00     0.190 C 
HETATM    2  O5  UNL     1      -1.452   8.735  14.359  1.00  0.00    -0.380 OA
HETATM    3  C16 UNL     1      -0.570   9.354  13.425  1.00  0.00     0.175 C 
HETATM    4  C17 UNL     1       0.877   9.040  13.790  1.00  0.00     0.046 C 
HETATM    5  C18 UNL     1       1.816   8.962  12.586  1.00  0.00     0.044 C 
HETATM    6  C19 UNL     1       2.343   7.526  12.610  1.00  0.00     0.152 C 
HETATM    7  O6  UNL     1       2.356   7.258  14.036  1.00  0.00    -0.372 OA
HETATM    8  C20 UNL     1       1.033   7.672  14.451  1.00  0.00     0.193 C 
HETATM    9  C21 UNL     1      -0.044   6.703  13.895  1.00  0.00     0.216 C 
HETATM   10  O8  UNL     1       0.054   6.612  12.460  1.00  0.00    -0.342 OA
HETATM   11  C22 UNL     1       1.419   6.439  12.000  1.00  0.00     0.160 C 
ENDROOT
BRANCH   1  12
HETATM   12  C14 UNL     1      -2.578   6.805  13.380  1.00  0.00     0.071 C 
BRANCH  12  13
HETATM   13  C2  UNL     1      -3.930   7.409  13.731  1.00  0.00    -0.075 C 
HETATM   14  C1  UNL     1      -4.428   8.463  12.777  1.00  0.00     0.043 C 
HETATM   15  C3  UNL     1      -4.571   7.019  14.852  1.00  0.00     0.084 C 
BRANCH  15  16
HETATM   16  C4  UNL     1      -5.890   7.452  15.363  1.00  0.00     0.283 C 
HETATM   17  O1  UNL     1      -6.071   8.573  15.817  1.00  0.00    -0.260 OA
BRANCH  16  18
HETATM   18  O2  UNL     1      -6.798   6.451  15.313  1.00  0.00    -0.318 OA
BRANCH  18  19
HETATM   19  C5  UNL     1      -6.485   5.366  14.427  1.00  0.00     0.179 C 
BRANCH  19  20
HETATM   20  C6  UNL     1      -7.766   4.645  14.019  1.00  0.00     0.027 C 
BRANCH  20  21
HETATM   21  C7  UNL     1      -7.657   4.048  12.616  1.00  0.00     0.002 C 
BRANCH  21  22
HETATM   22  C8  UNL     1      -6.444   3.120  12.507  1.00  0.00     0.000 C 
BRANCH  22  23
HETATM   23  C9  UNL     1      -5.101   3.858  12.557  1.00  0.00     0.000 C 
BRANCH  23  24
HETATM   24  C10 UNL     1      -4.221   3.597  11.334  1.00  0.00     0.001 C 
BRANCH  24  25
HETATM   25  C11 UNL     1      -3.138   2.534  11.559  1.00  0.00     0.010 C 
BRANCH  25  26
HETATM   26  C12 UNL     1      -1.926   2.652  10.636  1.00  0.00     0.110 C 
BRANCH  26  27
HETATM   27  C13 UNL     1      -0.960   1.503  10.732  1.00  0.00     0.139 C 
HETATM   28  O3  UNL     1      -1.222   0.329  10.525  1.00  0.00    -0.650 OA
BRANCH  27  29
HETATM   29  O4  UNL     1       0.298   1.881  11.021  1.00  0.00    -0.776 OA
HETATM   30  H21 UNL     1       0.803   1.042  11.024  1.00  0.00     0.167 HD
ENDBRANCH  27  29
ENDBRANCH  26  27
ENDBRANCH  25  26
ENDBRANCH  24  25
ENDBRANCH  23  24
ENDBRANCH  22  23
ENDBRANCH  21  22
ENDBRANCH  20  21
ENDBRANCH  19  20
ENDBRANCH  18  19
ENDBRANCH  16  18
ENDBRANCH  15  16
ENDBRANCH  12  13
ENDBRANCH   1  12
BRANCH   9  31
HETATM   31  O7  UNL     1       0.120   5.396  14.433  1.00  0.00    -0.361 OA
HETATM   32  H32 UNL     1      -0.596   4.859  14.059  1.00  0.00     0.213 HD
ENDBRANCH   9  31
BRANCH  11  33
HETATM   33  C23 UNL     1       1.385   6.288  10.457  1.00  0.00     0.041 C 
HETATM   34  C24 UNL     1       0.529   7.347   9.749  1.00  0.00     0.015 C 
BRANCH  33  35
HETATM   35  C25 UNL     1       2.769   6.184   9.780  1.00  0.00     0.120 C 
HETATM   36  C26 UNL     1       2.710   6.145   8.258  1.00  0.00     0.040 C 
BRANCH  35  37
HETATM   37  O9  UNL     1       3.463   5.033  10.251  1.00  0.00    -0.396 OA
HETATM   38  H42 UNL     1       4.351   5.041   9.852  1.00  0.00     0.210 HD
ENDBRANCH  35  37
ENDBRANCH  33  35
ENDBRANCH  11  33
TORSDOF 18
ENDMDL
MODEL 5
REMARK minimizedAffinity -7.36749458
REMARK  18 active torsions:
REMARK  status: ('A' for Active; 'I' for Inactive)
REMARK    1  A    between atoms: C2_2  and  C14_18 
REMARK    2  A    between atoms: C3_3  and  C4_4 
REMARK    3  A    between atoms: C4_4  and  O2_6 
REMARK    4  A    between atoms: O2_6  and  C5_7 
REMARK    5  A    between atoms: C5_7  and  C6_8 
REMARK    6  A    between atoms: C6_8  and  C7_9 
REMARK    7  A    between atoms: C7_9  and  C8_10 
REMARK    8  A    between atoms: C8_10  and  C9_11 
REMARK    9  A    between atoms: C9_11  and  C10_12 
REMARK   10  A    between atoms: C10_12  and  C11_13 
REMARK   11  A    between atoms: C11_13  and  C12_14 
REMARK   12  A    between atoms: C12_14  and  C13_15 
REMARK   13  A    between atoms: C13_15  and  O4_17 
REMARK   14  A    between atoms: C14_18  and  C15_19 
REMARK   15  A    between atoms: C21_27  and  O7_28 
REMARK   16  A    between atoms: C22_30  and  C23_31 
REMARK   17  A    between atoms: C23_31  and  C25_33 
REMARK   18  A    between atoms: C25_33  and  O9_35 
ROOT
HETATM    1  C15 UNL     1      -0.794   4.136  11.912  1.00  0.00     0.190 C 
HETATM    2  O5  UNL     1      -1.589   4.849  12.890  1.00  0.00    -0.380 OA
HETATM    3  C16 UNL     1      -1.564   6.265  12.725  1.00  0.00     0.175 C 
HETATM    4  C17 UNL     1      -0.163   6.796  13.010  1.00  0.00     0.046 C 
HETATM    5  C18 UNL     1       0.204   8.041  12.200  1.00  0.00     0.044 C 
HETATM    6  C19 UNL     1       1.411   7.606  11.367  1.00  0.00     0.152 C 
HETATM    7  O6  UNL     1       2.037   6.650  12.261  1.00  0.00    -0.372 OA
HETATM    8  C20 UNL     1       0.931   5.798  12.641  1.00  0.00     0.193 C 
HETATM    9  C21 UNL     1       0.462   4.938  11.437  1.00  0.00     0.216 C 
HETATM   10  O8  UNL     1       0.117   5.781  10.321  1.00  0.00    -0.342 OA
HETATM   11  C22 UNL     1       1.106   6.812  10.069  1.00  0.00     0.160 C 
ENDROOT
BRANCH   1  12
HETATM   12  C14 UNL     1      -1.701   3.701  10.740  1.00  0.00     0.071 C 
BRANCH  12  13
HETATM   13  C2  UNL     1      -2.968   2.989  11.193  1.00  0.00    -0.075 C 
HETATM   14  C1  UNL     1      -2.766   1.587  11.705  1.00  0.00     0.043 C 
HETATM   15  C3  UNL     1      -4.163   3.605  11.080  1.00  0.00     0.084 C 
BRANCH  15  16
HETATM   16  C4  UNL     1      -5.500   3.111  11.478  1.00  0.00     0.283 C 
HETATM   17  O1  UNL     1      -5.981   2.093  11.002  1.00  0.00    -0.260 OA
BRANCH  16  18
HETATM   18  O2  UNL     1      -6.101   3.950  12.352  1.00  0.00    -0.318 OA
BRANCH  18  19
HETATM   19  C5  UNL     1      -7.520   3.789  12.499  1.00  0.00     0.179 C 
BRANCH  19  20
HETATM   20  C6  UNL     1      -8.189   5.157  12.595  1.00  0.00     0.027 C 
BRANCH  20  21
HETATM   21  C7  UNL     1      -8.138   5.712  14.019  1.00  0.00     0.002 C 
BRANCH  21  22
HETATM   22  C8  UNL     1      -9.251   6.736  14.249  1.00  0.00     0.000 C 
BRANCH  22  23
HETATM   23  C9  UNL     1      -8.937   7.743  15.361  1.00  0.00     0.000 C 
BRANCH  23  24
HETATM   24  C10 UNL     1      -7.484   7.688  15.835  1.00  0.00     0.001 C 
BRANCH  24  25
HETATM   25  C11 UNL     1      -6.549   8.655  15.097  1.00  0.00     0.010 C 
BRANCH  25  26
HETATM   26  C12 UNL     1      -5.070   8.509  15.450  1.00  0.00     0.110 C 
BRANCH  26  27
HETATM   27  C13 UNL     1      -4.166   9.487  14.752  1.00  0.00     0.139 C 
HETATM   28  O3  UNL     1      -3.331   9.210  13.905  1.00  0.00    -0.650 OA
BRANCH  27  29
HETATM   29  O4  UNL     1      -4.388  10.767  15.099  1.00  0.00    -0.776 OA
HETATM   30  H21 UNL     1      -3.752  11.275  14.552  1.00  0.00     0.167 HD
ENDBRANCH  27  29
ENDBRANCH  26  27
ENDBRANCH  25  26
ENDBRANCH  24  25
ENDBRANCH  23  24
ENDBRANCH  22  23
ENDBRANCH  21  22
ENDBRANCH  20  21
ENDBRANCH  19  20
ENDBRANCH  18  19
ENDBRANCH  16  18
ENDBRANCH  15  16
ENDBRANCH  12  13
ENDBRANCH   1  12
BRANCH   9  31
HETATM   31  O7  UNL     1       1.489   4.047  11.017  1.00  0.00    -0.361 OA
HETATM   32  H32 UNL     1       1.117   3.533  10.283  1.00  0.00     0.213 HD
ENDBRANCH   9  31
BRANCH  11  33
HETATM   33  C23 UNL     1       0.659   7.605   8.814  1.00  0.00     0.041 C 
HETATM   34  C24 UNL     1      -0.244   8.805   9.127  1.00  0.00     0.015 C 
BRANCH  33  35
HETATM   35  C25 UNL     1       1.802   8.032   7.869  1.00  0.00     0.120 C 
HETATM   36  C26 UNL     1       1.939   7.155   6.630  1.00  0.00     0.040 C 
BRANCH  35  37
HETATM   37  O9  UNL     1       3.042   8.048   8.570  1.00  0.00    -0.396 OA
HETATM   38  H42 UNL     1       3.721   8.385   7.958  1.00  0.00     0.210 HD
ENDBRANCH  35  37
ENDBRANCH  33  35
ENDBRANCH  11  33
TORSDOF 18
ENDMDL
MODEL 6
REMARK minimizedAffinity -7.25835752
REMARK  18 active torsions:
REMARK  status: ('A' for Active; 'I' for Inactive)
REMARK    1  A    between atoms: C2_2  and  C14_18 
REMARK    2  A    between atoms: C3_3  and  C4_4 
REMARK    3  A    between atoms: C4_4  and  O2_6 
REMARK    4  A    between atoms: O2_6  and  C5_7 
REMARK    5  A    between atoms: C5_7  and  C6_8 
REMARK    6  A    between atoms: C6_8  and  C7_9 
REMARK    7  A    between atoms: C7_9  and  C8_10 
REMARK    8  A    between atoms: C8_10  and  C9_11 
REMARK    9  A    between atoms: C9_11  and  C10_12 
REMARK   10  A    between atoms: C10_12  and  C11_13 
REMARK   11  A    between atoms: C11_13  and  C12_14 
REMARK   12  A    between atoms: C12_14  and  C13_15 
REMARK   13  A    between atoms: C13_15  and  O4_17 
REMARK   14  A    between atoms: C14_18  and  C15_19 
REMARK   15  A    between atoms: C21_27  and  O7_28 
REMARK   16  A    between atoms: C22_30  and  C23_31 
REMARK   17  A    between atoms: C23_31  and  C25_33 
REMARK   18  A    between atoms: C25_33  and  O9_35 
ROOT
HETATM    1  C15 UNL     1      -5.227   6.558  15.220  1.00  0.00     0.190 C 
HETATM    2  O5  UNL     1      -6.279   6.235  16.161  1.00  0.00    -0.380 OA
HETATM    3  C16 UNL     1      -6.992   5.044  15.834  1.00  0.00     0.175 C 
HETATM    4  C17 UNL     1      -7.776   5.246  14.542  1.00  0.00     0.046 C 
HETATM    5  C18 UNL     1      -7.940   3.972  13.712  1.00  0.00     0.044 C 
HETATM    6  C19 UNL     1      -7.238   4.289  12.390  1.00  0.00     0.152 C 
HETATM    7  O6  UNL     1      -7.485   5.715  12.279  1.00  0.00    -0.372 OA
HETATM    8  C20 UNL     1      -7.086   6.210  13.579  1.00  0.00     0.193 C 
HETATM    9  C21 UNL     1      -5.548   6.106  13.758  1.00  0.00     0.216 C 
HETATM   10  O8  UNL     1      -5.108   4.748  13.553  1.00  0.00    -0.342 OA
HETATM   11  C22 UNL     1      -5.694   4.140  12.373  1.00  0.00     0.160 C 
ENDROOT
BRANCH   1  12
HETATM   12  C14 UNL     1      -3.889   5.989  15.739  1.00  0.00     0.071 C 
BRANCH  12  13
HETATM   13  C2  UNL     1      -2.687   6.850  15.374  1.00  0.00    -0.075 C 
HETATM   14  C1  UNL     1      -2.578   8.149  16.128  1.00  0.00     0.043 C 
HETATM   15  C3  UNL     1      -1.839   6.445  14.406  1.00  0.00     0.084 C 
BRANCH  15  16
HETATM   16  C4  UNL     1      -0.609   7.107  13.918  1.00  0.00     0.283 C 
HETATM   17  O1  UNL     1      -0.527   8.323  13.817  1.00  0.00    -0.260 OA
BRANCH  16  18
HETATM   18  O2  UNL     1       0.333   6.206  13.558  1.00  0.00    -0.318 OA
BRANCH  18  19
HETATM   19  C5  UNL     1      -0.119   5.125  12.730  1.00  0.00     0.179 C 
BRANCH  19  20
HETATM   20  C6  UNL     1       0.898   4.858  11.624  1.00  0.00     0.027 C 
BRANCH  20  21
HETATM   21  C7  UNL     1       1.682   6.120  11.262  1.00  0.00     0.002 C 
BRANCH  21  22
HETATM   22  C8  UNL     1       1.794   6.279   9.744  1.00  0.00     0.000 C 
BRANCH  22  23
HETATM   23  C9  UNL     1       3.213   6.609   9.265  1.00  0.00     0.000 C 
BRANCH  23  24
HETATM   24  C10 UNL     1       3.635   8.047   9.573  1.00  0.00     0.001 C 
BRANCH  24  25
HETATM   25  C11 UNL     1       5.010   8.164  10.242  1.00  0.00     0.010 C 
BRANCH  25  26
HETATM   26  C12 UNL     1       5.273   7.141  11.346  1.00  0.00     0.110 C 
BRANCH  26  27
HETATM   27  C13 UNL     1       6.528   6.334  11.159  1.00  0.00     0.139 C 
HETATM   28  O3  UNL     1       7.649   6.662  11.513  1.00  0.00    -0.650 OA
BRANCH  27  29
HETATM   29  O4  UNL     1       6.315   5.133  10.593  1.00  0.00    -0.776 OA
HETATM   30  H21 UNL     1       7.205   4.723  10.561  1.00  0.00     0.167 HD
ENDBRANCH  27  29
ENDBRANCH  26  27
ENDBRANCH  25  26
ENDBRANCH  24  25
ENDBRANCH  23  24
ENDBRANCH  22  23
ENDBRANCH  21  22
ENDBRANCH  20  21
ENDBRANCH  19  20
ENDBRANCH  18  19
ENDBRANCH  16  18
ENDBRANCH  15  16
ENDBRANCH  12  13
ENDBRANCH   1  12
BRANCH   9  31
HETATM   31  O7  UNL     1      -4.869   6.936  12.822  1.00  0.00    -0.361 OA
HETATM   32  H32 UNL     1      -3.922   6.834  13.008  1.00  0.00     0.213 HD
ENDBRANCH   9  31
BRANCH  11  33
HETATM   33  C23 UNL     1      -5.097   2.717  12.225  1.00  0.00     0.041 C 
HETATM   34  C24 UNL     1      -5.934   1.782  11.342  1.00  0.00     0.015 C 
BRANCH  33  35
HETATM   35  C25 UNL     1      -3.616   2.671  11.794  1.00  0.00     0.120 C 
HETATM   36  C26 UNL     1      -3.273   3.629  10.660  1.00  0.00     0.040 C 
BRANCH  35  37
HETATM   37  O9  UNL     1      -3.254   1.347  11.412  1.00  0.00    -0.396 OA
HETATM   38  H42 UNL     1      -2.300   1.349  11.211  1.00  0.00     0.210 HD
ENDBRANCH  35  37
ENDBRANCH  33  35
ENDBRANCH  11  33
TORSDOF 18
ENDMDL
MODEL 7
REMARK minimizedAffinity -7.25361347
REMARK  18 active torsions:
REMARK  status: ('A' for Active; 'I' for Inactive)
REMARK    1  A    between atoms: C2_2  and  C14_18 
REMARK    2  A    between atoms: C3_3  and  C4_4 
REMARK    3  A    between atoms: C4_4  and  O2_6 
REMARK    4  A    between atoms: O2_6  and  C5_7 
REMARK    5  A    between atoms: C5_7  and  C6_8 
REMARK    6  A    between atoms: C6_8  and  C7_9 
REMARK    7  A    between atoms: C7_9  and  C8_10 
REMARK    8  A    between atoms: C8_10  and  C9_11 
REMARK    9  A    between atoms: C9_11  and  C10_12 
REMARK   10  A    between atoms: C10_12  and  C11_13 
REMARK   11  A    between atoms: C11_13  and  C12_14 
REMARK   12  A    between atoms: C12_14  and  C13_15 
REMARK   13  A    between atoms: C13_15  and  O4_17 
REMARK   14  A    between atoms: C14_18  and  C15_19 
REMARK   15  A    between atoms: C21_27  and  O7_28 
REMARK   16  A    between atoms: C22_30  and  C23_31 
REMARK   17  A    between atoms: C23_31  and  C25_33 
REMARK   18  A    between atoms: C25_33  and  O9_35 
ROOT
HETATM    1  C15 UNL     1       0.611   6.431  10.404  1.00  0.00     0.190 C 
HETATM    2  O5  UNL     1       1.305   5.168  10.258  1.00  0.00    -0.380 OA
HETATM    3  C16 UNL     1       2.682   5.228  10.622  1.00  0.00     0.175 C 
HETATM    4  C17 UNL     1       3.440   6.120   9.643  1.00  0.00     0.046 C 
HETATM    5  C18 UNL     1       4.626   6.855  10.267  1.00  0.00     0.044 C 
HETATM    6  C19 UNL     1       4.282   8.336  10.101  1.00  0.00     0.152 C 
HETATM    7  O6  UNL     1       3.532   8.310   8.858  1.00  0.00    -0.372 OA
HETATM    8  C20 UNL     1       2.576   7.248   9.086  1.00  0.00     0.193 C 
HETATM    9  C21 UNL     1       1.528   7.671  10.149  1.00  0.00     0.216 C 
HETATM   10  O8  UNL     1       2.183   8.062  11.372  1.00  0.00    -0.342 OA
HETATM   11  C22 UNL     1       3.312   8.944  11.149  1.00  0.00     0.160 C 
ENDROOT
BRANCH   1  12
HETATM   12  C14 UNL     1      -0.079   6.474  11.785  1.00  0.00     0.071 C 
BRANCH  12  13
HETATM   13  C2  UNL     1      -0.802   5.181  12.137  1.00  0.00    -0.075 C 
HETATM   14  C1  UNL     1      -1.442   5.155  13.499  1.00  0.00     0.043 C 
HETATM   15  C3  UNL     1      -0.798   4.150  11.266  1.00  0.00     0.084 C 
BRANCH  15  16
HETATM   16  C4  UNL     1      -1.451   2.829  11.394  1.00  0.00     0.283 C 
HETATM   17  O1  UNL     1      -0.806   1.794  11.479  1.00  0.00    -0.260 OA
BRANCH  16  18
HETATM   18  O2  UNL     1      -2.799   2.931  11.338  1.00  0.00    -0.318 OA
BRANCH  18  19
HETATM   19  C5  UNL     1      -3.532   1.747  11.682  1.00  0.00     0.179 C 
BRANCH  19  20
HETATM   20  C6  UNL     1      -4.992   1.901  11.266  1.00  0.00     0.027 C 
BRANCH  20  21
HETATM   21  C7  UNL     1      -5.681   3.031  12.032  1.00  0.00     0.002 C 
BRANCH  21  22
HETATM   22  C8  UNL     1      -7.063   2.596  12.525  1.00  0.00     0.000 C 
BRANCH  22  23
HETATM   23  C9  UNL     1      -7.666   3.542  13.571  1.00  0.00     0.000 C 
BRANCH  23  24
HETATM   24  C10 UNL     1      -8.120   4.880  12.984  1.00  0.00     0.001 C 
BRANCH  24  25
HETATM   25  C11 UNL     1      -7.283   6.081  13.445  1.00  0.00     0.010 C 
BRANCH  25  26
HETATM   26  C12 UNL     1      -6.043   5.719  14.261  1.00  0.00     0.110 C 
BRANCH  26  27
HETATM   27  C13 UNL     1      -6.051   6.247  15.670  1.00  0.00     0.139 C 
HETATM   28  O3  UNL     1      -6.927   6.058  16.499  1.00  0.00    -0.650 OA
BRANCH  27  29
HETATM   29  O4  UNL     1      -4.941   6.933  15.993  1.00  0.00    -0.776 OA
HETATM   30  H21 UNL     1      -5.082   7.185  16.930  1.00  0.00     0.167 HD
ENDBRANCH  27  29
ENDBRANCH  26  27
ENDBRANCH  25  26
ENDBRANCH  24  25
ENDBRANCH  23  24
ENDBRANCH  22  23
ENDBRANCH  21  22
ENDBRANCH  20  21
ENDBRANCH  19  20
ENDBRANCH  18  19
ENDBRANCH  16  18
ENDBRANCH  15  16
ENDBRANCH  12  13
ENDBRANCH   1  12
BRANCH   9  31
HETATM   31  O7  UNL     1       0.755   8.774   9.691  1.00  0.00    -0.361 OA
HETATM   32  H32 UNL     1       0.114   8.965  10.394  1.00  0.00     0.213 HD
ENDBRANCH   9  31
BRANCH  11  33
HETATM   33  C23 UNL     1       3.886   9.343  12.533  1.00  0.00     0.041 C 
HETATM   34  C24 UNL     1       3.056  10.406  13.265  1.00  0.00     0.015 C 
BRANCH  33  35
HETATM   35  C25 UNL     1       4.191   8.162  13.478  1.00  0.00     0.120 C 
HETATM   36  C26 UNL     1       5.603   7.606  13.336  1.00  0.00     0.040 C 
BRANCH  35  37
HETATM   37  O9  UNL     1       3.252   7.111  13.274  1.00  0.00    -0.396 OA
HETATM   38  H42 UNL     1       3.439   6.417  13.932  1.00  0.00     0.210 HD
ENDBRANCH  35  37
ENDBRANCH  33  35
ENDBRANCH  11  33
TORSDOF 18
ENDMDL
MODEL 8
REMARK minimizedAffinity -7.24930763
REMARK  18 active torsions:
REMARK  status: ('A' for Active; 'I' for Inactive)
REMARK    1  A    between atoms: C2_2  and  C14_18 
REMARK    2  A    between atoms: C3_3  and  C4_4 
REMARK    3  A    between atoms: C4_4  and  O2_6 
REMARK    4  A    between atoms: O2_6  and  C5_7 
REMARK    5  A    between atoms: C5_7  and  C6_8 
REMARK    6  A    between atoms: C6_8  and  C7_9 
REMARK    7  A    between atoms: C7_9  and  C8_10 
REMARK    8  A    between atoms: C8_10  and  C9_11 
REMARK    9  A    between atoms: C9_11  and  C10_12 
REMARK   10  A    between atoms: C10_12  and  C11_13 
REMARK   11  A    between atoms: C11_13  and  C12_14 
REMARK   12  A    between atoms: C12_14  and  C13_15 
REMARK   13  A    between atoms: C13_15  and  O4_17 
REMARK   14  A    between atoms: C14_18  and  C15_19 
REMARK   15  A    between atoms: C21_27  and  O7_28 
REMARK   16  A    between atoms: C22_30  and  C23_31 
REMARK   17  A    between atoms: C23_31  and  C25_33 
REMARK   18  A    between atoms: C25_33  and  O9_35 
ROOT
HETATM    1  C15 UNL     1      -4.604   6.312  14.338  1.00  0.00     0.190 C 
HETATM    2  O5  UNL     1      -5.185   7.282  13.435  1.00  0.00    -0.380 OA
HETATM    3  C16 UNL     1      -4.267   8.285  13.005  1.00  0.00     0.175 C 
HETATM    4  C17 UNL     1      -3.861   9.159  14.188  1.00  0.00     0.046 C 
HETATM    5  C18 UNL     1      -2.441   9.715  14.088  1.00  0.00     0.044 C 
HETATM    6  C19 UNL     1      -1.721   9.132  15.305  1.00  0.00     0.152 C 
HETATM    7  O6  UNL     1      -2.810   9.057  16.263  1.00  0.00    -0.372 OA
HETATM    8  C20 UNL     1      -3.851   8.394  15.509  1.00  0.00     0.193 C 
HETATM    9  C21 UNL     1      -3.478   6.911  15.244  1.00  0.00     0.216 C 
HETATM   10  O8  UNL     1      -2.205   6.825  14.573  1.00  0.00    -0.342 OA
HETATM   11  C22 UNL     1      -1.196   7.678  15.170  1.00  0.00     0.160 C 
ENDROOT
BRANCH   1  12
HETATM   12  C14 UNL     1      -4.128   5.086  13.530  1.00  0.00     0.071 C 
BRANCH  12  13
HETATM   13  C2  UNL     1      -5.273   4.275  12.938  1.00  0.00    -0.075 C 
HETATM   14  C1  UNL     1      -4.948   3.543  11.663  1.00  0.00     0.043 C 
HETATM   15  C3  UNL     1      -6.483   4.284  13.536  1.00  0.00     0.084 C 
BRANCH  15  16
HETATM   16  C4  UNL     1      -7.711   3.556  13.149  1.00  0.00     0.283 C 
HETATM   17  O1  UNL     1      -7.722   2.343  12.994  1.00  0.00    -0.260 OA
BRANCH  16  18
HETATM   18  O2  UNL     1      -8.746   4.400  12.940  1.00  0.00    -0.318 OA
BRANCH  18  19
HETATM   19  C5  UNL     1      -8.409   5.792  12.843  1.00  0.00     0.179 C 
BRANCH  19  20
HETATM   20  C6  UNL     1      -9.243   6.597  13.836  1.00  0.00     0.027 C 
BRANCH  20  21
HETATM   21  C7  UNL     1     -10.624   6.931  13.274  1.00  0.00     0.002 C 
BRANCH  21  22
HETATM   22  C8  UNL     1     -11.714   6.701  14.323  1.00  0.00     0.000 C 
BRANCH  22  23
HETATM   23  C9  UNL     1     -13.079   7.277  13.926  1.00  0.00     0.000 C 
BRANCH  23  24
HETATM   24  C10 UNL     1     -14.222   6.269  14.058  1.00  0.00     0.001 C 
BRANCH  24  25
HETATM   25  C11 UNL     1     -15.565   6.774  13.516  1.00  0.00     0.010 C 
BRANCH  25  26
HETATM   26  C12 UNL     1     -15.636   6.894  11.995  1.00  0.00     0.110 C 
BRANCH  26  27
HETATM   27  C13 UNL     1     -16.019   8.261  11.498  1.00  0.00     0.139 C 
HETATM   28  O3  UNL     1     -17.099   8.573  11.022  1.00  0.00    -0.650 OA
BRANCH  27  29
HETATM   29  O4  UNL     1     -15.058   9.185  11.674  1.00  0.00    -0.776 OA
HETATM   30  H21 UNL     1     -15.458  10.012  11.331  1.00  0.00     0.167 HD
ENDBRANCH  27  29
ENDBRANCH  26  27
ENDBRANCH  25  26
ENDBRANCH  24  25
ENDBRANCH  23  24
ENDBRANCH  22  23
ENDBRANCH  21  22
ENDBRANCH  20  21
ENDBRANCH  19  20
ENDBRANCH  18  19
ENDBRANCH  16  18
ENDBRANCH  15  16
ENDBRANCH  12  13
ENDBRANCH   1  12
BRANCH   9  31
HETATM   31  O7  UNL     1      -3.384   6.184  16.464  1.00  0.00    -0.361 OA
HETATM   32  H32 UNL     1      -3.171   5.270  16.217  1.00  0.00     0.213 HD
ENDBRANCH   9  31
BRANCH  11  33
HETATM   33  C23 UNL     1       0.134   7.448  14.407  1.00  0.00     0.041 C 
HETATM   34  C24 UNL     1       1.383   7.556  15.291  1.00  0.00     0.015 C 
BRANCH  33  35
HETATM   35  C25 UNL     1       0.189   6.156  13.565  1.00  0.00     0.120 C 
HETATM   36  C26 UNL     1      -0.671   6.201  12.308  1.00  0.00     0.040 C 
BRANCH  35  37
HETATM   37  O9  UNL     1      -0.197   5.035  14.355  1.00  0.00    -0.396 OA
HETATM   38  H42 UNL     1      -0.085   4.237  13.808  1.00  0.00     0.210 HD
ENDBRANCH  35  37
ENDBRANCH  33  35
ENDBRANCH  11  33
TORSDOF 18
ENDMDL
MODEL 9
REMARK minimizedAffinity -7.24822474
REMARK  18 active torsions:
REMARK  status: ('A' for Active; 'I' for Inactive)
REMARK    1  A    between atoms: C2_2  and  C14_18 
REMARK    2  A    between atoms: C3_3  and  C4_4 
REMARK    3  A    between atoms: C4_4  and  O2_6 
REMARK    4  A    between atoms: O2_6  and  C5_7 
REMARK    5  A    between atoms: C5_7  and  C6_8 
REMARK    6  A    between atoms: C6_8  and  C7_9 
REMARK    7  A    between atoms: C7_9  and  C8_10 
REMARK    8  A    between atoms: C8_10  and  C9_11 
REMARK    9  A    between atoms: C9_11  and  C10_12 
REMARK   10  A    between atoms: C10_12  and  C11_13 
REMARK   11  A    between atoms: C11_13  and  C12_14 
REMARK   12  A    between atoms: C12_14  and  C13_15 
REMARK   13  A    between atoms: C13_15  and  O4_17 
REMARK   14  A    between atoms: C14_18  and  C15_19 
REMARK   15  A    between atoms: C21_27  and  O7_28 
REMARK   16  A    between atoms: C22_30  and  C23_31 
REMARK   17  A    between atoms: C23_31  and  C25_33 
REMARK   18  A    between atoms: C25_33  and  O9_35 
ROOT
HETATM    1  C15 UNL     1       0.936   6.984  12.501  1.00  0.00     0.190 C 
HETATM    2  O5  UNL     1       0.618   5.670  11.984  1.00  0.00    -0.380 OA
HETATM    3  C16 UNL     1       1.576   5.176  11.051  1.00  0.00     0.175 C 
HETATM    4  C17 UNL     1       1.554   6.025   9.785  1.00  0.00     0.046 C 
HETATM    5  C18 UNL     1       2.909   6.123   9.082  1.00  0.00     0.044 C 
HETATM    6  C19 UNL     1       3.242   7.616   9.112  1.00  0.00     0.152 C 
HETATM    7  O6  UNL     1       1.915   8.200   9.034  1.00  0.00    -0.372 OA
HETATM    8  C20 UNL     1       1.191   7.482  10.060  1.00  0.00     0.193 C 
HETATM    9  C21 UNL     1       1.696   7.883  11.471  1.00  0.00     0.216 C 
HETATM   10  O8  UNL     1       3.117   7.663  11.578  1.00  0.00    -0.342 OA
HETATM   11  C22 UNL     1       3.850   8.163  10.431  1.00  0.00     0.160 C 
ENDROOT
BRANCH   1  12
HETATM   12  C14 UNL     1       1.695   6.836  13.837  1.00  0.00     0.071 C 
BRANCH  12  13
HETATM   13  C2  UNL     1       0.984   7.499  15.009  1.00  0.00    -0.075 C 
HETATM   14  C1  UNL     1       1.878   7.920  16.145  1.00  0.00     0.043 C 
HETATM   15  C3  UNL     1      -0.359   7.634  14.992  1.00  0.00     0.084 C 
BRANCH  15  16
HETATM   16  C4  UNL     1      -1.237   8.264  16.002  1.00  0.00     0.283 C 
HETATM   17  O1  UNL     1      -0.880   9.233  16.655  1.00  0.00    -0.260 OA
BRANCH  16  18
HETATM   18  O2  UNL     1      -2.406   7.596  16.132  1.00  0.00    -0.318 OA
BRANCH  18  19
HETATM   19  C5  UNL     1      -3.562   8.243  15.578  1.00  0.00     0.179 C 
BRANCH  19  20
HETATM   20  C6  UNL     1      -4.250   7.312  14.584  1.00  0.00     0.027 C 
BRANCH  20  21
HETATM   21  C7  UNL     1      -3.576   7.352  13.213  1.00  0.00     0.002 C 
BRANCH  21  22
HETATM   22  C8  UNL     1      -3.060   5.967  12.815  1.00  0.00     0.000 C 
BRANCH  22  23
HETATM   23  C9  UNL     1      -3.852   4.814  13.442  1.00  0.00     0.000 C 
BRANCH  23  24
HETATM   24  C10 UNL     1      -3.919   3.571  12.552  1.00  0.00     0.001 C 
BRANCH  24  25
HETATM   25  C11 UNL     1      -5.321   3.267  12.010  1.00  0.00     0.010 C 
BRANCH  25  26
HETATM   26  C12 UNL     1      -6.437   4.125  12.604  1.00  0.00     0.110 C 
BRANCH  26  27
HETATM   27  C13 UNL     1      -7.528   3.342  13.281  1.00  0.00     0.139 C 
HETATM   28  O3  UNL     1      -8.025   2.305  12.870  1.00  0.00    -0.650 OA
BRANCH  27  29
HETATM   29  O4  UNL     1      -7.905   3.857  14.465  1.00  0.00    -0.776 OA
HETATM   30  H21 UNL     1      -8.590   3.235  14.788  1.00  0.00     0.167 HD
ENDBRANCH  27  29
ENDBRANCH  26  27
ENDBRANCH  25  26
ENDBRANCH  24  25
ENDBRANCH  23  24
ENDBRANCH  22  23
ENDBRANCH  21  22
ENDBRANCH  20  21
ENDBRANCH  19  20
ENDBRANCH  18  19
ENDBRANCH  16  18
ENDBRANCH  15  16
ENDBRANCH  12  13
ENDBRANCH   1  12
BRANCH   9  31
HETATM   31  O7  UNL     1       1.442   9.259  11.731  1.00  0.00    -0.361 OA
HETATM   32  H32 UNL     1       1.763   9.427  12.631  1.00  0.00     0.213 HD
ENDBRANCH   9  31
BRANCH  11  33
HETATM   33  C23 UNL     1       5.360   7.929  10.693  1.00  0.00     0.041 C 
HETATM   34  C24 UNL     1       6.104   9.176  11.189  1.00  0.00     0.015 C 
BRANCH  33  35
HETATM   35  C25 UNL     1       5.687   6.721  11.597  1.00  0.00     0.120 C 
HETATM   36  C26 UNL     1       6.797   6.987  12.606  1.00  0.00     0.040 C 
BRANCH  35  37
HETATM   37  O9  UNL     1       6.038   5.592  10.803  1.00  0.00    -0.396 OA
HETATM   38  H42 UNL     1       6.172   4.838  11.406  1.00  0.00     0.210 HD
ENDBRANCH  35  37
ENDBRANCH  33  35
ENDBRANCH  11  33
TORSDOF 18
ENDMDL
