MODEL 1
REMARK minimizedAffinity -7.59157848
REMARK CNNscore 0.780465901
REMARK CNNaffinity 7.04250669
REMARK  10 active torsions:
REMARK  status: ('A' for Active; 'I' for Inactive)
REMARK    1  A    between atoms: C2_2  and  C3_3 
REMARK    2  A    between atoms: C2_2  and  C9_12 
REMARK    3  A    between atoms: C3_3  and  C4_4 
REMARK    4  A    between atoms: C4_4  and  C5_5 
REMARK    5  A    between atoms: C5_5  and  O1_6 
REMARK    6  A    between atoms: C5_5  and  C6_7 
REMARK    7  A    between atoms: C6_7  and  O2_9 
REMARK    8  A    between atoms: C6_7  and  C8_10 
REMARK    9  A    between atoms: C8_10  and  O3_11 
REMARK   10  A    between atoms: C16_19  and  O4_20 
ROOT
HETATM    1  C9  UNL     1      -2.086  51.875 -10.181  1.00  0.00    -0.002 C 
HETATM    2  C10 UNL     1      -1.352  50.525 -10.416  1.00  0.00     0.007 C 
HETATM    3  C11 UNL     1       0.137  50.748 -10.083  1.00  0.00     0.015 C 
HETATM    4  C12 UNL     1       0.186  52.098  -9.336  1.00  0.00    -0.005 C 
HETATM    5  C13 UNL     1      -0.172  51.803  -7.847  1.00  0.00     0.021 C 
HETATM    6  C14 UNL     1       1.477  52.912  -9.275  1.00  0.00     0.002 C 
HETATM    7  C15 UNL     1       1.454  54.270  -9.182  1.00  0.00    -0.032 C 
HETATM    8  C16 UNL     1       0.112  55.020  -9.169  1.00  0.00     0.149 C 
HETATM    9  C17 UNL     1      -1.178  54.203  -9.402  1.00  0.00     0.047 C 
HETATM   10  C18 UNL     1      -0.908  52.896 -10.151  1.00  0.00    -0.026 C 
HETATM   11  C19 UNL     1      -0.464  53.229 -11.608  1.00  0.00     0.016 C 
HETATM   12  C20 UNL     1       2.759  55.129  -9.201  1.00  0.00    -0.012 C 
HETATM   13  C21 UNL     1       2.986  55.491 -10.689  1.00  0.00     0.021 C 
HETATM   14  C22 UNL     1       2.634  56.437  -8.373  1.00  0.00     0.021 C 
HETATM   15  C23 UNL     1       3.927  57.230  -8.268  1.00  0.00     0.080 C 
HETATM   16  C24 UNL     1       5.009  56.386  -7.647  1.00  0.00     0.135 C 
HETATM   17  O5  UNL     1       5.697  56.847  -6.735  1.00  0.00    -0.297 OA
HETATM   18  C25 UNL     1       5.275  55.005  -8.267  1.00  0.00     0.018 C 
HETATM   19  C26 UNL     1       6.086  54.176  -7.237  1.00  0.00     0.023 C 
HETATM   20  C27 UNL     1       6.183  55.204  -9.490  1.00  0.00     0.023 C 
HETATM   21  C28 UNL     1       3.911  54.283  -8.555  1.00  0.00     0.020 C 
HETATM   22  C29 UNL     1       4.071  52.956  -9.301  1.00  0.00     0.090 C 
HETATM   23  C30 UNL     1       2.781  52.173  -9.299  1.00  0.00     0.157 C 
HETATM   24  O6  UNL     1       2.812  50.943  -9.336  1.00  0.00    -0.293 OA
ENDROOT
BRANCH   1  25
HETATM   25  C2  UNL     1      -3.267  52.075 -11.170  1.00  0.00    -0.014 C 
HETATM   26  C1  UNL     1      -4.006  53.407 -10.998  1.00  0.00     0.010 C 
BRANCH  25  27
HETATM   27  C3  UNL     1      -4.269  50.885 -11.170  1.00  0.00     0.007 C 
BRANCH  27  28
HETATM   28  C4  UNL     1      -5.079  50.580  -9.893  1.00  0.00     0.035 C 
BRANCH  28  29
HETATM   29  C5  UNL     1      -5.690  49.179  -9.799  1.00  0.00     0.154 C 
BRANCH  29  30
HETATM   30  O1  UNL     1      -5.255  48.533  -8.592  1.00  0.00    -0.392 OA
HETATM   31  H10 UNL     1      -5.467  49.125  -7.850  1.00  0.00     0.210 HD
ENDBRANCH  29  30
BRANCH  29  32
HETATM   32  C6  UNL     1      -7.242  49.072  -9.910  1.00  0.00     0.101 C 
HETATM   33  C7  UNL     1      -7.821  48.328  -8.701  1.00  0.00     0.051 C 
BRANCH  32  34
HETATM   34  O2  UNL     1      -7.782  50.414  -9.869  1.00  0.00    -0.385 OA
HETATM   35  H14 UNL     1      -7.014  51.027  -9.877  1.00  0.00     0.210 HD
ENDBRANCH  32  34
BRANCH  32  36
HETATM   36  C8  UNL     1      -7.756  48.453 -11.224  1.00  0.00     0.204 C 
BRANCH  36  37
HETATM   37  O3  UNL     1      -8.919  49.094 -11.720  1.00  0.00    -0.398 OA
HETATM   38  H17 UNL     1      -9.140  48.668 -12.570  1.00  0.00     0.209 HD
ENDBRANCH  36  37
ENDBRANCH  32  36
ENDBRANCH  29  32
ENDBRANCH  28  29
ENDBRANCH  27  28
ENDBRANCH  25  27
ENDBRANCH   1  25
BRANCH   8  39
HETATM   39  O4  UNL     1      -0.046  55.684  -7.921  1.00  0.00    -0.391 OA
HETATM   40  H27 UNL     1       0.019  55.009  -7.222  1.00  0.00     0.210 HD
ENDBRANCH   8  39
TORSDOF 10
ENDMDL
MODEL 2
REMARK minimizedAffinity -6.90432072
REMARK CNNscore 0.663964212
REMARK CNNaffinity 6.64474106
REMARK  10 active torsions:
REMARK  status: ('A' for Active; 'I' for Inactive)
REMARK    1  A    between atoms: C2_2  and  C3_3 
REMARK    2  A    between atoms: C2_2  and  C9_12 
REMARK    3  A    between atoms: C3_3  and  C4_4 
REMARK    4  A    between atoms: C4_4  and  C5_5 
REMARK    5  A    between atoms: C5_5  and  O1_6 
REMARK    6  A    between atoms: C5_5  and  C6_7 
REMARK    7  A    between atoms: C6_7  and  O2_9 
REMARK    8  A    between atoms: C6_7  and  C8_10 
REMARK    9  A    between atoms: C8_10  and  O3_11 
REMARK   10  A    between atoms: C16_19  and  O4_20 
ROOT
HETATM    1  C9  UNL     1       4.207  56.315  -8.132  1.00  0.00    -0.002 C 
HETATM    2  C10 UNL     1       5.228  55.499  -8.976  1.00  0.00     0.007 C 
HETATM    3  C11 UNL     1       4.420  54.541  -9.874  1.00  0.00     0.015 C 
HETATM    4  C12 UNL     1       2.964  55.050  -9.801  1.00  0.00    -0.005 C 
HETATM    5  C13 UNL     1       2.842  56.220 -10.824  1.00  0.00     0.021 C 
HETATM    6  C14 UNL     1       1.794  54.123 -10.124  1.00  0.00     0.002 C 
HETATM    7  C15 UNL     1       0.575  54.290  -9.540  1.00  0.00    -0.032 C 
HETATM    8  C16 UNL     1       0.361  55.408  -8.508  1.00  0.00     0.149 C 
HETATM    9  C17 UNL     1       1.591  56.230  -8.063  1.00  0.00     0.047 C 
HETATM   10  C18 UNL     1       2.903  55.472  -8.279  1.00  0.00    -0.026 C 
HETATM   11  C19 UNL     1       2.951  54.256  -7.304  1.00  0.00     0.016 C 
HETATM   12  C20 UNL     1      -0.612  53.306  -9.793  1.00  0.00    -0.012 C 
HETATM   13  C21 UNL     1      -0.505  52.245  -8.671  1.00  0.00     0.021 C 
HETATM   14  C22 UNL     1      -1.999  53.998  -9.708  1.00  0.00     0.021 C 
HETATM   15  C23 UNL     1      -3.165  53.094 -10.074  1.00  0.00     0.080 C 
HETATM   16  C24 UNL     1      -2.995  52.561 -11.472  1.00  0.00     0.135 C 
HETATM   17  O5  UNL     1      -3.939  52.604 -12.263  1.00  0.00    -0.297 OA
HETATM   18  C25 UNL     1      -1.661  51.879 -11.812  1.00  0.00     0.018 C 
HETATM   19  C26 UNL     1      -1.550  51.810 -13.358  1.00  0.00     0.023 C 
HETATM   20  C27 UNL     1      -1.728  50.430 -11.307  1.00  0.00     0.023 C 
HETATM   21  C28 UNL     1      -0.471  52.732 -11.246  1.00  0.00     0.020 C 
HETATM   22  C29 UNL     1       0.894  52.061 -11.416  1.00  0.00     0.090 C 
HETATM   23  C30 UNL     1       2.015  53.028 -11.124  1.00  0.00     0.157 C 
HETATM   24  O6  UNL     1       3.099  52.897 -11.692  1.00  0.00    -0.293 OA
ENDROOT
BRANCH   1  25
HETATM   25  C2  UNL     1       4.760  56.658  -6.723  1.00  0.00    -0.014 C 
HETATM   26  C1  UNL     1       3.900  57.659  -5.942  1.00  0.00     0.010 C 
BRANCH  25  27
HETATM   27  C3  UNL     1       6.248  57.112  -6.746  1.00  0.00     0.007 C 
BRANCH  27  28
HETATM   28  C4  UNL     1       6.942  57.490  -5.422  1.00  0.00     0.035 C 
BRANCH  28  29
HETATM   29  C5  UNL     1       8.146  56.632  -5.021  1.00  0.00     0.154 C 
BRANCH  29  30
HETATM   30  O1  UNL     1       8.383  55.623  -6.013  1.00  0.00    -0.392 OA
HETATM   31  H10 UNL     1       8.466  56.070  -6.873  1.00  0.00     0.210 HD
ENDBRANCH  29  30
BRANCH  29  32
HETATM   32  C6  UNL     1       9.481  57.380  -4.716  1.00  0.00     0.101 C 
HETATM   33  C7  UNL     1       9.959  57.075  -3.292  1.00  0.00     0.051 C 
BRANCH  32  34
HETATM   34  O2  UNL     1      10.492  56.862  -5.612  1.00  0.00    -0.385 OA
HETATM   35  H14 UNL     1      10.035  56.249  -6.229  1.00  0.00     0.210 HD
ENDBRANCH  32  34
BRANCH  32  36
HETATM   36  C8  UNL     1       9.442  58.900  -4.961  1.00  0.00     0.204 C 
BRANCH  36  37
HETATM   37  O3  UNL     1       9.342  59.652  -3.763  1.00  0.00    -0.398 OA
HETATM   38  H17 UNL     1       9.372  60.595  -4.013  1.00  0.00     0.209 HD
ENDBRANCH  36  37
ENDBRANCH  32  36
ENDBRANCH  29  32
ENDBRANCH  28  29
ENDBRANCH  27  28
ENDBRANCH  25  27
ENDBRANCH   1  25
BRANCH   8  39
HETATM   39  O4  UNL     1      -0.590  56.340  -9.011  1.00  0.00    -0.391 OA
HETATM   40  H27 UNL     1      -0.253  56.668  -9.863  1.00  0.00     0.210 HD
ENDBRANCH   8  39
TORSDOF 10
ENDMDL
MODEL 3
REMARK minimizedAffinity -6.87340689
REMARK CNNscore 0.658666015
REMARK CNNaffinity 6.59225702
REMARK  10 active torsions:
REMARK  status: ('A' for Active; 'I' for Inactive)
REMARK    1  A    between atoms: C2_2  and  C3_3 
REMARK    2  A    between atoms: C2_2  and  C9_12 
REMARK    3  A    between atoms: C3_3  and  C4_4 
REMARK    4  A    between atoms: C4_4  and  C5_5 
REMARK    5  A    between atoms: C5_5  and  O1_6 
REMARK    6  A    between atoms: C5_5  and  C6_7 
REMARK    7  A    between atoms: C6_7  and  O2_9 
REMARK    8  A    between atoms: C6_7  and  C8_10 
REMARK    9  A    between atoms: C8_10  and  O3_11 
REMARK   10  A    between atoms: C16_19  and  O4_20 
ROOT
HETATM    1  C9  UNL     1       4.845  56.018  -8.142  1.00  0.00    -0.002 C 
HETATM    2  C10 UNL     1       5.759  55.248  -9.137  1.00  0.00     0.007 C 
HETATM    3  C11 UNL     1       4.842  54.388 -10.030  1.00  0.00     0.015 C 
HETATM    4  C12 UNL     1       3.416  54.927  -9.784  1.00  0.00    -0.005 C 
HETATM    5  C13 UNL     1       3.242  56.179 -10.696  1.00  0.00     0.021 C 
HETATM    6  C14 UNL     1       2.191  54.060 -10.070  1.00  0.00     0.002 C 
HETATM    7  C15 UNL     1       1.037  54.211  -9.365  1.00  0.00    -0.032 C 
HETATM    8  C16 UNL     1       0.953  55.246  -8.233  1.00  0.00     0.149 C 
HETATM    9  C17 UNL     1       2.245  55.997  -7.839  1.00  0.00     0.047 C 
HETATM   10  C18 UNL     1       3.506  55.225  -8.234  1.00  0.00    -0.026 C 
HETATM   11  C19 UNL     1       3.601  53.932  -7.367  1.00  0.00     0.016 C 
HETATM   12  C20 UNL     1      -0.201  53.282  -9.584  1.00  0.00    -0.012 C 
HETATM   13  C21 UNL     1      -0.030  52.130  -8.564  1.00  0.00     0.021 C 
HETATM   14  C22 UNL     1      -1.551  54.000  -9.318  1.00  0.00     0.021 C 
HETATM   15  C23 UNL     1      -2.775  53.161  -9.645  1.00  0.00     0.080 C 
HETATM   16  C24 UNL     1      -2.748  52.739 -11.091  1.00  0.00     0.135 C 
HETATM   17  O5  UNL     1      -3.757  52.871 -11.786  1.00  0.00    -0.297 OA
HETATM   18  C25 UNL     1      -1.474  52.052 -11.605  1.00  0.00     0.018 C 
HETATM   19  C26 UNL     1      -1.504  52.107 -13.155  1.00  0.00     0.023 C 
HETATM   20  C27 UNL     1      -1.544  50.569 -11.212  1.00  0.00     0.023 C 
HETATM   21  C28 UNL     1      -0.210  52.825 -11.085  1.00  0.00     0.020 C 
HETATM   22  C29 UNL     1       1.111  52.135 -11.433  1.00  0.00     0.090 C 
HETATM   23  C30 UNL     1       2.286  53.045 -11.169  1.00  0.00     0.157 C 
HETATM   24  O6  UNL     1       3.310  52.932 -11.843  1.00  0.00    -0.293 OA
ENDROOT
BRANCH   1  25
HETATM   25  C2  UNL     1       5.533  56.231  -6.767  1.00  0.00    -0.014 C 
HETATM   26  C1  UNL     1       5.251  57.598  -6.133  1.00  0.00     0.010 C 
BRANCH  25  27
HETATM   27  C3  UNL     1       7.062  55.945  -6.799  1.00  0.00     0.007 C 
BRANCH  27  28
HETATM   28  C4  UNL     1       7.964  56.533  -5.696  1.00  0.00     0.035 C 
BRANCH  28  29
HETATM   29  C5  UNL     1       9.345  55.890  -5.537  1.00  0.00     0.154 C 
BRANCH  29  30
HETATM   30  O1  UNL     1      10.370  56.886  -5.670  1.00  0.00    -0.392 OA
HETATM   31  H10 UNL     1      10.172  57.597  -5.036  1.00  0.00     0.210 HD
ENDBRANCH  29  30
BRANCH  29  32
HETATM   32  C6  UNL     1       9.597  55.061  -4.239  1.00  0.00     0.101 C 
HETATM   33  C7  UNL     1      11.100  54.866  -4.005  1.00  0.00     0.051 C 
BRANCH  32  34
HETATM   34  O2  UNL     1       9.099  55.830  -3.119  1.00  0.00    -0.385 OA
HETATM   35  H14 UNL     1       8.654  56.621  -3.496  1.00  0.00     0.210 HD
ENDBRANCH  32  34
BRANCH  32  36
HETATM   36  C8  UNL     1       8.860  53.709  -4.181  1.00  0.00     0.204 C 
BRANCH  36  37
HETATM   37  O3  UNL     1       9.704  52.606  -4.466  1.00  0.00    -0.398 OA
HETATM   38  H17 UNL     1       9.165  51.799  -4.359  1.00  0.00     0.209 HD
ENDBRANCH  36  37
ENDBRANCH  32  36
ENDBRANCH  29  32
ENDBRANCH  28  29
ENDBRANCH  27  28
ENDBRANCH  25  27
ENDBRANCH   1  25
BRANCH   8  39
HETATM   39  O4  UNL     1      -0.008  56.240  -8.571  1.00  0.00    -0.391 OA
HETATM   40  H27 UNL     1       0.262  56.628  -9.422  1.00  0.00     0.210 HD
ENDBRANCH   8  39
TORSDOF 10
ENDMDL
MODEL 4
REMARK minimizedAffinity -8.97638988
REMARK CNNscore 0.557790399
REMARK CNNaffinity 7.05367422
REMARK  10 active torsions:
REMARK  status: ('A' for Active; 'I' for Inactive)
REMARK    1  A    between atoms: C2_2  and  C3_3 
REMARK    2  A    between atoms: C2_2  and  C9_12 
REMARK    3  A    between atoms: C3_3  and  C4_4 
REMARK    4  A    between atoms: C4_4  and  C5_5 
REMARK    5  A    between atoms: C5_5  and  O1_6 
REMARK    6  A    between atoms: C5_5  and  C6_7 
REMARK    7  A    between atoms: C6_7  and  O2_9 
REMARK    8  A    between atoms: C6_7  and  C8_10 
REMARK    9  A    between atoms: C8_10  and  O3_11 
REMARK   10  A    between atoms: C16_19  and  O4_20 
ROOT
HETATM    1  C9  UNL     1      -5.465  49.231 -24.808  1.00  0.00    -0.002 C 
HETATM    2  C10 UNL     1      -6.483  49.309 -23.636  1.00  0.00     0.007 C 
HETATM    3  C11 UNL     1      -5.774  50.004 -22.457  1.00  0.00     0.015 C 
HETATM    4  C12 UNL     1      -4.497  50.627 -23.062  1.00  0.00    -0.005 C 
HETATM    5  C13 UNL     1      -4.916  51.987 -23.700  1.00  0.00     0.021 C 
HETATM    6  C14 UNL     1      -3.295  50.960 -22.181  1.00  0.00     0.002 C 
HETATM    7  C15 UNL     1      -2.027  50.934 -22.675  1.00  0.00    -0.032 C 
HETATM    8  C16 UNL     1      -1.776  50.531 -24.136  1.00  0.00     0.149 C 
HETATM    9  C17 UNL     1      -2.977  50.032 -24.969  1.00  0.00     0.047 C 
HETATM   10  C18 UNL     1      -4.106  49.490 -24.088  1.00  0.00    -0.026 C 
HETATM   11  C19 UNL     1      -3.621  48.180 -23.395  1.00  0.00     0.016 C 
HETATM   12  C20 UNL     1      -0.776  51.191 -21.773  1.00  0.00    -0.012 C 
HETATM   13  C21 UNL     1      -0.339  49.792 -21.276  1.00  0.00     0.021 C 
HETATM   14  C22 UNL     1       0.400  51.848 -22.544  1.00  0.00     0.021 C 
HETATM   15  C23 UNL     1       1.582  52.226 -21.667  1.00  0.00     0.080 C 
HETATM   16  C24 UNL     1       1.145  53.177 -20.584  1.00  0.00     0.135 C 
HETATM   17  O5  UNL     1       1.799  54.199 -20.365  1.00  0.00    -0.297 OA
HETATM   18  C25 UNL     1      -0.055  52.763 -19.718  1.00  0.00     0.018 C 
HETATM   19  C26 UNL     1      -0.575  54.034 -18.997  1.00  0.00     0.023 C 
HETATM   20  C27 UNL     1       0.456  51.812 -18.626  1.00  0.00     0.023 C 
HETATM   21  C28 UNL     1      -1.192  52.185 -20.633  1.00  0.00     0.020 C 
HETATM   22  C29 UNL     1      -2.376  51.617 -19.846  1.00  0.00     0.090 C 
HETATM   23  C30 UNL     1      -3.549  51.342 -20.754  1.00  0.00     0.157 C 
HETATM   24  O6  UNL     1      -4.696  51.414 -20.311  1.00  0.00    -0.293 OA
ENDROOT
BRANCH   1  25
HETATM   25  C2  UNL     1      -5.662  47.953 -25.667  1.00  0.00    -0.014 C 
HETATM   26  C1  UNL     1      -5.302  48.133 -27.146  1.00  0.00     0.010 C 
BRANCH  25  27
HETATM   27  C3  UNL     1      -7.081  47.333 -25.518  1.00  0.00     0.007 C 
BRANCH  27  28
HETATM   28  C4  UNL     1      -8.001  47.250 -26.753  1.00  0.00     0.035 C 
BRANCH  28  29
HETATM   29  C5  UNL     1      -9.177  48.232 -26.787  1.00  0.00     0.154 C 
BRANCH  29  30
HETATM   30  O1  UNL     1      -9.058  49.101 -27.923  1.00  0.00    -0.392 OA
HETATM   31  H10 UNL     1      -8.968  48.541 -28.713  1.00  0.00     0.210 HD
ENDBRANCH  29  30
BRANCH  29  32
HETATM   32  C6  UNL     1     -10.613  47.623 -26.752  1.00  0.00     0.101 C 
HETATM   33  C7  UNL     1     -10.550  46.094 -26.655  1.00  0.00     0.051 C 
BRANCH  32  34
HETATM   34  O2  UNL     1     -11.261  48.088 -25.545  1.00  0.00    -0.385 OA
HETATM   35  H14 UNL     1     -10.650  48.735 -25.128  1.00  0.00     0.210 HD
ENDBRANCH  32  34
BRANCH  32  36
HETATM   36  C8  UNL     1     -11.528  48.055 -27.913  1.00  0.00     0.204 C 
BRANCH  36  37
HETATM   37  O3  UNL     1     -12.654  48.802 -27.482  1.00  0.00    -0.398 OA
HETATM   38  H17 UNL     1     -13.144  49.068 -28.283  1.00  0.00     0.209 HD
ENDBRANCH  36  37
ENDBRANCH  32  36
ENDBRANCH  29  32
ENDBRANCH  28  29
ENDBRANCH  27  28
ENDBRANCH  25  27
ENDBRANCH   1  25
BRANCH   8  39
HETATM   39  O4  UNL     1      -1.221  51.635 -24.842  1.00  0.00    -0.391 OA
HETATM   40  H27 UNL     1      -1.844  52.378 -24.754  1.00  0.00     0.210 HD
ENDBRANCH   8  39
TORSDOF 10
ENDMDL
MODEL 5
REMARK minimizedAffinity -7.70944834
REMARK CNNscore 0.55050391
REMARK CNNaffinity 6.553442
REMARK  10 active torsions:
REMARK  status: ('A' for Active; 'I' for Inactive)
REMARK    1  A    between atoms: C2_2  and  C3_3 
REMARK    2  A    between atoms: C2_2  and  C9_12 
REMARK    3  A    between atoms: C3_3  and  C4_4 
REMARK    4  A    between atoms: C4_4  and  C5_5 
REMARK    5  A    between atoms: C5_5  and  O1_6 
REMARK    6  A    between atoms: C5_5  and  C6_7 
REMARK    7  A    between atoms: C6_7  and  O2_9 
REMARK    8  A    between atoms: C6_7  and  C8_10 
REMARK    9  A    between atoms: C8_10  and  O3_11 
REMARK   10  A    between atoms: C16_19  and  O4_20 
ROOT
HETATM    1  C9  UNL     1      -3.593  48.827 -23.422  1.00  0.00    -0.002 C 
HETATM    2  C10 UNL     1      -2.845  49.703 -22.378  1.00  0.00     0.007 C 
HETATM    3  C11 UNL     1      -3.560  49.516 -21.025  1.00  0.00     0.015 C 
HETATM    4  C12 UNL     1      -4.475  48.287 -21.218  1.00  0.00    -0.005 C 
HETATM    5  C13 UNL     1      -3.588  47.024 -20.999  1.00  0.00     0.021 C 
HETATM    6  C14 UNL     1      -5.694  48.069 -20.323  1.00  0.00     0.002 C 
HETATM    7  C15 UNL     1      -6.798  47.415 -20.776  1.00  0.00    -0.032 C 
HETATM    8  C16 UNL     1      -6.853  46.906 -22.225  1.00  0.00     0.149 C 
HETATM    9  C17 UNL     1      -5.689  47.279 -23.170  1.00  0.00     0.047 C 
HETATM   10  C18 UNL     1      -4.947  48.535 -22.706  1.00  0.00    -0.026 C 
HETATM   11  C19 UNL     1      -5.894  49.765 -22.851  1.00  0.00     0.016 C 
HETATM   12  C20 UNL     1      -8.086  47.252 -19.906  1.00  0.00    -0.012 C 
HETATM   13  C21 UNL     1      -8.974  48.469 -20.264  1.00  0.00     0.021 C 
HETATM   14  C22 UNL     1      -8.864  45.946 -20.217  1.00  0.00     0.021 C 
HETATM   15  C23 UNL     1     -10.051  45.698 -19.299  1.00  0.00     0.080 C 
HETATM   16  C24 UNL     1      -9.598  45.641 -17.864  1.00  0.00     0.135 C 
HETATM   17  O5  UNL     1      -9.983  44.724 -17.136  1.00  0.00    -0.297 OA
HETATM   18  C25 UNL     1      -8.751  46.812 -17.341  1.00  0.00     0.018 C 
HETATM   19  C26 UNL     1      -8.062  46.345 -16.032  1.00  0.00     0.023 C 
HETATM   20  C27 UNL     1      -9.706  47.952 -16.957  1.00  0.00     0.023 C 
HETATM   21  C28 UNL     1      -7.654  47.185 -18.400  1.00  0.00     0.020 C 
HETATM   22  C29 UNL     1      -6.847  48.431 -18.027  1.00  0.00     0.090 C 
HETATM   23  C30 UNL     1      -5.635  48.579 -18.914  1.00  0.00     0.157 C 
HETATM   24  O6  UNL     1      -4.624  49.131 -18.480  1.00  0.00    -0.293 OA
ENDROOT
BRANCH   1  25
HETATM   25  C2  UNL     1      -3.580  49.469 -24.835  1.00  0.00    -0.014 C 
HETATM   26  C1  UNL     1      -3.796  48.469 -25.977  1.00  0.00     0.010 C 
BRANCH  25  27
HETATM   27  C3  UNL     1      -2.318  50.339 -25.098  1.00  0.00     0.007 C 
BRANCH  27  28
HETATM   28  C4  UNL     1      -1.879  50.614 -26.551  1.00  0.00     0.035 C 
BRANCH  28  29
HETATM   29  C5  UNL     1      -1.887  52.081 -26.993  1.00  0.00     0.154 C 
BRANCH  29  30
HETATM   30  O1  UNL     1      -2.435  52.905 -25.954  1.00  0.00    -0.392 OA
HETATM   31  H10 UNL     1      -1.934  52.724 -25.140  1.00  0.00     0.210 HD
ENDBRANCH  29  30
BRANCH  29  32
HETATM   32  C6  UNL     1      -0.530  52.686 -27.470  1.00  0.00     0.101 C 
HETATM   33  C7  UNL     1       0.501  52.660 -26.337  1.00  0.00     0.051 C 
BRANCH  32  34
HETATM   34  O2  UNL     1      -0.013  51.837 -28.521  1.00  0.00    -0.385 OA
HETATM   35  H14 UNL     1      -0.706  51.166 -28.709  1.00  0.00     0.210 HD
ENDBRANCH  32  34
BRANCH  32  36
HETATM   36  C8  UNL     1      -0.630  54.097 -28.081  1.00  0.00     0.204 C 
BRANCH  36  37
HETATM   37  O3  UNL     1      -1.939  54.419 -28.521  1.00  0.00    -0.398 OA
HETATM   38  H17 UNL     1      -1.913  55.338 -28.845  1.00  0.00     0.209 HD
ENDBRANCH  36  37
ENDBRANCH  32  36
ENDBRANCH  29  32
ENDBRANCH  28  29
ENDBRANCH  27  28
ENDBRANCH  25  27
ENDBRANCH   1  25
BRANCH   8  39
HETATM   39  O4  UNL     1      -6.937  45.485 -22.224  1.00  0.00    -0.391 OA
HETATM   40  H27 UNL     1      -6.167  45.149 -21.731  1.00  0.00     0.210 HD
ENDBRANCH   8  39
TORSDOF 10
ENDMDL
MODEL 6
REMARK minimizedAffinity -7.16490602
REMARK CNNscore 0.516195595
REMARK CNNaffinity 6.49411345
REMARK  10 active torsions:
REMARK  status: ('A' for Active; 'I' for Inactive)
REMARK    1  A    between atoms: C2_2  and  C3_3 
REMARK    2  A    between atoms: C2_2  and  C9_12 
REMARK    3  A    between atoms: C3_3  and  C4_4 
REMARK    4  A    between atoms: C4_4  and  C5_5 
REMARK    5  A    between atoms: C5_5  and  O1_6 
REMARK    6  A    between atoms: C5_5  and  C6_7 
REMARK    7  A    between atoms: C6_7  and  O2_9 
REMARK    8  A    between atoms: C6_7  and  C8_10 
REMARK    9  A    between atoms: C8_10  and  O3_11 
REMARK   10  A    between atoms: C16_19  and  O4_20 
ROOT
HETATM    1  C9  UNL     1      -3.456  50.878 -10.793  1.00  0.00    -0.002 C 
HETATM    2  C10 UNL     1      -4.223  52.227 -10.892  1.00  0.00     0.007 C 
HETATM    3  C11 UNL     1      -3.188  53.357 -10.727  1.00  0.00     0.015 C 
HETATM    4  C12 UNL     1      -1.813  52.673 -10.884  1.00  0.00    -0.005 C 
HETATM    5  C13 UNL     1      -1.539  52.555 -12.415  1.00  0.00     0.021 C 
HETATM    6  C14 UNL     1      -0.550  53.310 -10.308  1.00  0.00     0.002 C 
HETATM    7  C15 UNL     1       0.502  52.550  -9.897  1.00  0.00    -0.032 C 
HETATM    8  C16 UNL     1       0.425  51.018  -9.975  1.00  0.00     0.149 C 
HETATM    9  C17 UNL     1      -0.916  50.379 -10.398  1.00  0.00     0.047 C 
HETATM   10  C18 UNL     1      -2.106  51.308 -10.142  1.00  0.00    -0.026 C 
HETATM   11  C19 UNL     1      -2.294  51.477  -8.603  1.00  0.00     0.016 C 
HETATM   12  C20 UNL     1       1.770  53.175  -9.230  1.00  0.00    -0.012 C 
HETATM   13  C21 UNL     1       1.484  53.146  -7.709  1.00  0.00     0.021 C 
HETATM   14  C22 UNL     1       3.065  52.369  -9.519  1.00  0.00     0.021 C 
HETATM   15  C23 UNL     1       4.332  53.020  -8.990  1.00  0.00     0.080 C 
HETATM   16  C24 UNL     1       4.498  54.396  -9.580  1.00  0.00     0.135 C 
HETATM   17  O5  UNL     1       5.586  54.735 -10.049  1.00  0.00    -0.297 OA
HETATM   18  C25 UNL     1       3.309  55.364  -9.466  1.00  0.00     0.018 C 
HETATM   19  C26 UNL     1       3.538  56.511 -10.484  1.00  0.00     0.023 C 
HETATM   20  C27 UNL     1       3.348  55.998  -8.067  1.00  0.00     0.023 C 
HETATM   21  C28 UNL     1       1.979  54.611  -9.824  1.00  0.00     0.020 C 
HETATM   22  C29 UNL     1       0.722  55.459  -9.606  1.00  0.00     0.090 C 
HETATM   23  C30 UNL     1      -0.488  54.805 -10.226  1.00  0.00     0.157 C 
HETATM   24  O6  UNL     1      -1.415  55.503 -10.638  1.00  0.00    -0.293 OA
ENDROOT
BRANCH   1  25
HETATM   25  C2  UNL     1      -4.318  49.766 -10.137  1.00  0.00    -0.014 C 
HETATM   26  C1  UNL     1      -4.056  48.362 -10.696  1.00  0.00     0.010 C 
BRANCH  25  27
HETATM   27  C3  UNL     1      -5.840  50.087 -10.151  1.00  0.00     0.007 C 
BRANCH  27  28
HETATM   28  C4  UNL     1      -6.821  49.071 -10.770  1.00  0.00     0.035 C 
BRANCH  28  29
HETATM   29  C5  UNL     1      -8.311  49.340 -10.535  1.00  0.00     0.154 C 
BRANCH  29  30
HETATM   30  O1  UNL     1      -9.056  49.057 -11.729  1.00  0.00    -0.392 OA
HETATM   31  H10 UNL     1      -8.840  48.148 -12.001  1.00  0.00     0.210 HD
ENDBRANCH  29  30
BRANCH  29  32
HETATM   32  C6  UNL     1      -8.981  48.617  -9.325  1.00  0.00     0.101 C 
HETATM   33  C7  UNL     1      -8.114  47.448  -8.846  1.00  0.00     0.051 C 
BRANCH  32  34
HETATM   34  O2  UNL     1      -9.048  49.560  -8.230  1.00  0.00    -0.385 OA
HETATM   35  H14 UNL     1      -8.738  50.424  -8.581  1.00  0.00     0.210 HD
ENDBRANCH  32  34
BRANCH  32  36
HETATM   36  C8  UNL     1     -10.430  48.154  -9.570  1.00  0.00     0.204 C 
BRANCH  36  37
HETATM   37  O3  UNL     1     -11.174  48.008  -8.372  1.00  0.00    -0.398 OA
HETATM   38  H17 UNL     1     -12.082  47.760  -8.628  1.00  0.00     0.209 HD
ENDBRANCH  36  37
ENDBRANCH  32  36
ENDBRANCH  29  32
ENDBRANCH  28  29
ENDBRANCH  27  28
ENDBRANCH  25  27
ENDBRANCH   1  25
BRANCH   8  39
HETATM   39  O4  UNL     1       1.408  50.541 -10.887  1.00  0.00    -0.391 OA
HETATM   40  H27 UNL     1       1.245  50.974 -11.743  1.00  0.00     0.210 HD
ENDBRANCH   8  39
TORSDOF 10
ENDMDL
MODEL 7
REMARK minimizedAffinity -7.17125177
REMARK CNNscore 0.407195032
REMARK CNNaffinity 6.4017396
REMARK  10 active torsions:
REMARK  status: ('A' for Active; 'I' for Inactive)
REMARK    1  A    between atoms: C2_2  and  C3_3 
REMARK    2  A    between atoms: C2_2  and  C9_12 
REMARK    3  A    between atoms: C3_3  and  C4_4 
REMARK    4  A    between atoms: C4_4  and  C5_5 
REMARK    5  A    between atoms: C5_5  and  O1_6 
REMARK    6  A    between atoms: C5_5  and  C6_7 
REMARK    7  A    between atoms: C6_7  and  O2_9 
REMARK    8  A    between atoms: C6_7  and  C8_10 
REMARK    9  A    between atoms: C8_10  and  O3_11 
REMARK   10  A    between atoms: C16_19  and  O4_20 
ROOT
HETATM    1  C9  UNL     1      -9.097  46.974 -24.629  1.00  0.00    -0.002 C 
HETATM    2  C10 UNL     1      -8.825  45.514 -24.170  1.00  0.00     0.007 C 
HETATM    3  C11 UNL     1      -7.583  45.544 -23.256  1.00  0.00     0.015 C 
HETATM    4  C12 UNL     1      -7.365  47.035 -22.919  1.00  0.00    -0.005 C 
HETATM    5  C13 UNL     1      -8.325  47.376 -21.738  1.00  0.00     0.021 C 
HETATM    6  C14 UNL     1      -5.997  47.545 -22.472  1.00  0.00     0.002 C 
HETATM    7  C15 UNL     1      -5.598  48.820 -22.729  1.00  0.00    -0.032 C 
HETATM    8  C16 UNL     1      -6.514  49.772 -23.513  1.00  0.00     0.149 C 
HETATM    9  C17 UNL     1      -7.820  49.199 -24.107  1.00  0.00     0.047 C 
HETATM   10  C18 UNL     1      -7.746  47.683 -24.309  1.00  0.00    -0.026 C 
HETATM   11  C19 UNL     1      -6.710  47.372 -25.433  1.00  0.00     0.016 C 
HETATM   12  C20 UNL     1      -4.172  49.339 -22.354  1.00  0.00    -0.012 C 
HETATM   13  C21 UNL     1      -3.304  49.085 -23.610  1.00  0.00     0.021 C 
HETATM   14  C22 UNL     1      -4.149  50.854 -22.017  1.00  0.00     0.021 C 
HETATM   15  C23 UNL     1      -2.802  51.360 -21.526  1.00  0.00     0.080 C 
HETATM   16  C24 UNL     1      -2.377  50.602 -20.296  1.00  0.00     0.135 C 
HETATM   17  O5  UNL     1      -1.963  51.216 -19.311  1.00  0.00    -0.297 OA
HETATM   18  C25 UNL     1      -2.378  49.068 -20.373  1.00  0.00     0.018 C 
HETATM   19  C26 UNL     1      -2.333  48.525 -18.921  1.00  0.00     0.023 C 
HETATM   20  C27 UNL     1      -1.072  48.627 -21.051  1.00  0.00     0.023 C 
HETATM   21  C28 UNL     1      -3.695  48.574 -21.070  1.00  0.00     0.020 C 
HETATM   22  C29 UNL     1      -3.725  47.063 -21.316  1.00  0.00     0.090 C 
HETATM   23  C30 UNL     1      -5.105  46.605 -21.717  1.00  0.00     0.157 C 
HETATM   24  O6  UNL     1      -5.476  45.465 -21.438  1.00  0.00    -0.293 OA
ENDROOT
BRANCH   1  25
HETATM   25  C2  UNL     1      -9.688  47.031 -26.064  1.00  0.00    -0.014 C 
HETATM   26  C1  UNL     1     -10.541  48.275 -26.339  1.00  0.00     0.010 C 
BRANCH  25  27
HETATM   27  C3  UNL     1     -10.458  45.738 -26.458  1.00  0.00     0.007 C 
BRANCH  27  28
HETATM   28  C4  UNL     1     -11.946  45.601 -26.078  1.00  0.00     0.035 C 
BRANCH  28  29
HETATM   29  C5  UNL     1     -12.841  44.889 -27.097  1.00  0.00     0.154 C 
BRANCH  29  30
HETATM   30  O1  UNL     1     -13.544  43.809 -26.465  1.00  0.00    -0.392 OA
HETATM   31  H10 UNL     1     -14.010  44.174 -25.693  1.00  0.00     0.210 HD
ENDBRANCH  29  30
BRANCH  29  32
HETATM   32  C6  UNL     1     -13.857  45.771 -27.889  1.00  0.00     0.101 C 
HETATM   33  C7  UNL     1     -13.641  47.257 -27.577  1.00  0.00     0.051 C 
BRANCH  32  34
HETATM   34  O2  UNL     1     -13.584  45.600 -29.300  1.00  0.00    -0.385 OA
HETATM   35  H14 UNL     1     -12.896  44.903 -29.372  1.00  0.00     0.210 HD
ENDBRANCH  32  34
BRANCH  32  36
HETATM   36  C8  UNL     1     -15.336  45.386 -27.698  1.00  0.00     0.204 C 
BRANCH  36  37
HETATM   37  O3  UNL     1     -15.928  44.862 -28.874  1.00  0.00    -0.398 OA
HETATM   38  H17 UNL     1     -16.841  44.606 -28.645  1.00  0.00     0.209 HD
ENDBRANCH  36  37
ENDBRANCH  32  36
ENDBRANCH  29  32
ENDBRANCH  28  29
ENDBRANCH  27  28
ENDBRANCH  25  27
ENDBRANCH   1  25
BRANCH   8  39
HETATM   39  O4  UNL     1      -6.891  50.861 -22.677  1.00  0.00    -0.391 OA
HETATM   40  H27 UNL     1      -7.319  50.485 -21.887  1.00  0.00     0.210 HD
ENDBRANCH   8  39
TORSDOF 10
ENDMDL
MODEL 8
REMARK minimizedAffinity -8.27503109
REMARK CNNscore 0.399547696
REMARK CNNaffinity 6.30607033
REMARK  10 active torsions:
REMARK  status: ('A' for Active; 'I' for Inactive)
REMARK    1  A    between atoms: C2_2  and  C3_3 
REMARK    2  A    between atoms: C2_2  and  C9_12 
REMARK    3  A    between atoms: C3_3  and  C4_4 
REMARK    4  A    between atoms: C4_4  and  C5_5 
REMARK    5  A    between atoms: C5_5  and  O1_6 
REMARK    6  A    between atoms: C5_5  and  C6_7 
REMARK    7  A    between atoms: C6_7  and  O2_9 
REMARK    8  A    between atoms: C6_7  and  C8_10 
REMARK    9  A    between atoms: C8_10  and  O3_11 
REMARK   10  A    between atoms: C16_19  and  O4_20 
ROOT
HETATM    1  C9  UNL     1      -8.921  47.409 -24.675  1.00  0.00    -0.002 C 
HETATM    2  C10 UNL     1      -8.773  45.919 -24.256  1.00  0.00     0.007 C 
HETATM    3  C11 UNL     1      -7.556  45.825 -23.313  1.00  0.00     0.015 C 
HETATM    4  C12 UNL     1      -7.235  47.284 -22.922  1.00  0.00    -0.005 C 
HETATM    5  C13 UNL     1      -8.196  47.662 -21.754  1.00  0.00     0.021 C 
HETATM    6  C14 UNL     1      -5.843  47.673 -22.427  1.00  0.00     0.002 C 
HETATM    7  C15 UNL     1      -5.342  48.922 -22.633  1.00  0.00    -0.032 C 
HETATM    8  C16 UNL     1      -6.162  49.965 -23.407  1.00  0.00     0.149 C 
HETATM    9  C17 UNL     1      -7.492  49.512 -24.050  1.00  0.00     0.047 C 
HETATM   10  C18 UNL     1      -7.528  48.002 -24.300  1.00  0.00    -0.026 C 
HETATM   11  C19 UNL     1      -6.490  47.646 -25.408  1.00  0.00     0.016 C 
HETATM   12  C20 UNL     1      -3.890  49.318 -22.208  1.00  0.00    -0.012 C 
HETATM   13  C21 UNL     1      -3.012  49.036 -23.451  1.00  0.00     0.021 C 
HETATM   14  C22 UNL     1      -3.761  50.816 -21.822  1.00  0.00     0.021 C 
HETATM   15  C23 UNL     1      -2.393  51.201 -21.284  1.00  0.00     0.080 C 
HETATM   16  C24 UNL     1      -2.059  50.376 -20.069  1.00  0.00     0.135 C 
HETATM   17  O5  UNL     1      -1.625  50.926 -19.055  1.00  0.00    -0.297 OA
HETATM   18  C25 UNL     1      -2.175  48.849 -20.195  1.00  0.00     0.018 C 
HETATM   19  C26 UNL     1      -2.210  48.261 -18.760  1.00  0.00     0.023 C 
HETATM   20  C27 UNL     1      -0.889  48.330 -20.856  1.00  0.00     0.023 C 
HETATM   21  C28 UNL     1      -3.507  48.480 -20.939  1.00  0.00     0.020 C 
HETATM   22  C29 UNL     1      -3.645  46.984 -21.234  1.00  0.00     0.090 C 
HETATM   23  C30 UNL     1      -5.046  46.646 -21.682  1.00  0.00     0.157 C 
HETATM   24  O6  UNL     1      -5.509  45.529 -21.448  1.00  0.00    -0.293 OA
ENDROOT
BRANCH   1  25
HETATM   25  C2  UNL     1      -9.467  47.555 -26.120  1.00  0.00    -0.014 C 
HETATM   26  C1  UNL     1     -10.972  47.842 -26.193  1.00  0.00     0.010 C 
BRANCH  25  27
HETATM   27  C3  UNL     1      -9.092  46.356 -27.038  1.00  0.00     0.007 C 
BRANCH  27  28
HETATM   28  C4  UNL     1      -8.361  46.624 -28.369  1.00  0.00     0.035 C 
BRANCH  28  29
HETATM   29  C5  UNL     1      -8.402  48.066 -28.884  1.00  0.00     0.154 C 
BRANCH  29  30
HETATM   30  O1  UNL     1      -7.068  48.582 -29.010  1.00  0.00    -0.392 OA
HETATM   31  H10 UNL     1      -6.565  47.962 -29.565  1.00  0.00     0.210 HD
ENDBRANCH  29  30
BRANCH  29  32
HETATM   32  C6  UNL     1      -9.182  48.325 -30.211  1.00  0.00     0.101 C 
HETATM   33  C7  UNL     1      -9.228  47.054 -31.067  1.00  0.00     0.051 C 
BRANCH  32  34
HETATM   34  O2  UNL     1     -10.551  48.641 -29.864  1.00  0.00    -0.385 OA
HETATM   35  H14 UNL     1     -10.588  48.698 -28.883  1.00  0.00     0.210 HD
ENDBRANCH  32  34
BRANCH  32  36
HETATM   36  C8  UNL     1      -8.672  49.519 -31.039  1.00  0.00     0.204 C 
BRANCH  36  37
HETATM   37  O3  UNL     1      -8.845  50.763 -30.383  1.00  0.00    -0.398 OA
HETATM   38  H17 UNL     1      -8.454  51.447 -30.958  1.00  0.00     0.209 HD
ENDBRANCH  36  37
ENDBRANCH  32  36
ENDBRANCH  29  32
ENDBRANCH  28  29
ENDBRANCH  27  28
ENDBRANCH  25  27
ENDBRANCH   1  25
BRANCH   8  39
HETATM   39  O4  UNL     1      -6.477  51.053 -22.546  1.00  0.00    -0.391 OA
HETATM   40  H27 UNL     1      -6.952  50.688 -21.779  1.00  0.00     0.210 HD
ENDBRANCH   8  39
TORSDOF 10
ENDMDL
MODEL 9
REMARK minimizedAffinity -9.19384384
REMARK CNNscore 0.385616243
REMARK CNNaffinity 6.75380945
REMARK  10 active torsions:
REMARK  status: ('A' for Active; 'I' for Inactive)
REMARK    1  A    between atoms: C2_2  and  C3_3 
REMARK    2  A    between atoms: C2_2  and  C9_12 
REMARK    3  A    between atoms: C3_3  and  C4_4 
REMARK    4  A    between atoms: C4_4  and  C5_5 
REMARK    5  A    between atoms: C5_5  and  O1_6 
REMARK    6  A    between atoms: C5_5  and  C6_7 
REMARK    7  A    between atoms: C6_7  and  O2_9 
REMARK    8  A    between atoms: C6_7  and  C8_10 
REMARK    9  A    between atoms: C8_10  and  O3_11 
REMARK   10  A    between atoms: C16_19  and  O4_20 
ROOT
HETATM    1  C9  UNL     1      -2.199  50.868 -23.133  1.00  0.00    -0.002 C 
HETATM    2  C10 UNL     1      -1.659  52.316 -23.302  1.00  0.00     0.007 C 
HETATM    3  C11 UNL     1      -0.905  52.679 -22.006  1.00  0.00     0.015 C 
HETATM    4  C12 UNL     1      -0.716  51.341 -21.260  1.00  0.00    -0.005 C 
HETATM    5  C13 UNL     1       0.539  50.653 -21.877  1.00  0.00     0.021 C 
HETATM    6  C14 UNL     1      -0.477  51.313 -19.752  1.00  0.00     0.002 C 
HETATM    7  C15 UNL     1      -0.881  50.259 -18.990  1.00  0.00    -0.032 C 
HETATM    8  C16 UNL     1      -1.624  49.080 -19.637  1.00  0.00     0.149 C 
HETATM    9  C17 UNL     1      -2.011  49.195 -21.128  1.00  0.00     0.047 C 
HETATM   10  C18 UNL     1      -2.099  50.651 -21.592  1.00  0.00    -0.026 C 
HETATM   11  C19 UNL     1      -3.310  51.335 -20.886  1.00  0.00     0.016 C 
HETATM   12  C20 UNL     1      -0.721  50.245 -17.435  1.00  0.00    -0.012 C 
HETATM   13  C21 UNL     1      -2.048  50.822 -16.885  1.00  0.00     0.021 C 
HETATM   14  C22 UNL     1      -0.512  48.817 -16.863  1.00  0.00     0.021 C 
HETATM   15  C23 UNL     1      -0.226  48.784 -15.370  1.00  0.00     0.080 C 
HETATM   16  C24 UNL     1       1.001  49.598 -15.055  1.00  0.00     0.135 C 
HETATM   17  O5  UNL     1       1.878  49.127 -14.327  1.00  0.00    -0.297 OA
HETATM   18  C25 UNL     1       1.048  51.042 -15.577  1.00  0.00     0.018 C 
HETATM   19  C26 UNL     1       2.523  51.517 -15.515  1.00  0.00     0.023 C 
HETATM   20  C27 UNL     1       0.256  51.924 -14.601  1.00  0.00     0.023 C 
HETATM   21  C28 UNL     1       0.554  51.081 -17.067  1.00  0.00     0.020 C 
HETATM   22  C29 UNL     1       0.434  52.499 -17.632  1.00  0.00     0.090 C 
HETATM   23  C30 UNL     1       0.238  52.473 -19.128  1.00  0.00     0.157 C 
HETATM   24  O6  UNL     1       0.650  53.409 -19.815  1.00  0.00    -0.293 OA
ENDROOT
BRANCH   1  25
HETATM   25  C2  UNL     1      -3.553  50.663 -23.864  1.00  0.00    -0.014 C 
HETATM   26  C1  UNL     1      -4.090  49.228 -23.792  1.00  0.00     0.010 C 
BRANCH  25  27
HETATM   27  C3  UNL     1      -3.534  51.170 -25.334  1.00  0.00     0.007 C 
BRANCH  27  28
HETATM   28  C4  UNL     1      -2.394  52.099 -25.798  1.00  0.00     0.035 C 
BRANCH  28  29
HETATM   29  C5  UNL     1      -1.565  51.610 -26.989  1.00  0.00     0.154 C 
BRANCH  29  30
HETATM   30  O1  UNL     1      -2.423  51.338 -28.107  1.00  0.00    -0.392 OA
HETATM   31  H10 UNL     1      -2.949  52.138 -28.275  1.00  0.00     0.210 HD
ENDBRANCH  29  30
BRANCH  29  32
HETATM   32  C6  UNL     1      -0.384  52.518 -27.454  1.00  0.00     0.101 C 
HETATM   33  C7  UNL     1       0.686  51.689 -28.173  1.00  0.00     0.051 C 
BRANCH  32  34
HETATM   34  O2  UNL     1      -0.905  53.456 -28.425  1.00  0.00    -0.385 OA
HETATM   35  H14 UNL     1      -1.878  53.323 -28.453  1.00  0.00     0.210 HD
ENDBRANCH  32  34
BRANCH  32  36
HETATM   36  C8  UNL     1       0.250  53.374 -26.342  1.00  0.00     0.204 C 
BRANCH  36  37
HETATM   37  O3  UNL     1       0.064  54.766 -26.539  1.00  0.00    -0.398 OA
HETATM   38  H17 UNL     1       0.455  55.219 -25.769  1.00  0.00     0.209 HD
ENDBRANCH  36  37
ENDBRANCH  32  36
ENDBRANCH  29  32
ENDBRANCH  28  29
ENDBRANCH  27  28
ENDBRANCH  25  27
ENDBRANCH   1  25
BRANCH   8  39
HETATM   39  O4  UNL     1      -0.838  47.900 -19.510  1.00  0.00    -0.391 OA
HETATM   40  H27 UNL     1       0.024  48.079 -19.924  1.00  0.00     0.210 HD
ENDBRANCH   8  39
TORSDOF 10
ENDMDL
