MODEL 1
REMARK minimizedAffinity -10.7047882
REMARK CNNscore 0.661256552
REMARK CNNaffinity 7.61224747
REMARK  10 active torsions:
REMARK  status: ('A' for Active; 'I' for Inactive)
REMARK    1  A    between atoms: C19_21  and  O3_22 
REMARK    2  A    between atoms: C19_21  and  C20_23 
REMARK    3  A    between atoms: C20_23  and  C21_25 
REMARK    4  A    between atoms: C21_25  and  O5_26 
REMARK    5  A    between atoms: O5_26  and  C22_27 
REMARK    6  A    between atoms: C22_27  and  C23_29 
REMARK    7  A    between atoms: C23_29  and  C24_30 
REMARK    8  A    between atoms: C24_30  and  C25_31 
REMARK       I    between atoms: C25_31  and  N1_33 
REMARK    9  A    between atoms: N1_33  and  C26_34 
REMARK   10  A    between atoms: C26_34  and  C27_35 
ROOT
HETATM    1  C1  UNL     1      -0.243  49.890 -21.021  1.00  0.00     0.021 C 
HETATM    2  C2  UNL     1      -0.931  51.255 -21.249  1.00  0.00    -0.009 C 
HETATM    3  C3  UNL     1      -0.167  52.048 -22.353  1.00  0.00     0.022 C 
HETATM    4  C4  UNL     1       1.176  52.602 -21.899  1.00  0.00     0.084 C 
HETATM    5  C5  UNL     1       1.002  53.455 -20.672  1.00  0.00     0.149 C 
HETATM    6  O1  UNL     1       1.721  54.420 -20.432  1.00  0.00    -0.293 OA
HETATM    7  C6  UNL     1      -0.028  53.050 -19.687  1.00  0.00     0.053 C 
HETATM    8  C7  UNL     1      -0.873  52.032 -19.920  1.00  0.00    -0.067 C 
HETATM    9  C8  UNL     1      -1.811  51.581 -18.825  1.00  0.00     0.035 C 
HETATM   10  C9  UNL     1      -3.250  51.475 -19.317  1.00  0.00     0.010 C 
HETATM   11  C10 UNL     1      -3.351  50.568 -20.550  1.00  0.00     0.003 C 
HETATM   12  C11 UNL     1      -2.435  51.109 -21.685  1.00  0.00     0.072 C 
HETATM   13  C12 UNL     1      -2.679  50.306 -22.977  1.00  0.00     0.133 C 
HETATM   14  O2  UNL     1      -1.778  49.830 -23.664  1.00  0.00    -0.297 OA
HETATM   15  C13 UNL     1      -4.127  50.167 -23.432  1.00  0.00     0.091 C 
HETATM   16  C14 UNL     1      -4.968  49.567 -22.300  1.00  0.00     0.005 C 
HETATM   17  C15 UNL     1      -4.510  48.106 -22.039  1.00  0.00     0.019 C 
HETATM   18  C16 UNL     1      -4.795  50.491 -21.064  1.00  0.00     0.002 C 
HETATM   19  C17 UNL     1      -5.872  50.010 -20.101  1.00  0.00     0.009 C 
HETATM   20  C18 UNL     1      -7.033  49.568 -21.010  1.00  0.00     0.047 C 
HETATM   21  C19 UNL     1      -6.513  49.640 -22.477  1.00  0.00     0.128 C 
ENDROOT
BRANCH  21  22
HETATM   22  O3  UNL     1      -6.864  50.936 -22.970  1.00  0.00    -0.381 OA
HETATM   23  H25 UNL     1      -7.844  50.967 -23.011  1.00  0.00     0.211 HD
ENDBRANCH  21  22
BRANCH  21  24
HETATM   24  C20 UNL     1      -7.133  48.528 -23.362  1.00  0.00     0.185 C 
HETATM   25  O4  UNL     1      -8.303  48.159 -23.212  1.00  0.00    -0.292 OA
BRANCH  24  26
HETATM   26  C21 UNL     1      -6.248  47.812 -24.394  1.00  0.00     0.260 C 
BRANCH  26  27
HETATM   27  O5  UNL     1      -5.669  48.491 -25.499  1.00  0.00    -0.314 OA
BRANCH  27  28
HETATM   28  C22 UNL     1      -5.868  47.907 -26.711  1.00  0.00     0.259 C 
HETATM   29  O6  UNL     1      -6.876  47.286 -27.024  1.00  0.00    -0.265 OA
BRANCH  28  30
HETATM   30  C23 UNL     1      -4.691  48.178 -27.617  1.00  0.00     0.120 C 
BRANCH  30  31
HETATM   31  C24 UNL     1      -3.471  48.621 -26.816  1.00  0.00     0.112 C 
BRANCH  31  32
HETATM   32  C25 UNL     1      -2.874  49.897 -27.381  1.00  0.00     0.218 C 
HETATM   33  O7  UNL     1      -3.236  50.380 -28.449  1.00  0.00    -0.274 OA
HETATM   34  N1  UNL     1      -1.885  50.436 -26.590  1.00  0.00    -0.357 N 
HETATM   35  H32 UNL     1      -1.735  50.043 -25.668  1.00  0.00     0.162 HD
BRANCH  34  36
HETATM   36  C26 UNL     1      -1.404  51.784 -26.802  1.00  0.00     0.161 C 
BRANCH  36  37
HETATM   37  C27 UNL     1       0.096  51.783 -26.942  1.00  0.00    -0.038 A 
HETATM   38  C28 UNL     1       0.708  52.028 -28.174  1.00  0.00     0.025 A 
HETATM   39  C29 UNL     1       2.092  51.972 -28.250  1.00  0.00     0.088 A 
HETATM   40  N2  UNL     1       2.894  51.683 -27.203  1.00  0.00    -0.375 N 
HETATM   41  C30 UNL     1       2.284  51.440 -26.023  1.00  0.00     0.088 A 
ATOM     42  H2  UNL     1       3.909  51.651 -27.298  1.00  0.00     0.164 HD
HETATM   43  C31 UNL     1       0.910  51.485 -25.844  1.00  0.00     0.025 A 
ENDBRANCH  36  37
ENDBRANCH  34  36
ENDBRANCH  31  32
ENDBRANCH  30  31
ENDBRANCH  28  30
ENDBRANCH  27  28
ENDBRANCH  26  27
ENDBRANCH  24  26
ENDBRANCH  21  24
TORSDOF 10
ENDMDL
MODEL 2
REMARK minimizedAffinity -9.79815388
REMARK CNNscore 0.583203554
REMARK CNNaffinity 7.710392
REMARK  10 active torsions:
REMARK  status: ('A' for Active; 'I' for Inactive)
REMARK    1  A    between atoms: C19_21  and  O3_22 
REMARK    2  A    between atoms: C19_21  and  C20_23 
REMARK    3  A    between atoms: C20_23  and  C21_25 
REMARK    4  A    between atoms: C21_25  and  O5_26 
REMARK    5  A    between atoms: O5_26  and  C22_27 
REMARK    6  A    between atoms: C22_27  and  C23_29 
REMARK    7  A    between atoms: C23_29  and  C24_30 
REMARK    8  A    between atoms: C24_30  and  C25_31 
REMARK       I    between atoms: C25_31  and  N1_33 
REMARK    9  A    between atoms: N1_33  and  C26_34 
REMARK   10  A    between atoms: C26_34  and  C27_35 
ROOT
HETATM    1  C1  UNL     1      -4.386  51.067 -24.584  1.00  0.00     0.021 C 
HETATM    2  C2  UNL     1      -3.698  49.684 -24.643  1.00  0.00    -0.009 C 
HETATM    3  C3  UNL     1      -2.486  49.744 -25.622  1.00  0.00     0.022 C 
HETATM    4  C4  UNL     1      -2.879  49.808 -27.091  1.00  0.00     0.084 C 
HETATM    5  C5  UNL     1      -3.776  48.651 -27.442  1.00  0.00     0.149 C 
HETATM    6  O1  UNL     1      -3.785  48.139 -28.558  1.00  0.00    -0.293 OA
HETATM    7  C6  UNL     1      -4.734  48.180 -26.416  1.00  0.00     0.053 C 
HETATM    8  C7  UNL     1      -4.735  48.673 -25.166  1.00  0.00    -0.067 C 
HETATM    9  C8  UNL     1      -5.821  48.251 -24.204  1.00  0.00     0.035 C 
HETATM   10  C9  UNL     1      -5.250  47.786 -22.869  1.00  0.00     0.010 C 
HETATM   11  C10 UNL     1      -4.338  48.854 -22.252  1.00  0.00     0.003 C 
HETATM   12  C11 UNL     1      -3.185  49.204 -23.237  1.00  0.00     0.072 C 
HETATM   13  C12 UNL     1      -2.173  50.135 -22.542  1.00  0.00     0.133 C 
HETATM   14  O2  UNL     1      -1.747  51.173 -23.044  1.00  0.00    -0.297 OA
HETATM   15  C13 UNL     1      -1.645  49.682 -21.187  1.00  0.00     0.091 C 
HETATM   16  C14 UNL     1      -2.820  49.418 -20.238  1.00  0.00     0.005 C 
HETATM   17  C15 UNL     1      -3.545  50.757 -19.934  1.00  0.00     0.019 C 
HETATM   18  C16 UNL     1      -3.736  48.370 -20.926  1.00  0.00     0.002 C 
HETATM   19  C17 UNL     1      -4.692  47.945 -19.820  1.00  0.00     0.009 C 
HETATM   20  C18 UNL     1      -3.850  48.018 -18.533  1.00  0.00     0.047 C 
HETATM   21  C19 UNL     1      -2.483  48.658 -18.921  1.00  0.00     0.128 C 
ENDROOT
BRANCH  21  22
HETATM   22  O3  UNL     1      -1.597  47.577 -19.221  1.00  0.00    -0.381 OA
HETATM   23  H25 UNL     1      -1.456  47.087 -18.382  1.00  0.00     0.211 HD
ENDBRANCH  21  22
BRANCH  21  24
HETATM   24  C20 UNL     1      -1.915  49.536 -17.776  1.00  0.00     0.185 C 
HETATM   25  O4  UNL     1      -2.625  49.916 -16.839  1.00  0.00    -0.292 OA
BRANCH  24  26
HETATM   26  C21 UNL     1      -0.455  50.011 -17.851  1.00  0.00     0.260 C 
BRANCH  26  27
HETATM   27  O5  UNL     1      -0.008  50.938 -18.829  1.00  0.00    -0.314 OA
BRANCH  27  28
HETATM   28  C22 UNL     1       0.422  52.134 -18.344  1.00  0.00     0.259 C 
HETATM   29  O6  UNL     1       0.763  52.330 -17.185  1.00  0.00    -0.265 OA
BRANCH  28  30
HETATM   30  C23 UNL     1       0.458  53.160 -19.451  1.00  0.00     0.120 C 
BRANCH  30  31
HETATM   31  C24 UNL     1       0.730  52.503 -20.801  1.00  0.00     0.112 C 
BRANCH  31  32
HETATM   32  C25 UNL     1       1.040  53.538 -21.867  1.00  0.00     0.218 C 
HETATM   33  O7  UNL     1       1.800  54.481 -21.670  1.00  0.00    -0.274 OA
HETATM   34  N1  UNL     1       0.375  53.321 -23.051  1.00  0.00    -0.357 N 
HETATM   35  H32 UNL     1      -0.135  52.453 -23.168  1.00  0.00     0.162 HD
BRANCH  34  36
HETATM   36  C26 UNL     1       0.754  54.015 -24.264  1.00  0.00     0.161 C 
BRANCH  36  37
HETATM   37  C27 UNL     1       0.572  53.111 -25.456  1.00  0.00    -0.038 A 
HETATM   38  C28 UNL     1       1.012  51.785 -25.433  1.00  0.00     0.025 A 
HETATM   39  C29 UNL     1       0.856  51.014 -26.575  1.00  0.00     0.088 A 
HETATM   40  N2  UNL     1       0.310  51.469 -27.724  1.00  0.00    -0.375 N 
HETATM   41  C30 UNL     1      -0.100  52.755 -27.730  1.00  0.00     0.088 A 
ATOM     42  H2  UNL     1       0.212  50.871 -28.544  1.00  0.00     0.164 HD
HETATM   43  C31 UNL     1       0.001  53.600 -26.635  1.00  0.00     0.025 A 
ENDBRANCH  36  37
ENDBRANCH  34  36
ENDBRANCH  31  32
ENDBRANCH  30  31
ENDBRANCH  28  30
ENDBRANCH  27  28
ENDBRANCH  26  27
ENDBRANCH  24  26
ENDBRANCH  21  24
TORSDOF 10
ENDMDL
MODEL 3
REMARK minimizedAffinity -8.37497711
REMARK CNNscore 0.560254097
REMARK CNNaffinity 6.73344469
REMARK  10 active torsions:
REMARK  status: ('A' for Active; 'I' for Inactive)
REMARK    1  A    between atoms: C19_21  and  O3_22 
REMARK    2  A    between atoms: C19_21  and  C20_23 
REMARK    3  A    between atoms: C20_23  and  C21_25 
REMARK    4  A    between atoms: C21_25  and  O5_26 
REMARK    5  A    between atoms: O5_26  and  C22_27 
REMARK    6  A    between atoms: C22_27  and  C23_29 
REMARK    7  A    between atoms: C23_29  and  C24_30 
REMARK    8  A    between atoms: C24_30  and  C25_31 
REMARK       I    between atoms: C25_31  and  N1_33 
REMARK    9  A    between atoms: N1_33  and  C26_34 
REMARK   10  A    between atoms: C26_34  and  C27_35 
ROOT
HETATM    1  C1  UNL     1      -9.696  44.305 -33.852  1.00  0.00     0.021 C 
HETATM    2  C2  UNL     1     -10.131  45.787 -33.921  1.00  0.00    -0.009 C 
HETATM    3  C3  UNL     1     -11.681  45.871 -34.073  1.00  0.00     0.022 C 
HETATM    4  C4  UNL     1     -12.189  45.474 -35.451  1.00  0.00     0.084 C 
HETATM    5  C5  UNL     1     -11.516  46.301 -36.514  1.00  0.00     0.149 C 
HETATM    6  O1  UNL     1     -12.074  46.607 -37.564  1.00  0.00    -0.293 OA
HETATM    7  C6  UNL     1     -10.100  46.680 -36.304  1.00  0.00     0.053 C 
HETATM    8  C7  UNL     1      -9.456  46.412 -35.156  1.00  0.00    -0.067 C 
HETATM    9  C8  UNL     1      -7.977  46.703 -35.050  1.00  0.00     0.035 C 
HETATM   10  C9  UNL     1      -7.643  47.504 -33.797  1.00  0.00     0.010 C 
HETATM   11  C10 UNL     1      -8.169  46.810 -32.535  1.00  0.00     0.003 C 
HETATM   12  C11 UNL     1      -9.707  46.601 -32.644  1.00  0.00     0.072 C 
HETATM   13  C12 UNL     1     -10.256  46.074 -31.304  1.00  0.00     0.133 C 
HETATM   14  O2  UNL     1     -11.008  45.107 -31.209  1.00  0.00    -0.297 OA
HETATM   15  C13 UNL     1      -9.876  46.858 -30.054  1.00  0.00     0.091 C 
HETATM   16  C14 UNL     1      -8.350  46.973 -29.962  1.00  0.00     0.005 C 
HETATM   17  C15 UNL     1      -7.742  45.564 -29.726  1.00  0.00     0.019 C 
HETATM   18  C16 UNL     1      -7.862  47.636 -31.278  1.00  0.00     0.002 C 
HETATM   19  C17 UNL     1      -6.409  47.985 -30.990  1.00  0.00     0.009 C 
HETATM   20  C18 UNL     1      -6.385  48.333 -29.490  1.00  0.00     0.047 C 
HETATM   21  C19 UNL     1      -7.798  47.996 -28.925  1.00  0.00     0.128 C 
ENDROOT
BRANCH  21  22
HETATM   22  O3  UNL     1      -8.567  49.199 -29.004  1.00  0.00    -0.381 OA
HETATM   23  H25 UNL     1      -8.155  49.839 -28.384  1.00  0.00     0.211 HD
ENDBRANCH  21  22
BRANCH  21  24
HETATM   24  C20 UNL     1      -7.725  47.484 -27.464  1.00  0.00     0.185 C 
HETATM   25  O4  UNL     1      -8.726  47.057 -26.877  1.00  0.00    -0.292 OA
BRANCH  24  26
HETATM   26  C21 UNL     1      -6.396  47.586 -26.699  1.00  0.00     0.260 C 
BRANCH  26  27
HETATM   27  O5  UNL     1      -6.333  47.991 -25.339  1.00  0.00    -0.314 OA
BRANCH  27  28
HETATM   28  C22 UNL     1      -5.089  48.299 -24.881  1.00  0.00     0.259 C 
HETATM   29  O6  UNL     1      -4.699  48.086 -23.740  1.00  0.00    -0.265 OA
BRANCH  28  30
HETATM   30  C23 UNL     1      -4.258  48.892 -25.992  1.00  0.00     0.120 C 
BRANCH  30  31
HETATM   31  C24 UNL     1      -2.768  48.797 -25.676  1.00  0.00     0.112 C 
BRANCH  31  32
HETATM   32  C25 UNL     1      -2.210  50.138 -25.239  1.00  0.00     0.218 C 
HETATM   33  O7  UNL     1      -1.985  50.409 -24.064  1.00  0.00    -0.274 OA
HETATM   34  N1  UNL     1      -2.003  51.012 -26.282  1.00  0.00    -0.357 N 
HETATM   35  H32 UNL     1      -2.098  50.665 -27.229  1.00  0.00     0.162 HD
BRANCH  34  36
HETATM   36  C26 UNL     1      -1.215  52.213 -26.111  1.00  0.00     0.161 C 
BRANCH  36  37
HETATM   37  C27 UNL     1       0.204  51.970 -26.554  1.00  0.00    -0.038 A 
HETATM   38  C28 UNL     1       1.189  51.575 -25.645  1.00  0.00     0.025 A 
HETATM   39  C29 UNL     1       2.487  51.407 -26.103  1.00  0.00     0.088 A 
HETATM   40  N2  UNL     1       2.868  51.612 -27.383  1.00  0.00    -0.375 N 
HETATM   41  C30 UNL     1       1.904  52.003 -28.244  1.00  0.00     0.088 A 
ATOM     42  H2  UNL     1       3.833  51.479 -27.683  1.00  0.00     0.164 HD
HETATM   43  C31 UNL     1       0.578  52.185 -27.885  1.00  0.00     0.025 A 
ENDBRANCH  36  37
ENDBRANCH  34  36
ENDBRANCH  31  32
ENDBRANCH  30  31
ENDBRANCH  28  30
ENDBRANCH  27  28
ENDBRANCH  26  27
ENDBRANCH  24  26
ENDBRANCH  21  24
TORSDOF 10
ENDMDL
MODEL 4
REMARK minimizedAffinity -8.77429962
REMARK CNNscore 0.463831604
REMARK CNNaffinity 6.34177542
REMARK  10 active torsions:
REMARK  status: ('A' for Active; 'I' for Inactive)
REMARK    1  A    between atoms: C19_21  and  O3_22 
REMARK    2  A    between atoms: C19_21  and  C20_23 
REMARK    3  A    between atoms: C20_23  and  C21_25 
REMARK    4  A    between atoms: C21_25  and  O5_26 
REMARK    5  A    between atoms: O5_26  and  C22_27 
REMARK    6  A    between atoms: C22_27  and  C23_29 
REMARK    7  A    between atoms: C23_29  and  C24_30 
REMARK    8  A    between atoms: C24_30  and  C25_31 
REMARK       I    between atoms: C25_31  and  N1_33 
REMARK    9  A    between atoms: N1_33  and  C26_34 
REMARK   10  A    between atoms: C26_34  and  C27_35 
ROOT
HETATM    1  C1  UNL     1      -0.752  50.313 -25.488  1.00  0.00     0.021 C 
HETATM    2  C2  UNL     1      -1.312  51.683 -25.042  1.00  0.00    -0.009 C 
HETATM    3  C3  UNL     1      -2.585  52.023 -25.876  1.00  0.00     0.022 C 
HETATM    4  C4  UNL     1      -2.295  52.412 -27.318  1.00  0.00     0.084 C 
HETATM    5  C5  UNL     1      -1.321  53.559 -27.364  1.00  0.00     0.149 C 
HETATM    6  O1  UNL     1      -1.337  54.402 -28.255  1.00  0.00    -0.293 OA
HETATM    7  C6  UNL     1      -0.259  53.608 -26.332  1.00  0.00     0.053 C 
HETATM    8  C7  UNL     1      -0.223  52.739 -25.309  1.00  0.00    -0.067 C 
HETATM    9  C8  UNL     1       0.956  52.754 -24.364  1.00  0.00     0.035 C 
HETATM   10  C9  UNL     1       0.517  52.798 -22.906  1.00  0.00     0.010 C 
HETATM   11  C10 UNL     1      -0.447  51.651 -22.579  1.00  0.00     0.003 C 
HETATM   12  C11 UNL     1      -1.688  51.715 -23.516  1.00  0.00     0.072 C 
HETATM   13  C12 UNL     1      -2.734  50.678 -23.064  1.00  0.00     0.133 C 
HETATM   14  O2  UNL     1      -3.285  49.888 -23.828  1.00  0.00    -0.297 OA
HETATM   15  C13 UNL     1      -3.130  50.703 -21.593  1.00  0.00     0.091 C 
HETATM   16  C14 UNL     1      -1.878  50.567 -20.720  1.00  0.00     0.005 C 
HETATM   17  C15 UNL     1      -1.260  49.157 -20.923  1.00  0.00     0.019 C 
HETATM   18  C16 UNL     1      -0.916  51.718 -21.119  1.00  0.00     0.002 C 
HETATM   19  C17 UNL     1       0.144  51.698 -20.027  1.00  0.00     0.009 C 
HETATM   20  C18 UNL     1      -0.616  51.269 -18.759  1.00  0.00     0.047 C 
HETATM   21  C19 UNL     1      -2.058  50.880 -19.205  1.00  0.00     0.128 C 
ENDROOT
BRANCH  21  22
HETATM   22  O3  UNL     1      -2.859  52.056 -19.065  1.00  0.00    -0.381 OA
HETATM   23  H25 UNL     1      -2.900  52.257 -18.105  1.00  0.00     0.211 HD
ENDBRANCH  21  22
BRANCH  21  24
HETATM   24  C20 UNL     1      -2.630  49.719 -18.351  1.00  0.00     0.185 C 
HETATM   25  O4  UNL     1      -3.342  48.840 -18.849  1.00  0.00    -0.292 OA
BRANCH  24  26
HETATM   26  C21 UNL     1      -2.372  49.705 -16.836  1.00  0.00     0.260 C 
BRANCH  26  27
HETATM   27  O5  UNL     1      -2.534  50.862 -16.029  1.00  0.00    -0.314 OA
BRANCH  27  28
HETATM   28  C22 UNL     1      -1.636  50.996 -15.016  1.00  0.00     0.259 C 
HETATM   29  O6  UNL     1      -0.500  50.540 -15.032  1.00  0.00    -0.265 OA
BRANCH  28  30
HETATM   30  C23 UNL     1      -2.230  51.823 -13.901  1.00  0.00     0.120 C 
BRANCH  30  31
HETATM   31  C24 UNL     1      -3.151  50.981 -13.023  1.00  0.00     0.112 C 
BRANCH  31  32
HETATM   32  C25 UNL     1      -3.702  51.792 -11.864  1.00  0.00     0.218 C 
HETATM   33  O7  UNL     1      -4.438  51.308 -11.010  1.00  0.00    -0.274 OA
HETATM   34  N1  UNL     1      -3.310  53.111 -11.884  1.00  0.00    -0.357 N 
HETATM   35  H32 UNL     1      -2.605  53.396 -12.553  1.00  0.00     0.162 HD
BRANCH  34  36
HETATM   36  C26 UNL     1      -3.486  53.964 -10.728  1.00  0.00     0.161 C 
BRANCH  36  37
HETATM   37  C27 UNL     1      -2.186  54.092  -9.977  1.00  0.00    -0.038 A 
HETATM   38  C28 UNL     1      -1.209  55.011 -10.373  1.00  0.00     0.025 A 
HETATM   39  C29 UNL     1      -0.015  55.054  -9.669  1.00  0.00     0.088 A 
HETATM   40  N2  UNL     1       0.273  54.252  -8.621  1.00  0.00    -0.375 N 
HETATM   41  C30 UNL     1      -0.679  53.365  -8.260  1.00  0.00     0.088 A 
ATOM     42  H2  UNL     1       1.163  54.313  -8.128  1.00  0.00     0.164 HD
HETATM   43  C31 UNL     1      -1.908  53.254  -8.892  1.00  0.00     0.025 A 
ENDBRANCH  36  37
ENDBRANCH  34  36
ENDBRANCH  31  32
ENDBRANCH  30  31
ENDBRANCH  28  30
ENDBRANCH  27  28
ENDBRANCH  26  27
ENDBRANCH  24  26
ENDBRANCH  21  24
TORSDOF 10
ENDMDL
MODEL 5
REMARK minimizedAffinity -8.29806614
REMARK CNNscore 0.424541295
REMARK CNNaffinity 6.47148085
REMARK  10 active torsions:
REMARK  status: ('A' for Active; 'I' for Inactive)
REMARK    1  A    between atoms: C19_21  and  O3_22 
REMARK    2  A    between atoms: C19_21  and  C20_23 
REMARK    3  A    between atoms: C20_23  and  C21_25 
REMARK    4  A    between atoms: C21_25  and  O5_26 
REMARK    5  A    between atoms: O5_26  and  C22_27 
REMARK    6  A    between atoms: C22_27  and  C23_29 
REMARK    7  A    between atoms: C23_29  and  C24_30 
REMARK    8  A    between atoms: C24_30  and  C25_31 
REMARK       I    between atoms: C25_31  and  N1_33 
REMARK    9  A    between atoms: N1_33  and  C26_34 
REMARK   10  A    between atoms: C26_34  and  C27_35 
ROOT
HETATM    1  C1  UNL     1      -2.085  52.749 -24.406  1.00  0.00     0.021 C 
HETATM    2  C2  UNL     1      -1.108  51.552 -24.451  1.00  0.00    -0.009 C 
HETATM    3  C3  UNL     1       0.353  52.075 -24.608  1.00  0.00     0.022 C 
HETATM    4  C4  UNL     1       0.671  52.616 -25.994  1.00  0.00     0.084 C 
HETATM    5  C5  UNL     1       0.376  51.575 -27.041  1.00  0.00     0.149 C 
HETATM    6  O1  UNL     1       1.013  51.493 -28.087  1.00  0.00    -0.293 OA
HETATM    7  C6  UNL     1      -0.781  50.678 -26.819  1.00  0.00     0.053 C 
HETATM    8  C7  UNL     1      -1.483  50.693 -25.673  1.00  0.00    -0.067 C 
HETATM    9  C8  UNL     1      -2.732  49.852 -25.558  1.00  0.00     0.035 C 
HETATM   10  C9  UNL     1      -2.732  49.005 -24.291  1.00  0.00     0.010 C 
HETATM   11  C10 UNL     1      -2.522  49.870 -23.042  1.00  0.00     0.003 C 
HETATM   12  C11 UNL     1      -1.185  50.659 -23.160  1.00  0.00     0.072 C 
HETATM   13  C12 UNL     1      -0.889  51.381 -21.831  1.00  0.00     0.133 C 
HETATM   14  O2  UNL     1      -0.574  52.566 -21.755  1.00  0.00    -0.297 OA
HETATM   15  C13 UNL     1      -0.938  50.532 -20.567  1.00  0.00     0.091 C 
HETATM   16  C14 UNL     1      -2.300  49.833 -20.467  1.00  0.00     0.005 C 
HETATM   17  C15 UNL     1      -3.409  50.899 -20.253  1.00  0.00     0.019 C 
HETATM   18  C16 UNL     1      -2.487  49.011 -21.771  1.00  0.00     0.002 C 
HETATM   19  C17 UNL     1      -3.691  48.129 -21.471  1.00  0.00     0.009 C 
HETATM   20  C18 UNL     1      -3.582  47.825 -19.966  1.00  0.00     0.047 C 
HETATM   21  C19 UNL     1      -2.413  48.694 -19.411  1.00  0.00     0.128 C 
ENDROOT
BRANCH  21  22
HETATM   22  O3  UNL     1      -1.237  47.884 -19.473  1.00  0.00    -0.381 OA
HETATM   23  H25 UNL     1      -1.370  47.145 -18.841  1.00  0.00     0.211 HD
ENDBRANCH  21  22
BRANCH  21  24
HETATM   24  C20 UNL     1      -2.684  49.162 -17.959  1.00  0.00     0.185 C 
HETATM   25  O4  UNL     1      -3.167  50.274 -17.716  1.00  0.00    -0.292 OA
BRANCH  24  26
HETATM   26  C21 UNL     1      -2.268  48.255 -16.789  1.00  0.00     0.260 C 
BRANCH  26  27
HETATM   27  O5  UNL     1      -2.832  48.384 -15.492  1.00  0.00    -0.314 OA
BRANCH  27  28
HETATM   28  C22 UNL     1      -1.959  48.233 -14.460  1.00  0.00     0.259 C 
HETATM   29  O6  UNL     1      -0.823  47.790 -14.572  1.00  0.00    -0.265 OA
BRANCH  28  30
HETATM   30  C23 UNL     1      -2.579  48.732 -13.178  1.00  0.00     0.120 C 
BRANCH  30  31
HETATM   31  C24 UNL     1      -2.043  47.965 -11.972  1.00  0.00     0.112 C 
BRANCH  31  32
HETATM   32  C25 UNL     1      -2.082  48.814 -10.715  1.00  0.00     0.218 C 
HETATM   33  O7  UNL     1      -1.080  49.058 -10.052  1.00  0.00    -0.274 OA
HETATM   34  N1  UNL     1      -3.344  49.259 -10.394  1.00  0.00    -0.357 N 
HETATM   35  H32 UNL     1      -4.093  49.115 -11.061  1.00  0.00     0.162 HD
BRANCH  34  36
HETATM   36  C26 UNL     1      -3.545  50.306  -9.416  1.00  0.00     0.161 C 
BRANCH  36  37
HETATM   37  C27 UNL     1      -3.394  51.658 -10.065  1.00  0.00    -0.038 A 
HETATM   38  C28 UNL     1      -2.609  52.657  -9.483  1.00  0.00     0.025 A 
HETATM   39  C29 UNL     1      -2.542  53.894 -10.104  1.00  0.00     0.088 A 
HETATM   40  N2  UNL     1      -3.201  54.204 -11.242  1.00  0.00    -0.375 N 
HETATM   41  C30 UNL     1      -3.961  53.229 -11.784  1.00  0.00     0.088 A 
ATOM     42  H2  UNL     1      -3.127  55.127 -11.670  1.00  0.00     0.164 HD
HETATM   43  C31 UNL     1      -4.082  51.958 -11.245  1.00  0.00     0.025 A 
ENDBRANCH  36  37
ENDBRANCH  34  36
ENDBRANCH  31  32
ENDBRANCH  30  31
ENDBRANCH  28  30
ENDBRANCH  27  28
ENDBRANCH  26  27
ENDBRANCH  24  26
ENDBRANCH  21  24
TORSDOF 10
ENDMDL
MODEL 6
REMARK minimizedAffinity -8.03629208
REMARK CNNscore 0.410536289
REMARK CNNaffinity 6.5208621
REMARK  10 active torsions:
REMARK  status: ('A' for Active; 'I' for Inactive)
REMARK    1  A    between atoms: C19_21  and  O3_22 
REMARK    2  A    between atoms: C19_21  and  C20_23 
REMARK    3  A    between atoms: C20_23  and  C21_25 
REMARK    4  A    between atoms: C21_25  and  O5_26 
REMARK    5  A    between atoms: O5_26  and  C22_27 
REMARK    6  A    between atoms: C22_27  and  C23_29 
REMARK    7  A    between atoms: C23_29  and  C24_30 
REMARK    8  A    between atoms: C24_30  and  C25_31 
REMARK       I    between atoms: C25_31  and  N1_33 
REMARK    9  A    between atoms: N1_33  and  C26_34 
REMARK   10  A    between atoms: C26_34  and  C27_35 
ROOT
HETATM    1  C1  UNL     1      -1.954  52.922 -24.449  1.00  0.00     0.021 C 
HETATM    2  C2  UNL     1      -1.136  51.652 -24.775  1.00  0.00    -0.009 C 
HETATM    3  C3  UNL     1       0.315  52.053 -25.181  1.00  0.00     0.022 C 
HETATM    4  C4  UNL     1       0.418  52.689 -26.559  1.00  0.00     0.084 C 
HETATM    5  C5  UNL     1      -0.180  51.780 -27.600  1.00  0.00     0.149 C 
HETATM    6  O1  UNL     1       0.232  51.739 -28.755  1.00  0.00    -0.293 OA
HETATM    7  C6  UNL     1      -1.363  50.975 -27.218  1.00  0.00     0.053 C 
HETATM    8  C7  UNL     1      -1.827  50.947 -25.958  1.00  0.00    -0.067 C 
HETATM    9  C8  UNL     1      -3.114  50.214 -25.657  1.00  0.00     0.035 C 
HETATM   10  C9  UNL     1      -2.962  49.257 -24.482  1.00  0.00     0.010 C 
HETATM   11  C10 UNL     1      -2.426  49.980 -23.239  1.00  0.00     0.003 C 
HETATM   12  C11 UNL     1      -1.061  50.653 -23.563  1.00  0.00     0.072 C 
HETATM   13  C12 UNL     1      -0.441  51.219 -22.271  1.00  0.00     0.133 C 
HETATM   14  O2  UNL     1       0.008  52.358 -22.172  1.00  0.00    -0.297 OA
HETATM   15  C13 UNL     1      -0.338  50.264 -21.088  1.00  0.00     0.091 C 
HETATM   16  C14 UNL     1      -1.722  49.684 -20.771  1.00  0.00     0.005 C 
HETATM   17  C15 UNL     1      -2.649  50.821 -20.262  1.00  0.00     0.019 C 
HETATM   18  C16 UNL     1      -2.241  49.007 -22.067  1.00  0.00     0.002 C 
HETATM   19  C17 UNL     1      -3.453  48.213 -21.599  1.00  0.00     0.009 C 
HETATM   20  C18 UNL     1      -3.091  47.761 -20.172  1.00  0.00     0.047 C 
HETATM   21  C19 UNL     1      -1.752  48.467 -19.800  1.00  0.00     0.128 C 
ENDROOT
BRANCH  21  22
HETATM   22  O3  UNL     1      -0.703  47.563 -20.154  1.00  0.00    -0.381 OA
HETATM   23  H25 UNL     1      -0.790  46.784 -19.564  1.00  0.00     0.211 HD
ENDBRANCH  21  22
BRANCH  21  24
HETATM   24  C20 UNL     1      -1.689  48.820 -18.292  1.00  0.00     0.185 C 
HETATM   25  O4  UNL     1      -0.618  49.077 -17.731  1.00  0.00    -0.292 OA
BRANCH  24  26
HETATM   26  C21 UNL     1      -2.978  48.771 -17.456  1.00  0.00     0.260 C 
BRANCH  26  27
HETATM   27  O5  UNL     1      -3.057  49.325 -16.150  1.00  0.00    -0.314 OA
BRANCH  27  28
HETATM   28  C22 UNL     1      -3.023  50.683 -16.091  1.00  0.00     0.259 C 
HETATM   29  O6  UNL     1      -3.178  51.423 -17.054  1.00  0.00    -0.265 OA
BRANCH  28  30
HETATM   30  C23 UNL     1      -2.815  51.136 -14.666  1.00  0.00     0.120 C 
BRANCH  30  31
HETATM   31  C24 UNL     1      -2.162  50.039 -13.830  1.00  0.00     0.112 C 
BRANCH  31  32
HETATM   32  C25 UNL     1      -1.022  50.588 -12.993  1.00  0.00     0.218 C 
HETATM   33  O7  UNL     1      -0.137  49.874 -12.533  1.00  0.00    -0.274 OA
HETATM   34  N1  UNL     1      -1.096  51.947 -12.791  1.00  0.00    -0.357 N 
HETATM   35  H32 UNL     1      -1.789  52.476 -13.308  1.00  0.00     0.162 HD
BRANCH  34  36
HETATM   36  C26 UNL     1       0.033  52.693 -12.277  1.00  0.00     0.161 C 
BRANCH  36  37
HETATM   37  C27 UNL     1      -0.295  53.255 -10.917  1.00  0.00    -0.038 A 
HETATM   38  C28 UNL     1      -0.605  54.607 -10.749  1.00  0.00     0.025 A 
HETATM   39  C29 UNL     1      -0.856  55.076  -9.469  1.00  0.00     0.088 A 
HETATM   40  N2  UNL     1      -0.810  54.305  -8.360  1.00  0.00    -0.375 N 
HETATM   41  C30 UNL     1      -0.499  53.004  -8.542  1.00  0.00     0.088 A 
ATOM     42  H2  UNL     1      -1.001  54.687  -7.433  1.00  0.00     0.164 HD
HETATM   43  C31 UNL     1      -0.245  52.440  -9.782  1.00  0.00     0.025 A 
ENDBRANCH  36  37
ENDBRANCH  34  36
ENDBRANCH  31  32
ENDBRANCH  30  31
ENDBRANCH  28  30
ENDBRANCH  27  28
ENDBRANCH  26  27
ENDBRANCH  24  26
ENDBRANCH  21  24
TORSDOF 10
ENDMDL
MODEL 7
REMARK minimizedAffinity -8.44357681
REMARK CNNscore 0.39084965
REMARK CNNaffinity 6.11325884
REMARK  10 active torsions:
REMARK  status: ('A' for Active; 'I' for Inactive)
REMARK    1  A    between atoms: C19_21  and  O3_22 
REMARK    2  A    between atoms: C19_21  and  C20_23 
REMARK    3  A    between atoms: C20_23  and  C21_25 
REMARK    4  A    between atoms: C21_25  and  O5_26 
REMARK    5  A    between atoms: O5_26  and  C22_27 
REMARK    6  A    between atoms: C22_27  and  C23_29 
REMARK    7  A    between atoms: C23_29  and  C24_30 
REMARK    8  A    between atoms: C24_30  and  C25_31 
REMARK       I    between atoms: C25_31  and  N1_33 
REMARK    9  A    between atoms: N1_33  and  C26_34 
REMARK   10  A    between atoms: C26_34  and  C27_35 
ROOT
HETATM    1  C1  UNL     1      -0.067  49.805 -20.932  1.00  0.00     0.021 C 
HETATM    2  C2  UNL     1      -0.879  51.115 -21.053  1.00  0.00    -0.009 C 
HETATM    3  C3  UNL     1      -0.341  51.954 -22.253  1.00  0.00     0.022 C 
HETATM    4  C4  UNL     1       1.010  52.606 -21.995  1.00  0.00     0.084 C 
HETATM    5  C5  UNL     1       0.952  53.453 -20.752  1.00  0.00     0.149 C 
HETATM    6  O1  UNL     1       1.627  54.469 -20.615  1.00  0.00    -0.293 OA
HETATM    7  C6  UNL     1       0.108  52.981 -19.631  1.00  0.00     0.053 C 
HETATM    8  C7  UNL     1      -0.686  51.903 -19.744  1.00  0.00    -0.067 C 
HETATM    9  C8  UNL     1      -1.421  51.393 -18.527  1.00  0.00     0.035 C 
HETATM   10  C9  UNL     1      -2.904  51.179 -18.806  1.00  0.00     0.010 C 
HETATM   11  C10 UNL     1      -3.116  50.259 -20.016  1.00  0.00     0.003 C 
HETATM   12  C11 UNL     1      -2.414  50.857 -21.269  1.00  0.00     0.072 C 
HETATM   13  C12 UNL     1      -2.783  50.029 -22.515  1.00  0.00     0.133 C 
HETATM   14  O2  UNL     1      -1.958  49.615 -23.327  1.00  0.00    -0.297 OA
HETATM   15  C13 UNL     1      -4.267  49.783 -22.758  1.00  0.00     0.091 C 
HETATM   16  C14 UNL     1      -4.891  49.132 -21.518  1.00  0.00     0.005 C 
HETATM   17  C15 UNL     1      -4.296  47.710 -21.332  1.00  0.00     0.019 C 
HETATM   18  C16 UNL     1      -4.610  50.074 -20.317  1.00  0.00     0.002 C 
HETATM   19  C17 UNL     1      -5.499  49.523 -19.211  1.00  0.00     0.009 C 
HETATM   20  C18 UNL     1      -6.744  48.991 -19.944  1.00  0.00     0.047 C 
HETATM   21  C19 UNL     1      -6.447  49.092 -21.471  1.00  0.00     0.128 C 
ENDROOT
BRANCH  21  22
HETATM   22  O3  UNL     1      -6.958  50.355 -21.903  1.00  0.00    -0.381 OA
HETATM   23  H25 UNL     1      -7.934  50.315 -21.803  1.00  0.00     0.211 HD
ENDBRANCH  21  22
BRANCH  21  24
HETATM   24  C20 UNL     1      -7.105  47.932 -22.261  1.00  0.00     0.185 C 
HETATM   25  O4  UNL     1      -7.526  46.919 -21.692  1.00  0.00    -0.292 OA
BRANCH  24  26
HETATM   26  C21 UNL     1      -7.161  48.007 -23.795  1.00  0.00     0.260 C 
BRANCH  26  27
HETATM   27  O5  UNL     1      -7.741  49.108 -24.480  1.00  0.00    -0.314 OA
BRANCH  27  28
HETATM   28  C22 UNL     1      -8.726  48.791 -25.363  1.00  0.00     0.259 C 
HETATM   29  O6  UNL     1      -9.695  49.501 -25.605  1.00  0.00    -0.265 OA
BRANCH  28  30
HETATM   30  C23 UNL     1      -8.424  47.469 -26.025  1.00  0.00     0.120 C 
BRANCH  30  31
HETATM   31  C24 UNL     1      -9.666  46.584 -26.079  1.00  0.00     0.112 C 
BRANCH  31  32
HETATM   32  C25 UNL     1     -10.521  46.904 -27.292  1.00  0.00     0.218 C 
HETATM   33  O7  UNL     1     -10.207  46.566 -28.428  1.00  0.00    -0.274 OA
HETATM   34  N1  UNL     1     -11.657  47.618 -26.988  1.00  0.00    -0.357 N 
HETATM   35  H32 UNL     1     -11.901  47.748 -26.014  1.00  0.00     0.162 HD
BRANCH  34  36
HETATM   36  C26 UNL     1     -12.731  47.764 -27.947  1.00  0.00     0.161 C 
BRANCH  36  37
HETATM   37  C27 UNL     1     -13.797  46.731 -27.692  1.00  0.00    -0.038 A 
HETATM   38  C28 UNL     1     -14.249  45.890 -28.712  1.00  0.00     0.025 A 
HETATM   39  C29 UNL     1     -15.263  44.988 -28.427  1.00  0.00     0.088 A 
HETATM   40  N2  UNL     1     -15.856  44.874 -27.218  1.00  0.00    -0.375 N 
HETATM   41  C30 UNL     1     -15.412  45.702 -26.248  1.00  0.00     0.088 A 
ATOM     42  H2  UNL     1     -16.599  44.198 -27.047  1.00  0.00     0.164 HD
HETATM   43  C31 UNL     1     -14.396  46.627 -26.432  1.00  0.00     0.025 A 
ENDBRANCH  36  37
ENDBRANCH  34  36
ENDBRANCH  31  32
ENDBRANCH  30  31
ENDBRANCH  28  30
ENDBRANCH  27  28
ENDBRANCH  26  27
ENDBRANCH  24  26
ENDBRANCH  21  24
TORSDOF 10
ENDMDL
MODEL 8
REMARK minimizedAffinity -8.16724968
REMARK CNNscore 0.387919933
REMARK CNNaffinity 6.67306471
REMARK  10 active torsions:
REMARK  status: ('A' for Active; 'I' for Inactive)
REMARK    1  A    between atoms: C19_21  and  O3_22 
REMARK    2  A    between atoms: C19_21  and  C20_23 
REMARK    3  A    between atoms: C20_23  and  C21_25 
REMARK    4  A    between atoms: C21_25  and  O5_26 
REMARK    5  A    between atoms: O5_26  and  C22_27 
REMARK    6  A    between atoms: C22_27  and  C23_29 
REMARK    7  A    between atoms: C23_29  and  C24_30 
REMARK    8  A    between atoms: C24_30  and  C25_31 
REMARK       I    between atoms: C25_31  and  N1_33 
REMARK    9  A    between atoms: N1_33  and  C26_34 
REMARK   10  A    between atoms: C26_34  and  C27_35 
ROOT
HETATM    1  C1  UNL     1      -0.801  50.263 -25.465  1.00  0.00     0.021 C 
HETATM    2  C2  UNL     1      -1.415  51.615 -25.032  1.00  0.00    -0.009 C 
HETATM    3  C3  UNL     1      -2.751  51.852 -25.799  1.00  0.00     0.022 C 
HETATM    4  C4  UNL     1      -2.568  52.204 -27.268  1.00  0.00     0.084 C 
HETATM    5  C5  UNL     1      -1.667  53.401 -27.410  1.00  0.00     0.149 C 
HETATM    6  O1  UNL     1      -1.784  54.210 -28.326  1.00  0.00    -0.293 OA
HETATM    7  C6  UNL     1      -0.553  53.548 -26.446  1.00  0.00     0.053 C 
HETATM    8  C7  UNL     1      -0.406  52.720 -25.398  1.00  0.00    -0.067 C 
HETATM    9  C8  UNL     1       0.823  52.837 -24.527  1.00  0.00     0.035 C 
HETATM   10  C9  UNL     1       0.466  52.909 -23.047  1.00  0.00     0.010 C 
HETATM   11  C10 UNL     1      -0.408  51.721 -22.625  1.00  0.00     0.003 C 
HETATM   12  C11 UNL     1      -1.703  51.681 -23.488  1.00  0.00     0.072 C 
HETATM   13  C12 UNL     1      -2.658  50.603 -22.941  1.00  0.00     0.133 C 
HETATM   14  O2  UNL     1      -3.205  49.757 -23.644  1.00  0.00    -0.297 OA
HETATM   15  C13 UNL     1      -2.970  50.659 -21.450  1.00  0.00     0.091 C 
HETATM   16  C14 UNL     1      -1.663  50.627 -20.649  1.00  0.00     0.005 C 
HETATM   17  C15 UNL     1      -0.976  49.247 -20.842  1.00  0.00     0.019 C 
HETATM   18  C16 UNL     1      -0.795  51.815 -21.143  1.00  0.00     0.002 C 
HETATM   19  C17 UNL     1       0.326  51.895 -20.116  1.00  0.00     0.009 C 
HETATM   20  C18 UNL     1      -0.333  51.470 -18.791  1.00  0.00     0.047 C 
HETATM   21  C19 UNL     1      -1.773  50.984 -19.137  1.00  0.00     0.128 C 
ENDROOT
BRANCH  21  22
HETATM   22  O3  UNL     1      -2.633  52.117 -18.989  1.00  0.00    -0.381 OA
HETATM   23  H25 UNL     1      -2.630  52.350 -18.035  1.00  0.00     0.211 HD
ENDBRANCH  21  22
BRANCH  21  24
HETATM   24  C20 UNL     1      -2.226  49.825 -18.213  1.00  0.00     0.185 C 
HETATM   25  O4  UNL     1      -3.419  49.535 -18.076  1.00  0.00    -0.292 OA
BRANCH  24  26
HETATM   26  C21 UNL     1      -1.172  49.070 -17.387  1.00  0.00     0.260 C 
BRANCH  26  27
HETATM   27  O5  UNL     1      -1.259  48.952 -15.974  1.00  0.00    -0.314 OA
BRANCH  27  28
HETATM   28  C22 UNL     1      -0.924  50.069 -15.274  1.00  0.00     0.259 C 
HETATM   29  O6  UNL     1      -1.588  51.098 -15.251  1.00  0.00    -0.265 OA
BRANCH  28  30
HETATM   30  C23 UNL     1       0.352  49.836 -14.503  1.00  0.00     0.120 C 
BRANCH  30  31
HETATM   31  C24 UNL     1       1.111  51.142 -14.286  1.00  0.00     0.112 C 
BRANCH  31  32
HETATM   32  C25 UNL     1       1.421  51.363 -12.817  1.00  0.00     0.218 C 
HETATM   33  O7  UNL     1       1.479  50.443 -12.009  1.00  0.00    -0.274 OA
HETATM   34  N1  UNL     1       1.607  52.687 -12.491  1.00  0.00    -0.357 N 
HETATM   35  H32 UNL     1       1.663  53.367 -13.239  1.00  0.00     0.162 HD
BRANCH  34  36
HETATM   36  C26 UNL     1       2.190  53.073 -11.224  1.00  0.00     0.161 C 
BRANCH  36  37
HETATM   37  C27 UNL     1       1.203  53.885 -10.425  1.00  0.00    -0.038 A 
HETATM   38  C28 UNL     1      -0.002  54.315 -10.986  1.00  0.00     0.025 A 
HETATM   39  C29 UNL     1      -0.852  55.095 -10.216  1.00  0.00     0.088 A 
HETATM   40  N2  UNL     1      -0.583  55.479  -8.949  1.00  0.00    -0.375 N 
HETATM   41  C30 UNL     1       0.591  55.062  -8.428  1.00  0.00     0.088 A 
ATOM     42  H2  UNL     1      -1.233  56.054  -8.413  1.00  0.00     0.164 HD
HETATM   43  C31 UNL     1       1.499  54.269  -9.113  1.00  0.00     0.025 A 
ENDBRANCH  36  37
ENDBRANCH  34  36
ENDBRANCH  31  32
ENDBRANCH  30  31
ENDBRANCH  28  30
ENDBRANCH  27  28
ENDBRANCH  26  27
ENDBRANCH  24  26
ENDBRANCH  21  24
TORSDOF 10
ENDMDL
MODEL 9
REMARK minimizedAffinity -7.9141717
REMARK CNNscore 0.362957716
REMARK CNNaffinity 6.54111528
REMARK  10 active torsions:
REMARK  status: ('A' for Active; 'I' for Inactive)
REMARK    1  A    between atoms: C19_21  and  O3_22 
REMARK    2  A    between atoms: C19_21  and  C20_23 
REMARK    3  A    between atoms: C20_23  and  C21_25 
REMARK    4  A    between atoms: C21_25  and  O5_26 
REMARK    5  A    between atoms: O5_26  and  C22_27 
REMARK    6  A    between atoms: C22_27  and  C23_29 
REMARK    7  A    between atoms: C23_29  and  C24_30 
REMARK    8  A    between atoms: C24_30  and  C25_31 
REMARK       I    between atoms: C25_31  and  N1_33 
REMARK    9  A    between atoms: N1_33  and  C26_34 
REMARK   10  A    between atoms: C26_34  and  C27_35 
ROOT
HETATM    1  C1  UNL     1      -2.090  52.682 -24.119  1.00  0.00     0.021 C 
HETATM    2  C2  UNL     1      -1.111  51.485 -24.148  1.00  0.00    -0.009 C 
HETATM    3  C3  UNL     1       0.356  52.011 -24.197  1.00  0.00     0.022 C 
HETATM    4  C4  UNL     1       0.758  52.599 -25.541  1.00  0.00     0.084 C 
HETATM    5  C5  UNL     1       0.527  51.597 -26.640  1.00  0.00     0.149 C 
HETATM    6  O1  UNL     1       1.225  51.550 -27.649  1.00  0.00    -0.293 OA
HETATM    7  C6  UNL     1      -0.642  50.695 -26.521  1.00  0.00     0.053 C 
HETATM    8  C7  UNL     1      -1.412  50.671 -25.420  1.00  0.00    -0.067 C 
HETATM    9  C8  UNL     1      -2.666  49.829 -25.410  1.00  0.00     0.035 C 
HETATM   10  C9  UNL     1      -2.742  48.937 -24.176  1.00  0.00     0.010 C 
HETATM   11  C10 UNL     1      -2.608  49.757 -22.887  1.00  0.00     0.003 C 
HETATM   12  C11 UNL     1      -1.267  50.547 -22.896  1.00  0.00     0.072 C 
HETATM   13  C12 UNL     1      -1.052  51.220 -21.527  1.00  0.00     0.133 C 
HETATM   14  O2  UNL     1      -0.741  52.401 -21.389  1.00  0.00    -0.297 OA
HETATM   15  C13 UNL     1      -1.177  50.327 -20.299  1.00  0.00     0.091 C 
HETATM   16  C14 UNL     1      -2.542  49.628 -20.307  1.00  0.00     0.005 C 
HETATM   17  C15 UNL     1      -3.662  50.687 -20.121  1.00  0.00     0.019 C 
HETATM   18  C16 UNL     1      -2.650  48.853 -21.647  1.00  0.00     0.002 C 
HETATM   19  C17 UNL     1      -3.870  47.963 -21.452  1.00  0.00     0.009 C 
HETATM   20  C18 UNL     1      -3.852  47.606 -19.955  1.00  0.00     0.047 C 
HETATM   21  C19 UNL     1      -2.719  48.452 -19.301  1.00  0.00     0.128 C 
ENDROOT
BRANCH  21  22
HETATM   22  O3  UNL     1      -1.541  47.642 -19.320  1.00  0.00    -0.381 OA
HETATM   23  H25 UNL     1      -1.712  46.881 -18.724  1.00  0.00     0.211 HD
ENDBRANCH  21  22
BRANCH  21  24
HETATM   24  C20 UNL     1      -3.077  48.869 -17.851  1.00  0.00     0.185 C 
HETATM   25  O4  UNL     1      -4.229  48.765 -17.414  1.00  0.00    -0.292 OA
BRANCH  24  26
HETATM   26  C21 UNL     1      -1.993  49.500 -16.963  1.00  0.00     0.260 C 
BRANCH  26  27
HETATM   27  O5  UNL     1      -2.274  50.565 -16.066  1.00  0.00    -0.314 OA
BRANCH  27  28
HETATM   28  C22 UNL     1      -2.037  50.298 -14.753  1.00  0.00     0.259 C 
HETATM   29  O6  UNL     1      -1.909  49.174 -14.286  1.00  0.00    -0.265 OA
BRANCH  28  30
HETATM   30  C23 UNL     1      -1.913  51.586 -13.976  1.00  0.00     0.120 C 
BRANCH  30  31
HETATM   31  C24 UNL     1      -3.283  52.106 -13.550  1.00  0.00     0.112 C 
BRANCH  31  32
HETATM   32  C25 UNL     1      -3.243  52.680 -12.146  1.00  0.00     0.218 C 
HETATM   33  O7  UNL     1      -4.238  52.749 -11.432  1.00  0.00    -0.274 OA
HETATM   34  N1  UNL     1      -1.996  53.126 -11.772  1.00  0.00    -0.357 N 
HETATM   35  H32 UNL     1      -1.208  52.920 -12.373  1.00  0.00     0.162 HD
BRANCH  34  36
HETATM   36  C26 UNL     1      -1.691  53.432 -10.391  1.00  0.00     0.161 C 
BRANCH  36  37
HETATM   37  C27 UNL     1      -0.575  52.548  -9.898  1.00  0.00    -0.038 A 
HETATM   38  C28 UNL     1       0.178  52.892  -8.773  1.00  0.00     0.025 A 
HETATM   39  C29 UNL     1       1.220  52.060  -8.392  1.00  0.00     0.088 A 
HETATM   40  N2  UNL     1       1.565  50.932  -9.051  1.00  0.00    -0.375 N 
HETATM   41  C30 UNL     1       0.831  50.621 -10.141  1.00  0.00     0.088 A 
ATOM     42  H2  UNL     1       2.339  50.345  -8.741  1.00  0.00     0.164 HD
HETATM   43  C31 UNL     1      -0.236  51.382 -10.593  1.00  0.00     0.025 A 
ENDBRANCH  36  37
ENDBRANCH  34  36
ENDBRANCH  31  32
ENDBRANCH  30  31
ENDBRANCH  28  30
ENDBRANCH  27  28
ENDBRANCH  26  27
ENDBRANCH  24  26
ENDBRANCH  21  24
TORSDOF 10
ENDMDL
