MODEL 1
REMARK minimizedAffinity -10.428194
REMARK  6 active torsions:
REMARK  status: ('A' for Active; 'I' for Inactive)
REMARK    1  A    between atoms: C2_2  and  C3_3 
REMARK    2  A    between atoms: C3_3  and  C4_4 
REMARK    3  A    between atoms: C3_3  and  C27_28 
REMARK    4  A    between atoms: C5_5  and  C6_6 
REMARK    5  A    between atoms: C6_6  and  C8_8 
REMARK    6  A    between atoms: C16_16  and  O1_17 
ROOT
HETATM    1  C8  UNL     1      -2.440  49.676 -24.645  1.00  0.00    -0.002 C 
HETATM    2  C9  UNL     1      -2.065  51.004 -23.954  1.00  0.00     0.040 C 
HETATM    3  C10 UNL     1      -1.806  50.554 -22.545  1.00  0.00    -0.068 C 
HETATM    4  C11 UNL     1      -0.738  50.862 -21.788  1.00  0.00    -0.072 C 
HETATM    5  C12 UNL     1       0.193  52.019 -22.049  1.00  0.00     0.035 C 
HETATM    6  C13 UNL     1       0.261  52.924 -20.811  1.00  0.00     0.010 C 
HETATM    7  C14 UNL     1       0.593  52.128 -19.535  1.00  0.00    -0.003 C 
HETATM    8  C15 UNL     1       0.755  53.045 -18.318  1.00  0.00     0.037 C 
HETATM    9  C16 UNL     1       1.208  52.251 -17.093  1.00  0.00     0.118 C 
HETATM   10  C17 UNL     1       0.299  51.059 -16.803  1.00  0.00     0.032 C 
HETATM   11  C18 UNL     1       0.092  50.167 -18.030  1.00  0.00     0.012 C 
HETATM   12  C19 UNL     1      -0.410  50.943 -19.278  1.00  0.00    -0.033 C 
HETATM   13  C20 UNL     1      -1.843  51.454 -18.998  1.00  0.00     0.016 C 
HETATM   14  C21 UNL     1      -0.364  50.043 -20.562  1.00  0.00     0.023 C 
HETATM   15  C22 UNL     1      -1.067  48.669 -20.546  1.00  0.00     0.011 C 
HETATM   16  C23 UNL     1      -2.539  48.692 -20.934  1.00  0.00     0.014 C 
HETATM   17  C24 UNL     1      -2.842  49.510 -22.203  1.00  0.00    -0.020 C 
HETATM   18  C25 UNL     1      -4.240  50.149 -22.016  1.00  0.00     0.020 C 
HETATM   19  C26 UNL     1      -2.823  48.691 -23.503  1.00  0.00     0.019 C 
ENDROOT
BRANCH   1  20
HETATM   20  C6  UNL     1      -3.518  49.831 -25.746  1.00  0.00     0.008 C 
HETATM   21  C7  UNL     1      -4.411  48.585 -25.826  1.00  0.00     0.014 C 
BRANCH  20  22
HETATM   22  C5  UNL     1      -2.884  50.044 -27.105  1.00  0.00    -0.026 C 
HETATM   23  C4  UNL     1      -1.763  50.724 -27.405  1.00  0.00    -0.025 C 
BRANCH  23  24
HETATM   24  C3  UNL     1      -0.810  51.431 -26.462  1.00  0.00     0.011 C 
BRANCH  24  25
HETATM   25  C2  UNL     1       0.592  50.773 -26.512  1.00  0.00     0.004 C 
HETATM   26  C1  UNL     1       1.687  51.709 -27.009  1.00  0.00     0.006 C 
ENDBRANCH  24  25
BRANCH  24  27
HETATM   27  C27 UNL     1      -0.708  52.961 -26.742  1.00  0.00    -0.015 C 
HETATM   28  C28 UNL     1      -0.152  53.251 -28.140  1.00  0.00     0.010 C 
HETATM   29  C29 UNL     1       0.100  53.742 -25.699  1.00  0.00     0.010 C 
ENDBRANCH  24  27
ENDBRANCH  23  24
ENDBRANCH  20  22
ENDBRANCH   1  20
BRANCH   9  30
HETATM   30  O1  UNL     1       1.227  53.124 -15.968  1.00  0.00    -0.396 OA
HETATM   31  H24 UNL     1       1.520  52.606 -15.199  1.00  0.00     0.210 HD
ENDBRANCH   9  30
TORSDOF 6
ENDMDL
MODEL 2
REMARK minimizedAffinity -9.47738457
REMARK  6 active torsions:
REMARK  status: ('A' for Active; 'I' for Inactive)
REMARK    1  A    between atoms: C2_2  and  C3_3 
REMARK    2  A    between atoms: C3_3  and  C4_4 
REMARK    3  A    between atoms: C3_3  and  C27_28 
REMARK    4  A    between atoms: C5_5  and  C6_6 
REMARK    5  A    between atoms: C6_6  and  C8_8 
REMARK    6  A    between atoms: C16_16  and  O1_17 
ROOT
HETATM    1  C8  UNL     1      -1.630  50.475 -24.501  1.00  0.00    -0.002 C 
HETATM    2  C9  UNL     1      -1.171  51.691 -23.668  1.00  0.00     0.040 C 
HETATM    3  C10 UNL     1      -1.178  51.129 -22.276  1.00  0.00    -0.068 C 
HETATM    4  C11 UNL     1      -0.194  51.230 -21.364  1.00  0.00    -0.072 C 
HETATM    5  C12 UNL     1       0.919  52.246 -21.413  1.00  0.00     0.035 C 
HETATM    6  C13 UNL     1       0.941  53.060 -20.112  1.00  0.00     0.010 C 
HETATM    7  C14 UNL     1       0.975  52.153 -18.868  1.00  0.00    -0.003 C 
HETATM    8  C15 UNL     1       1.093  52.966 -17.574  1.00  0.00     0.037 C 
HETATM    9  C16 UNL     1       1.251  52.046 -16.364  1.00  0.00     0.118 C 
HETATM   10  C17 UNL     1       0.151  50.990 -16.286  1.00  0.00     0.032 C 
HETATM   11  C18 UNL     1      -0.007  50.210 -17.594  1.00  0.00     0.012 C 
HETATM   12  C19 UNL     1      -0.213  51.120 -18.834  1.00  0.00    -0.033 C 
HETATM   13  C20 UNL     1      -1.585  51.825 -18.706  1.00  0.00     0.016 C 
HETATM   14  C21 UNL     1      -0.116  50.297 -20.166  1.00  0.00     0.023 C 
HETATM   15  C22 UNL     1      -1.002  49.046 -20.345  1.00  0.00     0.011 C 
HETATM   16  C23 UNL     1      -2.387  49.313 -20.920  1.00  0.00     0.014 C 
HETATM   17  C24 UNL     1      -2.390  50.236 -22.152  1.00  0.00    -0.020 C 
HETATM   18  C25 UNL     1      -3.695  51.067 -22.101  1.00  0.00     0.020 C 
HETATM   19  C26 UNL     1      -2.306  49.497 -23.496  1.00  0.00     0.019 C 
ENDROOT
BRANCH   1  20
HETATM   20  C6  UNL     1      -2.510  50.852 -25.718  1.00  0.00     0.008 C 
HETATM   21  C7  UNL     1      -3.998  50.870 -25.341  1.00  0.00     0.014 C 
BRANCH  20  22
HETATM   22  C5  UNL     1      -2.324  49.867 -26.853  1.00  0.00    -0.026 C 
HETATM   23  C4  UNL     1      -3.057  48.776 -27.139  1.00  0.00    -0.025 C 
BRANCH  23  24
HETATM   24  C3  UNL     1      -4.288  48.255 -26.424  1.00  0.00     0.011 C 
BRANCH  24  25
HETATM   25  C2  UNL     1      -4.503  49.013 -25.090  1.00  0.00     0.004 C 
HETATM   26  C1  UNL     1      -5.281  48.213 -24.053  1.00  0.00     0.006 C 
ENDBRANCH  24  25
BRANCH  24  27
HETATM   27  C27 UNL     1      -5.572  48.323 -27.307  1.00  0.00    -0.015 C 
HETATM   28  C28 UNL     1      -6.667  47.379 -26.797  1.00  0.00     0.010 C 
HETATM   29  C29 UNL     1      -5.327  48.064 -28.798  1.00  0.00     0.010 C 
ENDBRANCH  24  27
ENDBRANCH  23  24
ENDBRANCH  20  22
ENDBRANCH   1  20
BRANCH   9  30
HETATM   30  O1  UNL     1       1.236  52.842 -15.184  1.00  0.00    -0.396 OA
HETATM   31  H24 UNL     1       1.343  52.243 -14.424  1.00  0.00     0.210 HD
ENDBRANCH   9  30
TORSDOF 6
ENDMDL
MODEL 3
REMARK minimizedAffinity -9.46631145
REMARK  6 active torsions:
REMARK  status: ('A' for Active; 'I' for Inactive)
REMARK    1  A    between atoms: C2_2  and  C3_3 
REMARK    2  A    between atoms: C3_3  and  C4_4 
REMARK    3  A    between atoms: C3_3  and  C27_28 
REMARK    4  A    between atoms: C5_5  and  C6_6 
REMARK    5  A    between atoms: C6_6  and  C8_8 
REMARK    6  A    between atoms: C16_16  and  O1_17 
ROOT
HETATM    1  C8  UNL     1      -0.725  51.273 -18.891  1.00  0.00    -0.002 C 
HETATM    2  C9  UNL     1       0.282  51.488 -20.041  1.00  0.00     0.040 C 
HETATM    3  C10 UNL     1      -0.615  51.453 -21.245  1.00  0.00    -0.068 C 
HETATM    4  C11 UNL     1      -0.635  52.339 -22.256  1.00  0.00    -0.072 C 
HETATM    5  C12 UNL     1       0.484  53.297 -22.580  1.00  0.00     0.035 C 
HETATM    6  C13 UNL     1       0.934  53.102 -24.034  1.00  0.00     0.010 C 
HETATM    7  C14 UNL     1      -0.251  53.169 -25.015  1.00  0.00    -0.003 C 
HETATM    8  C15 UNL     1       0.212  53.069 -26.474  1.00  0.00     0.037 C 
HETATM    9  C16 UNL     1      -0.962  53.264 -27.433  1.00  0.00     0.118 C 
HETATM   10  C17 UNL     1      -2.125  52.323 -27.129  1.00  0.00     0.032 C 
HETATM   11  C18 UNL     1      -2.558  52.379 -25.661  1.00  0.00     0.012 C 
HETATM   12  C19 UNL     1      -1.391  52.141 -24.665  1.00  0.00    -0.033 C 
HETATM   13  C20 UNL     1      -0.910  50.677 -24.809  1.00  0.00     0.016 C 
HETATM   14  C21 UNL     1      -1.827  52.458 -23.192  1.00  0.00     0.023 C 
HETATM   15  C22 UNL     1      -3.087  51.775 -22.616  1.00  0.00     0.011 C 
HETATM   16  C23 UNL     1      -2.848  50.415 -21.975  1.00  0.00     0.014 C 
HETATM   17  C24 UNL     1      -1.647  50.375 -21.013  1.00  0.00    -0.020 C 
HETATM   18  C25 UNL     1      -1.017  48.965 -21.120  1.00  0.00     0.020 C 
HETATM   19  C26 UNL     1      -2.001  50.668 -19.546  1.00  0.00     0.019 C 
ENDROOT
BRANCH   1  20
HETATM   20  C6  UNL     1      -0.156  50.445 -17.714  1.00  0.00     0.008 C 
HETATM   21  C7  UNL     1      -0.834  49.070 -17.624  1.00  0.00     0.014 C 
BRANCH  20  22
HETATM   22  C5  UNL     1      -0.363  51.158 -16.393  1.00  0.00    -0.026 C 
HETATM   23  C4  UNL     1       0.565  51.532 -15.493  1.00  0.00    -0.025 C 
BRANCH  23  24
HETATM   24  C3  UNL     1       2.071  51.373 -15.573  1.00  0.00     0.011 C 
BRANCH  24  25
HETATM   25  C2  UNL     1       2.673  52.394 -16.569  1.00  0.00     0.004 C 
HETATM   26  C1  UNL     1       4.021  52.953 -16.129  1.00  0.00     0.006 C 
ENDBRANCH  24  25
BRANCH  24  27
HETATM   27  C27 UNL     1       2.763  51.490 -14.180  1.00  0.00    -0.015 C 
HETATM   28  C28 UNL     1       3.654  50.279 -13.882  1.00  0.00     0.010 C 
HETATM   29  C29 UNL     1       1.797  51.714 -13.011  1.00  0.00     0.010 C 
ENDBRANCH  24  27
ENDBRANCH  23  24
ENDBRANCH  20  22
ENDBRANCH   1  20
BRANCH   9  30
HETATM   30  O1  UNL     1      -0.502  53.044 -28.762  1.00  0.00    -0.396 OA
HETATM   31  H24 UNL     1      -1.259  53.176 -29.360  1.00  0.00     0.210 HD
ENDBRANCH   9  30
TORSDOF 6
ENDMDL
MODEL 4
REMARK minimizedAffinity -9.43921757
REMARK  6 active torsions:
REMARK  status: ('A' for Active; 'I' for Inactive)
REMARK    1  A    between atoms: C2_2  and  C3_3 
REMARK    2  A    between atoms: C3_3  and  C4_4 
REMARK    3  A    between atoms: C3_3  and  C27_28 
REMARK    4  A    between atoms: C5_5  and  C6_6 
REMARK    5  A    between atoms: C6_6  and  C8_8 
REMARK    6  A    between atoms: C16_16  and  O1_17 
ROOT
HETATM    1  C8  UNL     1      -2.780  48.893 -23.621  1.00  0.00    -0.002 C 
HETATM    2  C9  UNL     1      -2.274  50.245 -23.076  1.00  0.00     0.040 C 
HETATM    3  C10 UNL     1      -2.036  49.922 -21.629  1.00  0.00    -0.068 C 
HETATM    4  C11 UNL     1      -0.933  50.207 -20.914  1.00  0.00    -0.072 C 
HETATM    5  C12 UNL     1       0.097  51.238 -21.301  1.00  0.00     0.035 C 
HETATM    6  C13 UNL     1       0.268  52.256 -20.166  1.00  0.00     0.010 C 
HETATM    7  C14 UNL     1       0.544  51.570 -18.815  1.00  0.00    -0.003 C 
HETATM    8  C15 UNL     1       0.809  52.590 -17.702  1.00  0.00     0.037 C 
HETATM    9  C16 UNL     1       1.204  51.890 -16.402  1.00  0.00     0.118 C 
HETATM   10  C17 UNL     1       0.194  50.825 -15.983  1.00  0.00     0.032 C 
HETATM   11  C18 UNL     1      -0.114  49.833 -17.109  1.00  0.00     0.012 C 
HETATM   12  C19 UNL     1      -0.560  50.518 -18.428  1.00  0.00    -0.033 C 
HETATM   13  C20 UNL     1      -1.936  51.187 -18.196  1.00  0.00     0.016 C 
HETATM   14  C21 UNL     1      -0.617  49.489 -19.611  1.00  0.00     0.023 C 
HETATM   15  C22 UNL     1      -1.444  48.196 -19.446  1.00  0.00     0.011 C 
HETATM   16  C23 UNL     1      -2.914  48.316 -19.827  1.00  0.00     0.014 C 
HETATM   17  C24 UNL     1      -3.159  49.021 -21.173  1.00  0.00    -0.020 C 
HETATM   18  C25 UNL     1      -4.489  49.804 -21.047  1.00  0.00     0.020 C 
HETATM   19  C26 UNL     1      -3.236  48.073 -22.380  1.00  0.00     0.019 C 
ENDROOT
BRANCH   1  20
HETATM   20  C6  UNL     1      -3.856  49.032 -24.726  1.00  0.00     0.008 C 
HETATM   21  C7  UNL     1      -5.144  48.289 -24.343  1.00  0.00     0.014 C 
BRANCH  20  22
HETATM   22  C5  UNL     1      -3.363  48.470 -26.044  1.00  0.00    -0.026 C 
HETATM   23  C4  UNL     1      -2.906  49.140 -27.118  1.00  0.00    -0.025 C 
BRANCH  23  24
HETATM   24  C3  UNL     1      -2.729  50.636 -27.288  1.00  0.00     0.011 C 
BRANCH  24  25
HETATM   25  C2  UNL     1      -3.474  51.403 -26.168  1.00  0.00     0.004 C 
HETATM   26  C1  UNL     1      -2.746  52.656 -25.699  1.00  0.00     0.006 C 
ENDBRANCH  24  25
BRANCH  24  27
HETATM   27  C27 UNL     1      -1.230  51.063 -27.342  1.00  0.00    -0.015 C 
HETATM   28  C28 UNL     1      -0.469  50.639 -26.082  1.00  0.00     0.010 C 
HETATM   29  C29 UNL     1      -1.008  52.559 -27.594  1.00  0.00     0.010 C 
ENDBRANCH  24  27
ENDBRANCH  23  24
ENDBRANCH  20  22
ENDBRANCH   1  20
BRANCH   9  30
HETATM   30  O1  UNL     1       1.321  52.870 -15.376  1.00  0.00    -0.396 OA
HETATM   31  H24 UNL     1       1.577  52.410 -14.558  1.00  0.00     0.210 HD
ENDBRANCH   9  30
TORSDOF 6
ENDMDL
MODEL 5
REMARK minimizedAffinity -9.12427425
REMARK  6 active torsions:
REMARK  status: ('A' for Active; 'I' for Inactive)
REMARK    1  A    between atoms: C2_2  and  C3_3 
REMARK    2  A    between atoms: C3_3  and  C4_4 
REMARK    3  A    between atoms: C3_3  and  C27_28 
REMARK    4  A    between atoms: C5_5  and  C6_6 
REMARK    5  A    between atoms: C6_6  and  C8_8 
REMARK    6  A    between atoms: C16_16  and  O1_17 
ROOT
HETATM    1  C8  UNL     1      -2.182  50.962 -18.791  1.00  0.00    -0.002 C 
HETATM    2  C9  UNL     1      -1.052  50.855 -19.837  1.00  0.00     0.040 C 
HETATM    3  C10 UNL     1      -1.802  51.060 -21.121  1.00  0.00    -0.068 C 
HETATM    4  C11 UNL     1      -1.469  51.895 -22.121  1.00  0.00    -0.072 C 
HETATM    5  C12 UNL     1      -0.095  52.481 -22.327  1.00  0.00     0.035 C 
HETATM    6  C13 UNL     1       0.413  52.138 -23.734  1.00  0.00     0.010 C 
HETATM    7  C14 UNL     1      -0.603  52.527 -24.823  1.00  0.00    -0.003 C 
HETATM    8  C15 UNL     1      -0.055  52.272 -26.231  1.00  0.00     0.037 C 
HETATM    9  C16 UNL     1      -1.026  52.781 -27.296  1.00  0.00     0.118 C 
HETATM   10  C17 UNL     1      -2.436  52.223 -27.113  1.00  0.00     0.032 C 
HETATM   11  C18 UNL     1      -2.969  52.429 -25.693  1.00  0.00     0.012 C 
HETATM   12  C19 UNL     1      -2.020  51.881 -24.593  1.00  0.00    -0.033 C 
HETATM   13  C20 UNL     1      -1.974  50.339 -24.705  1.00  0.00     0.016 C 
HETATM   14  C21 UNL     1      -2.483  52.337 -23.165  1.00  0.00     0.023 C 
HETATM   15  C22 UNL     1      -3.934  52.061 -22.719  1.00  0.00     0.011 C 
HETATM   16  C23 UNL     1      -4.162  50.701 -22.071  1.00  0.00     0.014 C 
HETATM   17  C24 UNL     1      -3.120  50.332 -20.999  1.00  0.00    -0.020 C 
HETATM   18  C25 UNL     1      -2.921  48.798 -21.060  1.00  0.00     0.020 C 
HETATM   19  C26 UNL     1      -3.511  50.742 -19.570  1.00  0.00     0.019 C 
ENDROOT
BRANCH   1  20
HETATM   20  C6  UNL     1      -1.991  50.026 -17.573  1.00  0.00     0.008 C 
HETATM   21  C7  UNL     1      -2.383  50.731 -16.265  1.00  0.00     0.014 C 
BRANCH  20  22
HETATM   22  C5  UNL     1      -0.550  49.575 -17.450  1.00  0.00    -0.026 C 
HETATM   23  C4  UNL     1       0.473  50.205 -16.844  1.00  0.00    -0.025 C 
BRANCH  23  24
HETATM   24  C3  UNL     1       0.454  51.520 -16.090  1.00  0.00     0.011 C 
BRANCH  24  25
HETATM   25  C2  UNL     1       0.771  51.291 -14.591  1.00  0.00     0.004 C 
HETATM   26  C1  UNL     1       0.018  52.232 -13.659  1.00  0.00     0.006 C 
ENDBRANCH  24  25
BRANCH  24  27
HETATM   27  C27 UNL     1       1.422  52.579 -16.700  1.00  0.00    -0.015 C 
HETATM   28  C28 UNL     1       1.261  52.692 -18.220  1.00  0.00     0.010 C 
HETATM   29  C29 UNL     1       2.900  52.355 -16.359  1.00  0.00     0.010 C 
ENDBRANCH  24  27
ENDBRANCH  23  24
ENDBRANCH  20  22
ENDBRANCH   1  20
BRANCH   9  30
HETATM   30  O1  UNL     1      -0.527  52.413 -28.578  1.00  0.00    -0.396 OA
HETATM   31  H24 UNL     1      -1.153  52.748 -29.244  1.00  0.00     0.210 HD
ENDBRANCH   9  30
TORSDOF 6
ENDMDL
MODEL 6
REMARK minimizedAffinity -8.83166504
REMARK  6 active torsions:
REMARK  status: ('A' for Active; 'I' for Inactive)
REMARK    1  A    between atoms: C2_2  and  C3_3 
REMARK    2  A    between atoms: C3_3  and  C4_4 
REMARK    3  A    between atoms: C3_3  and  C27_28 
REMARK    4  A    between atoms: C5_5  and  C6_6 
REMARK    5  A    between atoms: C6_6  and  C8_8 
REMARK    6  A    between atoms: C16_16  and  O1_17 
ROOT
HETATM    1  C8  UNL     1      -2.868  48.732 -23.999  1.00  0.00    -0.002 C 
HETATM    2  C9  UNL     1      -2.461  50.140 -23.517  1.00  0.00     0.040 C 
HETATM    3  C10 UNL     1      -2.112  49.884 -22.079  1.00  0.00    -0.068 C 
HETATM    4  C11 UNL     1      -1.002  50.290 -21.437  1.00  0.00    -0.072 C 
HETATM    5  C12 UNL     1      -0.097  51.400 -21.909  1.00  0.00     0.035 C 
HETATM    6  C13 UNL     1       0.040  52.463 -20.810  1.00  0.00     0.010 C 
HETATM    7  C14 UNL     1       0.456  51.846 -19.462  1.00  0.00    -0.003 C 
HETATM    8  C15 UNL     1       0.686  52.918 -18.391  1.00  0.00     0.037 C 
HETATM    9  C16 UNL     1       1.218  52.296 -17.101  1.00  0.00     0.118 C 
HETATM   10  C17 UNL     1       0.338  51.154 -16.598  1.00  0.00     0.032 C 
HETATM   11  C18 UNL     1       0.061  50.106 -17.679  1.00  0.00     0.012 C 
HETATM   12  C19 UNL     1      -0.521  50.707 -18.986  1.00  0.00    -0.033 C 
HETATM   13  C20 UNL     1      -1.938  51.253 -18.689  1.00  0.00     0.016 C 
HETATM   14  C21 UNL     1      -0.548  49.643 -20.138  1.00  0.00     0.023 C 
HETATM   15  C22 UNL     1      -1.239  48.284 -19.894  1.00  0.00     0.011 C 
HETATM   16  C23 UNL     1      -2.732  48.257 -20.190  1.00  0.00     0.014 C 
HETATM   17  C24 UNL     1      -3.119  48.897 -21.536  1.00  0.00    -0.020 C 
HETATM   18  C25 UNL     1      -4.507  49.556 -21.351  1.00  0.00     0.020 C 
HETATM   19  C26 UNL     1      -3.174  47.910 -22.713  1.00  0.00     0.019 C 
ENDROOT
BRANCH   1  20
HETATM   20  C6  UNL     1      -4.012  48.738 -25.041  1.00  0.00     0.008 C 
HETATM   21  C7  UNL     1      -3.593  49.478 -26.320  1.00  0.00     0.014 C 
BRANCH  20  22
HETATM   22  C5  UNL     1      -5.250  49.416 -24.490  1.00  0.00    -0.026 C 
HETATM   23  C4  UNL     1      -6.474  48.889 -24.299  1.00  0.00    -0.025 C 
BRANCH  23  24
HETATM   24  C3  UNL     1      -6.936  47.467 -24.549  1.00  0.00     0.011 C 
BRANCH  24  25
HETATM   25  C2  UNL     1      -7.585  46.874 -23.274  1.00  0.00     0.004 C 
HETATM   26  C1  UNL     1      -6.574  46.453 -22.215  1.00  0.00     0.006 C 
ENDBRANCH  24  25
BRANCH  24  27
HETATM   27  C27 UNL     1      -7.908  47.355 -25.763  1.00  0.00    -0.015 C 
HETATM   28  C28 UNL     1      -7.165  47.441 -27.101  1.00  0.00     0.010 C 
HETATM   29  C29 UNL     1      -9.056  48.371 -25.750  1.00  0.00     0.010 C 
ENDBRANCH  24  27
ENDBRANCH  23  24
ENDBRANCH  20  22
ENDBRANCH   1  20
BRANCH   9  30
HETATM   30  O1  UNL     1       1.300  53.313 -16.107  1.00  0.00    -0.396 OA
HETATM   31  H24 UNL     1       1.644  52.902 -15.295  1.00  0.00     0.210 HD
ENDBRANCH   9  30
TORSDOF 6
ENDMDL
MODEL 7
REMARK minimizedAffinity -8.82295418
REMARK  6 active torsions:
REMARK  status: ('A' for Active; 'I' for Inactive)
REMARK    1  A    between atoms: C2_2  and  C3_3 
REMARK    2  A    between atoms: C3_3  and  C4_4 
REMARK    3  A    between atoms: C3_3  and  C27_28 
REMARK    4  A    between atoms: C5_5  and  C6_6 
REMARK    5  A    between atoms: C6_6  and  C8_8 
REMARK    6  A    between atoms: C16_16  and  O1_17 
ROOT
HETATM    1  C8  UNL     1      -0.729  52.301 -21.606  1.00  0.00    -0.002 C 
HETATM    2  C9  UNL     1      -1.831  51.723 -22.519  1.00  0.00     0.040 C 
HETATM    3  C10 UNL     1      -2.650  50.927 -21.545  1.00  0.00    -0.068 C 
HETATM    4  C11 UNL     1      -3.988  50.956 -21.409  1.00  0.00    -0.072 C 
HETATM    5  C12 UNL     1      -4.945  51.478 -22.451  1.00  0.00     0.035 C 
HETATM    6  C13 UNL     1      -5.969  50.392 -22.810  1.00  0.00     0.010 C 
HETATM    7  C14 UNL     1      -6.658  49.817 -21.558  1.00  0.00    -0.003 C 
HETATM    8  C15 UNL     1      -7.747  48.802 -21.924  1.00  0.00     0.037 C 
HETATM    9  C16 UNL     1      -8.502  48.340 -20.678  1.00  0.00     0.118 C 
HETATM   10  C17 UNL     1      -7.567  47.819 -19.589  1.00  0.00     0.032 C 
HETATM   11  C18 UNL     1      -6.446  48.807 -19.257  1.00  0.00     0.012 C 
HETATM   12  C19 UNL     1      -5.634  49.260 -20.500  1.00  0.00    -0.033 C 
HETATM   13  C20 UNL     1      -4.849  48.043 -21.046  1.00  0.00     0.016 C 
HETATM   14  C21 UNL     1      -4.675  50.450 -20.150  1.00  0.00     0.023 C 
HETATM   15  C22 UNL     1      -3.690  50.303 -18.971  1.00  0.00     0.011 C 
HETATM   16  C23 UNL     1      -2.350  49.671 -19.324  1.00  0.00     0.014 C 
HETATM   17  C24 UNL     1      -1.694  50.254 -20.589  1.00  0.00    -0.020 C 
HETATM   18  C25 UNL     1      -0.927  49.102 -21.283  1.00  0.00     0.020 C 
HETATM   19  C26 UNL     1      -0.731  51.422 -20.321  1.00  0.00     0.019 C 
ENDROOT
BRANCH   1  20
HETATM   20  C6  UNL     1       0.651  52.421 -22.297  1.00  0.00     0.008 C 
HETATM   21  C7  UNL     1       1.714  52.955 -21.326  1.00  0.00     0.014 C 
BRANCH  20  22
HETATM   22  C5  UNL     1       0.588  53.357 -23.486  1.00  0.00    -0.026 C 
HETATM   23  C4  UNL     1       0.607  53.046 -24.795  1.00  0.00    -0.025 C 
BRANCH  23  24
HETATM   24  C3  UNL     1       0.663  51.673 -25.435  1.00  0.00     0.011 C 
BRANCH  24  25
HETATM   25  C2  UNL     1      -0.693  50.942 -25.272  1.00  0.00     0.004 C 
HETATM   26  C1  UNL     1      -1.223  50.344 -26.570  1.00  0.00     0.006 C 
ENDBRANCH  24  25
BRANCH  24  27
HETATM   27  C27 UNL     1       1.082  51.724 -26.936  1.00  0.00    -0.015 C 
HETATM   28  C28 UNL     1       2.601  51.609 -27.110  1.00  0.00     0.010 C 
HETATM   29  C29 UNL     1       0.573  52.956 -27.693  1.00  0.00     0.010 C 
ENDBRANCH  24  27
ENDBRANCH  23  24
ENDBRANCH  20  22
ENDBRANCH   1  20
BRANCH   9  30
HETATM   30  O1  UNL     1      -9.416  47.316 -21.056  1.00  0.00    -0.396 OA
HETATM   31  H24 UNL     1      -9.892  47.036 -20.254  1.00  0.00     0.210 HD
ENDBRANCH   9  30
TORSDOF 6
ENDMDL
MODEL 8
REMARK minimizedAffinity -8.71975517
REMARK  6 active torsions:
REMARK  status: ('A' for Active; 'I' for Inactive)
REMARK    1  A    between atoms: C2_2  and  C3_3 
REMARK    2  A    between atoms: C3_3  and  C4_4 
REMARK    3  A    between atoms: C3_3  and  C27_28 
REMARK    4  A    between atoms: C5_5  and  C6_6 
REMARK    5  A    between atoms: C6_6  and  C8_8 
REMARK    6  A    between atoms: C16_16  and  O1_17 
ROOT
HETATM    1  C8  UNL     1      -2.725  49.601 -24.944  1.00  0.00    -0.002 C 
HETATM    2  C9  UNL     1      -2.230  50.453 -23.757  1.00  0.00     0.040 C 
HETATM    3  C10 UNL     1      -2.588  49.585 -22.585  1.00  0.00    -0.068 C 
HETATM    4  C11 UNL     1      -1.787  49.252 -21.558  1.00  0.00    -0.072 C 
HETATM    5  C12 UNL     1      -0.529  49.991 -21.178  1.00  0.00     0.035 C 
HETATM    6  C13 UNL     1      -0.611  50.442 -19.713  1.00  0.00     0.010 C 
HETATM    7  C14 UNL     1      -0.960  49.274 -18.772  1.00  0.00    -0.003 C 
HETATM    8  C15 UNL     1      -0.948  49.705 -17.300  1.00  0.00     0.037 C 
HETATM    9  C16 UNL     1      -1.172  48.506 -16.379  1.00  0.00     0.118 C 
HETATM   10  C17 UNL     1      -2.430  47.720 -16.741  1.00  0.00     0.032 C 
HETATM   11  C18 UNL     1      -2.473  47.331 -18.221  1.00  0.00     0.012 C 
HETATM   12  C19 UNL     1      -2.291  48.538 -19.181  1.00  0.00    -0.033 C 
HETATM   13  C20 UNL     1      -3.523  49.464 -19.049  1.00  0.00     0.016 C 
HETATM   14  C21 UNL     1      -2.089  48.061 -20.662  1.00  0.00     0.023 C 
HETATM   15  C22 UNL     1      -3.124  47.107 -21.294  1.00  0.00     0.011 C 
HETATM   16  C23 UNL     1      -4.314  47.791 -21.954  1.00  0.00     0.014 C 
HETATM   17  C24 UNL     1      -3.935  48.965 -22.874  1.00  0.00    -0.020 C 
HETATM   18  C25 UNL     1      -5.068  50.014 -22.773  1.00  0.00     0.020 C 
HETATM   19  C26 UNL     1      -3.729  48.573 -24.346  1.00  0.00     0.019 C 
ENDROOT
BRANCH   1  20
HETATM   20  C6  UNL     1      -3.289  50.438 -26.118  1.00  0.00     0.008 C 
HETATM   21  C7  UNL     1      -2.967  49.786 -27.470  1.00  0.00     0.014 C 
BRANCH  20  22
HETATM   22  C5  UNL     1      -2.708  51.837 -26.120  1.00  0.00    -0.026 C 
HETATM   23  C4  UNL     1      -1.449  52.217 -26.407  1.00  0.00    -0.025 C 
BRANCH  23  24
HETATM   24  C3  UNL     1      -0.281  51.353 -26.840  1.00  0.00     0.011 C 
BRANCH  24  25
HETATM   25  C2  UNL     1       0.274  51.833 -28.204  1.00  0.00     0.004 C 
HETATM   26  C1  UNL     1      -0.008  53.302 -28.494  1.00  0.00     0.006 C 
ENDBRANCH  24  25
BRANCH  24  27
HETATM   27  C27 UNL     1       0.855  51.297 -25.774  1.00  0.00    -0.015 C 
HETATM   28  C28 UNL     1       0.703  52.397 -24.718  1.00  0.00     0.010 C 
HETATM   29  C29 UNL     1       2.272  51.342 -26.358  1.00  0.00     0.010 C 
ENDBRANCH  24  27
ENDBRANCH  23  24
ENDBRANCH  20  22
ENDBRANCH   1  20
BRANCH   9  30
HETATM   30  O1  UNL     1      -1.271  48.977 -15.039  1.00  0.00    -0.396 OA
HETATM   31  H24 UNL     1      -1.409  48.204 -14.465  1.00  0.00     0.210 HD
ENDBRANCH   9  30
TORSDOF 6
ENDMDL
MODEL 9
REMARK minimizedAffinity -8.60817719
REMARK  6 active torsions:
REMARK  status: ('A' for Active; 'I' for Inactive)
REMARK    1  A    between atoms: C2_2  and  C3_3 
REMARK    2  A    between atoms: C3_3  and  C4_4 
REMARK    3  A    between atoms: C3_3  and  C27_28 
REMARK    4  A    between atoms: C5_5  and  C6_6 
REMARK    5  A    between atoms: C6_6  and  C8_8 
REMARK    6  A    between atoms: C16_16  and  O1_17 
ROOT
HETATM    1  C8  UNL     1      -0.060  50.988 -20.889  1.00  0.00    -0.002 C 
HETATM    2  C9  UNL     1       0.106  52.001 -19.736  1.00  0.00     0.040 C 
HETATM    3  C10 UNL     1      -0.217  51.157 -18.537  1.00  0.00    -0.068 C 
HETATM    4  C11 UNL     1       0.500  51.066 -17.403  1.00  0.00    -0.072 C 
HETATM    5  C12 UNL     1       1.530  52.072 -16.956  1.00  0.00     0.035 C 
HETATM    6  C13 UNL     1       1.178  52.591 -15.555  1.00  0.00     0.010 C 
HETATM    7  C14 UNL     1       0.951  51.441 -14.557  1.00  0.00    -0.003 C 
HETATM    8  C15 UNL     1       0.695  51.961 -13.137  1.00  0.00     0.037 C 
HETATM    9  C16 UNL     1       0.598  50.806 -12.142  1.00  0.00     0.118 C 
HETATM   10  C17 UNL     1      -0.424  49.755 -12.566  1.00  0.00     0.032 C 
HETATM   11  C18 UNL     1      -0.205  49.269 -14.001  1.00  0.00     0.012 C 
HETATM   12  C19 UNL     1      -0.146  50.421 -15.040  1.00  0.00    -0.033 C 
HETATM   13  C20 UNL     1      -1.544  51.079 -15.127  1.00  0.00     0.016 C 
HETATM   14  C21 UNL     1       0.329  49.900 -16.441  1.00  0.00     0.023 C 
HETATM   15  C22 UNL     1      -0.411  48.713 -17.094  1.00  0.00     0.011 C 
HETATM   16  C23 UNL     1      -1.621  49.091 -17.938  1.00  0.00     0.014 C 
HETATM   17  C24 UNL     1      -1.369  50.255 -18.914  1.00  0.00    -0.020 C 
HETATM   18  C25 UNL     1      -2.690  51.052 -19.031  1.00  0.00     0.020 C 
HETATM   19  C26 UNL     1      -0.908  49.818 -20.313  1.00  0.00     0.019 C 
ENDROOT
BRANCH   1  20
HETATM   20  C6  UNL     1      -0.627  51.612 -22.187  1.00  0.00     0.008 C 
HETATM   21  C7  UNL     1      -1.231  50.536 -23.101  1.00  0.00     0.014 C 
BRANCH  20  22
HETATM   22  C5  UNL     1       0.454  52.337 -22.963  1.00  0.00    -0.026 C 
HETATM   23  C4  UNL     1       0.644  52.370 -24.295  1.00  0.00    -0.025 C 
BRANCH  23  24
HETATM   24  C3  UNL     1      -0.191  51.721 -25.381  1.00  0.00     0.011 C 
BRANCH  24  25
HETATM   25  C2  UNL     1      -1.225  52.727 -25.946  1.00  0.00     0.004 C 
HETATM   26  C1  UNL     1      -2.655  52.202 -25.934  1.00  0.00     0.006 C 
ENDBRANCH  24  25
BRANCH  24  27
HETATM   27  C27 UNL     1       0.676  51.121 -26.531  1.00  0.00    -0.015 C 
HETATM   28  C28 UNL     1       2.175  51.311 -26.275  1.00  0.00     0.010 C 
HETATM   29  C29 UNL     1       0.325  51.648 -27.927  1.00  0.00     0.010 C 
ENDBRANCH  24  27
ENDBRANCH  23  24
ENDBRANCH  20  22
ENDBRANCH   1  20
BRANCH   9  30
HETATM   30  O1  UNL     1       0.243  51.334 -10.868  1.00  0.00    -0.396 OA
HETATM   31  H24 UNL     1       0.190  50.588 -10.245  1.00  0.00     0.210 HD
ENDBRANCH   9  30
TORSDOF 6
ENDMDL
