MODEL 1
REMARK minimizedAffinity -9.94594193
REMARK  8 active torsions:
REMARK  status: ('A' for Active; 'I' for Inactive)
REMARK    1  A    between atoms: C2_2  and  C3_3 
REMARK    2  A    between atoms: C2_2  and  C11_14 
REMARK    3  A    between atoms: C3_3  and  C4_4 
REMARK    4  A    between atoms: C4_4  and  C5_5 
REMARK       I    between atoms: C5_5  and  N1_7 
REMARK    5  A    between atoms: N1_7  and  C6_8 
REMARK    6  A    between atoms: C6_8  and  C7_9 
REMARK    7  A    between atoms: C16_19  and  O3_20 
REMARK    8  A    between atoms: C20_24  and  O4_25 
ROOT
HETATM    1  C11 UNL     1      -5.643   6.765  13.615  1.00  0.00    -0.002 C 
HETATM    2  C12 UNL     1      -5.654   8.305  13.863  1.00  0.00     0.006 C 
HETATM    3  C13 UNL     1      -4.239   8.825  13.588  1.00  0.00     0.006 C 
HETATM    4  C14 UNL     1      -3.529   7.638  12.956  1.00  0.00     0.001 C 
HETATM    5  C15 UNL     1      -1.991   7.663  12.902  1.00  0.00     0.024 C 
HETATM    6  C16 UNL     1      -1.500   8.907  12.121  1.00  0.00     0.123 C 
HETATM    7  C17 UNL     1      -0.157   8.699  11.411  1.00  0.00     0.037 C 
HETATM    8  C18 UNL     1       0.731   7.735  12.209  1.00  0.00    -0.001 C 
HETATM    9  C19 UNL     1       2.206   7.789  11.757  1.00  0.00     0.037 C 
HETATM   10  C20 UNL     1       2.524   6.974  10.509  1.00  0.00     0.118 C 
HETATM   11  C21 UNL     1       2.031   5.539  10.649  1.00  0.00     0.032 C 
HETATM   12  C22 UNL     1       0.538   5.486  10.964  1.00  0.00     0.012 C 
HETATM   13  C23 UNL     1       0.115   6.292  12.226  1.00  0.00    -0.036 C 
HETATM   14  C24 UNL     1       0.667   5.574  13.483  1.00  0.00     0.016 C 
HETATM   15  C25 UNL     1      -1.472   6.360  12.238  1.00  0.00     0.001 C 
HETATM   16  C26 UNL     1      -2.150   5.080  12.787  1.00  0.00     0.007 C 
HETATM   17  C27 UNL     1      -3.681   5.178  12.889  1.00  0.00     0.010 C 
HETATM   18  C28 UNL     1      -4.122   6.414  13.696  1.00  0.00    -0.036 C 
HETATM   19  C29 UNL     1      -3.659   6.302  15.168  1.00  0.00     0.016 C 
ENDROOT
BRANCH   1  20
HETATM   20  C2  UNL     1      -6.659   6.027  14.541  1.00  0.00    -0.013 C 
HETATM   21  C1  UNL     1      -6.304   6.164  16.023  1.00  0.00     0.010 C 
BRANCH  20  22
HETATM   22  C3  UNL     1      -6.761   4.527  14.140  1.00  0.00     0.014 C 
BRANCH  22  23
HETATM   23  C4  UNL     1      -7.898   4.209  13.161  1.00  0.00     0.103 C 
BRANCH  23  24
HETATM   24  C5  UNL     1      -8.755   5.404  12.778  1.00  0.00     0.217 C 
HETATM   25  O1  UNL     1      -8.749   5.919  11.666  1.00  0.00    -0.274 OA
HETATM   26  N1  UNL     1      -9.501   5.879  13.842  1.00  0.00    -0.359 N 
HETATM   27  H9  UNL     1      -9.554   5.309  14.675  1.00  0.00     0.162 HD
BRANCH  26  28
HETATM   28  C6  UNL     1     -10.542   6.874  13.644  1.00  0.00     0.154 C 
BRANCH  28  29
HETATM   29  C7  UNL     1     -10.829   7.671  14.932  1.00  0.00     0.139 C 
HETATM   30  C8  UNL     1      -9.579   7.895  15.767  1.00  0.00     0.035 C 
HETATM   31  C9  UNL     1      -9.019   9.168  15.183  1.00  0.00     0.029 C 
HETATM   32  C10 UNL     1     -10.272   9.941  14.827  1.00  0.00     0.168 C 
HETATM   33  O2  UNL     1     -11.321   8.986  14.613  1.00  0.00    -0.384 OA
ENDBRANCH  28  29
ENDBRANCH  26  28
ENDBRANCH  23  24
ENDBRANCH  22  23
ENDBRANCH  20  22
ENDBRANCH   1  20
BRANCH   6  34
HETATM   34  O3  UNL     1      -1.374   9.985  13.051  1.00  0.00    -0.395 OA
HETATM   35  H27 UNL     1      -1.133  10.780  12.545  1.00  0.00     0.210 HD
ENDBRANCH   6  34
BRANCH  10  36
HETATM   36  O4  UNL     1       1.927   7.592   9.374  1.00  0.00    -0.396 OA
HETATM   37  H34 UNL     1       2.159   7.059   8.593  1.00  0.00     0.210 HD
ENDBRANCH  10  36
TORSDOF 8
ENDMDL
MODEL 2
REMARK minimizedAffinity -9.70611191
REMARK  8 active torsions:
REMARK  status: ('A' for Active; 'I' for Inactive)
REMARK    1  A    between atoms: C2_2  and  C3_3 
REMARK    2  A    between atoms: C2_2  and  C11_14 
REMARK    3  A    between atoms: C3_3  and  C4_4 
REMARK    4  A    between atoms: C4_4  and  C5_5 
REMARK       I    between atoms: C5_5  and  N1_7 
REMARK    5  A    between atoms: N1_7  and  C6_8 
REMARK    6  A    between atoms: C6_8  and  C7_9 
REMARK    7  A    between atoms: C16_19  and  O3_20 
REMARK    8  A    between atoms: C20_24  and  O4_25 
ROOT
HETATM    1  C11 UNL     1      -5.399   6.328  13.643  1.00  0.00    -0.002 C 
HETATM    2  C12 UNL     1      -5.583   7.869  13.788  1.00  0.00     0.006 C 
HETATM    3  C13 UNL     1      -4.238   8.526  13.458  1.00  0.00     0.006 C 
HETATM    4  C14 UNL     1      -3.403   7.388  12.897  1.00  0.00     0.001 C 
HETATM    5  C15 UNL     1      -1.878   7.583  12.818  1.00  0.00     0.024 C 
HETATM    6  C16 UNL     1      -1.537   8.818  11.949  1.00  0.00     0.123 C 
HETATM    7  C17 UNL     1      -0.184   8.716  11.234  1.00  0.00     0.037 C 
HETATM    8  C18 UNL     1       0.814   7.915  12.082  1.00  0.00    -0.001 C 
HETATM    9  C19 UNL     1       2.269   8.105  11.605  1.00  0.00     0.037 C 
HETATM   10  C20 UNL     1       2.670   7.249  10.410  1.00  0.00     0.118 C 
HETATM   11  C21 UNL     1       2.345   5.780  10.653  1.00  0.00     0.032 C 
HETATM   12  C22 UNL     1       0.870   5.580  10.992  1.00  0.00     0.012 C 
HETATM   13  C23 UNL     1       0.367   6.417  12.204  1.00  0.00    -0.036 C 
HETATM   14  C24 UNL     1       1.006   5.852  13.498  1.00  0.00     0.016 C 
HETATM   15  C25 UNL     1      -1.218   6.305  12.234  1.00  0.00     0.001 C 
HETATM   16  C26 UNL     1      -1.742   4.997  12.877  1.00  0.00     0.007 C 
HETATM   17  C27 UNL     1      -3.273   4.927  12.996  1.00  0.00     0.010 C 
HETATM   18  C28 UNL     1      -3.847   6.157  13.725  1.00  0.00    -0.036 C 
HETATM   19  C29 UNL     1      -3.364   6.198  15.194  1.00  0.00     0.016 C 
ENDROOT
BRANCH   1  20
HETATM   20  C2  UNL     1      -6.317   5.544  14.631  1.00  0.00    -0.013 C 
HETATM   21  C1  UNL     1      -7.414   4.758  13.909  1.00  0.00     0.010 C 
BRANCH  20  22
HETATM   22  C3  UNL     1      -6.938   6.517  15.675  1.00  0.00     0.014 C 
BRANCH  22  23
HETATM   23  C4  UNL     1      -8.436   6.301  15.928  1.00  0.00     0.103 C 
BRANCH  23  24
HETATM   24  C5  UNL     1      -9.335   7.391  15.369  1.00  0.00     0.217 C 
HETATM   25  O1  UNL     1      -8.965   8.540  15.162  1.00  0.00    -0.274 OA
HETATM   26  N1  UNL     1     -10.633   6.954  15.174  1.00  0.00    -0.359 N 
HETATM   27  H9  UNL     1     -10.812   5.961  15.233  1.00  0.00     0.162 HD
BRANCH  26  28
HETATM   28  C6  UNL     1     -11.598   7.766  14.452  1.00  0.00     0.154 C 
BRANCH  28  29
HETATM   29  C7  UNL     1     -12.438   6.925  13.471  1.00  0.00     0.139 C 
HETATM   30  C8  UNL     1     -13.455   6.045  14.181  1.00  0.00     0.035 C 
HETATM   31  C9  UNL     1     -14.646   6.963  14.311  1.00  0.00     0.029 C 
HETATM   32  C10 UNL     1     -14.575   7.770  13.032  1.00  0.00     0.168 C 
HETATM   33  O2  UNL     1     -13.206   7.779  12.603  1.00  0.00    -0.384 OA
ENDBRANCH  28  29
ENDBRANCH  26  28
ENDBRANCH  23  24
ENDBRANCH  22  23
ENDBRANCH  20  22
ENDBRANCH   1  20
BRANCH   6  34
HETATM   34  O3  UNL     1      -1.528   9.965  12.803  1.00  0.00    -0.395 OA
HETATM   35  H27 UNL     1      -1.383  10.746  12.241  1.00  0.00     0.210 HD
ENDBRANCH   6  34
BRANCH  10  36
HETATM   36  O4  UNL     1       1.998   7.717   9.245  1.00  0.00    -0.396 OA
HETATM   37  H34 UNL     1       2.283   7.162   8.498  1.00  0.00     0.210 HD
ENDBRANCH  10  36
TORSDOF 8
ENDMDL
MODEL 3
REMARK minimizedAffinity -9.70060635
REMARK  8 active torsions:
REMARK  status: ('A' for Active; 'I' for Inactive)
REMARK    1  A    between atoms: C2_2  and  C3_3 
REMARK    2  A    between atoms: C2_2  and  C11_14 
REMARK    3  A    between atoms: C3_3  and  C4_4 
REMARK    4  A    between atoms: C4_4  and  C5_5 
REMARK       I    between atoms: C5_5  and  N1_7 
REMARK    5  A    between atoms: N1_7  and  C6_8 
REMARK    6  A    between atoms: C6_8  and  C7_9 
REMARK    7  A    between atoms: C16_19  and  O3_20 
REMARK    8  A    between atoms: C20_24  and  O4_25 
ROOT
HETATM    1  C11 UNL     1       0.157   6.335  11.638  1.00  0.00    -0.002 C 
HETATM    2  C12 UNL     1       0.342   4.833  11.264  1.00  0.00     0.006 C 
HETATM    3  C13 UNL     1      -0.959   4.107  11.624  1.00  0.00     0.006 C 
HETATM    4  C14 UNL     1      -1.928   5.231  11.951  1.00  0.00     0.001 C 
HETATM    5  C15 UNL     1      -3.211   4.876  12.724  1.00  0.00     0.024 C 
HETATM    6  C16 UNL     1      -4.038   3.828  11.941  1.00  0.00     0.123 C 
HETATM    7  C17 UNL     1      -5.548   3.919  12.193  1.00  0.00     0.037 C 
HETATM    8  C18 UNL     1      -5.827   4.391  13.627  1.00  0.00    -0.001 C 
HETATM    9  C19 UNL     1      -7.289   4.136  14.051  1.00  0.00     0.037 C 
HETATM   10  C20 UNL     1      -8.290   5.177  13.565  1.00  0.00     0.118 C 
HETATM   11  C21 UNL     1      -7.836   6.586  13.927  1.00  0.00     0.032 C 
HETATM   12  C22 UNL     1      -6.439   6.884  13.387  1.00  0.00     0.012 C 
HETATM   13  C23 UNL     1      -5.346   5.869  13.832  1.00  0.00    -0.036 C 
HETATM   14  C24 UNL     1      -5.080   6.058  15.347  1.00  0.00     0.016 C 
HETATM   15  C25 UNL     1      -4.046   6.161  12.967  1.00  0.00     0.001 C 
HETATM   16  C26 UNL     1      -3.201   7.352  13.486  1.00  0.00     0.007 C 
HETATM   17  C27 UNL     1      -1.894   7.578  12.709  1.00  0.00     0.010 C 
HETATM   18  C28 UNL     1      -1.041   6.297  12.641  1.00  0.00    -0.036 C 
HETATM   19  C29 UNL     1      -0.565   5.879  14.053  1.00  0.00     0.016 C 
ENDROOT
BRANCH   1  20
HETATM   20  C2  UNL     1       1.506   6.990  12.068  1.00  0.00    -0.013 C 
HETATM   21  C1  UNL     1       1.545   8.492  11.778  1.00  0.00     0.010 C 
BRANCH  20  22
HETATM   22  C3  UNL     1       2.699   6.269  11.375  1.00  0.00     0.014 C 
BRANCH  22  23
HETATM   23  C4  UNL     1       3.834   7.203  10.936  1.00  0.00     0.103 C 
BRANCH  23  24
HETATM   24  C5  UNL     1       5.219   6.767  11.382  1.00  0.00     0.217 C 
HETATM   25  O1  UNL     1       6.040   6.240  10.640  1.00  0.00    -0.274 OA
HETATM   26  N1  UNL     1       5.429   6.980  12.733  1.00  0.00    -0.359 N 
HETATM   27  H9  UNL     1       4.757   7.547  13.232  1.00  0.00     0.162 HD
BRANCH  26  28
HETATM   28  C6  UNL     1       6.751   6.834  13.320  1.00  0.00     0.154 C 
BRANCH  28  29
HETATM   29  C7  UNL     1       7.404   8.199  13.612  1.00  0.00     0.139 C 
HETATM   30  C8  UNL     1       7.610   8.440  15.099  1.00  0.00     0.035 C 
HETATM   31  C9  UNL     1       8.960   7.815  15.347  1.00  0.00     0.029 C 
HETATM   32  C10 UNL     1       9.699   8.115  14.059  1.00  0.00     0.168 C 
HETATM   33  O2  UNL     1       8.716   8.267  13.024  1.00  0.00    -0.384 OA
ENDBRANCH  28  29
ENDBRANCH  26  28
ENDBRANCH  23  24
ENDBRANCH  22  23
ENDBRANCH  20  22
ENDBRANCH   1  20
BRANCH   6  34
HETATM   34  O3  UNL     1      -3.579   2.530  12.328  1.00  0.00    -0.395 OA
HETATM   35  H27 UNL     1      -4.053   1.879  11.783  1.00  0.00     0.210 HD
ENDBRANCH   6  34
BRANCH  10  36
HETATM   36  O4  UNL     1      -8.450   5.058  12.155  1.00  0.00    -0.396 OA
HETATM   37  H34 UNL     1      -9.103   5.724  11.876  1.00  0.00     0.210 HD
ENDBRANCH  10  36
TORSDOF 8
ENDMDL
MODEL 4
REMARK minimizedAffinity -9.46587276
REMARK  8 active torsions:
REMARK  status: ('A' for Active; 'I' for Inactive)
REMARK    1  A    between atoms: C2_2  and  C3_3 
REMARK    2  A    between atoms: C2_2  and  C11_14 
REMARK    3  A    between atoms: C3_3  and  C4_4 
REMARK    4  A    between atoms: C4_4  and  C5_5 
REMARK       I    between atoms: C5_5  and  N1_7 
REMARK    5  A    between atoms: N1_7  and  C6_8 
REMARK    6  A    between atoms: C6_8  and  C7_9 
REMARK    7  A    between atoms: C16_19  and  O3_20 
REMARK    8  A    between atoms: C20_24  and  O4_25 
ROOT
HETATM    1  C11 UNL     1      -3.758   6.211  13.360  1.00  0.00    -0.002 C 
HETATM    2  C12 UNL     1      -4.197   4.844  12.751  1.00  0.00     0.006 C 
HETATM    3  C13 UNL     1      -5.718   4.736  12.912  1.00  0.00     0.006 C 
HETATM    4  C14 UNL     1      -6.137   6.124  13.369  1.00  0.00     0.001 C 
HETATM    5  C15 UNL     1      -7.532   6.285  13.999  1.00  0.00     0.024 C 
HETATM    6  C16 UNL     1      -8.628   5.824  13.008  1.00  0.00     0.123 C 
HETATM    7  C17 UNL     1      -9.968   6.547  13.188  1.00  0.00     0.037 C 
HETATM    8  C18 UNL     1     -10.190   6.910  14.662  1.00  0.00    -0.001 C 
HETATM    9  C19 UNL     1     -11.659   7.283  14.957  1.00  0.00     0.037 C 
HETATM   10  C20 UNL     1     -12.042   8.714  14.596  1.00  0.00     0.118 C 
HETATM   11  C21 UNL     1     -11.072   9.714  15.214  1.00  0.00     0.032 C 
HETATM   12  C22 UNL     1      -9.629   9.422  14.809  1.00  0.00     0.012 C 
HETATM   13  C23 UNL     1      -9.146   7.980  15.138  1.00  0.00    -0.036 C 
HETATM   14  C24 UNL     1      -9.014   7.839  16.676  1.00  0.00     0.016 C 
HETATM   15  C25 UNL     1      -7.752   7.767  14.407  1.00  0.00     0.001 C 
HETATM   16  C26 UNL     1      -6.547   8.380  15.163  1.00  0.00     0.007 C 
HETATM   17  C27 UNL     1      -5.186   8.093  14.509  1.00  0.00     0.010 C 
HETATM   18  C28 UNL     1      -4.969   6.586  14.275  1.00  0.00    -0.036 C 
HETATM   19  C29 UNL     1      -4.900   5.827  15.621  1.00  0.00     0.016 C 
ENDROOT
BRANCH   1  20
HETATM   20  C2  UNL     1      -2.324   6.135  13.967  1.00  0.00    -0.013 C 
HETATM   21  C1  UNL     1      -1.632   7.500  14.002  1.00  0.00     0.010 C 
BRANCH  20  22
HETATM   22  C3  UNL     1      -1.461   5.105  13.182  1.00  0.00     0.014 C 
BRANCH  22  23
HETATM   23  C4  UNL     1       0.051   5.340  13.282  1.00  0.00     0.103 C 
BRANCH  23  24
HETATM   24  C5  UNL     1       0.808   5.154  11.977  1.00  0.00     0.217 C 
HETATM   25  O1  UNL     1       0.668   4.186  11.240  1.00  0.00    -0.274 OA
HETATM   26  N1  UNL     1       1.712   6.175  11.743  1.00  0.00    -0.359 N 
HETATM   27  H9  UNL     1       1.657   6.999  12.326  1.00  0.00     0.162 HD
BRANCH  26  28
HETATM   28  C6  UNL     1       2.381   6.306  10.459  1.00  0.00     0.154 C 
BRANCH  28  29
HETATM   29  C7  UNL     1       2.403   7.767   9.969  1.00  0.00     0.139 C 
HETATM   30  C8  UNL     1       3.079   7.916   8.616  1.00  0.00     0.035 C 
HETATM   31  C9  UNL     1       1.941   7.680   7.654  1.00  0.00     0.029 C 
HETATM   32  C10 UNL     1       0.765   8.297   8.385  1.00  0.00     0.168 C 
HETATM   33  O2  UNL     1       1.063   8.259   9.788  1.00  0.00    -0.384 OA
ENDBRANCH  28  29
ENDBRANCH  26  28
ENDBRANCH  23  24
ENDBRANCH  22  23
ENDBRANCH  20  22
ENDBRANCH   1  20
BRANCH   6  34
HETATM   34  O3  UNL     1      -8.827   4.420  13.198  1.00  0.00    -0.395 OA
HETATM   35  H27 UNL     1      -9.464   4.123  12.526  1.00  0.00     0.210 HD
ENDBRANCH   6  34
BRANCH  10  36
HETATM   36  O4  UNL     1     -12.063   8.856  13.180  1.00  0.00    -0.396 OA
HETATM   37  H34 UNL     1     -12.323   9.772  12.981  1.00  0.00     0.210 HD
ENDBRANCH  10  36
TORSDOF 8
ENDMDL
MODEL 5
REMARK minimizedAffinity -9.27535439
REMARK  8 active torsions:
REMARK  status: ('A' for Active; 'I' for Inactive)
REMARK    1  A    between atoms: C2_2  and  C3_3 
REMARK    2  A    between atoms: C2_2  and  C11_14 
REMARK    3  A    between atoms: C3_3  and  C4_4 
REMARK    4  A    between atoms: C4_4  and  C5_5 
REMARK       I    between atoms: C5_5  and  N1_7 
REMARK    5  A    between atoms: N1_7  and  C6_8 
REMARK    6  A    between atoms: C6_8  and  C7_9 
REMARK    7  A    between atoms: C16_19  and  O3_20 
REMARK    8  A    between atoms: C20_24  and  O4_25 
ROOT
HETATM    1  C11 UNL     1      -3.639   3.956  10.949  1.00  0.00    -0.002 C 
HETATM    2  C12 UNL     1      -4.646   2.803  10.650  1.00  0.00     0.006 C 
HETATM    3  C13 UNL     1      -5.914   3.077  11.465  1.00  0.00     0.006 C 
HETATM    4  C14 UNL     1      -5.708   4.484  12.002  1.00  0.00     0.001 C 
HETATM    5  C15 UNL     1      -6.593   4.947  13.172  1.00  0.00     0.024 C 
HETATM    6  C16 UNL     1      -8.089   4.866  12.781  1.00  0.00     0.123 C 
HETATM    7  C17 UNL     1      -8.972   5.893  13.500  1.00  0.00     0.037 C 
HETATM    8  C18 UNL     1      -8.429   6.180  14.906  1.00  0.00    -0.001 C 
HETATM    9  C19 UNL     1      -9.467   6.893  15.799  1.00  0.00     0.037 C 
HETATM   10  C20 UNL     1      -9.571   8.399  15.584  1.00  0.00     0.118 C 
HETATM   11  C21 UNL     1      -8.202   9.062  15.672  1.00  0.00     0.032 C 
HETATM   12  C22 UNL     1      -7.212   8.442  14.689  1.00  0.00     0.012 C 
HETATM   13  C23 UNL     1      -7.039   6.902  14.832  1.00  0.00    -0.036 C 
HETATM   14  C24 UNL     1      -6.298   6.607  16.161  1.00  0.00     0.016 C 
HETATM   15  C25 UNL     1      -6.211   6.397  13.573  1.00  0.00     0.001 C 
HETATM   16  C26 UNL     1      -4.683   6.615  13.699  1.00  0.00     0.007 C 
HETATM   17  C27 UNL     1      -3.870   6.043  12.527  1.00  0.00     0.010 C 
HETATM   18  C28 UNL     1      -4.187   4.555  12.285  1.00  0.00    -0.036 C 
HETATM   19  C29 UNL     1      -3.747   3.696  13.495  1.00  0.00     0.016 C 
ENDROOT
BRANCH   1  20
HETATM   20  C2  UNL     1      -2.162   3.464  10.868  1.00  0.00    -0.013 C 
HETATM   21  C1  UNL     1      -1.993   2.033  11.383  1.00  0.00     0.010 C 
BRANCH  20  22
HETATM   22  C3  UNL     1      -1.228   4.437  11.645  1.00  0.00     0.014 C 
BRANCH  22  23
HETATM   23  C4  UNL     1       0.261   4.077  11.574  1.00  0.00     0.103 C 
BRANCH  23  24
HETATM   24  C5  UNL     1       1.205   5.258  11.728  1.00  0.00     0.217 C 
HETATM   25  O1  UNL     1       1.398   5.843  12.787  1.00  0.00    -0.274 OA
HETATM   26  N1  UNL     1       1.779   5.633  10.526  1.00  0.00    -0.359 N 
HETATM   27  H9  UNL     1       1.677   5.009   9.738  1.00  0.00     0.162 HD
BRANCH  26  28
HETATM   28  C6  UNL     1       2.869   6.595  10.482  1.00  0.00     0.154 C 
BRANCH  28  29
HETATM   29  C7  UNL     1       2.416   7.950   9.905  1.00  0.00     0.139 C 
HETATM   30  C8  UNL     1       3.153   8.313   8.626  1.00  0.00     0.035 C 
HETATM   31  C9  UNL     1       2.309   7.654   7.564  1.00  0.00     0.029 C 
HETATM   32  C10 UNL     1       0.909   7.804   8.121  1.00  0.00     0.168 C 
HETATM   33  O2  UNL     1       1.022   7.907   9.548  1.00  0.00    -0.384 OA
ENDBRANCH  28  29
ENDBRANCH  26  28
ENDBRANCH  23  24
ENDBRANCH  22  23
ENDBRANCH  20  22
ENDBRANCH   1  20
BRANCH   6  34
HETATM   34  O3  UNL     1      -8.553   3.551  13.096  1.00  0.00    -0.395 OA
HETATM   35  H27 UNL     1      -9.472   3.483  12.784  1.00  0.00     0.210 HD
ENDBRANCH   6  34
BRANCH  10  36
HETATM   36  O4  UNL     1     -10.164   8.656  14.315  1.00  0.00    -0.396 OA
HETATM   37  H34 UNL     1     -10.229   9.621  14.212  1.00  0.00     0.210 HD
ENDBRANCH  10  36
TORSDOF 8
ENDMDL
MODEL 6
REMARK minimizedAffinity -9.20594406
REMARK  8 active torsions:
REMARK  status: ('A' for Active; 'I' for Inactive)
REMARK    1  A    between atoms: C2_2  and  C3_3 
REMARK    2  A    between atoms: C2_2  and  C11_14 
REMARK    3  A    between atoms: C3_3  and  C4_4 
REMARK    4  A    between atoms: C4_4  and  C5_5 
REMARK       I    between atoms: C5_5  and  N1_7 
REMARK    5  A    between atoms: N1_7  and  C6_8 
REMARK    6  A    between atoms: C6_8  and  C7_9 
REMARK    7  A    between atoms: C16_19  and  O3_20 
REMARK    8  A    between atoms: C20_24  and  O4_25 
ROOT
HETATM    1  C11 UNL     1      -5.378   4.727  13.868  1.00  0.00    -0.002 C 
HETATM    2  C12 UNL     1      -4.951   4.039  12.536  1.00  0.00     0.006 C 
HETATM    3  C13 UNL     1      -3.516   4.481  12.229  1.00  0.00     0.006 C 
HETATM    4  C14 UNL     1      -3.073   5.194  13.496  1.00  0.00     0.001 C 
HETATM    5  C15 UNL     1      -1.834   6.103  13.417  1.00  0.00     0.024 C 
HETATM    6  C16 UNL     1      -0.602   5.295  12.942  1.00  0.00     0.123 C 
HETATM    7  C17 UNL     1       0.732   5.832  13.475  1.00  0.00     0.037 C 
HETATM    8  C18 UNL     1       0.671   7.356  13.641  1.00  0.00    -0.001 C 
HETATM    9  C19 UNL     1       2.073   7.982  13.800  1.00  0.00     0.037 C 
HETATM   10  C20 UNL     1       2.656   7.901  15.206  1.00  0.00     0.118 C 
HETATM   11  C21 UNL     1       1.677   8.443  16.239  1.00  0.00     0.032 C 
HETATM   12  C22 UNL     1       0.331   7.726  16.170  1.00  0.00     0.012 C 
HETATM   13  C23 UNL     1      -0.344   7.756  14.768  1.00  0.00    -0.036 C 
HETATM   14  C24 UNL     1      -0.810   9.204  14.471  1.00  0.00     0.016 C 
HETATM   15  C25 UNL     1      -1.566   6.742  14.807  1.00  0.00     0.001 C 
HETATM   16  C26 UNL     1      -2.841   7.321  15.470  1.00  0.00     0.007 C 
HETATM   17  C27 UNL     1      -4.054   6.378  15.425  1.00  0.00     0.010 C 
HETATM   18  C28 UNL     1      -4.357   5.905  13.990  1.00  0.00    -0.036 C 
HETATM   19  C29 UNL     1      -4.780   7.096  13.098  1.00  0.00     0.016 C 
ENDROOT
BRANCH   1  20
HETATM   20  C2  UNL     1      -6.908   5.023  13.896  1.00  0.00    -0.013 C 
HETATM   21  C1  UNL     1      -7.534   5.004  12.500  1.00  0.00     0.010 C 
BRANCH  20  22
HETATM   22  C3  UNL     1      -7.180   6.386  14.597  1.00  0.00     0.014 C 
BRANCH  22  23
HETATM   23  C4  UNL     1      -7.997   6.280  15.891  1.00  0.00     0.103 C 
BRANCH  23  24
HETATM   24  C5  UNL     1      -9.243   7.149  15.926  1.00  0.00     0.217 C 
HETATM   25  O1  UNL     1      -9.379   8.117  16.665  1.00  0.00    -0.274 OA
HETATM   26  N1  UNL     1     -10.228   6.690  15.069  1.00  0.00    -0.359 N 
HETATM   27  H9  UNL     1      -9.977   5.978  14.397  1.00  0.00     0.162 HD
BRANCH  26  28
HETATM   28  C6  UNL     1     -11.410   7.488  14.788  1.00  0.00     0.154 C 
BRANCH  28  29
HETATM   29  C7  UNL     1     -11.710   7.560  13.278  1.00  0.00     0.139 C 
HETATM   30  C8  UNL     1     -13.151   7.200  12.953  1.00  0.00     0.035 C 
HETATM   31  C9  UNL     1     -13.857   8.526  13.090  1.00  0.00     0.029 C 
HETATM   32  C10 UNL     1     -12.815   9.503  12.587  1.00  0.00     0.168 C 
HETATM   33  O2  UNL     1     -11.528   8.902  12.790  1.00  0.00    -0.384 OA
ENDBRANCH  28  29
ENDBRANCH  26  28
ENDBRANCH  23  24
ENDBRANCH  22  23
ENDBRANCH  20  22
ENDBRANCH   1  20
BRANCH   6  34
HETATM   34  O3  UNL     1      -0.581   5.329  11.513  1.00  0.00    -0.395 OA
HETATM   35  H27 UNL     1       0.153   4.763  11.219  1.00  0.00     0.210 HD
ENDBRANCH   6  34
BRANCH  10  36
HETATM   36  O4  UNL     1       2.989   6.549  15.503  1.00  0.00    -0.396 OA
HETATM   37  H34 UNL     1       3.370   6.530  16.398  1.00  0.00     0.210 HD
ENDBRANCH  10  36
TORSDOF 8
ENDMDL
MODEL 7
REMARK minimizedAffinity -9.02551365
REMARK  8 active torsions:
REMARK  status: ('A' for Active; 'I' for Inactive)
REMARK    1  A    between atoms: C2_2  and  C3_3 
REMARK    2  A    between atoms: C2_2  and  C11_14 
REMARK    3  A    between atoms: C3_3  and  C4_4 
REMARK    4  A    between atoms: C4_4  and  C5_5 
REMARK       I    between atoms: C5_5  and  N1_7 
REMARK    5  A    between atoms: N1_7  and  C6_8 
REMARK    6  A    between atoms: C6_8  and  C7_9 
REMARK    7  A    between atoms: C16_19  and  O3_20 
REMARK    8  A    between atoms: C20_24  and  O4_25 
ROOT
HETATM    1  C11 UNL     1      -5.392   6.416  13.632  1.00  0.00    -0.002 C 
HETATM    2  C12 UNL     1      -5.552   7.959  13.780  1.00  0.00     0.006 C 
HETATM    3  C13 UNL     1      -4.198   8.596  13.451  1.00  0.00     0.006 C 
HETATM    4  C14 UNL     1      -3.380   7.446  12.886  1.00  0.00     0.001 C 
HETATM    5  C15 UNL     1      -1.852   7.618  12.808  1.00  0.00     0.024 C 
HETATM    6  C16 UNL     1      -1.493   8.849  11.941  1.00  0.00     0.123 C 
HETATM    7  C17 UNL     1      -0.142   8.728  11.226  1.00  0.00     0.037 C 
HETATM    8  C18 UNL     1       0.843   7.909  12.071  1.00  0.00    -0.001 C 
HETATM    9  C19 UNL     1       2.302   8.078  11.594  1.00  0.00     0.037 C 
HETATM   10  C20 UNL     1       2.689   7.218  10.396  1.00  0.00     0.118 C 
HETATM   11  C21 UNL     1       2.340   5.754  10.636  1.00  0.00     0.032 C 
HETATM   12  C22 UNL     1       0.863   5.576  10.976  1.00  0.00     0.012 C 
HETATM   13  C23 UNL     1       0.373   6.418  12.190  1.00  0.00    -0.036 C 
HETATM   14  C24 UNL     1       1.004   5.840  13.482  1.00  0.00     0.016 C 
HETATM   15  C25 UNL     1      -1.213   6.331  12.220  1.00  0.00     0.001 C 
HETATM   16  C26 UNL     1      -1.757   5.029  12.861  1.00  0.00     0.007 C 
HETATM   17  C27 UNL     1      -3.289   4.983  12.979  1.00  0.00     0.010 C 
HETATM   18  C28 UNL     1      -3.843   6.220  13.712  1.00  0.00    -0.036 C 
HETATM   19  C29 UNL     1      -3.359   6.251  15.181  1.00  0.00     0.016 C 
ENDROOT
BRANCH   1  20
HETATM   20  C2  UNL     1      -6.322   5.644  14.617  1.00  0.00    -0.013 C 
HETATM   21  C1  UNL     1      -7.383   4.814  13.891  1.00  0.00     0.010 C 
BRANCH  20  22
HETATM   22  C3  UNL     1      -6.991   6.635  15.613  1.00  0.00     0.014 C 
BRANCH  22  23
HETATM   23  C4  UNL     1      -8.404   6.232  16.054  1.00  0.00     0.103 C 
BRANCH  23  24
HETATM   24  C5  UNL     1      -9.494   7.215  15.658  1.00  0.00     0.217 C 
HETATM   25  O1  UNL     1     -10.456   6.921  14.959  1.00  0.00    -0.274 OA
HETATM   26  N1  UNL     1      -9.247   8.492  16.129  1.00  0.00    -0.359 N 
HETATM   27  H9  UNL     1      -8.513   8.611  16.813  1.00  0.00     0.162 HD
BRANCH  26  28
HETATM   28  C6  UNL     1     -10.261   9.531  16.049  1.00  0.00     0.154 C 
BRANCH  28  29
HETATM   29  C7  UNL     1     -10.167  10.326  14.732  1.00  0.00     0.139 C 
HETATM   30  C8  UNL     1     -11.441  10.240  13.907  1.00  0.00     0.035 C 
HETATM   31  C9  UNL     1     -12.264  11.377  14.458  1.00  0.00     0.029 C 
HETATM   32  C10 UNL     1     -11.210  12.420  14.771  1.00  0.00     0.168 C 
HETATM   33  O2  UNL     1      -9.975  11.727  15.001  1.00  0.00    -0.384 OA
ENDBRANCH  28  29
ENDBRANCH  26  28
ENDBRANCH  23  24
ENDBRANCH  22  23
ENDBRANCH  20  22
ENDBRANCH   1  20
BRANCH   6  34
HETATM   34  O3  UNL     1      -1.465   9.994  12.798  1.00  0.00    -0.395 OA
HETATM   35  H27 UNL     1      -1.308  10.773  12.238  1.00  0.00     0.210 HD
ENDBRANCH   6  34
BRANCH  10  36
HETATM   36  O4  UNL     1       2.024   7.699   9.233  1.00  0.00    -0.396 OA
HETATM   37  H34 UNL     1       2.300   7.142   8.485  1.00  0.00     0.210 HD
ENDBRANCH  10  36
TORSDOF 8
ENDMDL
MODEL 8
REMARK minimizedAffinity -8.97618961
REMARK  8 active torsions:
REMARK  status: ('A' for Active; 'I' for Inactive)
REMARK    1  A    between atoms: C2_2  and  C3_3 
REMARK    2  A    between atoms: C2_2  and  C11_14 
REMARK    3  A    between atoms: C3_3  and  C4_4 
REMARK    4  A    between atoms: C4_4  and  C5_5 
REMARK       I    between atoms: C5_5  and  N1_7 
REMARK    5  A    between atoms: N1_7  and  C6_8 
REMARK    6  A    between atoms: C6_8  and  C7_9 
REMARK    7  A    between atoms: C16_19  and  O3_20 
REMARK    8  A    between atoms: C20_24  and  O4_25 
ROOT
HETATM    1  C11 UNL     1      -2.085   5.071  12.501  1.00  0.00    -0.002 C 
HETATM    2  C12 UNL     1      -1.921   5.073  14.052  1.00  0.00     0.006 C 
HETATM    3  C13 UNL     1      -0.520   5.609  14.365  1.00  0.00     0.006 C 
HETATM    4  C14 UNL     1      -0.020   6.131  13.028  1.00  0.00     0.001 C 
HETATM    5  C15 UNL     1       1.490   6.388  12.873  1.00  0.00     0.024 C 
HETATM    6  C16 UNL     1       1.972   7.415  13.927  1.00  0.00     0.123 C 
HETATM    7  C17 UNL     1       3.173   8.252  13.469  1.00  0.00     0.037 C 
HETATM    8  C18 UNL     1       4.077   7.433  12.539  1.00  0.00    -0.001 C 
HETATM    9  C19 UNL     1       5.469   8.077  12.362  1.00  0.00     0.037 C 
HETATM   10  C20 UNL     1       5.527   9.209  11.343  1.00  0.00     0.118 C 
HETATM   11  C21 UNL     1       4.932   8.778  10.008  1.00  0.00     0.032 C 
HETATM   12  C22 UNL     1       3.502   8.267  10.168  1.00  0.00     0.012 C 
HETATM   13  C23 UNL     1       3.343   7.106  11.192  1.00  0.00    -0.036 C 
HETATM   14  C24 UNL     1       4.005   5.833  10.606  1.00  0.00     0.016 C 
HETATM   15  C25 UNL     1       1.787   6.898  11.437  1.00  0.00     0.001 C 
HETATM   16  C26 UNL     1       1.083   6.068  10.334  1.00  0.00     0.007 C 
HETATM   17  C27 UNL     1      -0.401   5.784  10.616  1.00  0.00     0.010 C 
HETATM   18  C28 UNL     1      -0.607   5.134  11.997  1.00  0.00    -0.036 C 
HETATM   19  C29 UNL     1       0.054   3.736  12.050  1.00  0.00     0.016 C 
ENDROOT
BRANCH   1  20
HETATM   20  C2  UNL     1      -3.017   3.915  12.024  1.00  0.00    -0.013 C 
HETATM   21  C1  UNL     1      -3.349   4.010  10.532  1.00  0.00     0.010 C 
BRANCH  20  22
HETATM   22  C3  UNL     1      -4.321   3.890  12.872  1.00  0.00     0.014 C 
BRANCH  22  23
HETATM   23  C4  UNL     1      -5.521   3.242  12.170  1.00  0.00     0.103 C 
BRANCH  23  24
HETATM   24  C5  UNL     1      -6.870   3.579  12.783  1.00  0.00     0.217 C 
HETATM   25  O1  UNL     1      -7.786   2.774  12.898  1.00  0.00    -0.274 OA
HETATM   26  N1  UNL     1      -6.966   4.911  13.145  1.00  0.00    -0.359 N 
HETATM   27  H9  UNL     1      -6.119   5.462  13.148  1.00  0.00     0.162 HD
BRANCH  26  28
HETATM   28  C6  UNL     1      -8.083   5.394  13.939  1.00  0.00     0.154 C 
BRANCH  28  29
HETATM   29  C7  UNL     1      -7.767   5.376  15.448  1.00  0.00     0.139 C 
HETATM   30  C8  UNL     1      -6.450   6.061  15.774  1.00  0.00     0.035 C 
HETATM   31  C9  UNL     1      -6.865   7.501  15.946  1.00  0.00     0.029 C 
HETATM   32  C10 UNL     1      -8.237   7.371  16.575  1.00  0.00     0.168 C 
HETATM   33  O2  UNL     1      -8.771   6.099  16.183  1.00  0.00    -0.384 OA
ENDBRANCH  28  29
ENDBRANCH  26  28
ENDBRANCH  23  24
ENDBRANCH  22  23
ENDBRANCH  20  22
ENDBRANCH   1  20
BRANCH   6  34
HETATM   34  O3  UNL     1       2.330   6.693  15.108  1.00  0.00    -0.395 OA
HETATM   35  H27 UNL     1       2.564   7.347  15.789  1.00  0.00     0.210 HD
ENDBRANCH   6  34
BRANCH  10  36
HETATM   36  O4  UNL     1       4.829  10.340  11.852  1.00  0.00    -0.396 OA
HETATM   37  H34 UNL     1       4.894  11.049  11.189  1.00  0.00     0.210 HD
ENDBRANCH  10  36
TORSDOF 8
ENDMDL
MODEL 9
REMARK minimizedAffinity -8.97503281
REMARK  8 active torsions:
REMARK  status: ('A' for Active; 'I' for Inactive)
REMARK    1  A    between atoms: C2_2  and  C3_3 
REMARK    2  A    between atoms: C2_2  and  C11_14 
REMARK    3  A    between atoms: C3_3  and  C4_4 
REMARK    4  A    between atoms: C4_4  and  C5_5 
REMARK       I    between atoms: C5_5  and  N1_7 
REMARK    5  A    between atoms: N1_7  and  C6_8 
REMARK    6  A    between atoms: C6_8  and  C7_9 
REMARK    7  A    between atoms: C16_19  and  O3_20 
REMARK    8  A    between atoms: C20_24  and  O4_25 
ROOT
HETATM    1  C11 UNL     1      -2.195   6.051  12.795  1.00  0.00    -0.002 C 
HETATM    2  C12 UNL     1      -2.637   4.722  12.109  1.00  0.00     0.006 C 
HETATM    3  C13 UNL     1      -4.128   4.527  12.402  1.00  0.00     0.006 C 
HETATM    4  C14 UNL     1      -4.556   5.848  13.019  1.00  0.00     0.001 C 
HETATM    5  C15 UNL     1      -5.888   5.886  13.790  1.00  0.00     0.024 C 
HETATM    6  C16 UNL     1      -7.056   5.459  12.868  1.00  0.00     0.123 C 
HETATM    7  C17 UNL     1      -8.400   6.098  13.238  1.00  0.00     0.037 C 
HETATM    8  C18 UNL     1      -8.491   6.322  14.754  1.00  0.00    -0.001 C 
HETATM    9  C19 UNL     1      -9.938   6.597  15.218  1.00  0.00     0.037 C 
HETATM   10  C20 UNL     1     -10.412   8.033  15.025  1.00  0.00     0.118 C 
HETATM   11  C21 UNL     1      -9.427   9.022  15.636  1.00  0.00     0.032 C 
HETATM   12  C22 UNL     1      -8.020   8.837  15.073  1.00  0.00     0.012 C 
HETATM   13  C23 UNL     1      -7.450   7.396  15.224  1.00  0.00    -0.036 C 
HETATM   14  C24 UNL     1      -7.162   7.130  16.723  1.00  0.00     0.016 C 
HETATM   15  C25 UNL     1      -6.127   7.315  14.348  1.00  0.00     0.001 C 
HETATM   16  C26 UNL     1      -4.878   7.919  15.040  1.00  0.00     0.007 C 
HETATM   17  C27 UNL     1      -3.578   7.756  14.237  1.00  0.00     0.010 C 
HETATM   18  C28 UNL     1      -3.325   6.287  13.849  1.00  0.00    -0.036 C 
HETATM   19  C29 UNL     1      -3.093   5.419  15.109  1.00  0.00     0.016 C 
ENDROOT
BRANCH   1  20
HETATM   20  C2  UNL     1      -0.707   5.994  13.255  1.00  0.00    -0.013 C 
HETATM   21  C1  UNL     1      -0.420   6.935  14.427  1.00  0.00     0.010 C 
BRANCH  20  22
HETATM   22  C3  UNL     1       0.239   6.308  12.059  1.00  0.00     0.014 C 
BRANCH  22  23
HETATM   23  C4  UNL     1       0.852   5.070  11.394  1.00  0.00     0.103 C 
BRANCH  23  24
HETATM   24  C5  UNL     1       2.080   5.351  10.544  1.00  0.00     0.217 C 
HETATM   25  O1  UNL     1       2.855   4.484  10.158  1.00  0.00    -0.274 OA
HETATM   26  N1  UNL     1       2.255   6.703  10.303  1.00  0.00    -0.359 N 
HETATM   27  H9  UNL     1       1.494   7.327  10.534  1.00  0.00     0.162 HD
BRANCH  26  28
HETATM   28  C6  UNL     1       3.238   7.172   9.340  1.00  0.00     0.154 C 
BRANCH  28  29
HETATM   29  C7  UNL     1       4.389   7.938  10.021  1.00  0.00     0.139 C 
HETATM   30  C8  UNL     1       3.981   8.531  11.360  1.00  0.00     0.035 C 
HETATM   31  C9  UNL     1       4.258   7.397  12.317  1.00  0.00     0.029 C 
HETATM   32  C10 UNL     1       5.490   6.756  11.713  1.00  0.00     0.168 C 
HETATM   33  O2  UNL     1       5.485   7.051  10.309  1.00  0.00    -0.384 OA
ENDBRANCH  28  29
ENDBRANCH  26  28
ENDBRANCH  23  24
ENDBRANCH  22  23
ENDBRANCH  20  22
ENDBRANCH   1  20
BRANCH   6  34
HETATM   34  O3  UNL     1      -7.179   4.037  12.949  1.00  0.00    -0.395 OA
HETATM   35  H27 UNL     1      -7.867   3.768  12.316  1.00  0.00     0.210 HD
ENDBRANCH   6  34
BRANCH  10  36
HETATM   36  O4  UNL     1     -10.577   8.295  13.636  1.00  0.00    -0.396 OA
HETATM   37  H34 UNL     1     -10.892   9.211  13.545  1.00  0.00     0.210 HD
ENDBRANCH  10  36
TORSDOF 8
ENDMDL
