MODEL 1
REMARK minimizedAffinity -10.0502443
REMARK  6 active torsions:
REMARK  status: ('A' for Active; 'I' for Inactive)
REMARK    1  A    between atoms: O1_1  and  C1_2 
REMARK    2  A    between atoms: C1_2  and  C2_3 
REMARK    3  A    between atoms: C3_9  and  C4_10 
REMARK    4  A    between atoms: C8_14  and  C9_15 
REMARK    5  A    between atoms: C13_19  and  C14_20 
REMARK    6  A    between atoms: C14_20  and  N4_21 
ROOT
HETATM    1  C4  UNL     1       0.009  52.798 -24.960  1.00  0.00    -0.004 A 
HETATM    2  C5  UNL     1      -0.503  51.819 -24.102  1.00  0.00     0.015 A 
HETATM    3  C6  UNL     1      -0.273  51.867 -22.716  1.00  0.00     0.017 A 
HETATM    4  C7  UNL     1       0.494  52.918 -22.178  1.00  0.00     0.022 A 
HETATM    5  C8  UNL     1       0.951  53.334 -20.898  1.00  0.00     0.087 A 
HETATM    6  N6  UNL     1       1.686  54.453 -20.959  1.00  0.00    -0.297 N 
ATOM      7  H6  UNL     1       2.130  54.959 -20.193  1.00  0.00     0.187 HD
HETATM    8  N7  UNL     1       1.699  54.751 -22.268  1.00  0.00    -0.299 N 
HETATM    9  C23 UNL     1       1.003  53.873 -23.052  1.00  0.00     0.061 A 
HETATM   10  C24 UNL     1       0.787  53.844 -24.436  1.00  0.00     0.045 A 
HETATM   11  H24 UNL     1       2.206  55.574 -22.569  1.00  0.00     0.187 HD
ENDROOT
BRANCH   5  12
HETATM   12  C9  UNL     1       0.711  52.675 -19.510  1.00  0.00     0.062 A 
HETATM   13  C10 UNL     1      -0.171  51.689 -19.137  1.00  0.00     0.045 A 
HETATM   14  C11 UNL     1       0.015  51.450 -17.744  1.00  0.00    -0.007 A 
HETATM   15  C12 UNL     1      -0.580  50.578 -16.812  1.00  0.00     0.022 A 
HETATM   16  C22 UNL     1       1.020  52.311 -17.306  1.00  0.00     0.043 A 
HETATM   17  C13 UNL     1      -0.165  50.590 -15.467  1.00  0.00    -0.029 A 
HETATM   18  C20 UNL     1       0.855  51.468 -15.075  1.00  0.00     0.011 A 
HETATM   19  C21 UNL     1       1.464  52.344 -15.981  1.00  0.00     0.031 A 
HETATM   20  N5  UNL     1       1.423  53.042 -18.398  1.00  0.00    -0.354 N 
HETATM   21  H23 UNL     1       2.140  53.754 -18.409  1.00  0.00     0.166 HD
BRANCH  17  22
HETATM   22  C14 UNL     1      -0.803  49.650 -14.463  1.00  0.00     0.311 C 
BRANCH  22  23
HETATM   23  N4  UNL     1      -1.743  50.241 -13.504  1.00  0.00     0.092 N 
HETATM   24  C15 UNL     1      -2.492  49.261 -12.714  1.00  0.00     0.272 C 
HETATM   25  C16 UNL     1      -3.727  49.851 -12.015  1.00  0.00     0.030 C 
HETATM   26  C17 UNL     1      -3.519  51.315 -11.656  1.00  0.00     0.003 C 
HETATM   27  C18 UNL     1      -3.165  52.141 -12.895  1.00  0.00     0.030 C 
HETATM   28  C19 UNL     1      -2.584  51.302 -14.041  1.00  0.00     0.272 C 
ENDBRANCH  22  23
ENDBRANCH  17  22
ENDBRANCH   5  12
BRANCH   1  29
HETATM   29  C3  UNL     1      -0.227  52.739 -26.403  1.00  0.00     0.086 A 
HETATM   30  C2  UNL     1       0.559  52.173 -27.453  1.00  0.00     0.079 A 
HETATM   31  N1  UNL     1      -0.051  52.382 -28.632  1.00  0.00    -0.286 N 
HETATM   32  N2  UNL     1      -1.166  53.015 -28.249  1.00  0.00    -0.242 N 
ATOM     33  H1  UNL     1       0.256  52.127 -29.571  1.00  0.00     0.188 HD
HETATM   34  N3  UNL     1      -1.342  53.262 -26.947  1.00  0.00    -0.284 N 
HETATM   35  H4  UNL     1      -1.863  53.303 -28.931  1.00  0.00     0.208 HD
ATOM     36  H3  UNL     1      -2.123  53.728 -26.484  1.00  0.00     0.188 HD
BRANCH  30  37
HETATM   37  C1  UNL     1       1.856  51.445 -27.397  1.00  0.00     0.225 C 
BRANCH  37  38
HETATM   38  O1  UNL     1       2.896  52.220 -26.805  1.00  0.00    -0.395 OA
HETATM   39  H1  UNL     1       3.644  51.618 -26.659  1.00  0.00     0.209 HD
ENDBRANCH  37  38
ENDBRANCH  30  37
ENDBRANCH   1  29
TORSDOF 6
ENDMDL
MODEL 2
REMARK minimizedAffinity -9.75714779
REMARK  6 active torsions:
REMARK  status: ('A' for Active; 'I' for Inactive)
REMARK    1  A    between atoms: O1_1  and  C1_2 
REMARK    2  A    between atoms: C1_2  and  C2_3 
REMARK    3  A    between atoms: C3_9  and  C4_10 
REMARK    4  A    between atoms: C8_14  and  C9_15 
REMARK    5  A    between atoms: C13_19  and  C14_20 
REMARK    6  A    between atoms: C14_20  and  N4_21 
ROOT
HETATM    1  C4  UNL     1      -0.335  51.994 -21.674  1.00  0.00    -0.004 A 
HETATM    2  C5  UNL     1      -1.547  51.296 -21.661  1.00  0.00     0.015 A 
HETATM    3  C6  UNL     1      -2.103  50.772 -22.841  1.00  0.00     0.017 A 
HETATM    4  C7  UNL     1      -1.432  50.956 -24.064  1.00  0.00     0.022 A 
HETATM    5  C8  UNL     1      -1.625  50.613 -25.430  1.00  0.00     0.087 A 
HETATM    6  N6  UNL     1      -0.637  51.065 -26.214  1.00  0.00    -0.297 N 
ATOM      7  H6  UNL     1      -0.532  50.957 -27.223  1.00  0.00     0.187 HD
HETATM    8  N7  UNL     1       0.183  51.693 -25.357  1.00  0.00    -0.299 N 
HETATM    9  C23 UNL     1      -0.234  51.664 -24.055  1.00  0.00     0.061 A 
HETATM   10  C24 UNL     1       0.338  52.196 -22.892  1.00  0.00     0.045 A 
HETATM   11  H24 UNL     1       1.021  52.128 -25.724  1.00  0.00     0.187 HD
ENDROOT
BRANCH   5  12
HETATM   12  C9  UNL     1      -2.790  49.817 -26.083  1.00  0.00     0.062 A 
HETATM   13  C10 UNL     1      -2.996  49.463 -27.396  1.00  0.00     0.045 A 
HETATM   14  C11 UNL     1      -4.222  48.738 -27.459  1.00  0.00    -0.007 A 
HETATM   15  C12 UNL     1      -4.946  48.129 -28.502  1.00  0.00     0.022 A 
HETATM   16  C22 UNL     1      -4.731  48.670 -26.163  1.00  0.00     0.043 A 
HETATM   17  C13 UNL     1      -6.163  47.475 -28.229  1.00  0.00    -0.029 A 
HETATM   18  C20 UNL     1      -6.632  47.427 -26.908  1.00  0.00     0.011 A 
HETATM   19  C21 UNL     1      -5.930  48.022 -25.854  1.00  0.00     0.031 A 
HETATM   20  N5  UNL     1      -3.842  49.333 -25.350  1.00  0.00    -0.354 N 
HETATM   21  H23 UNL     1      -3.927  49.461 -24.352  1.00  0.00     0.166 HD
BRANCH  17  22
HETATM   22  C14 UNL     1      -6.944  46.817 -29.350  1.00  0.00     0.311 C 
BRANCH  22  23
HETATM   23  N4  UNL     1      -6.165  46.204 -30.431  1.00  0.00     0.092 N 
HETATM   24  C15 UNL     1      -5.654  47.158 -31.419  1.00  0.00     0.272 C 
HETATM   25  C16 UNL     1      -5.190  46.497 -32.727  1.00  0.00     0.030 C 
HETATM   26  C17 UNL     1      -4.659  45.092 -32.486  1.00  0.00     0.003 C 
HETATM   27  C18 UNL     1      -5.708  44.218 -31.792  1.00  0.00     0.030 C 
HETATM   28  C19 UNL     1      -6.771  45.027 -31.037  1.00  0.00     0.272 C 
ENDBRANCH  22  23
ENDBRANCH  17  22
ENDBRANCH   5  12
BRANCH   1  29
HETATM   29  C3  UNL     1       0.237  52.545 -20.445  1.00  0.00     0.086 A 
HETATM   30  C2  UNL     1      -0.098  52.309 -19.076  1.00  0.00     0.079 A 
HETATM   31  N1  UNL     1       0.687  53.062 -18.287  1.00  0.00    -0.286 N 
HETATM   32  N2  UNL     1       1.465  53.674 -19.188  1.00  0.00    -0.242 N 
ATOM     33  H1  UNL     1       0.689  53.146 -17.270  1.00  0.00     0.188 HD
HETATM   34  N3  UNL     1       1.260  53.419 -20.484  1.00  0.00    -0.284 N 
HETATM   35  H4  UNL     1       2.195  54.318 -18.894  1.00  0.00     0.208 HD
ATOM     36  H3  UNL     1       1.753  53.791 -21.295  1.00  0.00     0.188 HD
BRANCH  30  37
HETATM   37  C1  UNL     1      -1.122  51.409 -18.479  1.00  0.00     0.225 C 
BRANCH  37  38
HETATM   38  O1  UNL     1      -2.414  52.009 -18.420  1.00  0.00    -0.395 OA
HETATM   39  H1  UNL     1      -3.037  51.305 -18.178  1.00  0.00     0.209 HD
ENDBRANCH  37  38
ENDBRANCH  30  37
ENDBRANCH   1  29
TORSDOF 6
ENDMDL
MODEL 3
REMARK minimizedAffinity -9.6695919
REMARK  6 active torsions:
REMARK  status: ('A' for Active; 'I' for Inactive)
REMARK    1  A    between atoms: O1_1  and  C1_2 
REMARK    2  A    between atoms: C1_2  and  C2_3 
REMARK    3  A    between atoms: C3_9  and  C4_10 
REMARK    4  A    between atoms: C8_14  and  C9_15 
REMARK    5  A    between atoms: C13_19  and  C14_20 
REMARK    6  A    between atoms: C14_20  and  N4_21 
ROOT
HETATM    1  C4  UNL     1      -0.376  52.986 -24.319  1.00  0.00    -0.004 A 
HETATM    2  C5  UNL     1       0.684  53.119 -23.415  1.00  0.00     0.015 A 
HETATM    3  C6  UNL     1       0.578  52.663 -22.090  1.00  0.00     0.017 A 
HETATM    4  C7  UNL     1      -0.621  52.065 -21.657  1.00  0.00     0.022 A 
HETATM    5  C8  UNL     1      -1.136  51.493 -20.463  1.00  0.00     0.087 A 
HETATM    6  N6  UNL     1      -2.397  51.060 -20.608  1.00  0.00    -0.297 N 
ATOM      7  H6  UNL     1      -2.995  50.614 -19.913  1.00  0.00     0.187 HD
HETATM    8  N7  UNL     1      -2.685  51.353 -21.885  1.00  0.00    -0.299 N 
HETATM    9  C23 UNL     1      -1.665  51.955 -22.570  1.00  0.00     0.061 A 
HETATM   10  C24 UNL     1      -1.582  52.402 -23.895  1.00  0.00     0.045 A 
HETATM   11  H24 UNL     1      -3.605  51.117 -22.238  1.00  0.00     0.187 HD
ENDROOT
BRANCH   5  12
HETATM   12  C9  UNL     1      -0.444  51.322 -19.081  1.00  0.00     0.062 A 
HETATM   13  C10 UNL     1       0.333  52.200 -18.363  1.00  0.00     0.045 A 
HETATM   14  C11 UNL     1       0.719  51.545 -17.157  1.00  0.00    -0.007 A 
HETATM   15  C12 UNL     1       1.497  51.921 -16.045  1.00  0.00     0.022 A 
HETATM   16  C22 UNL     1       0.157  50.269 -17.178  1.00  0.00     0.043 A 
HETATM   17  C13 UNL     1       1.701  51.016 -14.986  1.00  0.00    -0.029 A 
HETATM   18  C20 UNL     1       1.109  49.746 -15.049  1.00  0.00     0.011 A 
HETATM   19  C21 UNL     1       0.330  49.349 -16.142  1.00  0.00     0.031 A 
HETATM   20  N5  UNL     1      -0.543  50.162 -18.357  1.00  0.00    -0.354 N 
HETATM   21  H23 UNL     1      -1.065  49.356 -18.670  1.00  0.00     0.166 HD
BRANCH  17  22
HETATM   22  C14 UNL     1       2.537  51.419 -13.787  1.00  0.00     0.311 C 
BRANCH  22  23
HETATM   23  N4  UNL     1       1.811  51.839 -12.584  1.00  0.00     0.092 N 
HETATM   24  C15 UNL     1       0.539  52.514 -12.854  1.00  0.00     0.272 C 
HETATM   25  C16 UNL     1      -0.014  53.286 -11.645  1.00  0.00     0.030 C 
HETATM   26  C17 UNL     1       0.387  52.631 -10.332  1.00  0.00     0.003 C 
HETATM   27  C18 UNL     1       1.909  52.498 -10.225  1.00  0.00     0.030 C 
HETATM   28  C19 UNL     1       2.619  52.526 -11.585  1.00  0.00     0.272 C 
ENDBRANCH  22  23
ENDBRANCH  17  22
ENDBRANCH   5  12
BRANCH   1  29
HETATM   29  C3  UNL     1      -0.263  53.469 -25.696  1.00  0.00     0.086 A 
HETATM   30  C2  UNL     1      -0.450  52.790 -26.938  1.00  0.00     0.079 A 
HETATM   31  N1  UNL     1      -0.212  53.639 -27.953  1.00  0.00    -0.286 N 
HETATM   32  N2  UNL     1       0.062  54.772 -27.296  1.00  0.00    -0.242 N 
ATOM     33  H1  UNL     1      -0.236  53.465 -28.958  1.00  0.00     0.188 HD
HETATM   34  N3  UNL     1       0.052  54.751 -25.959  1.00  0.00    -0.284 N 
HETATM   35  H4  UNL     1       0.276  55.629 -27.800  1.00  0.00     0.208 HD
ATOM     36  H3  UNL     1       0.236  55.513 -25.306  1.00  0.00     0.188 HD
BRANCH  30  37
HETATM   37  C1  UNL     1      -0.841  51.381 -27.214  1.00  0.00     0.225 C 
BRANCH  37  38
HETATM   38  O1  UNL     1      -1.923  51.281 -28.137  1.00  0.00    -0.395 OA
HETATM   39  H1  UNL     1      -1.997  50.344 -28.380  1.00  0.00     0.209 HD
ENDBRANCH  37  38
ENDBRANCH  30  37
ENDBRANCH   1  29
TORSDOF 6
ENDMDL
MODEL 4
REMARK minimizedAffinity -9.65931702
REMARK  6 active torsions:
REMARK  status: ('A' for Active; 'I' for Inactive)
REMARK    1  A    between atoms: O1_1  and  C1_2 
REMARK    2  A    between atoms: C1_2  and  C2_3 
REMARK    3  A    between atoms: C3_9  and  C4_10 
REMARK    4  A    between atoms: C8_14  and  C9_15 
REMARK    5  A    between atoms: C13_19  and  C14_20 
REMARK    6  A    between atoms: C14_20  and  N4_21 
ROOT
HETATM    1  C4  UNL     1      -0.441  52.403 -24.826  1.00  0.00    -0.004 A 
HETATM    2  C5  UNL     1       0.677  52.483 -23.987  1.00  0.00     0.015 A 
HETATM    3  C6  UNL     1       0.575  52.239 -22.607  1.00  0.00     0.017 A 
HETATM    4  C7  UNL     1      -0.677  51.914 -22.051  1.00  0.00     0.022 A 
HETATM    5  C8  UNL     1      -1.208  51.607 -20.769  1.00  0.00     0.087 A 
HETATM    6  N6  UNL     1      -2.527  51.373 -20.807  1.00  0.00    -0.297 N 
ATOM      7  H6  UNL     1      -3.148  51.133 -20.034  1.00  0.00     0.187 HD
HETATM    8  N7  UNL     1      -2.838  51.530 -22.103  1.00  0.00    -0.299 N 
HETATM    9  C23 UNL     1      -1.776  51.853 -22.902  1.00  0.00     0.061 A 
HETATM   10  C24 UNL     1      -1.698  52.092 -24.280  1.00  0.00     0.045 A 
HETATM   11  H24 UNL     1      -3.802  51.403 -22.386  1.00  0.00     0.187 HD
ENDROOT
BRANCH   5  12
HETATM   12  C9  UNL     1      -0.474  51.517 -19.401  1.00  0.00     0.062 A 
HETATM   13  C10 UNL     1      -0.618  50.613 -18.375  1.00  0.00     0.045 A 
HETATM   14  C11 UNL     1       0.296  50.982 -17.345  1.00  0.00    -0.007 A 
HETATM   15  C12 UNL     1       0.607  50.454 -16.077  1.00  0.00     0.022 A 
HETATM   16  C22 UNL     1       0.979  52.116 -17.783  1.00  0.00     0.043 A 
HETATM   17  C13 UNL     1       1.585  51.073 -15.275  1.00  0.00    -0.029 A 
HETATM   18  C20 UNL     1       2.251  52.207 -15.761  1.00  0.00     0.011 A 
HETATM   19  C21 UNL     1       1.961  52.750 -17.018  1.00  0.00     0.031 A 
HETATM   20  N5  UNL     1       0.491  52.417 -19.033  1.00  0.00    -0.354 N 
HETATM   21  H23 UNL     1       0.784  53.187 -19.618  1.00  0.00     0.166 HD
BRANCH  17  22
HETATM   22  C14 UNL     1       1.923  50.505 -13.910  1.00  0.00     0.311 C 
BRANCH  22  23
HETATM   23  N4  UNL     1       1.590  51.332 -12.746  1.00  0.00     0.092 N 
HETATM   24  C15 UNL     1       0.341  52.087 -12.882  1.00  0.00     0.272 C 
HETATM   25  C16 UNL     1       0.199  53.226 -11.860  1.00  0.00     0.030 C 
HETATM   26  C17 UNL     1       0.904  52.896 -10.553  1.00  0.00     0.003 C 
HETATM   27  C18 UNL     1       2.382  52.577 -10.790  1.00  0.00     0.030 C 
HETATM   28  C19 UNL     1       2.688  52.137 -12.227  1.00  0.00     0.272 C 
ENDBRANCH  22  23
ENDBRANCH  17  22
ENDBRANCH   5  12
BRANCH   1  29
HETATM   29  C3  UNL     1      -0.331  52.665 -26.261  1.00  0.00     0.086 A 
HETATM   30  C2  UNL     1       0.654  52.254 -27.210  1.00  0.00     0.079 A 
HETATM   31  N1  UNL     1       0.351  52.758 -28.418  1.00  0.00    -0.286 N 
HETATM   32  N2  UNL     1      -0.794  53.402 -28.161  1.00  0.00    -0.242 N 
ATOM     33  H1  UNL     1       0.859  52.673 -29.299  1.00  0.00     0.188 HD
HETATM   34  N3  UNL     1      -1.261  53.392 -26.908  1.00  0.00    -0.284 N 
HETATM   35  H4  UNL     1      -1.296  53.889 -28.899  1.00  0.00     0.208 HD
ATOM     36  H3  UNL     1      -2.107  53.825 -26.538  1.00  0.00     0.188 HD
BRANCH  30  37
HETATM   37  C1  UNL     1       1.867  51.410 -27.031  1.00  0.00     0.225 C 
BRANCH  37  38
HETATM   38  O1  UNL     1       3.070  52.096 -27.371  1.00  0.00    -0.395 OA
HETATM   39  H1  UNL     1       3.804  51.537 -27.070  1.00  0.00     0.209 HD
ENDBRANCH  37  38
ENDBRANCH  30  37
ENDBRANCH   1  29
TORSDOF 6
ENDMDL
MODEL 5
REMARK minimizedAffinity -9.65106106
REMARK  6 active torsions:
REMARK  status: ('A' for Active; 'I' for Inactive)
REMARK    1  A    between atoms: O1_1  and  C1_2 
REMARK    2  A    between atoms: C1_2  and  C2_3 
REMARK    3  A    between atoms: C3_9  and  C4_10 
REMARK    4  A    between atoms: C8_14  and  C9_15 
REMARK    5  A    between atoms: C13_19  and  C14_20 
REMARK    6  A    between atoms: C14_20  and  N4_21 
ROOT
HETATM    1  C4  UNL     1      -0.651  51.983 -21.879  1.00  0.00    -0.004 A 
HETATM    2  C5  UNL     1      -1.897  51.357 -21.771  1.00  0.00     0.015 A 
HETATM    3  C6  UNL     1      -2.498  50.726 -22.874  1.00  0.00     0.017 A 
HETATM    4  C7  UNL     1      -1.837  50.727 -24.117  1.00  0.00     0.022 A 
HETATM    5  C8  UNL     1      -2.070  50.234 -25.429  1.00  0.00     0.087 A 
HETATM    6  N6  UNL     1      -1.072  50.537 -26.272  1.00  0.00    -0.297 N 
ATOM      7  H6  UNL     1      -0.988  50.304 -27.261  1.00  0.00     0.187 HD
HETATM    8  N7  UNL     1      -0.208  51.218 -25.504  1.00  0.00    -0.299 N 
HETATM    9  C23 UNL     1      -0.604  51.367 -24.204  1.00  0.00     0.061 A 
HETATM   10  C24 UNL     1       0.013  52.002 -23.118  1.00  0.00     0.045 A 
HETATM   11  H24 UNL     1       0.646  51.561 -25.928  1.00  0.00     0.187 HD
ENDROOT
BRANCH   5  12
HETATM   12  C9  UNL     1      -3.284  49.429 -25.972  1.00  0.00     0.062 A 
HETATM   13  C10 UNL     1      -3.538  48.950 -27.235  1.00  0.00     0.045 A 
HETATM   14  C11 UNL     1      -4.795  48.279 -27.197  1.00  0.00    -0.007 A 
HETATM   15  C12 UNL     1      -5.572  47.599 -28.155  1.00  0.00     0.022 A 
HETATM   16  C22 UNL     1      -5.275  48.371 -25.891  1.00  0.00     0.043 A 
HETATM   17  C13 UNL     1      -6.808  47.034 -27.790  1.00  0.00    -0.029 A 
HETATM   18  C20 UNL     1      -7.246  47.145 -26.463  1.00  0.00     0.011 A 
HETATM   19  C21 UNL     1      -6.492  47.814 -25.491  1.00  0.00     0.031 A 
HETATM   20  N5  UNL     1      -4.338  49.073 -25.171  1.00  0.00    -0.354 N 
HETATM   21  H23 UNL     1      -4.392  49.308 -24.189  1.00  0.00     0.166 HD
BRANCH  17  22
HETATM   22  C14 UNL     1      -7.645  46.299 -28.819  1.00  0.00     0.311 C 
BRANCH  22  23
HETATM   23  N4  UNL     1      -7.913  47.000 -30.080  1.00  0.00     0.092 N 
HETATM   24  C15 UNL     1      -6.985  46.664 -31.164  1.00  0.00     0.272 C 
HETATM   25  C16 UNL     1      -7.017  47.663 -32.330  1.00  0.00     0.030 C 
HETATM   26  C17 UNL     1      -8.396  48.285 -32.497  1.00  0.00     0.003 C 
HETATM   27  C18 UNL     1      -8.853  48.965 -31.203  1.00  0.00     0.030 C 
HETATM   28  C19 UNL     1      -8.142  48.433 -29.952  1.00  0.00     0.272 C 
ENDBRANCH  22  23
ENDBRANCH  17  22
ENDBRANCH   5  12
BRANCH   1  29
HETATM   29  C3  UNL     1      -0.033  52.645 -20.730  1.00  0.00     0.086 A 
HETATM   30  C2  UNL     1       1.128  53.474 -20.646  1.00  0.00     0.079 A 
HETATM   31  N1  UNL     1       1.328  53.837 -19.367  1.00  0.00    -0.286 N 
HETATM   32  N2  UNL     1       0.286  53.258 -18.758  1.00  0.00    -0.242 N 
ATOM     33  H1  UNL     1       2.076  54.404 -18.967  1.00  0.00     0.188 HD
HETATM   34  N3  UNL     1      -0.563  52.537 -19.497  1.00  0.00    -0.284 N 
HETATM   35  H4  UNL     1       0.143  53.363 -17.757  1.00  0.00     0.208 HD
ATOM     36  H3  UNL     1      -1.399  52.033 -19.201  1.00  0.00     0.188 HD
BRANCH  30  37
HETATM   37  C1  UNL     1       2.055  53.939 -21.712  1.00  0.00     0.225 C 
BRANCH  37  38
HETATM   38  O1  UNL     1       1.783  55.273 -22.134  1.00  0.00    -0.395 OA
HETATM   39  H1  UNL     1       2.525  55.545 -22.698  1.00  0.00     0.209 HD
ENDBRANCH  37  38
ENDBRANCH  30  37
ENDBRANCH   1  29
TORSDOF 6
ENDMDL
MODEL 6
REMARK minimizedAffinity -9.47628021
REMARK  6 active torsions:
REMARK  status: ('A' for Active; 'I' for Inactive)
REMARK    1  A    between atoms: O1_1  and  C1_2 
REMARK    2  A    between atoms: C1_2  and  C2_3 
REMARK    3  A    between atoms: C3_9  and  C4_10 
REMARK    4  A    between atoms: C8_14  and  C9_15 
REMARK    5  A    between atoms: C13_19  and  C14_20 
REMARK    6  A    between atoms: C14_20  and  N4_21 
ROOT
HETATM    1  C4  UNL     1       0.068  52.406 -24.537  1.00  0.00    -0.004 A 
HETATM    2  C5  UNL     1      -0.596  51.432 -23.782  1.00  0.00     0.015 A 
HETATM    3  C6  UNL     1      -0.585  51.461 -22.377  1.00  0.00     0.017 A 
HETATM    4  C7  UNL     1       0.114  52.487 -21.711  1.00  0.00     0.022 A 
HETATM    5  C8  UNL     1       0.375  52.878 -20.370  1.00  0.00     0.087 A 
HETATM    6  N6  UNL     1       1.138  53.979 -20.300  1.00  0.00    -0.297 N 
ATOM      7  H6  UNL     1       1.469  54.466 -19.468  1.00  0.00     0.187 HD
HETATM    8  N7  UNL     1       1.362  54.288 -21.587  1.00  0.00    -0.299 N 
HETATM    9  C23 UNL     1       0.777  53.436 -22.482  1.00  0.00     0.061 A 
HETATM   10  C24 UNL     1       0.779  53.427 -23.883  1.00  0.00     0.045 A 
HETATM   11  H24 UNL     1       1.929  55.102 -21.794  1.00  0.00     0.187 HD
ENDROOT
BRANCH   5  12
HETATM   12  C9  UNL     1      -0.094  52.213 -19.046  1.00  0.00     0.062 A 
HETATM   13  C10 UNL     1      -1.353  51.836 -18.640  1.00  0.00     0.045 A 
HETATM   14  C11 UNL     1      -1.233  51.272 -17.336  1.00  0.00    -0.007 A 
HETATM   15  C12 UNL     1      -2.150  50.720 -16.421  1.00  0.00     0.022 A 
HETATM   16  C22 UNL     1       0.115  51.321 -16.984  1.00  0.00     0.043 A 
HETATM   17  C13 UNL     1      -1.703  50.238 -15.176  1.00  0.00    -0.029 A 
HETATM   18  C20 UNL     1      -0.336  50.303 -14.869  1.00  0.00     0.011 A 
HETATM   19  C21 UNL     1       0.596  50.844 -15.762  1.00  0.00     0.031 A 
HETATM   20  N5  UNL     1       0.781  51.897 -18.040  1.00  0.00    -0.354 N 
HETATM   21  H23 UNL     1       1.775  52.074 -18.094  1.00  0.00     0.166 HD
BRANCH  17  22
HETATM   22  C14 UNL     1      -2.688  49.642 -14.189  1.00  0.00     0.311 C 
BRANCH  22  23
HETATM   23  N4  UNL     1      -3.207  50.534 -13.148  1.00  0.00     0.092 N 
HETATM   24  C15 UNL     1      -2.586  51.862 -13.129  1.00  0.00     0.272 C 
HETATM   25  C16 UNL     1      -2.837  52.638 -11.827  1.00  0.00     0.030 C 
HETATM   26  C17 UNL     1      -4.178  52.271 -11.207  1.00  0.00     0.003 C 
HETATM   27  C18 UNL     1      -4.273  50.765 -10.953  1.00  0.00     0.030 C 
HETATM   28  C19 UNL     1      -3.316  49.939 -11.823  1.00  0.00     0.272 C 
ENDBRANCH  22  23
ENDBRANCH  17  22
ENDBRANCH   5  12
BRANCH   1  29
HETATM   29  C3  UNL     1       0.059  52.368 -25.999  1.00  0.00     0.086 A 
HETATM   30  C2  UNL     1      -1.008  52.127 -26.918  1.00  0.00     0.079 A 
HETATM   31  N1  UNL     1      -0.535  52.166 -28.175  1.00  0.00    -0.286 N 
HETATM   32  N2  UNL     1       0.754  52.458 -27.967  1.00  0.00    -0.242 N 
ATOM     33  H1  UNL     1      -1.028  52.013 -29.055  1.00  0.00     0.188 HD
HETATM   34  N3  UNL     1       1.181  52.593 -26.708  1.00  0.00    -0.284 N 
HETATM   35  H4  UNL     1       1.395  52.572 -28.748  1.00  0.00     0.208 HD
ATOM     36  H3  UNL     1       2.119  52.811 -26.370  1.00  0.00     0.188 HD
BRANCH  30  37
HETATM   37  C1  UNL     1      -2.451  51.863 -26.666  1.00  0.00     0.225 C 
BRANCH  37  38
HETATM   38  O1  UNL     1      -3.100  52.945 -26.002  1.00  0.00    -0.395 OA
HETATM   39  H1  UNL     1      -4.053  52.759 -26.031  1.00  0.00     0.209 HD
ENDBRANCH  37  38
ENDBRANCH  30  37
ENDBRANCH   1  29
TORSDOF 6
ENDMDL
MODEL 7
REMARK minimizedAffinity -9.46816254
REMARK  6 active torsions:
REMARK  status: ('A' for Active; 'I' for Inactive)
REMARK    1  A    between atoms: O1_1  and  C1_2 
REMARK    2  A    between atoms: C1_2  and  C2_3 
REMARK    3  A    between atoms: C3_9  and  C4_10 
REMARK    4  A    between atoms: C8_14  and  C9_15 
REMARK    5  A    between atoms: C13_19  and  C14_20 
REMARK    6  A    between atoms: C14_20  and  N4_21 
ROOT
HETATM    1  C4  UNL     1      -0.449  52.388 -23.928  1.00  0.00    -0.004 A 
HETATM    2  C5  UNL     1      -0.993  52.431 -25.216  1.00  0.00     0.015 A 
HETATM    3  C6  UNL     1      -1.895  51.450 -25.663  1.00  0.00     0.017 A 
HETATM    4  C7  UNL     1      -2.256  50.397 -24.801  1.00  0.00     0.022 A 
HETATM    5  C8  UNL     1      -3.092  49.248 -24.841  1.00  0.00     0.087 A 
HETATM    6  N6  UNL     1      -3.058  48.554 -23.695  1.00  0.00    -0.297 N 
ATOM      7  H6  UNL     1      -3.561  47.698 -23.461  1.00  0.00     0.187 HD
HETATM    8  N7  UNL     1      -2.208  49.253 -22.928  1.00  0.00    -0.299 N 
HETATM    9  C23 UNL     1      -1.692  50.368 -23.530  1.00  0.00     0.061 A 
HETATM   10  C24 UNL     1      -0.792  51.334 -23.063  1.00  0.00     0.045 A 
HETATM   11  H24 UNL     1      -2.015  48.916 -21.992  1.00  0.00     0.187 HD
ENDROOT
BRANCH   5  12
HETATM   12  C9  UNL     1      -3.991  48.731 -26.000  1.00  0.00     0.062 A 
HETATM   13  C10 UNL     1      -3.728  48.619 -27.344  1.00  0.00     0.045 A 
HETATM   14  C11 UNL     1      -4.895  48.087 -27.968  1.00  0.00    -0.007 A 
HETATM   15  C12 UNL     1      -5.230  47.753 -29.294  1.00  0.00     0.022 A 
HETATM   16  C22 UNL     1      -5.846  47.888 -26.968  1.00  0.00     0.043 A 
HETATM   17  C13 UNL     1      -6.506  47.237 -29.592  1.00  0.00    -0.029 A 
HETATM   18  C20 UNL     1      -7.427  47.048 -28.552  1.00  0.00     0.011 A 
HETATM   19  C21 UNL     1      -7.118  47.369 -27.225  1.00  0.00     0.031 A 
HETATM   20  N5  UNL     1      -5.270  48.288 -25.785  1.00  0.00    -0.354 N 
HETATM   21  H23 UNL     1      -5.704  48.268 -24.873  1.00  0.00     0.166 HD
BRANCH  17  22
HETATM   22  C14 UNL     1      -6.869  46.876 -31.019  1.00  0.00     0.311 C 
BRANCH  22  23
HETATM   23  N4  UNL     1      -7.396  45.526 -31.249  1.00  0.00     0.092 N 
HETATM   24  C15 UNL     1      -6.640  44.464 -30.580  1.00  0.00     0.272 C 
HETATM   25  C16 UNL     1      -6.943  43.059 -31.126  1.00  0.00     0.030 C 
HETATM   26  C17 UNL     1      -8.373  42.953 -31.633  1.00  0.00     0.003 C 
HETATM   27  C18 UNL     1      -8.658  44.010 -32.703  1.00  0.00     0.030 C 
HETATM   28  C19 UNL     1      -7.709  45.215 -32.637  1.00  0.00     0.272 C 
ENDBRANCH  22  23
ENDBRANCH  17  22
ENDBRANCH   5  12
BRANCH   1  29
HETATM   29  C3  UNL     1       0.495  53.408 -23.470  1.00  0.00     0.086 A 
HETATM   30  C2  UNL     1       1.002  53.687 -22.164  1.00  0.00     0.079 A 
HETATM   31  N1  UNL     1       1.833  54.742 -22.222  1.00  0.00    -0.286 N 
HETATM   32  N2  UNL     1       1.821  55.021 -23.530  1.00  0.00    -0.242 N 
ATOM     33  H1  UNL     1       2.339  55.206 -21.468  1.00  0.00     0.188 HD
HETATM   34  N3  UNL     1       1.054  54.277 -24.333  1.00  0.00    -0.284 N 
HETATM   35  H4  UNL     1       2.380  55.783 -23.906  1.00  0.00     0.208 HD
ATOM     36  H3  UNL     1       0.925  54.348 -25.342  1.00  0.00     0.188 HD
BRANCH  30  37
HETATM   37  C1  UNL     1       0.742  53.007 -20.866  1.00  0.00     0.225 C 
BRANCH  37  38
HETATM   38  O1  UNL     1       0.841  53.891 -19.752  1.00  0.00    -0.395 OA
HETATM   39  H1  UNL     1       0.497  53.410 -18.982  1.00  0.00     0.209 HD
ENDBRANCH  37  38
ENDBRANCH  30  37
ENDBRANCH   1  29
TORSDOF 6
ENDMDL
MODEL 8
REMARK minimizedAffinity -9.43615341
REMARK  6 active torsions:
REMARK  status: ('A' for Active; 'I' for Inactive)
REMARK    1  A    between atoms: O1_1  and  C1_2 
REMARK    2  A    between atoms: C1_2  and  C2_3 
REMARK    3  A    between atoms: C3_9  and  C4_10 
REMARK    4  A    between atoms: C8_14  and  C9_15 
REMARK    5  A    between atoms: C13_19  and  C14_20 
REMARK    6  A    between atoms: C14_20  and  N4_21 
ROOT
HETATM    1  C4  UNL     1      -0.006  52.754 -24.913  1.00  0.00    -0.004 A 
HETATM    2  C5  UNL     1      -0.444  51.747 -24.046  1.00  0.00     0.015 A 
HETATM    3  C6  UNL     1      -0.178  51.800 -22.668  1.00  0.00     0.017 A 
HETATM    4  C7  UNL     1       0.551  52.886 -22.145  1.00  0.00     0.022 A 
HETATM    5  C8  UNL     1       1.023  53.318 -20.876  1.00  0.00     0.087 A 
HETATM    6  N6  UNL     1       1.700  54.473 -20.951  1.00  0.00    -0.297 N 
ATOM      7  H6  UNL     1       2.139  54.997 -20.195  1.00  0.00     0.187 HD
HETATM    8  N7  UNL     1       1.660  54.777 -22.258  1.00  0.00    -0.299 N 
HETATM    9  C23 UNL     1       0.987  53.869 -23.027  1.00  0.00     0.061 A 
HETATM   10  C24 UNL     1       0.734  53.835 -24.405  1.00  0.00     0.045 A 
HETATM   11  H24 UNL     1       2.117  55.626 -22.569  1.00  0.00     0.187 HD
ENDROOT
BRANCH   5  12
HETATM   12  C9  UNL     1       0.855  52.642 -19.486  1.00  0.00     0.062 A 
HETATM   13  C10 UNL     1       0.092  51.562 -19.111  1.00  0.00     0.045 A 
HETATM   14  C11 UNL     1       0.298  51.353 -17.716  1.00  0.00    -0.007 A 
HETATM   15  C12 UNL     1      -0.196  50.421 -16.782  1.00  0.00     0.022 A 
HETATM   16  C22 UNL     1       1.195  52.327 -17.278  1.00  0.00     0.043 A 
HETATM   17  C13 UNL     1       0.210  50.488 -15.436  1.00  0.00    -0.029 A 
HETATM   18  C20 UNL     1       1.119  51.480 -15.044  1.00  0.00     0.011 A 
HETATM   19  C21 UNL     1       1.627  52.416 -15.952  1.00  0.00     0.031 A 
HETATM   20  N5  UNL     1       1.515  53.094 -18.373  1.00  0.00    -0.354 N 
HETATM   21  H23 UNL     1       2.145  53.884 -18.384  1.00  0.00     0.166 HD
BRANCH  17  22
HETATM   22  C14 UNL     1      -0.319  49.485 -14.429  1.00  0.00     0.311 C 
BRANCH  22  23
HETATM   23  N4  UNL     1       0.606  48.434 -13.990  1.00  0.00     0.092 N 
HETATM   24  C15 UNL     1       0.233  47.085 -14.424  1.00  0.00     0.272 C 
HETATM   25  C16 UNL     1       0.959  45.971 -13.653  1.00  0.00     0.030 C 
HETATM   26  C17 UNL     1       2.343  46.412 -13.202  1.00  0.00     0.003 C 
HETATM   27  C18 UNL     1       2.266  47.683 -12.351  1.00  0.00     0.030 C 
HETATM   28  C19 UNL     1       0.985  48.495 -12.585  1.00  0.00     0.272 C 
ENDBRANCH  22  23
ENDBRANCH  17  22
ENDBRANCH   5  12
BRANCH   1  29
HETATM   29  C3  UNL     1      -0.279  52.690 -26.349  1.00  0.00     0.086 A 
HETATM   30  C2  UNL     1       0.494  52.148 -27.421  1.00  0.00     0.079 A 
HETATM   31  N1  UNL     1      -0.153  52.341 -28.583  1.00  0.00    -0.286 N 
HETATM   32  N2  UNL     1      -1.275  52.940 -28.169  1.00  0.00    -0.242 N 
ATOM     33  H1  UNL     1       0.135  52.095 -29.530  1.00  0.00     0.188 HD
HETATM   34  N3  UNL     1      -1.423  53.181 -26.862  1.00  0.00    -0.284 N 
HETATM   35  H4  UNL     1      -1.998  53.209 -28.831  1.00  0.00     0.208 HD
ATOM     36  H3  UNL     1      -2.204  53.623 -26.377  1.00  0.00     0.188 HD
BRANCH  30  37
HETATM   37  C1  UNL     1       1.812  51.457 -27.401  1.00  0.00     0.225 C 
BRANCH  37  38
HETATM   38  O1  UNL     1       2.861  52.288 -26.907  1.00  0.00    -0.395 OA
HETATM   39  H1  UNL     1       3.633  51.714 -26.775  1.00  0.00     0.209 HD
ENDBRANCH  37  38
ENDBRANCH  30  37
ENDBRANCH   1  29
TORSDOF 6
ENDMDL
MODEL 9
REMARK minimizedAffinity -9.42373276
REMARK  6 active torsions:
REMARK  status: ('A' for Active; 'I' for Inactive)
REMARK    1  A    between atoms: O1_1  and  C1_2 
REMARK    2  A    between atoms: C1_2  and  C2_3 
REMARK    3  A    between atoms: C3_9  and  C4_10 
REMARK    4  A    between atoms: C8_14  and  C9_15 
REMARK    5  A    between atoms: C13_19  and  C14_20 
REMARK    6  A    between atoms: C14_20  and  N4_21 
ROOT
HETATM    1  C4  UNL     1      -2.129  51.044 -25.455  1.00  0.00    -0.004 A 
HETATM    2  C5  UNL     1      -2.446  50.385 -24.262  1.00  0.00     0.015 A 
HETATM    3  C6  UNL     1      -1.804  50.709 -23.054  1.00  0.00     0.017 A 
HETATM    4  C7  UNL     1      -0.817  51.712 -23.042  1.00  0.00     0.022 A 
HETATM    5  C8  UNL     1       0.043  52.326 -22.092  1.00  0.00     0.087 A 
HETATM    6  N6  UNL     1       0.826  53.264 -22.644  1.00  0.00    -0.297 N 
ATOM      7  H6  UNL     1       1.526  53.850 -22.189  1.00  0.00     0.187 HD
HETATM    8  N7  UNL     1       0.469  53.249 -23.938  1.00  0.00    -0.299 N 
HETATM    9  C23 UNL     1      -0.509  52.344 -24.243  1.00  0.00     0.061 A 
HETATM   10  C24 UNL     1      -1.136  52.038 -25.458  1.00  0.00     0.045 A 
HETATM   11  H24 UNL     1       0.935  53.887 -24.573  1.00  0.00     0.187 HD
ENDROOT
BRANCH   5  12
HETATM   12  C9  UNL     1       0.174  52.050 -20.567  1.00  0.00     0.062 A 
HETATM   13  C10 UNL     1      -0.429  51.095 -19.783  1.00  0.00     0.045 A 
HETATM   14  C11 UNL     1       0.036  51.278 -18.448  1.00  0.00    -0.007 A 
HETATM   15  C12 UNL     1      -0.216  50.624 -17.226  1.00  0.00     0.022 A 
HETATM   16  C22 UNL     1       0.922  52.354 -18.461  1.00  0.00     0.043 A 
HETATM   17  C13 UNL     1       0.417  51.063 -16.047  1.00  0.00    -0.029 A 
HETATM   18  C20 UNL     1       1.306  52.145 -16.111  1.00  0.00     0.011 A 
HETATM   19  C21 UNL     1       1.575  52.810 -17.313  1.00  0.00     0.031 A 
HETATM   20  N5  UNL     1       0.986  52.802 -19.759  1.00  0.00    -0.354 N 
HETATM   21  H23 UNL     1       1.545  53.573 -20.097  1.00  0.00     0.166 HD
BRANCH  17  22
HETATM   22  C14 UNL     1       0.149  50.360 -14.731  1.00  0.00     0.311 C 
BRANCH  22  23
HETATM   23  N4  UNL     1      -0.844  50.971 -13.841  1.00  0.00     0.092 N 
HETATM   24  C15 UNL     1      -2.192  51.053 -14.411  1.00  0.00     0.272 C 
HETATM   25  C16 UNL     1      -3.117  52.024 -13.661  1.00  0.00     0.030 C 
HETATM   26  C17 UNL     1      -2.767  52.100 -12.182  1.00  0.00     0.003 C 
HETATM   27  C18 UNL     1      -1.303  52.501 -11.983  1.00  0.00     0.030 C 
HETATM   28  C19 UNL     1      -0.421  52.211 -13.204  1.00  0.00     0.272 C 
ENDBRANCH  22  23
ENDBRANCH  17  22
ENDBRANCH   5  12
BRANCH   1  29
HETATM   29  C3  UNL     1      -2.795  50.699 -26.711  1.00  0.00     0.086 A 
HETATM   30  C2  UNL     1      -3.638  49.595 -27.046  1.00  0.00     0.079 A 
HETATM   31  N1  UNL     1      -4.000  49.682 -28.337  1.00  0.00    -0.286 N 
HETATM   32  N2  UNL     1      -3.407  50.824 -28.705  1.00  0.00    -0.242 N 
ATOM     33  H1  UNL     1      -4.574  49.046 -28.890  1.00  0.00     0.188 HD
HETATM   34  N3  UNL     1      -2.677  51.483 -27.800  1.00  0.00    -0.284 N 
HETATM   35  H4  UNL     1      -3.507  51.182 -29.652  1.00  0.00     0.208 HD
ATOM     36  H3  UNL     1      -2.163  52.357 -27.906  1.00  0.00     0.188 HD
BRANCH  30  37
HETATM   37  C1  UNL     1      -4.117  48.463 -26.206  1.00  0.00     0.225 C 
BRANCH  37  38
HETATM   38  O1  UNL     1      -5.346  48.754 -25.542  1.00  0.00    -0.395 OA
HETATM   39  H1  UNL     1      -5.661  47.918 -25.162  1.00  0.00     0.209 HD
ENDBRANCH  37  38
ENDBRANCH  30  37
ENDBRANCH   1  29
TORSDOF 6
ENDMDL
