MODEL 1
REMARK minimizedAffinity -7.60767031
REMARK CNNscore 0.416298091
REMARK CNNaffinity 5.71133184
REMARK  8 active torsions:
REMARK  status: ('A' for Active; 'I' for Inactive)
REMARK    1  A    between atoms: C3_3  and  O1_4 
REMARK    2  A    between atoms: N1_14  and  O2_16 
REMARK    3  A    between atoms: O2_16  and  C13_17 
REMARK    4  A    between atoms: C13_17  and  C14_18 
REMARK       I    between atoms: C14_18  and  N2_20 
REMARK    5  A    between atoms: N2_20  and  C15_21 
REMARK    6  A    between atoms: C15_21  and  C16_22 
REMARK    7  A    between atoms: C16_22  and  O4_23 
REMARK    8  A    between atoms: C16_22  and  C17_24 
ROOT
HETATM    1  C1  UNL     1      -2.885 -14.598   1.401  1.00  0.00     0.015 C 
HETATM    2  C2  UNL     1      -2.768 -13.629   2.101  1.00  0.00    -0.078 C 
HETATM    3  C3  UNL     1      -2.609 -12.447   2.963  1.00  0.00     0.128 C 
HETATM    4  C4  UNL     1      -2.261 -11.191   2.158  1.00  0.00     0.052 C 
HETATM    5  C5  UNL     1      -2.469 -10.078   3.178  1.00  0.00     0.010 C 
HETATM    6  C6  UNL     1      -3.778 -10.465   3.876  1.00  0.00     0.002 C 
HETATM    7  C7  UNL     1      -4.033  -9.840   5.269  1.00  0.00    -0.004 C 
HETATM    8  C8  UNL     1      -2.830  -9.777   6.226  1.00  0.00     0.010 C 
HETATM    9  C9  UNL     1      -3.192  -9.125   7.562  1.00  0.00     0.035 C 
HETATM   10  C10 UNL     1      -4.439  -9.691   8.203  1.00  0.00    -0.069 C 
HETATM   11  C11 UNL     1      -4.440 -10.015   9.508  1.00  0.00     0.030 C 
HETATM   12  C12 UNL     1      -5.682 -10.432  10.210  1.00  0.00     0.032 C 
HETATM   13  N1  UNL     1      -5.572 -10.855  11.438  1.00  0.00    -0.271 N 
ATOM     14  H1  UNL     1      -4.686 -10.952  11.934  1.00  0.00     0.194 HD
HETATM   15  C23 UNL     1      -6.991 -10.274   9.465  1.00  0.00     0.060 C 
HETATM   16  C24 UNL     1      -6.799 -10.641   7.998  1.00  0.00     0.020 C 
HETATM   17  C25 UNL     1      -5.664  -9.833   7.299  1.00  0.00    -0.016 C 
HETATM   18  C26 UNL     1      -6.221  -8.415   7.008  1.00  0.00     0.020 C 
HETATM   19  C27 UNL     1      -5.243 -10.534   5.949  1.00  0.00     0.002 C 
HETATM   20  C28 UNL     1      -4.997 -12.063   6.098  1.00  0.00     0.007 C 
HETATM   21  C29 UNL     1      -3.965 -12.683   5.155  1.00  0.00     0.014 C 
HETATM   22  C30 UNL     1      -3.891 -12.027   3.770  1.00  0.00     0.003 C 
HETATM   23  C31 UNL     1      -5.195 -12.363   2.993  1.00  0.00     0.020 C 
ENDROOT
BRANCH   3  24
HETATM   24  O1  UNL     1      -1.510 -12.690   3.848  1.00  0.00    -0.377 OA
HETATM   25  H2  UNL     1      -0.798 -13.087   3.321  1.00  0.00     0.211 HD
ENDBRANCH   3  24
BRANCH  13  26
HETATM   26  O2  UNL     1      -6.822 -11.160  11.991  1.00  0.00    -0.271 OA
BRANCH  26  27
HETATM   27  C13 UNL     1      -7.166 -10.157  12.942  1.00  0.00     0.303 C 
BRANCH  27  28
HETATM   28  C14 UNL     1      -8.672 -10.175  13.185  1.00  0.00     0.243 C 
HETATM   29  O3  UNL     1      -9.478  -9.771  12.351  1.00  0.00    -0.271 OA
HETATM   30  N2  UNL     1      -9.053 -10.700  14.402  1.00  0.00    -0.356 N 
HETATM   31  H16 UNL     1      -8.321 -10.819  15.095  1.00  0.00     0.162 HD
BRANCH  30  32
HETATM   32  C15 UNL     1     -10.437 -10.660  14.847  1.00  0.00     0.159 C 
BRANCH  32  33
HETATM   33  C16 UNL     1     -10.783  -9.409  15.681  1.00  0.00     0.170 C 
BRANCH  33  34
HETATM   34  O4  UNL     1     -12.191  -9.166  15.610  1.00  0.00    -0.389 OA
HETATM   35  H20 UNL     1     -12.366  -8.385  16.163  1.00  0.00     0.210 HD
ENDBRANCH  33  34
BRANCH  33  36
HETATM   36  C17 UNL     1     -10.381  -9.570  17.129  1.00  0.00    -0.013 A 
HETATM   37  C18 UNL     1      -9.610  -8.615  17.799  1.00  0.00     0.013 A 
HETATM   38  C19 UNL     1      -9.295  -8.796  19.142  1.00  0.00     0.025 A 
HETATM   39  C20 UNL     1      -9.771  -9.926  19.798  1.00  0.00     0.005 A 
HETATM   40  C21 UNL     1      -9.446 -10.148  21.246  1.00  0.00     0.068 C 
HETATM   41  N3  UNL     1     -10.529 -10.860  19.178  1.00  0.00    -0.369 N 
HETATM   42  C22 UNL     1     -10.812 -10.665  17.868  1.00  0.00     0.097 A 
ATOM     43  H3  UNL     1     -10.874 -11.679  19.678  1.00  0.00     0.165 HD
ENDBRANCH  33  36
ENDBRANCH  32  33
ENDBRANCH  30  32
ENDBRANCH  27  28
ENDBRANCH  26  27
ENDBRANCH  13  26
TORSDOF 8
ENDMDL
MODEL 2
REMARK minimizedAffinity -8.61938477
REMARK CNNscore 0.385984629
REMARK CNNaffinity 5.94805574
REMARK  8 active torsions:
REMARK  status: ('A' for Active; 'I' for Inactive)
REMARK    1  A    between atoms: C3_3  and  O1_4 
REMARK    2  A    between atoms: N1_14  and  O2_16 
REMARK    3  A    between atoms: O2_16  and  C13_17 
REMARK    4  A    between atoms: C13_17  and  C14_18 
REMARK       I    between atoms: C14_18  and  N2_20 
REMARK    5  A    between atoms: N2_20  and  C15_21 
REMARK    6  A    between atoms: C15_21  and  C16_22 
REMARK    7  A    between atoms: C16_22  and  O4_23 
REMARK    8  A    between atoms: C16_22  and  C17_24 
ROOT
HETATM    1  C1  UNL     1      10.953  13.572  19.650  1.00  0.00     0.015 C 
HETATM    2  C2  UNL     1      10.109  13.093  20.357  1.00  0.00    -0.078 C 
HETATM    3  C3  UNL     1       9.081  12.488  21.219  1.00  0.00     0.128 C 
HETATM    4  C4  UNL     1       9.430  12.618  22.705  1.00  0.00     0.052 C 
HETATM    5  C5  UNL     1       8.119  12.240  23.386  1.00  0.00     0.010 C 
HETATM    6  C6  UNL     1       7.057  12.974  22.559  1.00  0.00     0.002 C 
HETATM    7  C7  UNL     1       5.607  12.439  22.660  1.00  0.00    -0.004 C 
HETATM    8  C8  UNL     1       5.436  10.910  22.649  1.00  0.00     0.010 C 
HETATM    9  C9  UNL     1       3.969  10.496  22.772  1.00  0.00     0.035 C 
HETATM   10  C10 UNL     1       3.047  11.209  21.809  1.00  0.00    -0.069 C 
HETATM   11  C11 UNL     1       2.139  10.513  21.101  1.00  0.00     0.030 C 
HETATM   12  C12 UNL     1       1.118  11.188  20.259  1.00  0.00     0.032 C 
HETATM   13  N1  UNL     1       0.364  10.440  19.504  1.00  0.00    -0.271 N 
ATOM     14  H1  UNL     1       0.453   9.427  19.428  1.00  0.00     0.194 HD
HETATM   15  C23 UNL     1       0.990  12.692  20.389  1.00  0.00     0.060 C 
HETATM   16  C24 UNL     1       2.371  13.318  20.540  1.00  0.00     0.020 C 
HETATM   17  C25 UNL     1       3.194  12.728  21.725  1.00  0.00    -0.016 C 
HETATM   18  C26 UNL     1       2.628  13.346  23.031  1.00  0.00     0.020 C 
HETATM   19  C27 UNL     1       4.721  13.100  21.572  1.00  0.00     0.002 C 
HETATM   20  C28 UNL     1       5.284  12.824  20.149  1.00  0.00     0.007 C 
HETATM   21  C29 UNL     1       6.767  12.461  20.061  1.00  0.00     0.014 C 
HETATM   22  C30 UNL     1       7.653  13.136  21.117  1.00  0.00     0.003 C 
HETATM   23  C31 UNL     1       7.731  14.655  20.797  1.00  0.00     0.020 C 
ENDROOT
BRANCH   3  24
HETATM   24  O1  UNL     1       9.026  11.089  20.927  1.00  0.00    -0.377 OA
HETATM   25  H2  UNL     1       9.941  10.772  20.856  1.00  0.00     0.211 HD
ENDBRANCH   3  24
BRANCH  13  26
HETATM   26  O2  UNL     1      -0.586  11.201  18.810  1.00  0.00    -0.271 OA
BRANCH  26  27
HETATM   27  C13 UNL     1      -1.832  10.511  18.822  1.00  0.00     0.303 C 
BRANCH  27  28
HETATM   28  C14 UNL     1      -2.274  10.225  17.390  1.00  0.00     0.243 C 
HETATM   29  O3  UNL     1      -2.378  11.111  16.545  1.00  0.00    -0.271 OA
HETATM   30  N2  UNL     1      -2.524   8.897  17.117  1.00  0.00    -0.356 N 
HETATM   31  H16 UNL     1      -2.605   8.277  17.916  1.00  0.00     0.162 HD
BRANCH  30  32
HETATM   32  C15 UNL     1      -3.087   8.476  15.844  1.00  0.00     0.159 C 
BRANCH  32  33
HETATM   33  C16 UNL     1      -4.601   8.746  15.718  1.00  0.00     0.170 C 
BRANCH  33  34
HETATM   34  O4  UNL     1      -4.807   9.964  14.996  1.00  0.00    -0.389 OA
HETATM   35  H20 UNL     1      -5.770  10.084  14.924  1.00  0.00     0.210 HD
ENDBRANCH  33  34
BRANCH  33  36
HETATM   36  C17 UNL     1      -5.316   7.621  15.005  1.00  0.00    -0.013 A 
HETATM   37  C18 UNL     1      -6.695   7.642  14.775  1.00  0.00     0.013 A 
HETATM   38  C19 UNL     1      -7.299   6.596  14.085  1.00  0.00     0.025 A 
HETATM   39  C20 UNL     1      -6.507   5.551  13.622  1.00  0.00     0.005 A 
HETATM   40  C21 UNL     1      -7.132   4.408  12.876  1.00  0.00     0.068 C 
HETATM   41  N3  UNL     1      -5.169   5.511  13.819  1.00  0.00    -0.369 N 
HETATM   42  C22 UNL     1      -4.608   6.536  14.503  1.00  0.00     0.097 A 
ATOM     43  H3  UNL     1      -4.605   4.738  13.465  1.00  0.00     0.165 HD
ENDBRANCH  33  36
ENDBRANCH  32  33
ENDBRANCH  30  32
ENDBRANCH  27  28
ENDBRANCH  26  27
ENDBRANCH  13  26
TORSDOF 8
ENDMDL
MODEL 3
REMARK minimizedAffinity -9.38204098
REMARK CNNscore 0.375410825
REMARK CNNaffinity 7.04293013
REMARK  8 active torsions:
REMARK  status: ('A' for Active; 'I' for Inactive)
REMARK    1  A    between atoms: C3_3  and  O1_4 
REMARK    2  A    between atoms: N1_14  and  O2_16 
REMARK    3  A    between atoms: O2_16  and  C13_17 
REMARK    4  A    between atoms: C13_17  and  C14_18 
REMARK       I    between atoms: C14_18  and  N2_20 
REMARK    5  A    between atoms: N2_20  and  C15_21 
REMARK    6  A    between atoms: C15_21  and  C16_22 
REMARK    7  A    between atoms: C16_22  and  O4_23 
REMARK    8  A    between atoms: C16_22  and  C17_24 
ROOT
HETATM    1  C1  UNL     1       2.306   6.190   6.683  1.00  0.00     0.015 C 
HETATM    2  C2  UNL     1       2.398   6.449   7.852  1.00  0.00    -0.078 C 
HETATM    3  C3  UNL     1       2.519   6.749   9.288  1.00  0.00     0.128 C 
HETATM    4  C4  UNL     1       3.730   7.637   9.589  1.00  0.00     0.052 C 
HETATM    5  C5  UNL     1       3.469   8.074  11.025  1.00  0.00     0.010 C 
HETATM    6  C6  UNL     1       1.975   8.417  11.034  1.00  0.00     0.002 C 
HETATM    7  C7  UNL     1       1.274   8.427  12.415  1.00  0.00    -0.004 C 
HETATM    8  C8  UNL     1       1.641   7.288  13.382  1.00  0.00     0.010 C 
HETATM    9  C9  UNL     1       0.905   7.409  14.717  1.00  0.00     0.035 C 
HETATM   10  C10 UNL     1      -0.586   7.620  14.579  1.00  0.00    -0.069 C 
HETATM   11  C11 UNL     1      -1.442   6.895  15.320  1.00  0.00     0.030 C 
HETATM   12  C12 UNL     1      -2.902   7.172  15.326  1.00  0.00     0.032 C 
HETATM   13  N1  UNL     1      -3.675   6.341  15.966  1.00  0.00    -0.271 N 
ATOM     14  H1  UNL     1      -3.347   5.496  16.432  1.00  0.00     0.194 HD
HETATM   15  C23 UNL     1      -3.374   8.437  14.638  1.00  0.00     0.060 C 
HETATM   16  C24 UNL     1      -2.572   8.662  13.362  1.00  0.00     0.020 C 
HETATM   17  C25 UNL     1      -1.031   8.701  13.595  1.00  0.00    -0.016 C 
HETATM   18  C26 UNL     1      -0.694  10.086  14.207  1.00  0.00     0.020 C 
HETATM   19  C27 UNL     1      -0.264   8.516  12.228  1.00  0.00     0.002 C 
HETATM   20  C28 UNL     1      -0.793   7.324  11.380  1.00  0.00     0.007 C 
HETATM   21  C29 UNL     1       0.224   6.623  10.479  1.00  0.00     0.014 C 
HETATM   22  C30 UNL     1       1.314   7.543   9.911  1.00  0.00     0.003 C 
HETATM   23  C31 UNL     1       0.661   8.503   8.877  1.00  0.00     0.020 C 
ENDROOT
BRANCH   3  24
HETATM   24  O1  UNL     1       2.726   5.515   9.982  1.00  0.00    -0.377 OA
HETATM   25  H2  UNL     1       3.373   5.001   9.470  1.00  0.00     0.211 HD
ENDBRANCH   3  24
BRANCH  13  26
HETATM   26  O2  UNL     1      -5.013   6.754  15.935  1.00  0.00    -0.271 OA
BRANCH  26  27
HETATM   27  C13 UNL     1      -5.791   5.757  15.281  1.00  0.00     0.303 C 
BRANCH  27  28
HETATM   28  C14 UNL     1      -6.863   6.423  14.423  1.00  0.00     0.243 C 
HETATM   29  O3  UNL     1      -6.668   7.481  13.830  1.00  0.00    -0.271 OA
HETATM   30  N2  UNL     1      -8.055   5.732  14.351  1.00  0.00    -0.356 N 
HETATM   31  H16 UNL     1      -8.188   4.985  15.024  1.00  0.00     0.162 HD
BRANCH  30  32
HETATM   32  C15 UNL     1      -9.221   6.298  13.693  1.00  0.00     0.159 C 
BRANCH  32  33
HETATM   33  C16 UNL     1     -10.118   7.132  14.631  1.00  0.00     0.170 C 
BRANCH  33  34
HETATM   34  O4  UNL     1      -9.516   8.412  14.848  1.00  0.00    -0.389 OA
HETATM   35  H20 UNL     1     -10.121   8.909  15.427  1.00  0.00     0.210 HD
ENDBRANCH  33  34
BRANCH  33  36
HETATM   36  C17 UNL     1     -11.503   7.328  14.060  1.00  0.00    -0.013 A 
HETATM   37  C18 UNL     1     -11.854   8.467  13.328  1.00  0.00     0.013 A 
HETATM   38  C19 UNL     1     -13.134   8.583  12.797  1.00  0.00     0.025 A 
HETATM   39  C20 UNL     1     -14.040   7.546  12.995  1.00  0.00     0.005 A 
HETATM   40  C21 UNL     1     -15.429   7.645  12.434  1.00  0.00     0.068 C 
HETATM   41  N3  UNL     1     -13.725   6.428  13.688  1.00  0.00    -0.369 N 
HETATM   42  C22 UNL     1     -12.476   6.346  14.204  1.00  0.00     0.097 A 
ATOM     43  H3  UNL     1     -14.402   5.676  13.817  1.00  0.00     0.165 HD
ENDBRANCH  33  36
ENDBRANCH  32  33
ENDBRANCH  30  32
ENDBRANCH  27  28
ENDBRANCH  26  27
ENDBRANCH  13  26
TORSDOF 8
ENDMDL
MODEL 4
REMARK minimizedAffinity -10.2646894
REMARK CNNscore 0.332868278
REMARK CNNaffinity 7.36709833
REMARK  8 active torsions:
REMARK  status: ('A' for Active; 'I' for Inactive)
REMARK    1  A    between atoms: C3_3  and  O1_4 
REMARK    2  A    between atoms: N1_14  and  O2_16 
REMARK    3  A    between atoms: O2_16  and  C13_17 
REMARK    4  A    between atoms: C13_17  and  C14_18 
REMARK       I    between atoms: C14_18  and  N2_20 
REMARK    5  A    between atoms: N2_20  and  C15_21 
REMARK    6  A    between atoms: C15_21  and  C16_22 
REMARK    7  A    between atoms: C16_22  and  O4_23 
REMARK    8  A    between atoms: C16_22  and  C17_24 
ROOT
HETATM    1  C1  UNL     1       2.553   5.890   6.958  1.00  0.00     0.015 C 
HETATM    2  C2  UNL     1       2.548   6.094   8.142  1.00  0.00    -0.078 C 
HETATM    3  C3  UNL     1       2.547   6.324   9.595  1.00  0.00     0.128 C 
HETATM    4  C4  UNL     1       3.841   6.991  10.072  1.00  0.00     0.052 C 
HETATM    5  C5  UNL     1       3.488   7.420  11.491  1.00  0.00     0.010 C 
HETATM    6  C6  UNL     1       2.077   8.003  11.353  1.00  0.00     0.002 C 
HETATM    7  C7  UNL     1       1.230   8.084  12.647  1.00  0.00    -0.004 C 
HETATM    8  C8  UNL     1       1.296   6.871  13.590  1.00  0.00     0.010 C 
HETATM    9  C9  UNL     1       0.438   7.069  14.841  1.00  0.00     0.035 C 
HETATM   10  C10 UNL     1      -0.974   7.526  14.551  1.00  0.00    -0.069 C 
HETATM   11  C11 UNL     1      -2.016   6.928  15.156  1.00  0.00     0.030 C 
HETATM   12  C12 UNL     1      -3.403   7.441  15.015  1.00  0.00     0.032 C 
HETATM   13  N1  UNL     1      -4.368   6.728  15.524  1.00  0.00    -0.271 N 
ATOM     14  H1  UNL     1      -4.236   5.826  15.980  1.00  0.00     0.194 HD
HETATM   15  C23 UNL     1      -3.584   8.787  14.344  1.00  0.00     0.060 C 
HETATM   16  C24 UNL     1      -2.613   8.917  13.176  1.00  0.00     0.020 C 
HETATM   17  C25 UNL     1      -1.124   8.696  13.579  1.00  0.00    -0.016 C 
HETATM   18  C26 UNL     1      -0.644   9.987  14.293  1.00  0.00     0.020 C 
HETATM   19  C27 UNL     1      -0.242   8.431  12.296  1.00  0.00     0.002 C 
HETATM   20  C28 UNL     1      -0.852   7.369  11.337  1.00  0.00     0.007 C 
HETATM   21  C29 UNL     1       0.139   6.539  10.520  1.00  0.00     0.014 C 
HETATM   22  C30 UNL     1       1.420   7.286  10.121  1.00  0.00     0.003 C 
HETATM   23  C31 UNL     1       1.053   8.372   9.072  1.00  0.00     0.020 C 
ENDROOT
BRANCH   3  24
HETATM   24  O1  UNL     1       2.473   5.052  10.245  1.00  0.00    -0.377 OA
HETATM   25  H2  UNL     1       3.084   4.455   9.783  1.00  0.00     0.211 HD
ENDBRANCH   3  24
BRANCH  13  26
HETATM   26  O2  UNL     1      -5.610   7.357  15.366  1.00  0.00    -0.271 OA
BRANCH  26  27
HETATM   27  C13 UNL     1      -6.589   6.644  16.116  1.00  0.00     0.303 C 
BRANCH  27  28
HETATM   28  C14 UNL     1      -7.438   5.794  15.176  1.00  0.00     0.243 C 
HETATM   29  O3  UNL     1      -8.555   6.143  14.802  1.00  0.00    -0.271 OA
HETATM   30  N2  UNL     1      -6.843   4.620  14.765  1.00  0.00    -0.356 N 
HETATM   31  H16 UNL     1      -6.018   4.326  15.276  1.00  0.00     0.162 HD
BRANCH  30  32
HETATM   32  C15 UNL     1      -7.571   3.633  13.983  1.00  0.00     0.159 C 
BRANCH  32  33
HETATM   33  C16 UNL     1      -7.394   3.797  12.459  1.00  0.00     0.170 C 
BRANCH  33  34
HETATM   34  O4  UNL     1      -7.965   5.042  12.046  1.00  0.00    -0.389 OA
HETATM   35  H20 UNL     1      -7.814   5.112  11.087  1.00  0.00     0.210 HD
ENDBRANCH  33  34
BRANCH  33  36
HETATM   36  C17 UNL     1      -5.938   3.763  12.055  1.00  0.00    -0.013 A 
HETATM   37  C18 UNL     1      -4.974   4.566  12.673  1.00  0.00     0.013 A 
HETATM   38  C19 UNL     1      -3.641   4.472  12.284  1.00  0.00     0.025 A 
HETATM   39  C20 UNL     1      -3.293   3.563  11.291  1.00  0.00     0.005 A 
HETATM   40  C21 UNL     1      -1.863   3.443  10.851  1.00  0.00     0.068 C 
HETATM   41  N3  UNL     1      -4.203   2.766  10.685  1.00  0.00    -0.369 N 
HETATM   42  C22 UNL     1      -5.494   2.885  11.073  1.00  0.00     0.097 A 
ATOM     43  H3  UNL     1      -3.926   2.101   9.962  1.00  0.00     0.165 HD
ENDBRANCH  33  36
ENDBRANCH  32  33
ENDBRANCH  30  32
ENDBRANCH  27  28
ENDBRANCH  26  27
ENDBRANCH  13  26
TORSDOF 8
ENDMDL
MODEL 5
REMARK minimizedAffinity -8.81524181
REMARK CNNscore 0.32038188
REMARK CNNaffinity 7.1029458
REMARK  8 active torsions:
REMARK  status: ('A' for Active; 'I' for Inactive)
REMARK    1  A    between atoms: C3_3  and  O1_4 
REMARK    2  A    between atoms: N1_14  and  O2_16 
REMARK    3  A    between atoms: O2_16  and  C13_17 
REMARK    4  A    between atoms: C13_17  and  C14_18 
REMARK       I    between atoms: C14_18  and  N2_20 
REMARK    5  A    between atoms: N2_20  and  C15_21 
REMARK    6  A    between atoms: C15_21  and  C16_22 
REMARK    7  A    between atoms: C16_22  and  O4_23 
REMARK    8  A    between atoms: C16_22  and  C17_24 
ROOT
HETATM    1  C1  UNL     1       0.064  15.061  17.599  1.00  0.00     0.015 C 
HETATM    2  C2  UNL     1      -0.627  14.083  17.510  1.00  0.00    -0.078 C 
HETATM    3  C3  UNL     1      -1.468  12.879  17.419  1.00  0.00     0.128 C 
HETATM    4  C4  UNL     1      -2.944  13.187  17.693  1.00  0.00     0.052 C 
HETATM    5  C5  UNL     1      -3.639  11.912  17.230  1.00  0.00     0.010 C 
HETATM    6  C6  UNL     1      -2.935  11.574  15.911  1.00  0.00     0.002 C 
HETATM    7  C7  UNL     1      -3.044  10.109  15.421  1.00  0.00    -0.004 C 
HETATM    8  C8  UNL     1      -2.889   9.013  16.490  1.00  0.00     0.010 C 
HETATM    9  C9  UNL     1      -3.033   7.610  15.899  1.00  0.00     0.035 C 
HETATM   10  C10 UNL     1      -2.185   7.372  14.669  1.00  0.00    -0.069 C 
HETATM   11  C11 UNL     1      -1.450   6.250  14.562  1.00  0.00     0.030 C 
HETATM   12  C12 UNL     1      -0.723   5.907  13.312  1.00  0.00     0.032 C 
HETATM   13  N1  UNL     1       0.069   4.873  13.336  1.00  0.00    -0.271 N 
ATOM     14  H1  UNL     1       0.249   4.307  14.164  1.00  0.00     0.194 HD
HETATM   15  C23 UNL     1      -1.007   6.751  12.086  1.00  0.00     0.060 C 
HETATM   16  C24 UNL     1      -1.160   8.213  12.489  1.00  0.00     0.020 C 
HETATM   17  C25 UNL     1      -2.245   8.446  13.583  1.00  0.00    -0.016 C 
HETATM   18  C26 UNL     1      -3.628   8.356  12.886  1.00  0.00     0.020 C 
HETATM   19  C27 UNL     1      -2.065   9.870  14.241  1.00  0.00     0.002 C 
HETATM   20  C28 UNL     1      -0.598  10.174  14.661  1.00  0.00     0.007 C 
HETATM   21  C29 UNL     1      -0.412  11.099  15.864  1.00  0.00     0.014 C 
HETATM   22  C30 UNL     1      -1.491  12.181  16.011  1.00  0.00     0.003 C 
HETATM   23  C31 UNL     1      -1.321  13.208  14.856  1.00  0.00     0.020 C 
ENDROOT
BRANCH   3  24
HETATM   24  O1  UNL     1      -1.042  11.963  18.432  1.00  0.00    -0.377 OA
HETATM   25  H2  UNL     1      -0.902  12.476  19.245  1.00  0.00     0.211 HD
ENDBRANCH   3  24
BRANCH  13  26
HETATM   26  O2  UNL     1       0.643   4.636  12.080  1.00  0.00    -0.271 OA
BRANCH  26  27
HETATM   27  C13 UNL     1      -0.395   4.437  11.125  1.00  0.00     0.303 C 
BRANCH  27  28
HETATM   28  C14 UNL     1      -1.146   3.148  11.445  1.00  0.00     0.243 C 
HETATM   29  O3  UNL     1      -0.580   2.062  11.539  1.00  0.00    -0.271 OA
HETATM   30  N2  UNL     1      -2.502   3.305  11.642  1.00  0.00    -0.356 N 
HETATM   31  H16 UNL     1      -2.904   4.190  11.351  1.00  0.00     0.162 HD
BRANCH  30  32
HETATM   32  C15 UNL     1      -3.382   2.160  11.815  1.00  0.00     0.159 C 
BRANCH  32  33
HETATM   33  C16 UNL     1      -4.807   2.387  11.270  1.00  0.00     0.170 C 
BRANCH  33  34
HETATM   34  O4  UNL     1      -5.446   1.122  11.070  1.00  0.00    -0.389 OA
HETATM   35  H20 UNL     1      -6.344   1.313  10.746  1.00  0.00     0.210 HD
ENDBRANCH  33  34
BRANCH  33  36
HETATM   36  C17 UNL     1      -5.645   3.221  12.211  1.00  0.00    -0.013 A 
HETATM   37  C18 UNL     1      -6.926   2.831  12.613  1.00  0.00     0.013 A 
HETATM   38  C19 UNL     1      -7.643   3.620  13.508  1.00  0.00     0.025 A 
HETATM   39  C20 UNL     1      -7.056   4.781  13.998  1.00  0.00     0.005 A 
HETATM   40  C21 UNL     1      -7.807   5.652  14.963  1.00  0.00     0.068 C 
HETATM   41  N3  UNL     1      -5.814   5.177  13.636  1.00  0.00    -0.369 N 
HETATM   42  C22 UNL     1      -5.143   4.397  12.755  1.00  0.00     0.097 A 
ATOM     43  H3  UNL     1      -5.399   6.030  14.011  1.00  0.00     0.165 HD
ENDBRANCH  33  36
ENDBRANCH  32  33
ENDBRANCH  30  32
ENDBRANCH  27  28
ENDBRANCH  26  27
ENDBRANCH  13  26
TORSDOF 8
ENDMDL
MODEL 6
REMARK minimizedAffinity -9.2404604
REMARK CNNscore 0.302539349
REMARK CNNaffinity 6.52656698
REMARK  8 active torsions:
REMARK  status: ('A' for Active; 'I' for Inactive)
REMARK    1  A    between atoms: C3_3  and  O1_4 
REMARK    2  A    between atoms: N1_14  and  O2_16 
REMARK    3  A    between atoms: O2_16  and  C13_17 
REMARK    4  A    between atoms: C13_17  and  C14_18 
REMARK       I    between atoms: C14_18  and  N2_20 
REMARK    5  A    between atoms: N2_20  and  C15_21 
REMARK    6  A    between atoms: C15_21  and  C16_22 
REMARK    7  A    between atoms: C16_22  and  O4_23 
REMARK    8  A    between atoms: C16_22  and  C17_24 
ROOT
HETATM    1  C1  UNL     1      -2.864  10.355  18.080  1.00  0.00     0.015 C 
HETATM    2  C2  UNL     1      -2.842   9.592  17.152  1.00  0.00    -0.078 C 
HETATM    3  C3  UNL     1      -2.815   8.642  16.028  1.00  0.00     0.128 C 
HETATM    4  C4  UNL     1      -4.205   8.436  15.418  1.00  0.00     0.052 C 
HETATM    5  C5  UNL     1      -3.889   7.709  14.116  1.00  0.00     0.010 C 
HETATM    6  C6  UNL     1      -2.677   8.467  13.562  1.00  0.00     0.002 C 
HETATM    7  C7  UNL     1      -1.804   7.718  12.525  1.00  0.00    -0.004 C 
HETATM    8  C8  UNL     1      -1.513   6.235  12.813  1.00  0.00     0.010 C 
HETATM    9  C9  UNL     1      -0.661   5.594  11.717  1.00  0.00     0.035 C 
HETATM   10  C10 UNL     1       0.574   6.388  11.356  1.00  0.00    -0.069 C 
HETATM   11  C11 UNL     1       1.765   5.772  11.243  1.00  0.00     0.030 C 
HETATM   12  C12 UNL     1       2.971   6.484  10.747  1.00  0.00     0.032 C 
HETATM   13  N1  UNL     1       4.110   5.853  10.794  1.00  0.00    -0.271 N 
ATOM     14  H1  UNL     1       4.232   4.918  11.182  1.00  0.00     0.194 HD
HETATM   15  C23 UNL     1       2.773   7.869  10.165  1.00  0.00     0.060 C 
HETATM   16  C24 UNL     1       1.735   8.630  10.981  1.00  0.00     0.020 C 
HETATM   17  C25 UNL     1       0.373   7.883  11.106  1.00  0.00    -0.016 C 
HETATM   18  C26 UNL     1      -0.371   8.054   9.755  1.00  0.00     0.020 C 
HETATM   19  C27 UNL     1      -0.488   8.500  12.276  1.00  0.00     0.002 C 
HETATM   20  C28 UNL     1       0.311   8.683  13.599  1.00  0.00     0.007 C 
HETATM   21  C29 UNL     1      -0.487   8.576  14.898  1.00  0.00     0.014 C 
HETATM   22  C30 UNL     1      -1.934   9.079  14.801  1.00  0.00     0.003 C 
HETATM   23  C31 UNL     1      -1.909  10.624  14.632  1.00  0.00     0.020 C 
ENDROOT
BRANCH   3  24
HETATM   24  O1  UNL     1      -2.390   7.372  16.531  1.00  0.00    -0.377 OA
HETATM   25  H2  UNL     1      -2.860   7.221  17.368  1.00  0.00     0.211 HD
ENDBRANCH   3  24
BRANCH  13  26
HETATM   26  O2  UNL     1       5.146   6.619  10.245  1.00  0.00    -0.271 OA
BRANCH  26  27
HETATM   27  C13 UNL     1       5.388   7.742  11.087  1.00  0.00     0.303 C 
BRANCH  27  28
HETATM   28  C14 UNL     1       6.480   7.401  12.097  1.00  0.00     0.243 C 
HETATM   29  O3  UNL     1       7.566   6.937  11.759  1.00  0.00    -0.271 OA
HETATM   30  N2  UNL     1       6.158   7.674  13.410  1.00  0.00    -0.356 N 
HETATM   31  H16 UNL     1       5.180   7.864  13.607  1.00  0.00     0.162 HD
BRANCH  30  32
HETATM   32  C15 UNL     1       7.029   7.278  14.504  1.00  0.00     0.159 C 
BRANCH  32  33
HETATM   33  C16 UNL     1       7.498   8.458  15.380  1.00  0.00     0.170 C 
BRANCH  33  34
HETATM   34  O4  UNL     1       7.547   8.042  16.749  1.00  0.00    -0.389 OA
HETATM   35  H20 UNL     1       7.864   8.807  17.260  1.00  0.00     0.210 HD
ENDBRANCH  33  34
BRANCH  33  36
HETATM   36  C17 UNL     1       8.862   8.959  14.967  1.00  0.00    -0.013 A 
HETATM   37  C18 UNL     1       9.243  10.296  15.119  1.00  0.00     0.013 A 
HETATM   38  C19 UNL     1      10.523  10.699  14.751  1.00  0.00     0.025 A 
HETATM   39  C20 UNL     1      11.408   9.750  14.251  1.00  0.00     0.005 A 
HETATM   40  C21 UNL     1      12.795  10.157  13.845  1.00  0.00     0.068 C 
HETATM   41  N3  UNL     1      11.071   8.448  14.104  1.00  0.00    -0.369 N 
HETATM   42  C22 UNL     1       9.815   8.085  14.458  1.00  0.00     0.097 A 
ATOM     43  H3  UNL     1      11.737   7.766  13.741  1.00  0.00     0.165 HD
ENDBRANCH  33  36
ENDBRANCH  32  33
ENDBRANCH  30  32
ENDBRANCH  27  28
ENDBRANCH  26  27
ENDBRANCH  13  26
TORSDOF 8
ENDMDL
MODEL 7
REMARK minimizedAffinity -8.73847866
REMARK CNNscore 0.293830991
REMARK CNNaffinity 6.42118979
REMARK  8 active torsions:
REMARK  status: ('A' for Active; 'I' for Inactive)
REMARK    1  A    between atoms: C3_3  and  O1_4 
REMARK    2  A    between atoms: N1_14  and  O2_16 
REMARK    3  A    between atoms: O2_16  and  C13_17 
REMARK    4  A    between atoms: C13_17  and  C14_18 
REMARK       I    between atoms: C14_18  and  N2_20 
REMARK    5  A    between atoms: N2_20  and  C15_21 
REMARK    6  A    between atoms: C15_21  and  C16_22 
REMARK    7  A    between atoms: C16_22  and  O4_23 
REMARK    8  A    between atoms: C16_22  and  C17_24 
ROOT
HETATM    1  C1  UNL     1      -0.310  10.315  14.563  1.00  0.00     0.015 C 
HETATM    2  C2  UNL     1      -0.948   9.313  14.386  1.00  0.00    -0.078 C 
HETATM    3  C3  UNL     1      -1.724   8.085  14.152  1.00  0.00     0.128 C 
HETATM    4  C4  UNL     1      -1.030   6.848  14.730  1.00  0.00     0.052 C 
HETATM    5  C5  UNL     1      -2.130   5.794  14.668  1.00  0.00     0.010 C 
HETATM    6  C6  UNL     1      -3.375   6.540  15.160  1.00  0.00     0.002 C 
HETATM    7  C7  UNL     1      -4.746   5.933  14.772  1.00  0.00    -0.004 C 
HETATM    8  C8  UNL     1      -4.883   5.405  13.333  1.00  0.00     0.010 C 
HETATM    9  C9  UNL     1      -6.267   4.813  13.067  1.00  0.00     0.035 C 
HETATM   10  C10 UNL     1      -7.410   5.711  13.487  1.00  0.00    -0.069 C 
HETATM   11  C11 UNL     1      -8.446   5.920  12.655  1.00  0.00     0.030 C 
HETATM   12  C12 UNL     1      -9.655   6.671  13.084  1.00  0.00     0.032 C 
HETATM   13  N1  UNL     1     -10.553   6.942  12.179  1.00  0.00    -0.271 N 
ATOM     14  H1  UNL     1     -10.462   6.704  11.192  1.00  0.00     0.194 HD
HETATM   15  C23 UNL     1      -9.780   7.011  14.555  1.00  0.00     0.060 C 
HETATM   16  C24 UNL     1      -8.416   7.401  15.113  1.00  0.00     0.020 C 
HETATM   17  C25 UNL     1      -7.319   6.317  14.888  1.00  0.00    -0.016 C 
HETATM   18  C26 UNL     1      -7.567   5.189  15.923  1.00  0.00     0.020 C 
HETATM   19  C27 UNL     1      -5.883   6.937  15.101  1.00  0.00     0.002 C 
HETATM   20  C28 UNL     1      -5.674   8.283  14.349  1.00  0.00     0.007 C 
HETATM   21  C29 UNL     1      -4.249   8.593  13.891  1.00  0.00     0.014 C 
HETATM   22  C30 UNL     1      -3.149   8.054  14.816  1.00  0.00     0.003 C 
HETATM   23  C31 UNL     1      -3.182   8.859  16.145  1.00  0.00     0.020 C 
ENDROOT
BRANCH   3  24
HETATM   24  O1  UNL     1      -1.819   7.885  12.738  1.00  0.00    -0.377 OA
HETATM   25  H2  UNL     1      -0.941   8.061  12.362  1.00  0.00     0.211 HD
ENDBRANCH   3  24
BRANCH  13  26
HETATM   26  O2  UNL     1     -11.657   7.602  12.732  1.00  0.00    -0.271 OA
BRANCH  26  27
HETATM   27  C13 UNL     1     -11.540   8.998  12.475  1.00  0.00     0.303 C 
BRANCH  27  28
HETATM   28  C14 UNL     1     -12.924   9.639  12.482  1.00  0.00     0.243 C 
HETATM   29  O3  UNL     1     -13.946   9.001  12.242  1.00  0.00    -0.271 OA
HETATM   30  N2  UNL     1     -12.937  10.981  12.801  1.00  0.00    -0.356 N 
HETATM   31  H16 UNL     1     -12.042  11.459  12.786  1.00  0.00     0.162 HD
BRANCH  30  32
HETATM   32  C15 UNL     1     -14.154  11.771  12.714  1.00  0.00     0.159 C 
BRANCH  32  33
HETATM   33  C16 UNL     1     -13.918  13.289  12.849  1.00  0.00     0.170 C 
BRANCH  33  34
HETATM   34  O4  UNL     1     -12.531  13.533  13.103  1.00  0.00    -0.389 OA
HETATM   35  H20 UNL     1     -12.426  14.499  13.162  1.00  0.00     0.210 HD
ENDBRANCH  33  34
BRANCH  33  36
HETATM   36  C17 UNL     1     -14.331  14.037  11.603  1.00  0.00    -0.013 A 
HETATM   37  C18 UNL     1     -13.397  14.601  10.727  1.00  0.00     0.013 A 
HETATM   38  C19 UNL     1     -13.830  15.251   9.577  1.00  0.00     0.025 A 
HETATM   39  C20 UNL     1     -15.194  15.314   9.313  1.00  0.00     0.005 A 
HETATM   40  C21 UNL     1     -15.689  16.011   8.079  1.00  0.00     0.068 C 
HETATM   41  N3  UNL     1     -16.119  14.767  10.135  1.00  0.00    -0.369 N 
HETATM   42  C22 UNL     1     -15.672  14.150  11.254  1.00  0.00     0.097 A 
ATOM     43  H3  UNL     1     -17.115  14.819   9.920  1.00  0.00     0.165 HD
ENDBRANCH  33  36
ENDBRANCH  32  33
ENDBRANCH  30  32
ENDBRANCH  27  28
ENDBRANCH  26  27
ENDBRANCH  13  26
TORSDOF 8
ENDMDL
MODEL 8
REMARK minimizedAffinity -7.68274355
REMARK CNNscore 0.29136759
REMARK CNNaffinity 5.57316542
REMARK  8 active torsions:
REMARK  status: ('A' for Active; 'I' for Inactive)
REMARK    1  A    between atoms: C3_3  and  O1_4 
REMARK    2  A    between atoms: N1_14  and  O2_16 
REMARK    3  A    between atoms: O2_16  and  C13_17 
REMARK    4  A    between atoms: C13_17  and  C14_18 
REMARK       I    between atoms: C14_18  and  N2_20 
REMARK    5  A    between atoms: N2_20  and  C15_21 
REMARK    6  A    between atoms: C15_21  and  C16_22 
REMARK    7  A    between atoms: C16_22  and  O4_23 
REMARK    8  A    between atoms: C16_22  and  C17_24 
ROOT
HETATM    1  C1  UNL     1      10.915  13.730  19.585  1.00  0.00     0.015 C 
HETATM    2  C2  UNL     1      10.085  13.239  20.301  1.00  0.00    -0.078 C 
HETATM    3  C3  UNL     1       9.075  12.620  21.175  1.00  0.00     0.128 C 
HETATM    4  C4  UNL     1       9.456  12.721  22.655  1.00  0.00     0.052 C 
HETATM    5  C5  UNL     1       8.160  12.334  23.357  1.00  0.00     0.010 C 
HETATM    6  C6  UNL     1       7.082  13.085  22.567  1.00  0.00     0.002 C 
HETATM    7  C7  UNL     1       5.633  12.550  22.690  1.00  0.00    -0.004 C 
HETATM    8  C8  UNL     1       5.458  11.022  22.654  1.00  0.00     0.010 C 
HETATM    9  C9  UNL     1       3.993  10.609  22.801  1.00  0.00     0.035 C 
HETATM   10  C10 UNL     1       3.052  11.342  21.872  1.00  0.00    -0.069 C 
HETATM   11  C11 UNL     1       2.128  10.660  21.171  1.00  0.00     0.030 C 
HETATM   12  C12 UNL     1       1.090  11.353  20.364  1.00  0.00     0.032 C 
HETATM   13  N1  UNL     1       0.318  10.620  19.612  1.00  0.00    -0.271 N 
ATOM     14  H1  UNL     1       0.404   9.609  19.515  1.00  0.00     0.194 HD
HETATM   15  C23 UNL     1       0.968  12.854  20.525  1.00  0.00     0.060 C 
HETATM   16  C24 UNL     1       2.354  13.475  20.657  1.00  0.00     0.020 C 
HETATM   17  C25 UNL     1       3.201  12.862  21.813  1.00  0.00    -0.016 C 
HETATM   18  C26 UNL     1       2.664  13.456  23.142  1.00  0.00     0.020 C 
HETATM   19  C27 UNL     1       4.725  13.234  21.634  1.00  0.00     0.002 C 
HETATM   20  C28 UNL     1       5.256  12.983  20.193  1.00  0.00     0.007 C 
HETATM   21  C29 UNL     1       6.736  12.619  20.066  1.00  0.00     0.014 C 
HETATM   22  C30 UNL     1       7.646  13.273  21.115  1.00  0.00     0.003 C 
HETATM   23  C31 UNL     1       7.721  14.798  20.822  1.00  0.00     0.020 C 
ENDROOT
BRANCH   3  24
HETATM   24  O1  UNL     1       9.010  11.227  20.858  1.00  0.00    -0.377 OA
HETATM   25  H2  UNL     1       9.923  10.909  20.761  1.00  0.00     0.211 HD
ENDBRANCH   3  24
BRANCH  13  26
HETATM   26  O2  UNL     1      -0.645  11.396  18.953  1.00  0.00    -0.271 OA
BRANCH  26  27
HETATM   27  C13 UNL     1      -1.864  10.663  18.885  1.00  0.00     0.303 C 
BRANCH  27  28
HETATM   28  C14 UNL     1      -2.421  10.724  17.466  1.00  0.00     0.243 C 
HETATM   29  O3  UNL     1      -3.617  10.881  17.235  1.00  0.00    -0.271 OA
HETATM   30  N2  UNL     1      -1.474  10.612  16.469  1.00  0.00    -0.356 N 
HETATM   31  H16 UNL     1      -0.555  10.289  16.751  1.00  0.00     0.162 HD
BRANCH  30  32
HETATM   32  C15 UNL     1      -1.854  10.509  15.069  1.00  0.00     0.159 C 
BRANCH  32  33
HETATM   33  C16 UNL     1      -1.968   9.056  14.564  1.00  0.00     0.170 C 
BRANCH  33  34
HETATM   34  O4  UNL     1      -3.279   8.839  14.033  1.00  0.00    -0.389 OA
HETATM   35  H20 UNL     1      -3.299   7.921  13.711  1.00  0.00     0.210 HD
ENDBRANCH  33  34
BRANCH  33  36
HETATM   36  C17 UNL     1      -0.945   8.751  13.494  1.00  0.00    -0.013 A 
HETATM   37  C18 UNL     1       0.224   8.032  13.764  1.00  0.00     0.013 A 
HETATM   38  C19 UNL     1       1.118   7.750  12.735  1.00  0.00     0.025 A 
HETATM   39  C20 UNL     1       0.817   8.181  11.447  1.00  0.00     0.005 A 
HETATM   40  C21 UNL     1       1.764   7.892  10.319  1.00  0.00     0.068 C 
HETATM   41  N3  UNL     1      -0.312   8.867  11.156  1.00  0.00    -0.369 N 
HETATM   42  C22 UNL     1      -1.159   9.138  12.177  1.00  0.00     0.097 A 
ATOM     43  H3  UNL     1      -0.517   9.168  10.203  1.00  0.00     0.165 HD
ENDBRANCH  33  36
ENDBRANCH  32  33
ENDBRANCH  30  32
ENDBRANCH  27  28
ENDBRANCH  26  27
ENDBRANCH  13  26
TORSDOF 8
ENDMDL
MODEL 9
REMARK minimizedAffinity -7.87656784
REMARK CNNscore 0.28627041
REMARK CNNaffinity 5.61899757
REMARK  8 active torsions:
REMARK  status: ('A' for Active; 'I' for Inactive)
REMARK    1  A    between atoms: C3_3  and  O1_4 
REMARK    2  A    between atoms: N1_14  and  O2_16 
REMARK    3  A    between atoms: O2_16  and  C13_17 
REMARK    4  A    between atoms: C13_17  and  C14_18 
REMARK       I    between atoms: C14_18  and  N2_20 
REMARK    5  A    between atoms: N2_20  and  C15_21 
REMARK    6  A    between atoms: C15_21  and  C16_22 
REMARK    7  A    between atoms: C16_22  and  O4_23 
REMARK    8  A    between atoms: C16_22  and  C17_24 
ROOT
HETATM    1  C1  UNL     1       9.599  18.273  20.403  1.00  0.00     0.015 C 
HETATM    2  C2  UNL     1       9.177  17.323  21.004  1.00  0.00    -0.078 C 
HETATM    3  C3  UNL     1       8.675  16.148  21.735  1.00  0.00     0.128 C 
HETATM    4  C4  UNL     1       9.005  16.218  23.229  1.00  0.00     0.052 C 
HETATM    5  C5  UNL     1       8.131  15.113  23.812  1.00  0.00     0.010 C 
HETATM    6  C6  UNL     1       6.789  15.295  23.094  1.00  0.00     0.002 C 
HETATM    7  C7  UNL     1       5.840  14.072  23.075  1.00  0.00    -0.004 C 
HETATM    8  C8  UNL     1       6.488  12.701  22.812  1.00  0.00     0.010 C 
HETATM    9  C9  UNL     1       5.462  11.567  22.835  1.00  0.00     0.035 C 
HETATM   10  C10 UNL     1       4.241  11.826  21.982  1.00  0.00    -0.069 C 
HETATM   11  C11 UNL     1       3.783  10.873  21.151  1.00  0.00     0.030 C 
HETATM   12  C12 UNL     1       2.505  11.030  20.409  1.00  0.00     0.032 C 
HETATM   13  N1  UNL     1       2.200  10.120  19.527  1.00  0.00    -0.271 N 
ATOM     14  H1  UNL     1       2.798   9.330  19.288  1.00  0.00     0.194 HD
HETATM   15  C23 UNL     1       1.622  12.204  20.780  1.00  0.00     0.060 C 
HETATM   16  C24 UNL     1       2.484  13.430  21.059  1.00  0.00     0.020 C 
HETATM   17  C25 UNL     1       3.571  13.190  22.150  1.00  0.00    -0.016 C 
HETATM   18  C26 UNL     1       2.856  13.215  23.526  1.00  0.00     0.020 C 
HETATM   19  C27 UNL     1       4.667  14.325  22.091  1.00  0.00     0.002 C 
HETATM   20  C28 UNL     1       5.194  14.601  20.654  1.00  0.00     0.007 C 
HETATM   21  C29 UNL     1       6.640  15.086  20.539  1.00  0.00     0.014 C 
HETATM   22  C30 UNL     1       7.114  15.959  21.710  1.00  0.00     0.003 C 
HETATM   23  C31 UNL     1       6.370  17.322  21.643  1.00  0.00     0.020 C 
ENDROOT
BRANCH   3  24
HETATM   24  O1  UNL     1       9.335  14.990  21.218  1.00  0.00    -0.377 OA
HETATM   25  H2  UNL     1      10.275  15.214  21.116  1.00  0.00     0.211 HD
ENDBRANCH   3  24
BRANCH  13  26
HETATM   26  O2  UNL     1       0.949  10.365  18.946  1.00  0.00    -0.271 OA
BRANCH  26  27
HETATM   27  C13 UNL     1       1.129  10.669  17.567  1.00  0.00     0.303 C 
BRANCH  27  28
HETATM   28  C14 UNL     1       1.892   9.537  16.886  1.00  0.00     0.243 C 
HETATM   29  O3  UNL     1       3.104   9.583  16.693  1.00  0.00    -0.271 OA
HETATM   30  N2  UNL     1       1.117   8.453  16.528  1.00  0.00    -0.356 N 
HETATM   31  H16 UNL     1       0.112   8.589  16.545  1.00  0.00     0.162 HD
BRANCH  30  32
HETATM   32  C15 UNL     1       1.662   7.355  15.746  1.00  0.00     0.159 C 
BRANCH  32  33
HETATM   33  C16 UNL     1       1.290   7.416  14.250  1.00  0.00     0.170 C 
BRANCH  33  34
HETATM   34  O4  UNL     1       2.289   6.734  13.485  1.00  0.00    -0.389 OA
HETATM   35  H20 UNL     1       2.005   6.780  12.555  1.00  0.00     0.210 HD
ENDBRANCH  33  34
BRANCH  33  36
HETATM   36  C17 UNL     1      -0.056   6.786  13.979  1.00  0.00    -0.013 A 
HETATM   37  C18 UNL     1      -0.655   6.821  12.715  1.00  0.00     0.013 A 
HETATM   38  C19 UNL     1      -1.882   6.197  12.512  1.00  0.00     0.025 A 
HETATM   39  C20 UNL     1      -2.483   5.534  13.576  1.00  0.00     0.005 A 
HETATM   40  C21 UNL     1      -3.808   4.854  13.385  1.00  0.00     0.068 C 
HETATM   41  N3  UNL     1      -1.921   5.474  14.805  1.00  0.00    -0.369 N 
HETATM   42  C22 UNL     1      -0.733   6.099  14.980  1.00  0.00     0.097 A 
ATOM     43  H3  UNL     1      -2.376   4.977  15.571  1.00  0.00     0.165 HD
ENDBRANCH  33  36
ENDBRANCH  32  33
ENDBRANCH  30  32
ENDBRANCH  27  28
ENDBRANCH  26  27
ENDBRANCH  13  26
TORSDOF 8
ENDMDL
