MODEL 1
REMARK minimizedAffinity -9.94830608
REMARK CNNscore 0.600173414
REMARK CNNaffinity 7.11679411
REMARK  12 active torsions:
REMARK  status: ('A' for Active; 'I' for Inactive)
REMARK    1  A    between atoms: C4_5  and  C5_6 
REMARK    2  A    between atoms: C5_6  and  O2_7 
REMARK    3  A    between atoms: C5_6  and  C6_8 
REMARK    4  A    between atoms: C6_8  and  O3_10 
REMARK    5  A    between atoms: C6_8  and  C8_11 
REMARK    6  A    between atoms: C11_14  and  O4_15 
REMARK    7  A    between atoms: C17_22  and  O6_23 
REMARK    8  A    between atoms: O6_23  and  C18_24 
REMARK    9  A    between atoms: C18_24  and  C19_25 
REMARK   10  A    between atoms: C19_25  and  C20_26 
REMARK   11  A    between atoms: C35_41  and  C36_42 
REMARK   12  A    between atoms: C36_42  and  O7_43 
ROOT
HETATM    1  C8  UNL     1       2.076   7.661  14.354  1.00  0.00     0.034 C 
HETATM    2  C9  UNL     1       2.115   8.429  15.711  1.00  0.00     0.012 C 
HETATM    3  C10 UNL     1       0.661   8.767  16.101  1.00  0.00     0.044 C 
HETATM    4  C11 UNL     1      -0.164   7.794  15.261  1.00  0.00     0.089 C 
HETATM    5  C12 UNL     1      -1.645   7.973  15.055  1.00  0.00    -0.037 C 
HETATM    6  C13 UNL     1      -2.329   9.030  15.511  1.00  0.00     0.057 C 
HETATM    7  C14 UNL     1      -3.749   9.240  15.164  1.00  0.00     0.154 C 
HETATM    8  O5  UNL     1      -4.331  10.188  15.690  1.00  0.00    -0.293 OA
HETATM    9  C15 UNL     1      -4.398   8.317  14.131  1.00  0.00     0.071 C 
HETATM   10  C16 UNL     1      -5.928   8.352  14.309  1.00  0.00     0.045 C 
HETATM   11  C17 UNL     1      -6.374   7.707  15.622  1.00  0.00     0.122 C 
HETATM   12  C26 UNL     1      -5.847   6.274  15.729  1.00  0.00     0.033 C 
HETATM   13  C27 UNL     1      -4.335   6.189  15.515  1.00  0.00     0.013 C 
HETATM   14  C28 UNL     1      -3.835   6.870  14.200  1.00  0.00    -0.026 C 
HETATM   15  C29 UNL     1      -4.360   6.040  13.000  1.00  0.00     0.016 C 
HETATM   16  C30 UNL     1      -2.260   6.861  14.208  1.00  0.00     0.026 C 
HETATM   17  C31 UNL     1      -1.550   6.854  12.829  1.00  0.00     0.011 C 
HETATM   18  C32 UNL     1      -0.003   6.770  12.945  1.00  0.00     0.014 C 
HETATM   19  C33 UNL     1       0.582   7.855  13.884  1.00  0.00    -0.002 C 
HETATM   20  C34 UNL     1       0.394   9.229  13.177  1.00  0.00     0.019 C 
ENDROOT
BRANCH   1  21
HETATM   21  C6  UNL     1       3.267   7.913  13.358  1.00  0.00     0.087 C 
HETATM   22  C7  UNL     1       4.663   7.963  13.995  1.00  0.00     0.049 C 
BRANCH  21  23
HETATM   23  C5  UNL     1       3.292   6.953  12.103  1.00  0.00     0.181 C 
BRANCH  23  24
HETATM   24  C4  UNL     1       2.684   7.467  10.781  1.00  0.00     0.159 C 
HETATM   25  O1  UNL     1       3.587   8.308  10.052  1.00  0.00    -0.382 OA
HETATM   26  C3  UNL     1       3.355   8.157   8.648  1.00  0.00     0.173 C 
HETATM   27  C2  UNL     1       2.140   7.260   8.475  1.00  0.00     0.014 C 
HETATM   28  C1  UNL     1       0.850   8.080   8.366  1.00  0.00     0.012 C 
HETATM   29  C35 UNL     1       2.194   6.423   9.762  1.00  0.00     0.046 C 
BRANCH  29  30
HETATM   30  C36 UNL     1       3.113   5.206   9.590  1.00  0.00     0.172 C 
BRANCH  30  31
HETATM   31  O7  UNL     1       2.558   4.084  10.270  1.00  0.00    -0.400 OA
HETATM   32  H52 UNL     1       3.173   3.345  10.147  1.00  0.00     0.209 HD
ENDBRANCH  30  31
ENDBRANCH  29  30
ENDBRANCH  23  24
BRANCH  23  33
HETATM   33  O2  UNL     1       4.635   6.469  11.921  1.00  0.00    -0.390 OA
HETATM   34  H9  UNL     1       4.978   6.348  12.828  1.00  0.00     0.210 HD
ENDBRANCH  23  33
ENDBRANCH  21  23
BRANCH  21  35
HETATM   35  O3  UNL     1       3.020   9.226  12.774  1.00  0.00    -0.387 OA
HETATM   36  H13 UNL     1       3.862   9.564  12.411  1.00  0.00     0.210 HD
ENDBRANCH  21  35
ENDBRANCH   1  21
BRANCH   4  37
HETATM   37  O4  UNL     1      -0.045   6.531  15.947  1.00  0.00    -0.384 OA
HETATM   38  H19 UNL     1       0.388   5.882  15.369  1.00  0.00     0.211 HD
ENDBRANCH   4  37
BRANCH  11  39
HETATM   39  O6  UNL     1      -7.806   7.715  15.646  1.00  0.00    -0.386 OA
BRANCH  39  40
HETATM   40  C18 UNL     1      -8.372   6.430  15.355  1.00  0.00     0.172 C 
BRANCH  40  41
HETATM   41  C19 UNL     1      -9.001   6.469  13.961  1.00  0.00     0.064 C 
BRANCH  41  42
HETATM   42  C20 UNL     1     -10.235   7.334  13.928  1.00  0.00    -0.056 A 
HETATM   43  C21 UNL     1     -10.309   8.500  14.706  1.00  0.00     0.007 A 
HETATM   44  C22 UNL     1     -11.475   9.270  14.718  1.00  0.00     0.001 A 
HETATM   45  C23 UNL     1     -12.576   8.887  13.949  1.00  0.00     0.000 A 
HETATM   46  C24 UNL     1     -12.510   7.728  13.178  1.00  0.00     0.001 A 
HETATM   47  C25 UNL     1     -11.348   6.957  13.164  1.00  0.00     0.007 A 
ENDBRANCH  41  42
ENDBRANCH  40  41
ENDBRANCH  39  40
ENDBRANCH  11  39
TORSDOF 12
ENDMDL
MODEL 2
REMARK minimizedAffinity -9.44813156
REMARK CNNscore 0.597116947
REMARK CNNaffinity 7.03539991
REMARK  12 active torsions:
REMARK  status: ('A' for Active; 'I' for Inactive)
REMARK    1  A    between atoms: C4_5  and  C5_6 
REMARK    2  A    between atoms: C5_6  and  O2_7 
REMARK    3  A    between atoms: C5_6  and  C6_8 
REMARK    4  A    between atoms: C6_8  and  O3_10 
REMARK    5  A    between atoms: C6_8  and  C8_11 
REMARK    6  A    between atoms: C11_14  and  O4_15 
REMARK    7  A    between atoms: C17_22  and  O6_23 
REMARK    8  A    between atoms: O6_23  and  C18_24 
REMARK    9  A    between atoms: C18_24  and  C19_25 
REMARK   10  A    between atoms: C19_25  and  C20_26 
REMARK   11  A    between atoms: C35_41  and  C36_42 
REMARK   12  A    between atoms: C36_42  and  O7_43 
ROOT
HETATM    1  C8  UNL     1       0.388   6.124  13.337  1.00  0.00     0.034 C 
HETATM    2  C9  UNL     1       1.714   6.500  14.067  1.00  0.00     0.012 C 
HETATM    3  C10 UNL     1       1.444   7.766  14.908  1.00  0.00     0.044 C 
HETATM    4  C11 UNL     1      -0.078   7.787  15.033  1.00  0.00     0.089 C 
HETATM    5  C12 UNL     1      -0.826   9.014  15.484  1.00  0.00    -0.037 C 
HETATM    6  C13 UNL     1      -0.234  10.190  15.724  1.00  0.00     0.057 C 
HETATM    7  C14 UNL     1      -1.019  11.404  16.024  1.00  0.00     0.154 C 
HETATM    8  O5  UNL     1      -0.401  12.427  16.315  1.00  0.00    -0.293 OA
HETATM    9  C15 UNL     1      -2.543  11.345  15.894  1.00  0.00     0.071 C 
HETATM   10  C16 UNL     1      -3.168  12.480  16.730  1.00  0.00     0.045 C 
HETATM   11  C17 UNL     1      -2.976  12.267  18.232  1.00  0.00     0.122 C 
HETATM   12  C26 UNL     1      -3.532  10.907  18.662  1.00  0.00     0.033 C 
HETATM   13  C27 UNL     1      -2.969   9.754  17.828  1.00  0.00     0.013 C 
HETATM   14  C28 UNL     1      -3.112   9.952  16.284  1.00  0.00    -0.026 C 
HETATM   15  C29 UNL     1      -4.619   9.878  15.928  1.00  0.00     0.016 C 
HETATM   16  C30 UNL     1      -2.335   8.786  15.563  1.00  0.00     0.026 C 
HETATM   17  C31 UNL     1      -2.836   8.373  14.156  1.00  0.00     0.011 C 
HETATM   18  C32 UNL     1      -2.053   7.168  13.564  1.00  0.00     0.014 C 
HETATM   19  C33 UNL     1      -0.519   7.392  13.581  1.00  0.00    -0.002 C 
HETATM   20  C34 UNL     1      -0.202   8.512  12.548  1.00  0.00     0.019 C 
ENDROOT
BRANCH   1  21
HETATM   21  C6  UNL     1       0.519   5.499  11.900  1.00  0.00     0.087 C 
HETATM   22  C7  UNL     1      -0.708   5.665  10.992  1.00  0.00     0.049 C 
BRANCH  21  23
HETATM   23  C5  UNL     1       1.822   5.922  11.111  1.00  0.00     0.181 C 
BRANCH  23  24
HETATM   24  C4  UNL     1       1.662   6.440   9.667  1.00  0.00     0.159 C 
HETATM   25  O1  UNL     1       0.820   7.597   9.589  1.00  0.00    -0.382 OA
HETATM   26  C3  UNL     1       1.255   8.434   8.513  1.00  0.00     0.173 C 
HETATM   27  C2  UNL     1       2.364   7.700   7.776  1.00  0.00     0.014 C 
HETATM   28  C1  UNL     1       1.811   6.877   6.607  1.00  0.00     0.012 C 
HETATM   29  C35 UNL     1       2.938   6.817   8.894  1.00  0.00     0.046 C 
BRANCH  29  30
HETATM   30  C36 UNL     1       3.990   7.578   9.713  1.00  0.00     0.172 C 
BRANCH  30  31
HETATM   31  O7  UNL     1       5.012   6.680  10.136  1.00  0.00    -0.400 OA
HETATM   32  H52 UNL     1       5.644   7.197  10.659  1.00  0.00     0.209 HD
ENDBRANCH  30  31
ENDBRANCH  29  30
ENDBRANCH  23  24
BRANCH  23  33
HETATM   33  O2  UNL     1       2.575   6.837  11.927  1.00  0.00    -0.390 OA
HETATM   34  H9  UNL     1       2.456   6.508  12.840  1.00  0.00     0.210 HD
ENDBRANCH  23  33
ENDBRANCH  21  23
BRANCH  21  35
HETATM   35  O3  UNL     1       0.701   4.067  12.109  1.00  0.00    -0.387 OA
HETATM   36  H13 UNL     1       0.467   3.604  11.280  1.00  0.00     0.210 HD
ENDBRANCH  21  35
ENDBRANCH   1  21
BRANCH   4  37
HETATM   37  O4  UNL     1      -0.374   6.794  16.036  1.00  0.00    -0.384 OA
HETATM   38  H19 UNL     1      -0.914   6.086  15.649  1.00  0.00     0.211 HD
ENDBRANCH   4  37
BRANCH  11  39
HETATM   39  O6  UNL     1      -3.664  13.323  18.911  1.00  0.00    -0.386 OA
BRANCH  39  40
HETATM   40  C18 UNL     1      -4.588  12.840  19.895  1.00  0.00     0.172 C 
BRANCH  40  41
HETATM   41  C19 UNL     1      -5.458  14.004  20.375  1.00  0.00     0.064 C 
BRANCH  41  42
HETATM   42  C20 UNL     1      -6.702  13.520  21.075  1.00  0.00    -0.056 A 
HETATM   43  C21 UNL     1      -7.912  13.396  20.375  1.00  0.00     0.007 A 
HETATM   44  C22 UNL     1      -9.076  13.001  21.039  1.00  0.00     0.001 A 
HETATM   45  C23 UNL     1      -9.044  12.723  22.407  1.00  0.00     0.000 A 
HETATM   46  C24 UNL     1      -7.846  12.849  23.109  1.00  0.00     0.001 A 
HETATM   47  C25 UNL     1      -6.682  13.242  22.449  1.00  0.00     0.007 A 
ENDBRANCH  41  42
ENDBRANCH  40  41
ENDBRANCH  39  40
ENDBRANCH  11  39
TORSDOF 12
ENDMDL
MODEL 3
REMARK minimizedAffinity -10.6932793
REMARK CNNscore 0.575229347
REMARK CNNaffinity 7.24061537
REMARK  12 active torsions:
REMARK  status: ('A' for Active; 'I' for Inactive)
REMARK    1  A    between atoms: C4_5  and  C5_6 
REMARK    2  A    between atoms: C5_6  and  O2_7 
REMARK    3  A    between atoms: C5_6  and  C6_8 
REMARK    4  A    between atoms: C6_8  and  O3_10 
REMARK    5  A    between atoms: C6_8  and  C8_11 
REMARK    6  A    between atoms: C11_14  and  O4_15 
REMARK    7  A    between atoms: C17_22  and  O6_23 
REMARK    8  A    between atoms: O6_23  and  C18_24 
REMARK    9  A    between atoms: C18_24  and  C19_25 
REMARK   10  A    between atoms: C19_25  and  C20_26 
REMARK   11  A    between atoms: C35_41  and  C36_42 
REMARK   12  A    between atoms: C36_42  and  O7_43 
ROOT
HETATM    1  C8  UNL     1       3.378   7.817  13.501  1.00  0.00     0.034 C 
HETATM    2  C9  UNL     1       3.376   8.862  14.659  1.00  0.00     0.012 C 
HETATM    3  C10 UNL     1       1.906   9.150  15.029  1.00  0.00     0.044 C 
HETATM    4  C11 UNL     1       1.157   7.950  14.453  1.00  0.00     0.089 C 
HETATM    5  C12 UNL     1      -0.339   7.952  14.276  1.00  0.00    -0.037 C 
HETATM    6  C13 UNL     1      -1.109   9.019  14.525  1.00  0.00     0.057 C 
HETATM    7  C14 UNL     1      -2.549   9.026  14.201  1.00  0.00     0.154 C 
HETATM    8  O5  UNL     1      -3.205  10.011  14.535  1.00  0.00    -0.293 OA
HETATM    9  C15 UNL     1      -3.132   7.848  13.417  1.00  0.00     0.071 C 
HETATM   10  C16 UNL     1      -4.655   7.789  13.649  1.00  0.00     0.045 C 
HETATM   11  C17 UNL     1      -5.009   7.408  15.087  1.00  0.00     0.122 C 
HETATM   12  C26 UNL     1      -4.348   6.083  15.477  1.00  0.00     0.033 C 
HETATM   13  C27 UNL     1      -2.839   6.085  15.221  1.00  0.00     0.013 C 
HETATM   14  C28 UNL     1      -2.435   6.505  13.771  1.00  0.00    -0.026 C 
HETATM   15  C29 UNL     1      -2.908   5.392  12.800  1.00  0.00     0.016 C 
HETATM   16  C30 UNL     1      -0.866   6.633  13.714  1.00  0.00     0.026 C 
HETATM   17  C31 UNL     1      -0.191   6.389  12.340  1.00  0.00     0.011 C 
HETATM   18  C32 UNL     1       1.360   6.466  12.406  1.00  0.00     0.014 C 
HETATM   19  C33 UNL     1       1.862   7.775  13.064  1.00  0.00    -0.002 C 
HETATM   20  C34 UNL     1       1.531   8.942  12.088  1.00  0.00     0.019 C 
ENDROOT
BRANCH   1  21
HETATM   21  C6  UNL     1       4.517   7.949  12.425  1.00  0.00     0.087 C 
HETATM   22  C7  UNL     1       5.944   7.709  12.939  1.00  0.00     0.049 C 
BRANCH  21  23
HETATM   23  C5  UNL     1       4.281   7.108  11.107  1.00  0.00     0.181 C 
BRANCH  23  24
HETATM   24  C4  UNL     1       3.238   7.622  10.094  1.00  0.00     0.159 C 
HETATM   25  O1  UNL     1       3.813   8.485   9.105  1.00  0.00    -0.382 OA
HETATM   26  C3  UNL     1       3.102   8.342   7.871  1.00  0.00     0.173 C 
HETATM   27  C2  UNL     1       1.917   7.424   8.126  1.00  0.00     0.014 C 
HETATM   28  C1  UNL     1       0.660   8.221   8.491  1.00  0.00     0.012 C 
HETATM   29  C35 UNL     1       2.434   6.578   9.298  1.00  0.00     0.046 C 
BRANCH  29  30
HETATM   30  C36 UNL     1       3.250   5.379   8.796  1.00  0.00     0.172 C 
BRANCH  30  31
HETATM   31  O7  UNL     1       3.110   4.288   9.700  1.00  0.00    -0.400 OA
HETATM   32  H52 UNL     1       3.649   3.561   9.353  1.00  0.00     0.209 HD
ENDBRANCH  30  31
ENDBRANCH  29  30
ENDBRANCH  23  24
BRANCH  23  33
HETATM   33  O2  UNL     1       5.555   6.861  10.485  1.00  0.00    -0.390 OA
HETATM   34  H9  UNL     1       6.171   6.724  11.232  1.00  0.00     0.210 HD
ENDBRANCH  23  33
ENDBRANCH  21  23
BRANCH  21  35
HETATM   35  O3  UNL     1       4.460   9.329  11.959  1.00  0.00    -0.387 OA
HETATM   36  H13 UNL     1       5.319   9.551  11.548  1.00  0.00     0.210 HD
ENDBRANCH  21  35
ENDBRANCH   1  21
BRANCH   4  37
HETATM   37  O4  UNL     1       1.409   6.881  15.388  1.00  0.00    -0.384 OA
HETATM   38  H19 UNL     1       1.888   6.162  14.945  1.00  0.00     0.211 HD
ENDBRANCH   4  37
BRANCH  11  39
HETATM   39  O6  UNL     1      -6.434   7.297  15.170  1.00  0.00    -0.386 OA
BRANCH  39  40
HETATM   40  C18 UNL     1      -7.012   6.707  13.998  1.00  0.00     0.172 C 
BRANCH  40  41
HETATM   41  C19 UNL     1      -7.629   5.359  14.374  1.00  0.00     0.064 C 
BRANCH  41  42
HETATM   42  C20 UNL     1      -7.188   4.262  13.438  1.00  0.00    -0.056 A 
HETATM   43  C21 UNL     1      -7.840   3.020  13.437  1.00  0.00     0.007 A 
HETATM   44  C22 UNL     1      -7.394   1.986  12.610  1.00  0.00     0.001 A 
HETATM   45  C23 UNL     1      -6.294   2.184  11.772  1.00  0.00     0.000 A 
HETATM   46  C24 UNL     1      -5.639   3.414  11.772  1.00  0.00     0.001 A 
HETATM   47  C25 UNL     1      -6.083   4.448  12.596  1.00  0.00     0.007 A 
ENDBRANCH  41  42
ENDBRANCH  40  41
ENDBRANCH  39  40
ENDBRANCH  11  39
TORSDOF 12
ENDMDL
MODEL 4
REMARK minimizedAffinity -10.3446741
REMARK CNNscore 0.555573761
REMARK CNNaffinity 6.98942566
REMARK  12 active torsions:
REMARK  status: ('A' for Active; 'I' for Inactive)
REMARK    1  A    between atoms: C4_5  and  C5_6 
REMARK    2  A    between atoms: C5_6  and  O2_7 
REMARK    3  A    between atoms: C5_6  and  C6_8 
REMARK    4  A    between atoms: C6_8  and  O3_10 
REMARK    5  A    between atoms: C6_8  and  C8_11 
REMARK    6  A    between atoms: C11_14  and  O4_15 
REMARK    7  A    between atoms: C17_22  and  O6_23 
REMARK    8  A    between atoms: O6_23  and  C18_24 
REMARK    9  A    between atoms: C18_24  and  C19_25 
REMARK   10  A    between atoms: C19_25  and  C20_26 
REMARK   11  A    between atoms: C35_41  and  C36_42 
REMARK   12  A    between atoms: C36_42  and  O7_43 
ROOT
HETATM    1  C8  UNL     1       0.628   7.272  13.511  1.00  0.00     0.034 C 
HETATM    2  C9  UNL     1       0.919   8.114  14.792  1.00  0.00     0.012 C 
HETATM    3  C10 UNL     1      -0.438   8.519  15.405  1.00  0.00     0.044 C 
HETATM    4  C11 UNL     1      -1.416   7.526  14.782  1.00  0.00     0.089 C 
HETATM    5  C12 UNL     1      -2.906   7.740  14.824  1.00  0.00    -0.037 C 
HETATM    6  C13 UNL     1      -3.479   8.841  15.327  1.00  0.00     0.057 C 
HETATM    7  C14 UNL     1      -4.932   9.076  15.218  1.00  0.00     0.154 C 
HETATM    8  O5  UNL     1      -5.394  10.069  15.777  1.00  0.00    -0.293 OA
HETATM    9  C15 UNL     1      -5.771   8.117  14.370  1.00  0.00     0.071 C 
HETATM   10  C16 UNL     1      -7.246   8.210  14.808  1.00  0.00     0.045 C 
HETATM   11  C17 UNL     1      -7.469   7.654  16.215  1.00  0.00     0.122 C 
HETATM   12  C26 UNL     1      -6.962   6.213  16.317  1.00  0.00     0.033 C 
HETATM   13  C27 UNL     1      -5.512   6.069  15.851  1.00  0.00     0.013 C 
HETATM   14  C28 UNL     1      -5.234   6.659  14.430  1.00  0.00    -0.026 C 
HETATM   15  C29 UNL     1      -5.978   5.779  13.391  1.00  0.00     0.016 C 
HETATM   16  C30 UNL     1      -3.682   6.600  14.166  1.00  0.00     0.026 C 
HETATM   17  C31 UNL     1      -3.225   6.494  12.689  1.00  0.00     0.011 C 
HETATM   18  C32 UNL     1      -1.683   6.368  12.540  1.00  0.00     0.014 C 
HETATM   19  C33 UNL     1      -0.920   7.486  13.295  1.00  0.00    -0.002 C 
HETATM   20  C34 UNL     1      -1.200   8.823  12.549  1.00  0.00     0.019 C 
ENDROOT
BRANCH   1  21
HETATM   21  C6  UNL     1       1.632   7.430  12.311  1.00  0.00     0.087 C 
HETATM   22  C7  UNL     1       3.099   7.661  12.701  1.00  0.00     0.049 C 
BRANCH  21  23
HETATM   23  C5  UNL     1       1.548   6.285  11.225  1.00  0.00     0.181 C 
BRANCH  23  24
HETATM   24  C4  UNL     1       1.497   6.694   9.739  1.00  0.00     0.159 C 
HETATM   25  O1  UNL     1       0.833   7.948   9.537  1.00  0.00    -0.382 OA
HETATM   26  C3  UNL     1       1.408   8.620   8.413  1.00  0.00     0.173 C 
HETATM   27  C2  UNL     1       2.416   7.677   7.777  1.00  0.00     0.014 C 
HETATM   28  C1  UNL     1       1.779   6.843   6.661  1.00  0.00     0.012 C 
HETATM   29  C35 UNL     1       2.832   6.820   8.982  1.00  0.00     0.046 C 
BRANCH  29  30
HETATM   30  C36 UNL     1       3.963   7.491   9.773  1.00  0.00     0.172 C 
BRANCH  30  31
HETATM   31  O7  UNL     1       4.978   6.536  10.068  1.00  0.00    -0.400 OA
HETATM   32  H52 UNL     1       5.662   6.997  10.576  1.00  0.00     0.209 HD
ENDBRANCH  30  31
ENDBRANCH  29  30
ENDBRANCH  23  24
BRANCH  23  33
HETATM   33  O2  UNL     1       2.593   5.330  11.482  1.00  0.00    -0.390 OA
HETATM   34  H9  UNL     1       2.653   5.286  12.457  1.00  0.00     0.210 HD
ENDBRANCH  23  33
ENDBRANCH  21  23
BRANCH  21  35
HETATM   35  O3  UNL     1       1.194   8.616  11.586  1.00  0.00    -0.387 OA
HETATM   36  H13 UNL     1       1.942   8.940  11.046  1.00  0.00     0.210 HD
ENDBRANCH  21  35
ENDBRANCH   1  21
BRANCH   4  37
HETATM   37  O4  UNL     1      -1.206   6.301  15.513  1.00  0.00    -0.384 OA
HETATM   38  H19 UNL     1      -0.894   5.607  14.910  1.00  0.00     0.211 HD
ENDBRANCH   4  37
BRANCH  11  39
HETATM   39  O6  UNL     1      -8.874   7.708  16.485  1.00  0.00    -0.386 OA
BRANCH  39  40
HETATM   40  C18 UNL     1      -9.642   8.118  15.347  1.00  0.00     0.172 C 
BRANCH  40  41
HETATM   41  C19 UNL     1     -10.219   6.878  14.662  1.00  0.00     0.064 C 
BRANCH  41  42
HETATM   42  C20 UNL     1     -11.563   7.157  14.040  1.00  0.00    -0.056 A 
HETATM   43  C21 UNL     1     -11.761   8.301  13.251  1.00  0.00     0.007 A 
HETATM   44  C22 UNL     1     -13.022   8.586  12.722  1.00  0.00     0.001 A 
HETATM   45  C23 UNL     1     -14.098   7.732  12.972  1.00  0.00     0.000 A 
HETATM   46  C24 UNL     1     -13.909   6.597  13.759  1.00  0.00     0.001 A 
HETATM   47  C25 UNL     1     -12.651   6.308  14.288  1.00  0.00     0.007 A 
ENDBRANCH  41  42
ENDBRANCH  40  41
ENDBRANCH  39  40
ENDBRANCH  11  39
TORSDOF 12
ENDMDL
MODEL 5
REMARK minimizedAffinity -9.27083588
REMARK CNNscore 0.491629958
REMARK CNNaffinity 6.44329691
REMARK  12 active torsions:
REMARK  status: ('A' for Active; 'I' for Inactive)
REMARK    1  A    between atoms: C4_5  and  C5_6 
REMARK    2  A    between atoms: C5_6  and  O2_7 
REMARK    3  A    between atoms: C5_6  and  C6_8 
REMARK    4  A    between atoms: C6_8  and  O3_10 
REMARK    5  A    between atoms: C6_8  and  C8_11 
REMARK    6  A    between atoms: C11_14  and  O4_15 
REMARK    7  A    between atoms: C17_22  and  O6_23 
REMARK    8  A    between atoms: O6_23  and  C18_24 
REMARK    9  A    between atoms: C18_24  and  C19_25 
REMARK   10  A    between atoms: C19_25  and  C20_26 
REMARK   11  A    between atoms: C35_41  and  C36_42 
REMARK   12  A    between atoms: C36_42  and  O7_43 
ROOT
HETATM    1  C8  UNL     1       0.006   7.351  12.909  1.00  0.00     0.034 C 
HETATM    2  C9  UNL     1      -1.484   7.138  12.501  1.00  0.00     0.012 C 
HETATM    3  C10 UNL     1      -2.351   8.040  13.404  1.00  0.00     0.044 C 
HETATM    4  C11 UNL     1      -1.356   9.070  13.933  1.00  0.00     0.089 C 
HETATM    5  C12 UNL     1      -1.670   9.954  15.111  1.00  0.00    -0.037 C 
HETATM    6  C13 UNL     1      -2.795   9.850  15.830  1.00  0.00     0.057 C 
HETATM    7  C14 UNL     1      -3.000  10.636  17.063  1.00  0.00     0.154 C 
HETATM    8  O5  UNL     1      -4.092  10.547  17.622  1.00  0.00    -0.293 OA
HETATM    9  C15 UNL     1      -1.834  11.462  17.612  1.00  0.00     0.071 C 
HETATM   10  C16 UNL     1      -2.385  12.568  18.532  1.00  0.00     0.045 C 
HETATM   11  C17 UNL     1      -3.176  13.625  17.760  1.00  0.00     0.122 C 
HETATM   12  C26 UNL     1      -2.327  14.226  16.637  1.00  0.00     0.033 C 
HETATM   13  C27 UNL     1      -1.724  13.157  15.723  1.00  0.00     0.013 C 
HETATM   14  C28 UNL     1      -0.938  12.036  16.479  1.00  0.00    -0.026 C 
HETATM   15  C29 UNL     1       0.339  12.673  17.087  1.00  0.00     0.016 C 
HETATM   16  C30 UNL     1      -0.538  10.926  15.436  1.00  0.00     0.026 C 
HETATM   17  C31 UNL     1       0.736  10.098  15.747  1.00  0.00     0.011 C 
HETATM   18  C32 UNL     1       1.086   9.082  14.623  1.00  0.00     0.014 C 
HETATM   19  C33 UNL     1      -0.112   8.171  14.252  1.00  0.00    -0.002 C 
HETATM   20  C34 UNL     1      -0.368   7.226  15.462  1.00  0.00     0.019 C 
ENDROOT
BRANCH   1  21
HETATM   21  C6  UNL     1       0.956   6.101  12.817  1.00  0.00     0.087 C 
HETATM   22  C7  UNL     1       0.294   4.800  12.339  1.00  0.00     0.049 C 
BRANCH  21  23
HETATM   23  C5  UNL     1       2.290   6.344  12.006  1.00  0.00     0.181 C 
BRANCH  23  24
HETATM   24  C4  UNL     1       2.182   6.955  10.593  1.00  0.00     0.159 C 
HETATM   25  O1  UNL     1       3.103   8.034  10.390  1.00  0.00    -0.382 OA
HETATM   26  C3  UNL     1       3.504   8.071   9.017  1.00  0.00     0.173 C 
HETATM   27  C2  UNL     1       2.686   7.029   8.270  1.00  0.00     0.014 C 
HETATM   28  C1  UNL     1       1.411   7.638   7.675  1.00  0.00     0.012 C 
HETATM   29  C35 UNL     1       2.385   6.020   9.388  1.00  0.00     0.046 C 
BRANCH  29  30
HETATM   30  C36 UNL     1       3.528   5.008   9.540  1.00  0.00     0.172 C 
BRANCH  30  31
HETATM   31  O7  UNL     1       3.002   3.739   9.918  1.00  0.00    -0.400 OA
HETATM   32  H52 UNL     1       3.756   3.137  10.015  1.00  0.00     0.209 HD
ENDBRANCH  30  31
ENDBRANCH  29  30
ENDBRANCH  23  24
BRANCH  23  33
HETATM   33  O2  UNL     1       3.207   7.078  12.837  1.00  0.00    -0.390 OA
HETATM   34  H9  UNL     1       3.058   6.726  13.737  1.00  0.00     0.210 HD
ENDBRANCH  23  33
ENDBRANCH  21  23
BRANCH  21  35
HETATM   35  O3  UNL     1       1.426   5.863  14.176  1.00  0.00    -0.387 OA
HETATM   36  H13 UNL     1       1.744   4.940  14.234  1.00  0.00     0.210 HD
ENDBRANCH  21  35
ENDBRANCH   1  21
BRANCH   4  37
HETATM   37  O4  UNL     1      -1.163   9.986  12.835  1.00  0.00    -0.384 OA
HETATM   38  H19 UNL     1      -0.234   9.970  12.553  1.00  0.00     0.211 HD
ENDBRANCH   4  37
BRANCH  11  39
HETATM   39  O6  UNL     1      -3.564  14.643  18.690  1.00  0.00    -0.386 OA
BRANCH  39  40
HETATM   40  C18 UNL     1      -4.890  14.453  19.198  1.00  0.00     0.172 C 
BRANCH  40  41
HETATM   41  C19 UNL     1      -4.803  13.997  20.656  1.00  0.00     0.064 C 
BRANCH  41  42
HETATM   42  C20 UNL     1      -6.150  13.587  21.195  1.00  0.00    -0.056 A 
HETATM   43  C21 UNL     1      -7.264  13.506  20.344  1.00  0.00     0.007 A 
HETATM   44  C22 UNL     1      -8.523  13.181  20.856  1.00  0.00     0.001 A 
HETATM   45  C23 UNL     1      -8.682  12.929  22.220  1.00  0.00     0.000 A 
HETATM   46  C24 UNL     1      -7.581  13.012  23.070  1.00  0.00     0.001 A 
HETATM   47  C25 UNL     1      -6.323  13.336  22.563  1.00  0.00     0.007 A 
ENDBRANCH  41  42
ENDBRANCH  40  41
ENDBRANCH  39  40
ENDBRANCH  11  39
TORSDOF 12
ENDMDL
MODEL 6
REMARK minimizedAffinity -9.97186279
REMARK CNNscore 0.433129668
REMARK CNNaffinity 7.03398466
REMARK  12 active torsions:
REMARK  status: ('A' for Active; 'I' for Inactive)
REMARK    1  A    between atoms: C4_5  and  C5_6 
REMARK    2  A    between atoms: C5_6  and  O2_7 
REMARK    3  A    between atoms: C5_6  and  C6_8 
REMARK    4  A    between atoms: C6_8  and  O3_10 
REMARK    5  A    between atoms: C6_8  and  C8_11 
REMARK    6  A    between atoms: C11_14  and  O4_15 
REMARK    7  A    between atoms: C17_22  and  O6_23 
REMARK    8  A    between atoms: O6_23  and  C18_24 
REMARK    9  A    between atoms: C18_24  and  C19_25 
REMARK   10  A    between atoms: C19_25  and  C20_26 
REMARK   11  A    between atoms: C35_41  and  C36_42 
REMARK   12  A    between atoms: C36_42  and  O7_43 
ROOT
HETATM    1  C8  UNL     1       2.686   8.036  11.019  1.00  0.00     0.034 C 
HETATM    2  C9  UNL     1       2.260   7.105   9.843  1.00  0.00     0.012 C 
HETATM    3  C10 UNL     1       0.871   6.525  10.184  1.00  0.00     0.044 C 
HETATM    4  C11 UNL     1       0.341   7.483  11.248  1.00  0.00     0.089 C 
HETATM    5  C12 UNL     1      -0.837   7.136  12.120  1.00  0.00    -0.037 C 
HETATM    6  C13 UNL     1      -1.449   5.945  12.091  1.00  0.00     0.057 C 
HETATM    7  C14 UNL     1      -2.505   5.595  13.061  1.00  0.00     0.154 C 
HETATM    8  O5  UNL     1      -3.078   4.516  12.918  1.00  0.00    -0.293 OA
HETATM    9  C15 UNL     1      -2.786   6.553  14.221  1.00  0.00     0.071 C 
HETATM   10  C16 UNL     1      -4.203   6.290  14.766  1.00  0.00     0.045 C 
HETATM   11  C17 UNL     1      -5.292   6.686  13.767  1.00  0.00     0.122 C 
HETATM   12  C26 UNL     1      -5.135   8.149  13.346  1.00  0.00     0.033 C 
HETATM   13  C27 UNL     1      -3.727   8.465  12.838  1.00  0.00     0.013 C 
HETATM   14  C28 UNL     1      -2.583   8.040  13.816  1.00  0.00    -0.026 C 
HETATM   15  C29 UNL     1      -2.665   8.946  15.072  1.00  0.00     0.016 C 
HETATM   16  C30 UNL     1      -1.204   8.260  13.087  1.00  0.00     0.026 C 
HETATM   17  C31 UNL     1       0.027   8.547  13.985  1.00  0.00     0.011 C 
HETATM   18  C32 UNL     1       1.320   8.822  13.168  1.00  0.00     0.014 C 
HETATM   19  C33 UNL     1       1.616   7.708  12.132  1.00  0.00    -0.002 C 
HETATM   20  C34 UNL     1       2.011   6.429  12.926  1.00  0.00     0.019 C 
ENDROOT
BRANCH   1  21
HETATM   21  C6  UNL     1       4.218   8.083  11.372  1.00  0.00     0.087 C 
HETATM   22  C7  UNL     1       5.157   8.417  10.203  1.00  0.00     0.049 C 
BRANCH  21  23
HETATM   23  C5  UNL     1       4.582   8.986  12.617  1.00  0.00     0.181 C 
BRANCH  23  24
HETATM   24  C4  UNL     1       6.040   8.979  13.120  1.00  0.00     0.159 C 
HETATM   25  O1  UNL     1       6.496  10.284  13.499  1.00  0.00    -0.382 OA
HETATM   26  C3  UNL     1       7.443  10.170  14.565  1.00  0.00     0.173 C 
HETATM   27  C2  UNL     1       7.705   8.690  14.794  1.00  0.00     0.014 C 
HETATM   28  C1  UNL     1       8.909   8.202  13.981  1.00  0.00     0.012 C 
HETATM   29  C35 UNL     1       6.384   8.070  14.313  1.00  0.00     0.046 C 
BRANCH  29  30
HETATM   30  C36 UNL     1       5.340   8.056  15.438  1.00  0.00     0.172 C 
BRANCH  30  31
HETATM   31  O7  UNL     1       4.863   6.728  15.636  1.00  0.00    -0.400 OA
HETATM   32  H52 UNL     1       4.200   6.767  16.342  1.00  0.00     0.209 HD
ENDBRANCH  30  31
ENDBRANCH  29  30
ENDBRANCH  23  24
BRANCH  23  33
HETATM   33  O2  UNL     1       4.107  10.322  12.370  1.00  0.00    -0.390 OA
HETATM   34  H9  UNL     1       3.264  10.199  11.892  1.00  0.00     0.210 HD
ENDBRANCH  23  33
ENDBRANCH  21  23
BRANCH  21  35
HETATM   35  O3  UNL     1       4.560   6.738  11.819  1.00  0.00    -0.387 OA
HETATM   36  H13 UNL     1       5.527   6.625  11.741  1.00  0.00     0.210 HD
ENDBRANCH  21  35
ENDBRANCH   1  21
BRANCH   4  37
HETATM   37  O4  UNL     1      -0.086   8.647  10.511  1.00  0.00    -0.384 OA
HETATM   38  H19 UNL     1       0.433   9.420  10.786  1.00  0.00     0.211 HD
ENDBRANCH   4  37
BRANCH  11  39
HETATM   39  O6  UNL     1      -6.559   6.483  14.402  1.00  0.00    -0.386 OA
BRANCH  39  40
HETATM   40  C18 UNL     1      -7.536   5.915  13.521  1.00  0.00     0.172 C 
BRANCH  40  41
HETATM   41  C19 UNL     1      -7.750   4.447  13.897  1.00  0.00     0.064 C 
BRANCH  41  42
HETATM   42  C20 UNL     1      -7.129   3.516  12.887  1.00  0.00    -0.056 A 
HETATM   43  C21 UNL     1      -7.386   2.137  12.936  1.00  0.00     0.007 A 
HETATM   44  C22 UNL     1      -6.765   1.269  12.034  1.00  0.00     0.001 A 
HETATM   45  C23 UNL     1      -5.884   1.769  11.073  1.00  0.00     0.000 A 
HETATM   46  C24 UNL     1      -5.620   3.137  11.022  1.00  0.00     0.001 A 
HETATM   47  C25 UNL     1      -6.239   4.006  11.921  1.00  0.00     0.007 A 
ENDBRANCH  41  42
ENDBRANCH  40  41
ENDBRANCH  39  40
ENDBRANCH  11  39
TORSDOF 12
ENDMDL
MODEL 7
REMARK minimizedAffinity -8.42404747
REMARK CNNscore 0.432231784
REMARK CNNaffinity 6.02332306
REMARK  12 active torsions:
REMARK  status: ('A' for Active; 'I' for Inactive)
REMARK    1  A    between atoms: C4_5  and  C5_6 
REMARK    2  A    between atoms: C5_6  and  O2_7 
REMARK    3  A    between atoms: C5_6  and  C6_8 
REMARK    4  A    between atoms: C6_8  and  O3_10 
REMARK    5  A    between atoms: C6_8  and  C8_11 
REMARK    6  A    between atoms: C11_14  and  O4_15 
REMARK    7  A    between atoms: C17_22  and  O6_23 
REMARK    8  A    between atoms: O6_23  and  C18_24 
REMARK    9  A    between atoms: C18_24  and  C19_25 
REMARK   10  A    between atoms: C19_25  and  C20_26 
REMARK   11  A    between atoms: C35_41  and  C36_42 
REMARK   12  A    between atoms: C36_42  and  O7_43 
ROOT
HETATM    1  C8  UNL     1       6.223   8.297  14.502  1.00  0.00     0.034 C 
HETATM    2  C9  UNL     1       7.392   7.414  13.969  1.00  0.00     0.012 C 
HETATM    3  C10 UNL     1       8.715   8.049  14.447  1.00  0.00     0.044 C 
HETATM    4  C11 UNL     1       8.278   8.942  15.605  1.00  0.00     0.089 C 
HETATM    5  C12 UNL     1       9.173  10.014  16.170  1.00  0.00    -0.037 C 
HETATM    6  C13 UNL     1      10.370  10.321  15.653  1.00  0.00     0.057 C 
HETATM    7  C14 UNL     1      11.151  11.473  16.145  1.00  0.00     0.154 C 
HETATM    8  O5  UNL     1      12.277  11.641  15.678  1.00  0.00    -0.293 OA
HETATM    9  C15 UNL     1      10.503  12.426  17.151  1.00  0.00     0.071 C 
HETATM   10  C16 UNL     1      11.606  13.195  17.906  1.00  0.00     0.045 C 
HETATM   11  C17 UNL     1      12.423  12.284  18.824  1.00  0.00     0.122 C 
HETATM   12  C26 UNL     1      11.510  11.542  19.804  1.00  0.00     0.033 C 
HETATM   13  C27 UNL     1      10.374  10.799  19.098  1.00  0.00     0.013 C 
HETATM   14  C28 UNL     1       9.538  11.688  18.121  1.00  0.00    -0.026 C 
HETATM   15  C29 UNL     1       8.748  12.720  18.968  1.00  0.00     0.016 C 
HETATM   16  C30 UNL     1       8.535  10.756  17.342  1.00  0.00     0.026 C 
HETATM   17  C31 UNL     1       7.217  11.403  16.845  1.00  0.00     0.011 C 
HETATM   18  C32 UNL     1       6.265  10.385  16.156  1.00  0.00     0.014 C 
HETATM   19  C33 UNL     1       6.967   9.583  15.032  1.00  0.00    -0.002 C 
HETATM   20  C34 UNL     1       7.262  10.575  13.869  1.00  0.00     0.019 C 
ENDROOT
BRANCH   1  21
HETATM   21  C6  UNL     1       4.953   8.429  13.583  1.00  0.00     0.087 C 
HETATM   22  C7  UNL     1       4.235   9.785  13.637  1.00  0.00     0.049 C 
BRANCH  21  23
HETATM   23  C5  UNL     1       5.183   8.012  12.076  1.00  0.00     0.181 C 
BRANCH  23  24
HETATM   24  C4  UNL     1       3.952   7.618  11.235  1.00  0.00     0.159 C 
HETATM   25  O1  UNL     1       3.826   8.405  10.043  1.00  0.00    -0.382 OA
HETATM   26  C3  UNL     1       3.227   7.618   9.009  1.00  0.00     0.173 C 
HETATM   27  C2  UNL     1       2.826   6.284   9.618  1.00  0.00     0.014 C 
HETATM   28  C1  UNL     1       1.378   6.310  10.120  1.00  0.00     0.012 C 
HETATM   29  C35 UNL     1       3.840   6.156  10.765  1.00  0.00     0.046 C 
BRANCH  29  30
HETATM   30  C36 UNL     1       5.153   5.533  10.273  1.00  0.00     0.172 C 
BRANCH  30  31
HETATM   31  O7  UNL     1       4.894   4.256   9.697  1.00  0.00    -0.400 OA
HETATM   32  H52 UNL     1       5.748   3.894   9.414  1.00  0.00     0.209 HD
ENDBRANCH  30  31
ENDBRANCH  29  30
ENDBRANCH  23  24
BRANCH  23  33
HETATM   33  O2  UNL     1       5.967   9.032  11.431  1.00  0.00    -0.390 OA
HETATM   34  H9  UNL     1       6.597   9.328  12.118  1.00  0.00     0.210 HD
ENDBRANCH  23  33
ENDBRANCH  21  23
BRANCH  21  35
HETATM   35  O3  UNL     1       4.010   7.430  14.070  1.00  0.00    -0.387 OA
HETATM   36  H13 UNL     1       3.115   7.677  13.764  1.00  0.00     0.210 HD
ENDBRANCH  21  35
ENDBRANCH   1  21
BRANCH   4  37
HETATM   37  O4  UNL     1       8.065   8.034  16.705  1.00  0.00    -0.384 OA
HETATM   38  H19 UNL     1       7.135   8.067  16.984  1.00  0.00     0.211 HD
ENDBRANCH   4  37
BRANCH  11  39
HETATM   39  O6  UNL     1      13.353  13.107  19.536  1.00  0.00    -0.386 OA
BRANCH  39  40
HETATM   40  C18 UNL     1      14.715  12.841  19.179  1.00  0.00     0.172 C 
BRANCH  40  41
HETATM   41  C19 UNL     1      15.601  13.042  20.410  1.00  0.00     0.064 C 
BRANCH  41  42
HETATM   42  C20 UNL     1      17.062  12.869  20.082  1.00  0.00    -0.056 A 
HETATM   43  C21 UNL     1      17.502  11.752  19.356  1.00  0.00     0.007 A 
HETATM   44  C22 UNL     1      18.863  11.565  19.101  1.00  0.00     0.001 A 
HETATM   45  C23 UNL     1      19.798  12.493  19.566  1.00  0.00     0.000 A 
HETATM   46  C24 UNL     1      19.367  13.602  20.292  1.00  0.00     0.001 A 
HETATM   47  C25 UNL     1      18.009  13.792  20.547  1.00  0.00     0.007 A 
ENDBRANCH  41  42
ENDBRANCH  40  41
ENDBRANCH  39  40
ENDBRANCH  11  39
TORSDOF 12
ENDMDL
MODEL 8
REMARK minimizedAffinity -10.2053318
REMARK CNNscore 0.425759435
REMARK CNNaffinity 6.97125244
REMARK  12 active torsions:
REMARK  status: ('A' for Active; 'I' for Inactive)
REMARK    1  A    between atoms: C4_5  and  C5_6 
REMARK    2  A    between atoms: C5_6  and  O2_7 
REMARK    3  A    between atoms: C5_6  and  C6_8 
REMARK    4  A    between atoms: C6_8  and  O3_10 
REMARK    5  A    between atoms: C6_8  and  C8_11 
REMARK    6  A    between atoms: C11_14  and  O4_15 
REMARK    7  A    between atoms: C17_22  and  O6_23 
REMARK    8  A    between atoms: O6_23  and  C18_24 
REMARK    9  A    between atoms: C18_24  and  C19_25 
REMARK   10  A    between atoms: C19_25  and  C20_26 
REMARK   11  A    between atoms: C35_41  and  C36_42 
REMARK   12  A    between atoms: C36_42  and  O7_43 
ROOT
HETATM    1  C8  UNL     1       3.015   8.102  14.840  1.00  0.00     0.034 C 
HETATM    2  C9  UNL     1       2.719   9.163  15.944  1.00  0.00     0.012 C 
HETATM    3  C10 UNL     1       1.190   9.365  16.002  1.00  0.00     0.044 C 
HETATM    4  C11 UNL     1       0.644   8.112  15.322  1.00  0.00     0.089 C 
HETATM    5  C12 UNL     1      -0.783   8.017  14.848  1.00  0.00    -0.037 C 
HETATM    6  C13 UNL     1      -1.647   9.038  14.907  1.00  0.00     0.057 C 
HETATM    7  C14 UNL     1      -2.990   8.950  14.301  1.00  0.00     0.154 C 
HETATM    8  O5  UNL     1      -3.757   9.898  14.469  1.00  0.00    -0.293 OA
HETATM    9  C15 UNL     1      -3.334   7.726  13.449  1.00  0.00     0.071 C 
HETATM   10  C16 UNL     1      -4.866   7.576  13.371  1.00  0.00     0.045 C 
HETATM   11  C17 UNL     1      -5.481   7.197  14.719  1.00  0.00     0.122 C 
HETATM   12  C26 UNL     1      -4.837   5.922  15.271  1.00  0.00     0.033 C 
HETATM   13  C27 UNL     1      -3.311   6.013  15.324  1.00  0.00     0.013 C 
HETATM   14  C28 UNL     1      -2.646   6.435  13.973  1.00  0.00    -0.026 C 
HETATM   15  C29 UNL     1      -2.848   5.280  12.958  1.00  0.00     0.016 C 
HETATM   16  C30 UNL     1      -1.108   6.660  14.229  1.00  0.00     0.026 C 
HETATM   17  C31 UNL     1      -0.156   6.436  13.026  1.00  0.00     0.011 C 
HETATM   18  C32 UNL     1       1.342   6.610  13.399  1.00  0.00     0.014 C 
HETATM   19  C33 UNL     1       1.624   7.959  14.108  1.00  0.00    -0.002 C 
HETATM   20  C34 UNL     1       1.430   9.087  13.053  1.00  0.00     0.019 C 
ENDROOT
BRANCH   1  21
HETATM   21  C6  UNL     1       4.339   8.287  14.010  1.00  0.00     0.087 C 
HETATM   22  C7  UNL     1       4.546   9.680  13.397  1.00  0.00     0.049 C 
BRANCH  21  23
HETATM   23  C5  UNL     1       5.656   7.839  14.760  1.00  0.00     0.181 C 
BRANCH  23  24
HETATM   24  C4  UNL     1       6.569   8.935  15.346  1.00  0.00     0.159 C 
HETATM   25  O1  UNL     1       7.180   8.539  16.580  1.00  0.00    -0.382 OA
HETATM   26  C3  UNL     1       8.467   9.154  16.698  1.00  0.00     0.173 C 
HETATM   27  C2  UNL     1       8.632  10.106  15.524  1.00  0.00     0.014 C 
HETATM   28  C1  UNL     1       8.177  11.524  15.883  1.00  0.00     0.012 C 
HETATM   29  C35 UNL     1       7.726   9.450  14.471  1.00  0.00     0.046 C 
BRANCH  29  30
HETATM   30  C36 UNL     1       8.481   8.364  13.692  1.00  0.00     0.172 C 
BRANCH  30  31
HETATM   31  O7  UNL     1       7.570   7.356  13.265  1.00  0.00    -0.400 OA
HETATM   32  H52 UNL     1       8.088   6.687  12.791  1.00  0.00     0.209 HD
ENDBRANCH  30  31
ENDBRANCH  29  30
ENDBRANCH  23  24
BRANCH  23  33
HETATM   33  O2  UNL     1       5.309   6.849  15.746  1.00  0.00    -0.390 OA
HETATM   34  H9  UNL     1       4.598   6.324  15.327  1.00  0.00     0.210 HD
ENDBRANCH  23  33
ENDBRANCH  21  23
BRANCH  21  35
HETATM   35  O3  UNL     1       4.244   7.345  12.902  1.00  0.00    -0.387 OA
HETATM   36  H13 UNL     1       4.859   7.634  12.200  1.00  0.00     0.210 HD
ENDBRANCH  21  35
ENDBRANCH   1  21
BRANCH   4  37
HETATM   37  O4  UNL     1       0.763   7.075  16.318  1.00  0.00    -0.384 OA
HETATM   38  H19 UNL     1       1.362   6.380  16.000  1.00  0.00     0.211 HD
ENDBRANCH   4  37
BRANCH  11  39
HETATM   39  O6  UNL     1      -6.884   6.998  14.517  1.00  0.00    -0.386 OA
BRANCH  39  40
HETATM   40  C18 UNL     1      -7.173   6.252  13.328  1.00  0.00     0.172 C 
BRANCH  40  41
HETATM   41  C19 UNL     1      -7.697   4.870  13.723  1.00  0.00     0.064 C 
BRANCH  41  42
HETATM   42  C20 UNL     1      -7.028   3.773  12.935  1.00  0.00    -0.056 A 
HETATM   43  C21 UNL     1      -5.886   4.042  12.164  1.00  0.00     0.007 A 
HETATM   44  C22 UNL     1      -5.301   3.036  11.391  1.00  0.00     0.001 A 
HETATM   45  C23 UNL     1      -5.847   1.751  11.382  1.00  0.00     0.000 A 
HETATM   46  C24 UNL     1      -6.983   1.478  12.142  1.00  0.00     0.001 A 
HETATM   47  C25 UNL     1      -7.570   2.480  12.916  1.00  0.00     0.007 A 
ENDBRANCH  41  42
ENDBRANCH  40  41
ENDBRANCH  39  40
ENDBRANCH  11  39
TORSDOF 12
ENDMDL
MODEL 9
REMARK minimizedAffinity -8.84144974
REMARK CNNscore 0.40606606
REMARK CNNaffinity 6.79161072
REMARK  12 active torsions:
REMARK  status: ('A' for Active; 'I' for Inactive)
REMARK    1  A    between atoms: C4_5  and  C5_6 
REMARK    2  A    between atoms: C5_6  and  O2_7 
REMARK    3  A    between atoms: C5_6  and  C6_8 
REMARK    4  A    between atoms: C6_8  and  O3_10 
REMARK    5  A    between atoms: C6_8  and  C8_11 
REMARK    6  A    between atoms: C11_14  and  O4_15 
REMARK    7  A    between atoms: C17_22  and  O6_23 
REMARK    8  A    between atoms: O6_23  and  C18_24 
REMARK    9  A    between atoms: C18_24  and  C19_25 
REMARK   10  A    between atoms: C19_25  and  C20_26 
REMARK   11  A    between atoms: C35_41  and  C36_42 
REMARK   12  A    between atoms: C36_42  and  O7_43 
ROOT
HETATM    1  C8  UNL     1      -7.069   6.341  14.761  1.00  0.00     0.034 C 
HETATM    2  C9  UNL     1      -7.260   6.206  13.219  1.00  0.00     0.012 C 
HETATM    3  C10 UNL     1      -5.936   6.622  12.544  1.00  0.00     0.044 C 
HETATM    4  C11 UNL     1      -4.914   6.502  13.672  1.00  0.00     0.089 C 
HETATM    5  C12 UNL     1      -3.544   7.121  13.578  1.00  0.00    -0.037 C 
HETATM    6  C13 UNL     1      -3.151   7.887  12.552  1.00  0.00     0.057 C 
HETATM    7  C14 UNL     1      -1.855   8.593  12.567  1.00  0.00     0.154 C 
HETATM    8  O5  UNL     1      -1.528   9.209  11.553  1.00  0.00    -0.293 OA
HETATM    9  C15 UNL     1      -1.022   8.577  13.850  1.00  0.00     0.071 C 
HETATM   10  C16 UNL     1       0.449   8.883  13.506  1.00  0.00     0.045 C 
HETATM   11  C17 UNL     1       1.101   7.759  12.699  1.00  0.00     0.122 C 
HETATM   12  C26 UNL     1       0.983   6.422  13.437  1.00  0.00     0.033 C 
HETATM   13  C27 UNL     1      -0.458   6.100  13.836  1.00  0.00     0.013 C 
HETATM   14  C28 UNL     1      -1.174   7.241  14.631  1.00  0.00    -0.026 C 
HETATM   15  C29 UNL     1      -0.491   7.359  16.018  1.00  0.00     0.016 C 
HETATM   16  C30 UNL     1      -2.687   6.842  14.811  1.00  0.00     0.026 C 
HETATM   17  C31 UNL     1      -3.421   7.415  16.050  1.00  0.00     0.011 C 
HETATM   18  C32 UNL     1      -4.883   6.905  16.177  1.00  0.00     0.014 C 
HETATM   19  C33 UNL     1      -5.702   7.119  14.879  1.00  0.00    -0.002 C 
HETATM   20  C34 UNL     1      -5.916   8.652  14.714  1.00  0.00     0.019 C 
ENDROOT
BRANCH   1  21
HETATM   21  C6  UNL     1      -8.322   6.794  15.598  1.00  0.00     0.087 C 
HETATM   22  C7  UNL     1      -8.012   7.420  16.966  1.00  0.00     0.049 C 
BRANCH  21  23
HETATM   23  C5  UNL     1      -9.342   7.712  14.815  1.00  0.00     0.181 C 
BRANCH  23  24
HETATM   24  C4  UNL     1     -10.819   7.272  14.755  1.00  0.00     0.159 C 
HETATM   25  O1  UNL     1     -11.669   8.092  15.567  1.00  0.00    -0.382 OA
HETATM   26  C3  UNL     1     -12.967   8.174  14.972  1.00  0.00     0.173 C 
HETATM   27  C2  UNL     1     -12.984   7.241  13.772  1.00  0.00     0.014 C 
HETATM   28  C1  UNL     1     -13.499   5.848  14.151  1.00  0.00     0.012 C 
HETATM   29  C35 UNL     1     -11.500   7.228  13.376  1.00  0.00     0.046 C 
BRANCH  29  30
HETATM   30  C36 UNL     1     -11.166   8.406  12.451  1.00  0.00     0.172 C 
BRANCH  30  31
HETATM   31  O7  UNL     1     -11.264   9.630  13.174  1.00  0.00    -0.400 OA
HETATM   32  H52 UNL     1     -11.059  10.344  12.552  1.00  0.00     0.209 HD
ENDBRANCH  30  31
ENDBRANCH  29  30
ENDBRANCH  23  24
BRANCH  23  33
HETATM   33  O2  UNL     1      -9.205   9.063  15.292  1.00  0.00    -0.390 OA
HETATM   34  H9  UNL     1      -8.248   9.167  15.463  1.00  0.00     0.210 HD
ENDBRANCH  23  33
ENDBRANCH  21  23
BRANCH  21  35
HETATM   35  O3  UNL     1      -9.086   5.579  15.850  1.00  0.00    -0.387 OA
HETATM   36  H13 UNL     1      -9.676   5.740  16.613  1.00  0.00     0.210 HD
ENDBRANCH  21  35
ENDBRANCH   1  21
BRANCH   4  37
HETATM   37  O4  UNL     1      -4.663   5.086  13.787  1.00  0.00    -0.384 OA
HETATM   38  H19 UNL     1      -4.928   4.775  14.667  1.00  0.00     0.211 HD
ENDBRANCH   4  37
BRANCH  11  39
HETATM   39  O6  UNL     1       2.478   8.103  12.510  1.00  0.00    -0.386 OA
BRANCH  39  40
HETATM   40  C18 UNL     1       2.829   8.248  11.128  1.00  0.00     0.172 C 
BRANCH  40  41
HETATM   41  C19 UNL     1       1.571   8.072  10.275  1.00  0.00     0.064 C 
BRANCH  41  42
HETATM   42  C20 UNL     1       1.863   7.325   8.998  1.00  0.00    -0.056 A 
HETATM   43  C21 UNL     1       2.588   6.123   9.025  1.00  0.00     0.007 A 
HETATM   44  C22 UNL     1       2.905   5.462   7.835  1.00  0.00     0.001 A 
HETATM   45  C23 UNL     1       2.498   5.991   6.609  1.00  0.00     0.000 A 
HETATM   46  C24 UNL     1       1.782   7.186   6.576  1.00  0.00     0.001 A 
HETATM   47  C25 UNL     1       1.463   7.848   7.761  1.00  0.00     0.007 A 
ENDBRANCH  41  42
ENDBRANCH  40  41
ENDBRANCH  39  40
ENDBRANCH  11  39
TORSDOF 12
ENDMDL
