MODEL 1
REMARK minimizedAffinity -7.7506752
REMARK CNNscore 0.885050714
REMARK CNNaffinity 6.8304019
REMARK  8 active torsions:
REMARK  status: ('A' for Active; 'I' for Inactive)
REMARK    1  A    between atoms: C2_2  and  C30_34 
REMARK    2  A    between atoms: C3_3  and  C4_4 
REMARK    3  A    between atoms: C4_4  and  O1_5 
REMARK    4  A    between atoms: C4_4  and  C5_6 
REMARK    5  A    between atoms: C5_6  and  C6_7 
REMARK    6  A    between atoms: C6_7  and  C8_9 
REMARK    7  A    between atoms: C10_11  and  O2_12 
REMARK    8  A    between atoms: C30_34  and  O6_36 
ROOT
HETATM    1  C8  UNL     1      -1.980  52.189 -10.908  1.00  0.00     0.001 C 
HETATM    2  C9  UNL     1      -1.217  52.435 -12.246  1.00  0.00     0.038 C 
HETATM    3  C10 UNL     1       0.059  53.230 -11.907  1.00  0.00     0.131 C 
HETATM    4  C11 UNL     1       0.215  53.080 -10.370  1.00  0.00     0.014 C 
HETATM    5  C12 UNL     1       0.890  51.705 -10.066  1.00  0.00     0.023 C 
HETATM    6  C13 UNL     1       1.047  54.104  -9.597  1.00  0.00    -0.058 C 
HETATM    7  C14 UNL     1       0.822  54.337  -8.279  1.00  0.00    -0.000 C 
HETATM    8  C15 UNL     1      -0.360  53.648  -7.611  1.00  0.00     0.157 C 
HETATM    9  O3  UNL     1      -0.523  53.711  -6.392  1.00  0.00    -0.293 OA
HETATM   10  C16 UNL     1      -1.365  52.855  -8.441  1.00  0.00     0.094 C 
HETATM   11  C17 UNL     1      -1.291  53.195  -9.929  1.00  0.00    -0.019 C 
HETATM   12  C18 UNL     1      -1.895  54.620 -10.137  1.00  0.00     0.017 C 
HETATM   13  C19 UNL     1       1.705  55.278  -7.418  1.00  0.00    -0.008 C 
HETATM   14  C20 UNL     1       0.854  56.544  -7.151  1.00  0.00     0.021 C 
HETATM   15  C21 UNL     1       2.089  54.629  -6.048  1.00  0.00     0.022 C 
HETATM   16  C22 UNL     1       3.430  55.056  -5.454  1.00  0.00     0.080 C 
HETATM   17  C23 UNL     1       3.846  56.429  -5.919  1.00  0.00     0.135 C 
HETATM   18  O4  UNL     1       4.125  57.313  -5.110  1.00  0.00    -0.297 OA
HETATM   19  C24 UNL     1       3.991  56.621  -7.432  1.00  0.00     0.018 C 
HETATM   20  C25 UNL     1       3.737  58.094  -7.802  1.00  0.00     0.023 C 
HETATM   21  C26 UNL     1       5.467  56.312  -7.771  1.00  0.00     0.023 C 
HETATM   22  C27 UNL     1       3.055  55.600  -8.165  1.00  0.00     0.014 C 
HETATM   23  C28 UNL     1       2.804  55.949  -9.636  1.00  0.00     0.011 C 
HETATM   24  C29 UNL     1       2.160  54.775 -10.365  1.00  0.00     0.036 C 
ENDROOT
BRANCH   1  25
HETATM   25  C6  UNL     1      -3.531  52.208 -11.098  1.00  0.00    -0.011 C 
HETATM   26  C7  UNL     1      -3.914  53.236 -12.176  1.00  0.00     0.010 C 
BRANCH  25  27
HETATM   27  C5  UNL     1      -4.093  50.797 -11.420  1.00  0.00     0.040 C 
BRANCH  27  28
HETATM   28  C4  UNL     1      -4.467  49.924 -10.206  1.00  0.00     0.142 C 
BRANCH  28  29
HETATM   29  C3  UNL     1      -5.944  49.965  -9.934  1.00  0.00     0.018 C 
HETATM   30  C2  UNL     1      -6.894  49.184 -10.490  1.00  0.00     0.010 C 
HETATM   31  C1  UNL     1      -6.660  48.072 -11.467  1.00  0.00     0.055 C 
BRANCH  30  32
HETATM   32  C30 UNL     1      -8.291  49.439 -10.054  1.00  0.00     0.171 C 
HETATM   33  O5  UNL     1      -8.643  50.028  -9.047  1.00  0.00    -0.646 OA
BRANCH  32  34
HETATM   34  O6  UNL     1      -9.196  48.940 -10.914  1.00  0.00    -0.773 OA
HETATM   35  H44 UNL     1     -10.055  49.169 -10.503  1.00  0.00     0.167 HD
ENDBRANCH  32  34
ENDBRANCH  30  32
ENDBRANCH  28  29
BRANCH  28  36
HETATM   36  O1  UNL     1      -3.816  50.420  -9.042  1.00  0.00    -0.392 OA
HETATM   37  H6  UNL     1      -4.278  51.226  -8.755  1.00  0.00     0.210 HD
ENDBRANCH  28  36
ENDBRANCH  27  28
ENDBRANCH  25  27
ENDBRANCH   1  25
BRANCH   3  38
HETATM   38  O2  UNL     1       1.173  52.778 -12.660  1.00  0.00    -0.394 OA
HETATM   39  H17 UNL     1       1.190  51.806 -12.649  1.00  0.00     0.210 HD
ENDBRANCH   3  38
TORSDOF 8
ENDMDL
MODEL 2
REMARK minimizedAffinity -7.94409513
REMARK CNNscore 0.799862087
REMARK CNNaffinity 6.76709366
REMARK  8 active torsions:
REMARK  status: ('A' for Active; 'I' for Inactive)
REMARK    1  A    between atoms: C2_2  and  C30_34 
REMARK    2  A    between atoms: C3_3  and  C4_4 
REMARK    3  A    between atoms: C4_4  and  O1_5 
REMARK    4  A    between atoms: C4_4  and  C5_6 
REMARK    5  A    between atoms: C5_6  and  C6_7 
REMARK    6  A    between atoms: C6_7  and  C8_9 
REMARK    7  A    between atoms: C10_11  and  O2_12 
REMARK    8  A    between atoms: C30_34  and  O6_36 
ROOT
HETATM    1  C8  UNL     1     -12.978  45.254 -27.917  1.00  0.00     0.001 C 
HETATM    2  C9  UNL     1     -13.050  44.030 -28.882  1.00  0.00     0.038 C 
HETATM    3  C10 UNL     1     -11.764  44.039 -29.732  1.00  0.00     0.131 C 
HETATM    4  C11 UNL     1     -10.808  45.005 -28.983  1.00  0.00     0.014 C 
HETATM    5  C12 UNL     1     -10.129  44.230 -27.810  1.00  0.00     0.023 C 
HETATM    6  C13 UNL     1      -9.654  45.657 -29.743  1.00  0.00    -0.058 C 
HETATM    7  C14 UNL     1      -9.121  46.836 -29.333  1.00  0.00    -0.000 C 
HETATM    8  C15 UNL     1      -9.780  47.563 -28.169  1.00  0.00     0.157 C 
HETATM    9  O3  UNL     1      -9.256  48.558 -27.666  1.00  0.00    -0.293 OA
HETATM   10  C16 UNL     1     -11.103  47.067 -27.592  1.00  0.00     0.094 C 
HETATM   11  C17 UNL     1     -11.832  46.116 -28.541  1.00  0.00    -0.019 C 
HETATM   12  C18 UNL     1     -12.399  46.951 -29.734  1.00  0.00     0.017 C 
HETATM   13  C19 UNL     1      -7.879  47.487 -29.995  1.00  0.00    -0.008 C 
HETATM   14  C20 UNL     1      -8.402  48.709 -30.787  1.00  0.00     0.021 C 
HETATM   15  C21 UNL     1      -6.840  47.979 -28.935  1.00  0.00     0.022 C 
HETATM   16  C22 UNL     1      -5.376  47.962 -29.370  1.00  0.00     0.080 C 
HETATM   17  C23 UNL     1      -5.226  48.087 -30.865  1.00  0.00     0.135 C 
HETATM   18  O4  UNL     1      -4.521  48.967 -31.358  1.00  0.00    -0.297 OA
HETATM   19  C24 UNL     1      -5.914  47.011 -31.711  1.00  0.00     0.018 C 
HETATM   20  C25 UNL     1      -6.272  47.582 -33.096  1.00  0.00     0.023 C 
HETATM   21  C26 UNL     1      -4.868  45.895 -31.932  1.00  0.00     0.023 C 
HETATM   22  C27 UNL     1      -7.135  46.441 -30.912  1.00  0.00     0.014 C 
HETATM   23  C28 UNL     1      -8.127  45.666 -31.784  1.00  0.00     0.011 C 
HETATM   24  C29 UNL     1      -9.107  44.881 -30.918  1.00  0.00     0.036 C 
ENDROOT
BRANCH   1  25
HETATM   25  C6  UNL     1     -14.383  45.882 -27.651  1.00  0.00    -0.011 C 
HETATM   26  C7  UNL     1     -15.461  45.104 -28.426  1.00  0.00     0.010 C 
BRANCH  25  27
HETATM   27  C5  UNL     1     -14.705  45.960 -26.134  1.00  0.00     0.040 C 
BRANCH  27  28
HETATM   28  C4  UNL     1     -15.682  44.896 -25.595  1.00  0.00     0.142 C 
BRANCH  28  29
HETATM   29  C3  UNL     1     -17.001  45.505 -25.211  1.00  0.00     0.018 C 
HETATM   30  C2  UNL     1     -17.262  46.258 -24.122  1.00  0.00     0.010 C 
HETATM   31  C1  UNL     1     -16.266  46.686 -23.087  1.00  0.00     0.055 C 
BRANCH  30  32
HETATM   32  C30 UNL     1     -18.662  46.730 -23.970  1.00  0.00     0.171 C 
HETATM   33  O5  UNL     1     -19.330  47.309 -24.809  1.00  0.00    -0.646 OA
BRANCH  32  34
HETATM   34  O6  UNL     1     -19.170  46.447 -22.758  1.00  0.00    -0.773 OA
HETATM   35  H44 UNL     1     -20.077  46.817 -22.797  1.00  0.00     0.167 HD
ENDBRANCH  32  34
ENDBRANCH  30  32
ENDBRANCH  28  29
BRANCH  28  36
HETATM   36  O1  UNL     1     -15.141  44.301 -24.421  1.00  0.00    -0.392 OA
HETATM   37  H6  UNL     1     -15.238  44.933 -23.688  1.00  0.00     0.210 HD
ENDBRANCH  28  36
ENDBRANCH  27  28
ENDBRANCH  25  27
ENDBRANCH   1  25
BRANCH   3  38
HETATM   38  O2  UNL     1     -11.252  42.729 -29.919  1.00  0.00    -0.394 OA
HETATM   39  H17 UNL     1     -11.268  42.258 -29.069  1.00  0.00     0.210 HD
ENDBRANCH   3  38
TORSDOF 8
ENDMDL
MODEL 3
REMARK minimizedAffinity -9.3897686
REMARK CNNscore 0.67859304
REMARK CNNaffinity 7.07107878
REMARK  8 active torsions:
REMARK  status: ('A' for Active; 'I' for Inactive)
REMARK    1  A    between atoms: C2_2  and  C30_34 
REMARK    2  A    between atoms: C3_3  and  C4_4 
REMARK    3  A    between atoms: C4_4  and  O1_5 
REMARK    4  A    between atoms: C4_4  and  C5_6 
REMARK    5  A    between atoms: C5_6  and  C6_7 
REMARK    6  A    between atoms: C6_7  and  C8_9 
REMARK    7  A    between atoms: C10_11  and  O2_12 
REMARK    8  A    between atoms: C30_34  and  O6_36 
ROOT
HETATM    1  C8  UNL     1      -1.174  50.003 -17.981  1.00  0.00     0.001 C 
HETATM    2  C9  UNL     1      -2.282  48.908 -18.070  1.00  0.00     0.038 C 
HETATM    3  C10 UNL     1      -2.657  48.754 -19.557  1.00  0.00     0.131 C 
HETATM    4  C11 UNL     1      -1.501  49.449 -20.324  1.00  0.00     0.014 C 
HETATM    5  C12 UNL     1      -0.302  48.454 -20.435  1.00  0.00     0.023 C 
HETATM    6  C13 UNL     1      -1.737  49.938 -21.753  1.00  0.00    -0.058 C 
HETATM    7  C14 UNL     1      -1.004  50.953 -22.277  1.00  0.00    -0.000 C 
HETATM    8  C15 UNL     1      -0.022  51.681 -21.369  1.00  0.00     0.157 C 
HETATM    9  O3  UNL     1       0.768  52.509 -21.826  1.00  0.00    -0.293 OA
HETATM   10  C16 UNL     1       0.012  51.392 -19.871  1.00  0.00     0.094 C 
HETATM   11  C17 UNL     1      -1.255  50.687 -19.385  1.00  0.00    -0.019 C 
HETATM   12  C18 UNL     1      -2.426  51.720 -19.395  1.00  0.00     0.017 C 
HETATM   13  C19 UNL     1      -1.121  51.416 -23.752  1.00  0.00    -0.008 C 
HETATM   14  C20 UNL     1      -1.846  52.783 -23.720  1.00  0.00     0.021 C 
HETATM   15  C21 UNL     1       0.281  51.603 -24.420  1.00  0.00     0.022 C 
HETATM   16  C22 UNL     1       0.348  51.351 -25.925  1.00  0.00     0.080 C 
HETATM   17  C23 UNL     1      -0.980  51.583 -26.600  1.00  0.00     0.135 C 
HETATM   18  O4  UNL     1      -1.079  52.355 -27.552  1.00  0.00    -0.297 OA
HETATM   19  C24 UNL     1      -2.156  50.739 -26.097  1.00  0.00     0.018 C 
HETATM   20  C25 UNL     1      -3.479  51.491 -26.328  1.00  0.00     0.023 C 
HETATM   21  C26 UNL     1      -2.190  49.470 -26.980  1.00  0.00     0.023 C 
HETATM   22  C27 UNL     1      -1.892  50.338 -24.606  1.00  0.00     0.014 C 
HETATM   23  C28 UNL     1      -3.146  49.847 -23.875  1.00  0.00     0.011 C 
HETATM   24  C29 UNL     1      -2.774  49.185 -22.553  1.00  0.00     0.036 C 
ENDROOT
BRANCH   1  25
HETATM   25  C6  UNL     1      -1.288  50.858 -16.679  1.00  0.00    -0.011 C 
HETATM   26  C7  UNL     1      -2.717  50.769 -16.116  1.00  0.00     0.010 C 
BRANCH  25  27
HETATM   27  C5  UNL     1      -0.226  50.448 -15.622  1.00  0.00     0.040 C 
BRANCH  27  28
HETATM   28  C4  UNL     1       1.038  51.327 -15.558  1.00  0.00     0.142 C 
BRANCH  28  29
HETATM   29  C3  UNL     1       2.039  50.779 -14.580  1.00  0.00     0.018 C 
HETATM   30  C2  UNL     1       3.369  51.007 -14.565  1.00  0.00     0.010 C 
HETATM   31  C1  UNL     1       4.121  51.901 -15.505  1.00  0.00     0.055 C 
BRANCH  30  32
HETATM   32  C30 UNL     1       4.140  50.330 -13.490  1.00  0.00     0.171 C 
HETATM   33  O5  UNL     1       5.134  49.640 -13.632  1.00  0.00    -0.646 OA
BRANCH  32  34
HETATM   34  O6  UNL     1       3.624  50.554 -12.270  1.00  0.00    -0.773 OA
HETATM   35  H44 UNL     1       4.215  50.050 -11.673  1.00  0.00     0.167 HD
ENDBRANCH  32  34
ENDBRANCH  30  32
ENDBRANCH  28  29
BRANCH  28  36
HETATM   36  O1  UNL     1       0.691  52.632 -15.110  1.00  0.00    -0.392 OA
HETATM   37  H6  UNL     1       0.526  52.591 -14.152  1.00  0.00     0.210 HD
ENDBRANCH  28  36
ENDBRANCH  27  28
ENDBRANCH  25  27
ENDBRANCH   1  25
BRANCH   3  38
HETATM   38  O2  UNL     1      -2.862  47.393 -19.905  1.00  0.00    -0.394 OA
HETATM   39  H17 UNL     1      -2.145  46.857 -19.527  1.00  0.00     0.210 HD
ENDBRANCH   3  38
TORSDOF 8
ENDMDL
MODEL 4
REMARK minimizedAffinity -7.87603474
REMARK CNNscore 0.463752598
REMARK CNNaffinity 6.30157423
REMARK  8 active torsions:
REMARK  status: ('A' for Active; 'I' for Inactive)
REMARK    1  A    between atoms: C2_2  and  C30_34 
REMARK    2  A    between atoms: C3_3  and  C4_4 
REMARK    3  A    between atoms: C4_4  and  O1_5 
REMARK    4  A    between atoms: C4_4  and  C5_6 
REMARK    5  A    between atoms: C5_6  and  C6_7 
REMARK    6  A    between atoms: C6_7  and  C8_9 
REMARK    7  A    between atoms: C10_11  and  O2_12 
REMARK    8  A    between atoms: C30_34  and  O6_36 
ROOT
HETATM    1  C8  UNL     1      -7.024  47.562 -19.729  1.00  0.00     0.001 C 
HETATM    2  C9  UNL     1      -7.411  46.609 -20.901  1.00  0.00     0.038 C 
HETATM    3  C10 UNL     1      -6.585  47.035 -22.131  1.00  0.00     0.131 C 
HETATM    4  C11 UNL     1      -5.465  47.940 -21.553  1.00  0.00     0.014 C 
HETATM    5  C12 UNL     1      -4.324  47.031 -20.994  1.00  0.00     0.023 C 
HETATM    6  C13 UNL     1      -4.758  48.937 -22.470  1.00  0.00    -0.058 C 
HETATM    7  C14 UNL     1      -4.173  50.056 -21.972  1.00  0.00    -0.000 C 
HETATM    8  C15 UNL     1      -4.343  50.364 -20.491  1.00  0.00     0.157 C 
HETATM    9  O3  UNL     1      -3.718  51.284 -19.960  1.00  0.00    -0.293 OA
HETATM   10  C16 UNL     1      -5.287  49.532 -19.628  1.00  0.00     0.094 C 
HETATM   11  C17 UNL     1      -6.283  48.727 -20.463  1.00  0.00    -0.019 C 
HETATM   12  C18 UNL     1      -7.332  49.716 -21.063  1.00  0.00     0.017 C 
HETATM   13  C19 UNL     1      -3.347  51.044 -22.836  1.00  0.00    -0.008 C 
HETATM   14  C20 UNL     1      -4.216  52.315 -22.990  1.00  0.00     0.021 C 
HETATM   15  C21 UNL     1      -1.998  51.435 -22.150  1.00  0.00     0.022 C 
HETATM   16  C22 UNL     1      -0.838  51.767 -23.088  1.00  0.00     0.080 C 
HETATM   17  C23 UNL     1      -1.316  52.269 -24.427  1.00  0.00     0.135 C 
HETATM   18  O4  UNL     1      -0.924  53.345 -24.876  1.00  0.00    -0.297 OA
HETATM   19  C24 UNL     1      -2.226  51.326 -25.222  1.00  0.00     0.018 C 
HETATM   20  C25 UNL     1      -3.147  52.143 -26.146  1.00  0.00     0.023 C 
HETATM   21  C26 UNL     1      -1.297  50.486 -26.128  1.00  0.00     0.023 C 
HETATM   22  C27 UNL     1      -2.982  50.387 -24.222  1.00  0.00     0.014 C 
HETATM   23  C28 UNL     1      -4.196  49.688 -24.841  1.00  0.00     0.011 C 
HETATM   24  C29 UNL     1      -4.692  48.567 -23.934  1.00  0.00     0.036 C 
ENDROOT
BRANCH   1  25
HETATM   25  C6  UNL     1      -8.234  47.865 -18.788  1.00  0.00    -0.011 C 
HETATM   26  C7  UNL     1      -7.974  49.162 -18.000  1.00  0.00     0.010 C 
BRANCH  25  27
HETATM   27  C5  UNL     1      -9.575  47.924 -19.568  1.00  0.00     0.040 C 
BRANCH  27  28
HETATM   28  C4  UNL     1     -10.690  46.985 -19.068  1.00  0.00     0.142 C 
BRANCH  28  29
HETATM   29  C3  UNL     1     -12.051  47.581 -19.289  1.00  0.00     0.018 C 
HETATM   30  C2  UNL     1     -12.808  47.488 -20.403  1.00  0.00     0.010 C 
HETATM   31  C1  UNL     1     -12.460  46.721 -21.643  1.00  0.00     0.055 C 
BRANCH  30  32
HETATM   32  C30 UNL     1     -14.119  48.185 -20.366  1.00  0.00     0.171 C 
HETATM   33  O5  UNL     1     -15.216  47.681 -20.531  1.00  0.00    -0.646 OA
BRANCH  32  34
HETATM   34  O6  UNL     1     -13.995  49.500 -20.117  1.00  0.00    -0.773 OA
HETATM   35  H44 UNL     1     -14.919  49.826 -20.131  1.00  0.00     0.167 HD
ENDBRANCH  32  34
ENDBRANCH  30  32
ENDBRANCH  28  29
BRANCH  28  36
HETATM   36  O1  UNL     1     -10.549  46.779 -17.667  1.00  0.00    -0.392 OA
HETATM   37  H6  UNL     1     -10.855  47.580 -17.210  1.00  0.00     0.210 HD
ENDBRANCH  28  36
ENDBRANCH  27  28
ENDBRANCH  25  27
ENDBRANCH   1  25
BRANCH   3  38
HETATM   38  O2  UNL     1      -6.118  45.912 -22.862  1.00  0.00    -0.394 OA
HETATM   39  H17 UNL     1      -5.760  45.256 -22.241  1.00  0.00     0.210 HD
ENDBRANCH   3  38
TORSDOF 8
ENDMDL
MODEL 5
REMARK minimizedAffinity -7.6455245
REMARK CNNscore 0.457480311
REMARK CNNaffinity 5.96660614
REMARK  8 active torsions:
REMARK  status: ('A' for Active; 'I' for Inactive)
REMARK    1  A    between atoms: C2_2  and  C30_34 
REMARK    2  A    between atoms: C3_3  and  C4_4 
REMARK    3  A    between atoms: C4_4  and  O1_5 
REMARK    4  A    between atoms: C4_4  and  C5_6 
REMARK    5  A    between atoms: C5_6  and  C6_7 
REMARK    6  A    between atoms: C6_7  and  C8_9 
REMARK    7  A    between atoms: C10_11  and  O2_12 
REMARK    8  A    between atoms: C30_34  and  O6_36 
ROOT
HETATM    1  C8  UNL     1     -13.383  44.751 -25.456  1.00  0.00     0.001 C 
HETATM    2  C9  UNL     1     -14.552  45.260 -26.356  1.00  0.00     0.038 C 
HETATM    3  C10 UNL     1     -13.921  45.915 -27.600  1.00  0.00     0.131 C 
HETATM    4  C11 UNL     1     -12.450  45.422 -27.597  1.00  0.00     0.014 C 
HETATM    5  C12 UNL     1     -12.398  43.990 -28.218  1.00  0.00     0.023 C 
HETATM    6  C13 UNL     1     -11.390  46.219 -28.358  1.00  0.00    -0.058 C 
HETATM    7  C14 UNL     1     -10.081  46.162 -28.003  1.00  0.00    -0.000 C 
HETATM    8  C15 UNL     1      -9.703  45.385 -26.750  1.00  0.00     0.157 C 
HETATM    9  O3  UNL     1      -8.522  45.182 -26.463  1.00  0.00    -0.293 OA
HETATM   10  C16 UNL     1     -10.782  44.831 -25.824  1.00  0.00     0.094 C 
HETATM   11  C17 UNL     1     -12.142  45.490 -26.055  1.00  0.00    -0.019 C 
HETATM   12  C18 UNL     1     -12.083  46.947 -25.494  1.00  0.00     0.017 C 
HETATM   13  C19 UNL     1      -8.950  46.857 -28.805  1.00  0.00    -0.008 C 
HETATM   14  C20 UNL     1      -8.490  48.061 -27.948  1.00  0.00     0.021 C 
HETATM   15  C21 UNL     1      -7.730  45.907 -29.038  1.00  0.00     0.022 C 
HETATM   16  C22 UNL     1      -6.928  46.144 -30.316  1.00  0.00     0.080 C 
HETATM   17  C23 UNL     1      -7.031  47.570 -30.796  1.00  0.00     0.135 C 
HETATM   18  O4  UNL     1      -6.022  48.242 -31.003  1.00  0.00    -0.297 OA
HETATM   19  C24 UNL     1      -8.442  48.087 -31.098  1.00  0.00     0.018 C 
HETATM   20  C25 UNL     1      -8.494  49.613 -30.902  1.00  0.00     0.023 C 
HETATM   21  C26 UNL     1      -8.697  47.808 -32.597  1.00  0.00     0.023 C 
HETATM   22  C27 UNL     1      -9.472  47.288 -30.229  1.00  0.00     0.014 C 
HETATM   23  C28 UNL     1     -10.844  47.963 -30.134  1.00  0.00     0.011 C 
HETATM   24  C29 UNL     1     -11.877  47.004 -29.553  1.00  0.00     0.036 C 
ENDROOT
BRANCH   1  25
HETATM   25  C6  UNL     1     -13.714  44.867 -23.934  1.00  0.00    -0.011 C 
HETATM   26  C7  UNL     1     -12.458  44.558 -23.100  1.00  0.00     0.010 C 
BRANCH  25  27
HETATM   27  C5  UNL     1     -14.317  46.253 -23.576  1.00  0.00     0.040 C 
BRANCH  27  28
HETATM   28  C4  UNL     1     -15.583  46.233 -22.698  1.00  0.00     0.142 C 
BRANCH  28  29
HETATM   29  C3  UNL     1     -16.818  46.512 -23.507  1.00  0.00     0.018 C 
HETATM   30  C2  UNL     1     -18.096  46.270 -23.150  1.00  0.00     0.010 C 
HETATM   31  C1  UNL     1     -18.553  45.708 -21.837  1.00  0.00     0.055 C 
BRANCH  30  32
HETATM   32  C30 UNL     1     -19.137  46.631 -24.146  1.00  0.00     0.171 C 
HETATM   33  O5  UNL     1     -19.147  47.617 -24.862  1.00  0.00    -0.646 OA
BRANCH  32  34
HETATM   34  O6  UNL     1     -20.129  45.726 -24.204  1.00  0.00    -0.773 OA
HETATM   35  H44 UNL     1     -20.735  46.091 -24.882  1.00  0.00     0.167 HD
ENDBRANCH  32  34
ENDBRANCH  30  32
ENDBRANCH  28  29
BRANCH  28  36
HETATM   36  O1  UNL     1     -15.495  47.251 -21.708  1.00  0.00    -0.392 OA
HETATM   37  H6  UNL     1     -15.663  48.108 -22.138  1.00  0.00     0.210 HD
ENDBRANCH  28  36
ENDBRANCH  27  28
ENDBRANCH  25  27
ENDBRANCH   1  25
BRANCH   3  38
HETATM   38  O2  UNL     1     -14.645  45.601 -28.780  1.00  0.00    -0.394 OA
HETATM   39  H17 UNL     1     -14.850  44.651 -28.783  1.00  0.00     0.210 HD
ENDBRANCH   3  38
TORSDOF 8
ENDMDL
MODEL 6
REMARK minimizedAffinity -9.0874691
REMARK CNNscore 0.438936025
REMARK CNNaffinity 6.27828741
REMARK  8 active torsions:
REMARK  status: ('A' for Active; 'I' for Inactive)
REMARK    1  A    between atoms: C2_2  and  C30_34 
REMARK    2  A    between atoms: C3_3  and  C4_4 
REMARK    3  A    between atoms: C4_4  and  O1_5 
REMARK    4  A    between atoms: C4_4  and  C5_6 
REMARK    5  A    between atoms: C5_6  and  C6_7 
REMARK    6  A    between atoms: C6_7  and  C8_9 
REMARK    7  A    between atoms: C10_11  and  O2_12 
REMARK    8  A    between atoms: C30_34  and  O6_36 
ROOT
HETATM    1  C8  UNL     1      -3.181  51.167 -23.888  1.00  0.00     0.001 C 
HETATM    2  C9  UNL     1      -4.663  51.423 -24.305  1.00  0.00     0.038 C 
HETATM    3  C10 UNL     1      -5.547  50.497 -23.447  1.00  0.00     0.131 C 
HETATM    4  C11 UNL     1      -4.620  50.031 -22.294  1.00  0.00     0.014 C 
HETATM    5  C12 UNL     1      -4.579  51.146 -21.201  1.00  0.00     0.023 C 
HETATM    6  C13 UNL     1      -4.956  48.749 -21.533  1.00  0.00    -0.058 C 
HETATM    7  C14 UNL     1      -3.988  48.033 -20.904  1.00  0.00    -0.000 C 
HETATM    8  C15 UNL     1      -2.539  48.465 -21.076  1.00  0.00     0.157 C 
HETATM    9  O3  UNL     1      -1.640  47.942 -20.416  1.00  0.00    -0.293 OA
HETATM   10  C16 UNL     1      -2.169  49.567 -22.066  1.00  0.00     0.094 C 
HETATM   11  C17 UNL     1      -3.276  49.828 -23.087  1.00  0.00    -0.019 C 
HETATM   12  C18 UNL     1      -3.317  48.626 -24.084  1.00  0.00     0.017 C 
HETATM   13  C19 UNL     1      -4.284  46.790 -20.025  1.00  0.00    -0.008 C 
HETATM   14  C20 UNL     1      -3.799  45.563 -20.835  1.00  0.00     0.021 C 
HETATM   15  C21 UNL     1      -3.510  46.836 -18.667  1.00  0.00     0.022 C 
HETATM   16  C22 UNL     1      -4.188  46.148 -17.484  1.00  0.00     0.080 C 
HETATM   17  C23 UNL     1      -5.117  45.044 -17.924  1.00  0.00     0.135 C 
HETATM   18  O4  UNL     1      -5.000  43.903 -17.479  1.00  0.00    -0.297 OA
HETATM   19  C24 UNL     1      -6.256  45.449 -18.866  1.00  0.00     0.018 C 
HETATM   20  C25 UNL     1      -6.664  44.249 -19.741  1.00  0.00     0.023 C 
HETATM   21  C26 UNL     1      -7.465  45.793 -17.967  1.00  0.00     0.023 C 
HETATM   22  C27 UNL     1      -5.819  46.718 -19.674  1.00  0.00     0.014 C 
HETATM   23  C28 UNL     1      -6.683  46.980 -20.912  1.00  0.00     0.011 C 
HETATM   24  C29 UNL     1      -6.418  48.375 -21.468  1.00  0.00     0.036 C 
ENDROOT
BRANCH   1  25
HETATM   25  C6  UNL     1      -2.196  51.299 -25.093  1.00  0.00    -0.011 C 
HETATM   26  C7  UNL     1      -2.986  51.398 -26.409  1.00  0.00     0.010 C 
BRANCH  25  27
HETATM   27  C5  UNL     1      -1.219  52.493 -24.916  1.00  0.00     0.040 C 
BRANCH  27  28
HETATM   28  C4  UNL     1       0.199  52.140 -24.427  1.00  0.00     0.142 C 
BRANCH  28  29
HETATM   29  C3  UNL     1       0.670  53.098 -23.368  1.00  0.00     0.018 C 
HETATM   30  C2  UNL     1       0.743  52.869 -22.041  1.00  0.00     0.010 C 
HETATM   31  C1  UNL     1       0.411  51.582 -21.348  1.00  0.00     0.055 C 
BRANCH  30  32
HETATM   32  C30 UNL     1       1.235  53.996 -21.206  1.00  0.00     0.171 C 
HETATM   33  O5  UNL     1       2.144  54.760 -21.479  1.00  0.00    -0.646 OA
BRANCH  32  34
HETATM   34  O6  UNL     1       0.554  54.116 -20.054  1.00  0.00    -0.773 OA
HETATM   35  H44 UNL     1       0.983  54.877 -19.611  1.00  0.00     0.167 HD
ENDBRANCH  32  34
ENDBRANCH  30  32
ENDBRANCH  28  29
BRANCH  28  36
HETATM   36  O1  UNL     1       1.116  52.235 -25.510  1.00  0.00    -0.392 OA
HETATM   37  H6  UNL     1       1.282  53.177 -25.686  1.00  0.00     0.210 HD
ENDBRANCH  28  36
ENDBRANCH  27  28
ENDBRANCH  25  27
ENDBRANCH   1  25
BRANCH   3  38
HETATM   38  O2  UNL     1      -6.733  51.152 -23.023  1.00  0.00    -0.394 OA
HETATM   39  H17 UNL     1      -6.506  52.041 -22.702  1.00  0.00     0.210 HD
ENDBRANCH   3  38
TORSDOF 8
ENDMDL
MODEL 7
REMARK minimizedAffinity -8.61839581
REMARK CNNscore 0.433836192
REMARK CNNaffinity 6.45634604
REMARK  8 active torsions:
REMARK  status: ('A' for Active; 'I' for Inactive)
REMARK    1  A    between atoms: C2_2  and  C30_34 
REMARK    2  A    between atoms: C3_3  and  C4_4 
REMARK    3  A    between atoms: C4_4  and  O1_5 
REMARK    4  A    between atoms: C4_4  and  C5_6 
REMARK    5  A    between atoms: C5_6  and  C6_7 
REMARK    6  A    between atoms: C6_7  and  C8_9 
REMARK    7  A    between atoms: C10_11  and  O2_12 
REMARK    8  A    between atoms: C30_34  and  O6_36 
ROOT
HETATM    1  C8  UNL     1      -4.739  48.595 -20.932  1.00  0.00     0.001 C 
HETATM    2  C9  UNL     1      -3.900  49.241 -19.787  1.00  0.00     0.038 C 
HETATM    3  C10 UNL     1      -2.884  50.195 -20.444  1.00  0.00     0.131 C 
HETATM    4  C11 UNL     1      -3.411  50.390 -21.890  1.00  0.00     0.014 C 
HETATM    5  C12 UNL     1      -4.541  51.469 -21.872  1.00  0.00     0.023 C 
HETATM    6  C13 UNL     1      -2.448  50.850 -22.984  1.00  0.00    -0.058 C 
HETATM    7  C14 UNL     1      -2.681  50.562 -24.290  1.00  0.00    -0.000 C 
HETATM    8  C15 UNL     1      -3.860  49.662 -24.635  1.00  0.00     0.157 C 
HETATM    9  O3  UNL     1      -4.200  49.486 -25.805  1.00  0.00    -0.293 OA
HETATM   10  C16 UNL     1      -4.651  48.963 -23.533  1.00  0.00     0.094 C 
HETATM   11  C17 UNL     1      -3.894  48.926 -22.205  1.00  0.00    -0.019 C 
HETATM   12  C18 UNL     1      -2.725  47.899 -22.336  1.00  0.00     0.017 C 
HETATM   13  C19 UNL     1      -1.803  51.097 -25.451  1.00  0.00    -0.008 C 
HETATM   14  C20 UNL     1      -0.990  49.887 -25.971  1.00  0.00     0.021 C 
HETATM   15  C21 UNL     1      -2.666  51.667 -26.623  1.00  0.00     0.022 C 
HETATM   16  C22 UNL     1      -2.037  52.801 -27.431  1.00  0.00     0.080 C 
HETATM   17  C23 UNL     1      -0.530  52.757 -27.395  1.00  0.00     0.135 C 
HETATM   18  O4  UNL     1       0.127  52.739 -28.435  1.00  0.00    -0.297 OA
HETATM   19  C24 UNL     1       0.121  52.834 -26.010  1.00  0.00     0.018 C 
HETATM   20  C25 UNL     1       1.486  52.124 -26.031  1.00  0.00     0.023 C 
HETATM   21  C26 UNL     1       0.388  54.332 -25.737  1.00  0.00     0.023 C 
HETATM   22  C27 UNL     1      -0.884  52.274 -24.946  1.00  0.00     0.014 C 
HETATM   23  C28 UNL     1      -0.223  51.926 -23.608  1.00  0.00     0.011 C 
HETATM   24  C29 UNL     1      -1.278  51.692 -22.532  1.00  0.00     0.036 C 
ENDROOT
BRANCH   1  25
HETATM   25  C6  UNL     1      -5.142  47.120 -20.613  1.00  0.00    -0.011 C 
HETATM   26  C7  UNL     1      -4.442  46.653 -19.324  1.00  0.00     0.010 C 
BRANCH  25  27
HETATM   27  C5  UNL     1      -6.683  46.945 -20.528  1.00  0.00     0.040 C 
BRANCH  27  28
HETATM   28  C4  UNL     1      -7.483  48.193 -20.106  1.00  0.00     0.142 C 
BRANCH  28  29
HETATM   29  C3  UNL     1      -8.070  48.030 -18.733  1.00  0.00     0.018 C 
HETATM   30  C2  UNL     1      -9.373  47.880 -18.418  1.00  0.00     0.010 C 
HETATM   31  C1  UNL     1     -10.510  47.796 -19.391  1.00  0.00     0.055 C 
BRANCH  30  32
HETATM   32  C30 UNL     1      -9.690  47.751 -16.972  1.00  0.00     0.171 C 
HETATM   33  O5  UNL     1     -10.771  47.946 -16.444  1.00  0.00    -0.646 OA
BRANCH  32  34
HETATM   34  O6  UNL     1      -8.624  47.375 -16.245  1.00  0.00    -0.773 OA
HETATM   35  H44 UNL     1      -8.970  47.340 -15.330  1.00  0.00     0.167 HD
ENDBRANCH  32  34
ENDBRANCH  30  32
ENDBRANCH  28  29
BRANCH  28  36
HETATM   36  O1  UNL     1      -8.571  48.389 -21.002  1.00  0.00    -0.392 OA
HETATM   37  H6  UNL     1      -9.257  47.732 -20.795  1.00  0.00     0.210 HD
ENDBRANCH  28  36
ENDBRANCH  27  28
ENDBRANCH  25  27
ENDBRANCH   1  25
BRANCH   3  38
HETATM   38  O2  UNL     1      -2.739  51.396 -19.702  1.00  0.00    -0.394 OA
HETATM   39  H17 UNL     1      -3.620  51.723 -19.452  1.00  0.00     0.210 HD
ENDBRANCH   3  38
TORSDOF 8
ENDMDL
MODEL 8
REMARK minimizedAffinity -9.34262943
REMARK CNNscore 0.419550151
REMARK CNNaffinity 6.80220747
REMARK  8 active torsions:
REMARK  status: ('A' for Active; 'I' for Inactive)
REMARK    1  A    between atoms: C2_2  and  C30_34 
REMARK    2  A    between atoms: C3_3  and  C4_4 
REMARK    3  A    between atoms: C4_4  and  O1_5 
REMARK    4  A    between atoms: C4_4  and  C5_6 
REMARK    5  A    between atoms: C5_6  and  C6_7 
REMARK    6  A    between atoms: C6_7  and  C8_9 
REMARK    7  A    between atoms: C10_11  and  O2_12 
REMARK    8  A    between atoms: C30_34  and  O6_36 
ROOT
HETATM    1  C8  UNL     1      -2.504  50.686 -22.036  1.00  0.00     0.001 C 
HETATM    2  C9  UNL     1      -1.705  51.981 -22.379  1.00  0.00     0.038 C 
HETATM    3  C10 UNL     1      -0.787  52.286 -21.179  1.00  0.00     0.131 C 
HETATM    4  C11 UNL     1      -0.770  50.970 -20.357  1.00  0.00     0.014 C 
HETATM    5  C12 UNL     1       0.257  49.987 -21.003  1.00  0.00     0.023 C 
HETATM    6  C13 UNL     1      -0.393  51.015 -18.877  1.00  0.00    -0.058 C 
HETATM    7  C14 UNL     1      -0.829  50.063 -18.013  1.00  0.00    -0.000 C 
HETATM    8  C15 UNL     1      -1.808  49.015 -18.523  1.00  0.00     0.157 C 
HETATM    9  O3  UNL     1      -2.123  48.050 -17.825  1.00  0.00    -0.293 OA
HETATM   10  C16 UNL     1      -2.415  49.133 -19.918  1.00  0.00     0.094 C 
HETATM   11  C17 UNL     1      -2.278  50.542 -20.496  1.00  0.00    -0.019 C 
HETATM   12  C18 UNL     1      -3.266  51.482 -19.735  1.00  0.00     0.017 C 
HETATM   13  C19 UNL     1      -0.388  49.994 -16.528  1.00  0.00    -0.008 C 
HETATM   14  C20 UNL     1      -1.614  50.434 -15.692  1.00  0.00     0.021 C 
HETATM   15  C21 UNL     1       0.017  48.544 -16.105  1.00  0.00     0.022 C 
HETATM   16  C22 UNL     1       1.082  48.434 -15.015  1.00  0.00     0.080 C 
HETATM   17  C23 UNL     1       1.103  49.645 -14.117  1.00  0.00     0.135 C 
HETATM   18  O4  UNL     1       0.999  49.530 -12.896  1.00  0.00    -0.297 OA
HETATM   19  C24 UNL     1       1.355  50.994 -14.798  1.00  0.00     0.018 C 
HETATM   20  C25 UNL     1       0.701  52.125 -13.983  1.00  0.00     0.023 C 
HETATM   21  C26 UNL     1       2.883  51.224 -14.757  1.00  0.00     0.023 C 
HETATM   22  C27 UNL     1       0.873  50.909 -16.287  1.00  0.00     0.014 C 
HETATM   23  C28 UNL     1       0.698  52.278 -16.951  1.00  0.00     0.011 C 
HETATM   24  C29 UNL     1       0.539  52.128 -18.460  1.00  0.00     0.036 C 
ENDROOT
BRANCH   1  25
HETATM   25  C6  UNL     1      -3.951  50.709 -22.624  1.00  0.00    -0.011 C 
HETATM   26  C7  UNL     1      -4.532  52.131 -22.532  1.00  0.00     0.010 C 
BRANCH  25  27
HETATM   27  C5  UNL     1      -3.995  50.161 -24.077  1.00  0.00     0.040 C 
BRANCH  27  28
HETATM   28  C4  UNL     1      -4.421  48.688 -24.231  1.00  0.00     0.142 C 
BRANCH  28  29
HETATM   29  C3  UNL     1      -4.961  48.414 -25.606  1.00  0.00     0.018 C 
HETATM   30  C2  UNL     1      -4.265  48.385 -26.762  1.00  0.00     0.010 C 
HETATM   31  C1  UNL     1      -2.785  48.576 -26.904  1.00  0.00     0.055 C 
BRANCH  30  32
HETATM   32  C30 UNL     1      -5.047  48.100 -27.993  1.00  0.00     0.171 C 
HETATM   33  O5  UNL     1      -4.598  47.849 -29.098  1.00  0.00    -0.646 OA
BRANCH  32  34
HETATM   34  O6  UNL     1      -6.373  48.140 -27.779  1.00  0.00    -0.773 OA
HETATM   35  H44 UNL     1      -6.754  47.946 -28.661  1.00  0.00     0.167 HD
ENDBRANCH  32  34
ENDBRANCH  30  32
ENDBRANCH  28  29
BRANCH  28  36
HETATM   36  O1  UNL     1      -5.463  48.393 -23.309  1.00  0.00    -0.392 OA
HETATM   37  H6  UNL     1      -6.286  48.790 -23.642  1.00  0.00     0.210 HD
ENDBRANCH  28  36
ENDBRANCH  27  28
ENDBRANCH  25  27
ENDBRANCH   1  25
BRANCH   3  38
HETATM   38  O2  UNL     1       0.492  52.735 -21.600  1.00  0.00    -0.394 OA
HETATM   39  H17 UNL     1       0.808  52.163 -22.320  1.00  0.00     0.210 HD
ENDBRANCH   3  38
TORSDOF 8
ENDMDL
MODEL 9
REMARK minimizedAffinity -9.79059792
REMARK CNNscore 0.38829577
REMARK CNNaffinity 6.60699224
REMARK  8 active torsions:
REMARK  status: ('A' for Active; 'I' for Inactive)
REMARK    1  A    between atoms: C2_2  and  C30_34 
REMARK    2  A    between atoms: C3_3  and  C4_4 
REMARK    3  A    between atoms: C4_4  and  O1_5 
REMARK    4  A    between atoms: C4_4  and  C5_6 
REMARK    5  A    between atoms: C5_6  and  C6_7 
REMARK    6  A    between atoms: C6_7  and  C8_9 
REMARK    7  A    between atoms: C10_11  and  O2_12 
REMARK    8  A    between atoms: C30_34  and  O6_36 
ROOT
HETATM    1  C8  UNL     1      -2.513  48.896 -18.292  1.00  0.00     0.001 C 
HETATM    2  C9  UNL     1      -3.214  47.647 -18.911  1.00  0.00     0.038 C 
HETATM    3  C10 UNL     1      -3.152  47.798 -20.443  1.00  0.00     0.131 C 
HETATM    4  C11 UNL     1      -2.085  48.898 -20.684  1.00  0.00     0.014 C 
HETATM    5  C12 UNL     1      -0.667  48.248 -20.605  1.00  0.00     0.023 C 
HETATM    6  C13 UNL     1      -2.088  49.671 -22.002  1.00  0.00    -0.058 C 
HETATM    7  C14 UNL     1      -1.562  50.920 -22.084  1.00  0.00    -0.000 C 
HETATM    8  C15 UNL     1      -1.077  51.588 -20.805  1.00  0.00     0.157 C 
HETATM    9  O3  UNL     1      -0.463  52.655 -20.842  1.00  0.00    -0.293 OA
HETATM   10  C16 UNL     1      -1.335  50.942 -19.447  1.00  0.00     0.094 C 
HETATM   11  C17 UNL     1      -2.433  49.880 -19.505  1.00  0.00    -0.019 C 
HETATM   12  C18 UNL     1      -3.806  50.603 -19.680  1.00  0.00     0.017 C 
HETATM   13  C19 UNL     1      -1.436  51.706 -23.415  1.00  0.00    -0.008 C 
HETATM   14  C20 UNL     1      -2.499  52.830 -23.356  1.00  0.00     0.021 C 
HETATM   15  C21 UNL     1      -0.023  52.356 -23.580  1.00  0.00     0.022 C 
HETATM   16  C22 UNL     1       0.480  52.515 -25.013  1.00  0.00     0.080 C 
HETATM   17  C23 UNL     1      -0.651  52.618 -26.006  1.00  0.00     0.135 C 
HETATM   18  O4  UNL     1      -0.724  53.566 -26.785  1.00  0.00    -0.297 OA
HETATM   19  C24 UNL     1      -1.630  51.440 -26.046  1.00  0.00     0.018 C 
HETATM   20  C25 UNL     1      -3.011  51.922 -26.526  1.00  0.00     0.023 C 
HETATM   21  C26 UNL     1      -1.090  50.461 -27.114  1.00  0.00     0.023 C 
HETATM   22  C27 UNL     1      -1.641  50.740 -24.645  1.00  0.00     0.014 C 
HETATM   23  C28 UNL     1      -2.848  49.821 -24.431  1.00  0.00     0.011 C 
HETATM   24  C29 UNL     1      -2.643  48.941 -23.203  1.00  0.00     0.036 C 
ENDROOT
BRANCH   1  25
HETATM   25  C6  UNL     1      -3.178  49.346 -16.952  1.00  0.00    -0.011 C 
HETATM   26  C7  UNL     1      -3.134  48.194 -15.933  1.00  0.00     0.010 C 
BRANCH  25  27
HETATM   27  C5  UNL     1      -2.530  50.640 -16.390  1.00  0.00     0.040 C 
BRANCH  27  28
HETATM   28  C4  UNL     1      -2.196  50.630 -14.885  1.00  0.00     0.142 C 
BRANCH  28  29
HETATM   29  C3  UNL     1      -3.062  51.593 -14.124  1.00  0.00     0.018 C 
HETATM   30  C2  UNL     1      -2.811  52.126 -12.910  1.00  0.00     0.010 C 
HETATM   31  C1  UNL     1      -1.580  51.900 -12.085  1.00  0.00     0.055 C 
BRANCH  30  32
HETATM   32  C30 UNL     1      -3.843  53.049 -12.371  1.00  0.00     0.171 C 
HETATM   33  O5  UNL     1      -4.302  53.049 -11.242  1.00  0.00    -0.646 OA
BRANCH  32  34
HETATM   34  O6  UNL     1      -4.256  53.946 -13.284  1.00  0.00    -0.773 OA
HETATM   35  H44 UNL     1      -4.929  54.471 -12.803  1.00  0.00     0.167 HD
ENDBRANCH  32  34
ENDBRANCH  30  32
ENDBRANCH  28  29
BRANCH  28  36
HETATM   36  O1  UNL     1      -0.848  51.041 -14.692  1.00  0.00    -0.392 OA
HETATM   37  H6  UNL     1      -0.802  52.004 -14.817  1.00  0.00     0.210 HD
ENDBRANCH  28  36
ENDBRANCH  27  28
ENDBRANCH  25  27
ENDBRANCH   1  25
BRANCH   3  38
HETATM   38  O2  UNL     1      -2.877  46.560 -21.080  1.00  0.00    -0.394 OA
HETATM   39  H17 UNL     1      -2.154  46.113 -20.607  1.00  0.00     0.210 HD
ENDBRANCH   3  38
TORSDOF 8
ENDMDL
