MODEL 1
REMARK minimizedAffinity -9.37747765
REMARK  8 active torsions:
REMARK  status: ('A' for Active; 'I' for Inactive)
REMARK    1  A    between atoms: C2_2  and  C3_3 
REMARK    2  A    between atoms: C2_2  and  C9_11 
REMARK    3  A    between atoms: C3_3  and  C4_4 
REMARK    4  A    between atoms: C4_4  and  C5_5 
REMARK    5  A    between atoms: C6_6  and  C7_7 
REMARK    6  A    between atoms: C6_6  and  C8_9 
REMARK    7  A    between atoms: C7_7  and  O1_8 
REMARK    8  A    between atoms: C8_9  and  O2_10 
ROOT
HETATM    1  C9  UNL     1      -2.198   6.014  12.911  1.00  0.00    -0.001 C 
HETATM    2  C10 UNL     1      -2.110   5.118  11.644  1.00  0.00     0.007 C 
HETATM    3  C11 UNL     1      -0.649   5.158  11.163  1.00  0.00     0.015 C 
HETATM    4  C12 UNL     1       0.153   5.724  12.352  1.00  0.00    -0.004 C 
HETATM    5  C13 UNL     1       0.422   4.531  13.322  1.00  0.00     0.021 C 
HETATM    6  C14 UNL     1       1.520   6.369  12.147  1.00  0.00     0.007 C 
HETATM    7  C15 UNL     1       2.020   7.312  12.989  1.00  0.00     0.007 C 
HETATM    8  C16 UNL     1       1.102   7.810  14.100  1.00  0.00     0.157 C 
HETATM    9  O3  UNL     1       1.492   8.638  14.921  1.00  0.00    -0.293 OA
HETATM   10  C17 UNL     1      -0.333   7.308  14.212  1.00  0.00     0.094 C 
HETATM   11  C18 UNL     1      -0.861   6.813  12.869  1.00  0.00    -0.022 C 
HETATM   12  C19 UNL     1      -0.987   8.028  11.902  1.00  0.00     0.017 C 
HETATM   13  C20 UNL     1       3.432   7.956  12.846  1.00  0.00    -0.007 C 
HETATM   14  C21 UNL     1       3.181   9.339  12.203  1.00  0.00     0.021 C 
HETATM   15  C22 UNL     1       4.181   8.135  14.199  1.00  0.00     0.022 C 
HETATM   16  C23 UNL     1       5.611   8.638  14.055  1.00  0.00     0.080 C 
HETATM   17  C24 UNL     1       6.437   7.742  13.170  1.00  0.00     0.135 C 
HETATM   18  O4  UNL     1       7.578   7.425  13.511  1.00  0.00    -0.297 OA
HETATM   19  C25 UNL     1       5.848   7.353  11.809  1.00  0.00     0.018 C 
HETATM   20  C26 UNL     1       6.625   6.104  11.312  1.00  0.00     0.023 C 
HETATM   21  C27 UNL     1       6.137   8.484  10.810  1.00  0.00     0.023 C 
HETATM   22  C28 UNL     1       4.333   6.987  11.987  1.00  0.00     0.021 C 
HETATM   23  C29 UNL     1       3.628   6.640  10.675  1.00  0.00     0.090 C 
HETATM   24  C30 UNL     1       2.342   5.917  10.978  1.00  0.00     0.157 C 
HETATM   25  O5  UNL     1       1.972   4.996  10.253  1.00  0.00    -0.293 OA
ENDROOT
BRANCH   1  26
HETATM   26  C2  UNL     1      -3.604   6.662  13.103  1.00  0.00    -0.014 C 
HETATM   27  C1  UNL     1      -3.685   8.189  13.180  1.00  0.00     0.010 C 
BRANCH  26  28
HETATM   28  C3  UNL     1      -4.481   5.954  14.169  1.00  0.00     0.008 C 
BRANCH  28  29
HETATM   29  C4  UNL     1      -5.776   5.293  13.682  1.00  0.00     0.028 C 
BRANCH  29  30
HETATM   30  C5  UNL     1      -5.476   4.185  12.708  1.00  0.00    -0.020 C 
HETATM   31  C6  UNL     1      -6.295   3.170  12.360  1.00  0.00    -0.037 C 
BRANCH  31  32
HETATM   32  C7  UNL     1      -7.711   3.008  12.853  1.00  0.00     0.200 C 
BRANCH  32  33
HETATM   33  O1  UNL     1      -8.158   1.686  12.580  1.00  0.00    -0.397 OA
HETATM   34  H12 UNL     1      -7.818   1.480  11.680  1.00  0.00     0.209 HD
ENDBRANCH  32  33
ENDBRANCH  31  32
BRANCH  31  35
HETATM   35  C8  UNL     1      -5.838   2.092  11.411  1.00  0.00     0.200 C 
BRANCH  35  36
HETATM   36  O2  UNL     1      -4.624   2.521  10.809  1.00  0.00    -0.397 OA
HETATM   37  H15 UNL     1      -4.296   1.769  10.284  1.00  0.00     0.209 HD
ENDBRANCH  35  36
ENDBRANCH  31  35
ENDBRANCH  29  30
ENDBRANCH  28  29
ENDBRANCH  26  28
ENDBRANCH   1  26
TORSDOF 8
ENDMDL
MODEL 2
REMARK minimizedAffinity -9.03828049
REMARK  8 active torsions:
REMARK  status: ('A' for Active; 'I' for Inactive)
REMARK    1  A    between atoms: C2_2  and  C3_3 
REMARK    2  A    between atoms: C2_2  and  C9_11 
REMARK    3  A    between atoms: C3_3  and  C4_4 
REMARK    4  A    between atoms: C4_4  and  C5_5 
REMARK    5  A    between atoms: C6_6  and  C7_7 
REMARK    6  A    between atoms: C6_6  and  C8_9 
REMARK    7  A    between atoms: C7_7  and  O1_8 
REMARK    8  A    between atoms: C8_9  and  O2_10 
ROOT
HETATM    1  C9  UNL     1      -2.002   5.401  12.578  1.00  0.00    -0.001 C 
HETATM    2  C10 UNL     1      -1.928   5.541  14.125  1.00  0.00     0.007 C 
HETATM    3  C11 UNL     1      -0.596   6.237  14.452  1.00  0.00     0.015 C 
HETATM    4  C12 UNL     1      -0.118   6.845  13.118  1.00  0.00    -0.004 C 
HETATM    5  C13 UNL     1      -0.874   8.199  12.943  1.00  0.00     0.021 C 
HETATM    6  C14 UNL     1       1.349   7.191  12.889  1.00  0.00     0.007 C 
HETATM    7  C15 UNL     1       1.913   7.217  11.652  1.00  0.00     0.007 C 
HETATM    8  C16 UNL     1       1.048   6.758  10.484  1.00  0.00     0.157 C 
HETATM    9  O3  UNL     1       1.474   6.783   9.331  1.00  0.00    -0.293 OA
HETATM   10  C17 UNL     1      -0.366   6.236  10.715  1.00  0.00     0.094 C 
HETATM   11  C18 UNL     1      -0.539   5.692  12.130  1.00  0.00    -0.022 C 
HETATM   12  C19 UNL     1       0.339   4.414  12.285  1.00  0.00     0.017 C 
HETATM   13  C20 UNL     1       3.392   7.617  11.370  1.00  0.00    -0.007 C 
HETATM   14  C21 UNL     1       4.140   6.280  11.167  1.00  0.00     0.021 C 
HETATM   15  C22 UNL     1       3.571   8.515  10.110  1.00  0.00     0.022 C 
HETATM   16  C23 UNL     1       4.994   9.020   9.905  1.00  0.00     0.080 C 
HETATM   17  C24 UNL     1       5.501   9.777  11.104  1.00  0.00     0.135 C 
HETATM   18  O4  UNL     1       6.101  10.842  10.948  1.00  0.00    -0.297 OA
HETATM   19  C25 UNL     1       5.341   9.117  12.479  1.00  0.00     0.018 C 
HETATM   20  C26 UNL     1       5.489  10.235  13.545  1.00  0.00     0.023 C 
HETATM   21  C27 UNL     1       6.510   8.142  12.691  1.00  0.00     0.023 C 
HETATM   22  C28 UNL     1       3.912   8.481  12.583  1.00  0.00     0.021 C 
HETATM   23  C29 UNL     1       3.666   7.739  13.898  1.00  0.00     0.090 C 
HETATM   24  C30 UNL     1       2.185   7.536  14.085  1.00  0.00     0.157 C 
HETATM   25  O5  UNL     1       1.691   7.623  15.207  1.00  0.00    -0.293 OA
ENDROOT
BRANCH   1  26
HETATM   26  C2  UNL     1      -2.834   4.164  12.116  1.00  0.00    -0.014 C 
HETATM   27  C1  UNL     1      -2.695   3.710  10.661  1.00  0.00     0.010 C 
BRANCH  26  28
HETATM   28  C3  UNL     1      -4.304   4.179  12.610  1.00  0.00     0.008 C 
BRANCH  28  29
HETATM   29  C4  UNL     1      -4.727   5.341  13.515  1.00  0.00     0.028 C 
BRANCH  29  30
HETATM   30  C5  UNL     1      -6.095   5.844  13.134  1.00  0.00    -0.020 C 
HETATM   31  C6  UNL     1      -7.255   5.156  13.193  1.00  0.00    -0.037 C 
BRANCH  31  32
HETATM   32  C7  UNL     1      -7.390   3.753  13.728  1.00  0.00     0.200 C 
BRANCH  32  33
HETATM   33  O1  UNL     1      -8.559   3.152  13.187  1.00  0.00    -0.397 OA
HETATM   34  H12 UNL     1      -9.243   3.858  13.203  1.00  0.00     0.209 HD
ENDBRANCH  32  33
ENDBRANCH  31  32
BRANCH  31  35
HETATM   35  C8  UNL     1      -8.548   5.771  12.721  1.00  0.00     0.200 C 
BRANCH  35  36
HETATM   36  O2  UNL     1      -9.421   5.872  13.838  1.00  0.00    -0.397 OA
HETATM   37  H15 UNL     1     -10.204   6.365  13.531  1.00  0.00     0.209 HD
ENDBRANCH  35  36
ENDBRANCH  31  35
ENDBRANCH  29  30
ENDBRANCH  28  29
ENDBRANCH  26  28
ENDBRANCH   1  26
TORSDOF 8
ENDMDL
MODEL 3
REMARK minimizedAffinity -8.96442223
REMARK  8 active torsions:
REMARK  status: ('A' for Active; 'I' for Inactive)
REMARK    1  A    between atoms: C2_2  and  C3_3 
REMARK    2  A    between atoms: C2_2  and  C9_11 
REMARK    3  A    between atoms: C3_3  and  C4_4 
REMARK    4  A    between atoms: C4_4  and  C5_5 
REMARK    5  A    between atoms: C6_6  and  C7_7 
REMARK    6  A    between atoms: C6_6  and  C8_9 
REMARK    7  A    between atoms: C7_7  and  O1_8 
REMARK    8  A    between atoms: C8_9  and  O2_10 
ROOT
HETATM    1  C9  UNL     1      -2.544   6.060  13.289  1.00  0.00    -0.001 C 
HETATM    2  C10 UNL     1      -2.546   5.236  11.970  1.00  0.00     0.007 C 
HETATM    3  C11 UNL     1      -1.119   5.296  11.398  1.00  0.00     0.015 C 
HETATM    4  C12 UNL     1      -0.237   5.788  12.563  1.00  0.00    -0.004 C 
HETATM    5  C13 UNL     1       0.083   4.541  13.444  1.00  0.00     0.021 C 
HETATM    6  C14 UNL     1       1.120   6.436  12.306  1.00  0.00     0.007 C 
HETATM    7  C15 UNL     1       1.682   7.327  13.166  1.00  0.00     0.007 C 
HETATM    8  C16 UNL     1       0.842   7.767  14.359  1.00  0.00     0.157 C 
HETATM    9  O3  UNL     1       1.292   8.544  15.199  1.00  0.00    -0.293 OA
HETATM   10  C17 UNL     1      -0.587   7.267  14.536  1.00  0.00     0.094 C 
HETATM   11  C18 UNL     1      -1.205   6.852  13.205  1.00  0.00    -0.022 C 
HETATM   12  C19 UNL     1      -1.382   8.121  12.318  1.00  0.00     0.017 C 
HETATM   13  C20 UNL     1       3.088   7.970  12.967  1.00  0.00    -0.007 C 
HETATM   14  C21 UNL     1       2.809   9.388  12.421  1.00  0.00     0.021 C 
HETATM   15  C22 UNL     1       3.924   8.068  14.277  1.00  0.00     0.022 C 
HETATM   16  C23 UNL     1       5.347   8.570  14.069  1.00  0.00     0.080 C 
HETATM   17  C24 UNL     1       6.106   7.721  13.083  1.00  0.00     0.135 C 
HETATM   18  O4  UNL     1       7.263   7.378  13.331  1.00  0.00    -0.297 OA
HETATM   19  C25 UNL     1       5.426   7.413  11.743  1.00  0.00     0.018 C 
HETATM   20  C26 UNL     1       6.158   6.190  11.128  1.00  0.00     0.023 C 
HETATM   21  C27 UNL     1       5.661   8.597  10.793  1.00  0.00     0.023 C 
HETATM   22  C28 UNL     1       3.923   7.047  11.999  1.00  0.00     0.021 C 
HETATM   23  C29 UNL     1       3.131   6.779  10.718  1.00  0.00     0.090 C 
HETATM   24  C30 UNL     1       1.860   6.046  11.063  1.00  0.00     0.157 C 
HETATM   25  O5  UNL     1       1.435   5.170  10.313  1.00  0.00    -0.293 OA
ENDROOT
BRANCH   1  26
HETATM   26  C2  UNL     1      -3.929   6.704  13.608  1.00  0.00    -0.014 C 
HETATM   27  C1  UNL     1      -4.196   8.120  13.090  1.00  0.00     0.010 C 
BRANCH  26  28
HETATM   28  C3  UNL     1      -4.395   6.497  15.073  1.00  0.00     0.008 C 
BRANCH  28  29
HETATM   29  C4  UNL     1      -5.897   6.302  15.308  1.00  0.00     0.028 C 
BRANCH  29  30
HETATM   30  C5  UNL     1      -6.505   5.468  14.212  1.00  0.00    -0.020 C 
HETATM   31  C6  UNL     1      -7.763   5.560  13.729  1.00  0.00    -0.037 C 
BRANCH  31  32
HETATM   32  C7  UNL     1      -8.776   6.585  14.173  1.00  0.00     0.200 C 
BRANCH  32  33
HETATM   33  O1  UNL     1      -9.414   6.135  15.361  1.00  0.00    -0.397 OA
HETATM   34  H12 UNL     1      -9.568   5.174  15.222  1.00  0.00     0.209 HD
ENDBRANCH  32  33
ENDBRANCH  31  32
BRANCH  31  35
HETATM   35  C8  UNL     1      -8.257   4.614  12.665  1.00  0.00     0.200 C 
BRANCH  35  36
HETATM   36  O2  UNL     1      -8.560   3.372  13.285  1.00  0.00    -0.397 OA
HETATM   37  H15 UNL     1      -8.974   2.816  12.600  1.00  0.00     0.209 HD
ENDBRANCH  35  36
ENDBRANCH  31  35
ENDBRANCH  29  30
ENDBRANCH  28  29
ENDBRANCH  26  28
ENDBRANCH   1  26
TORSDOF 8
ENDMDL
MODEL 4
REMARK minimizedAffinity -8.83568954
REMARK  8 active torsions:
REMARK  status: ('A' for Active; 'I' for Inactive)
REMARK    1  A    between atoms: C2_2  and  C3_3 
REMARK    2  A    between atoms: C2_2  and  C9_11 
REMARK    3  A    between atoms: C3_3  and  C4_4 
REMARK    4  A    between atoms: C4_4  and  C5_5 
REMARK    5  A    between atoms: C6_6  and  C7_7 
REMARK    6  A    between atoms: C6_6  and  C8_9 
REMARK    7  A    between atoms: C7_7  and  O1_8 
REMARK    8  A    between atoms: C8_9  and  O2_10 
ROOT
HETATM    1  C9  UNL     1       1.404   6.855  12.361  1.00  0.00    -0.001 C 
HETATM    2  C10 UNL     1       1.620   5.378  11.926  1.00  0.00     0.007 C 
HETATM    3  C11 UNL     1       0.249   4.683  11.993  1.00  0.00     0.015 C 
HETATM    4  C12 UNL     1      -0.782   5.827  12.063  1.00  0.00    -0.004 C 
HETATM    5  C13 UNL     1      -1.012   6.317  10.599  1.00  0.00     0.021 C 
HETATM    6  C14 UNL     1      -2.184   5.594  12.615  1.00  0.00     0.007 C 
HETATM    7  C15 UNL     1      -2.924   6.584  13.181  1.00  0.00     0.007 C 
HETATM    8  C16 UNL     1      -2.249   7.938  13.367  1.00  0.00     0.157 C 
HETATM    9  O3  UNL     1      -2.862   8.892  13.841  1.00  0.00    -0.293 OA
HETATM   10  C17 UNL     1      -0.786   8.141  12.985  1.00  0.00     0.094 C 
HETATM   11  C18 UNL     1      -0.013   6.827  13.007  1.00  0.00    -0.022 C 
HETATM   12  C19 UNL     1       0.073   6.322  14.478  1.00  0.00     0.017 C 
HETATM   13  C20 UNL     1      -4.379   6.400  13.709  1.00  0.00    -0.007 C 
HETATM   14  C21 UNL     1      -4.239   6.271  15.242  1.00  0.00     0.021 C 
HETATM   15  C22 UNL     1      -5.326   7.587  13.366  1.00  0.00     0.022 C 
HETATM   16  C23 UNL     1      -6.779   7.356  13.760  1.00  0.00     0.080 C 
HETATM   17  C24 UNL     1      -7.340   6.105  13.134  1.00  0.00     0.135 C 
HETATM   18  O4  UNL     1      -8.461   6.124  12.623  1.00  0.00    -0.297 OA
HETATM   19  C25 UNL     1      -6.518   4.817  13.267  1.00  0.00     0.018 C 
HETATM   20  C26 UNL     1      -7.035   3.829  12.187  1.00  0.00     0.023 C 
HETATM   21  C27 UNL     1      -6.823   4.182  14.633  1.00  0.00     0.023 C 
HETATM   22  C28 UNL     1      -5.007   5.138  13.000  1.00  0.00     0.021 C 
HETATM   23  C29 UNL     1      -4.085   3.930  13.167  1.00  0.00     0.090 C 
HETATM   24  C30 UNL     1      -2.764   4.216  12.501  1.00  0.00     0.157 C 
HETATM   25  O5  UNL     1      -2.170   3.319  11.906  1.00  0.00    -0.293 OA
ENDROOT
BRANCH   1  26
HETATM   26  C2  UNL     1       2.664   7.484  13.033  1.00  0.00    -0.014 C 
HETATM   27  C1  UNL     1       2.505   8.090  14.430  1.00  0.00     0.010 C 
BRANCH  26  28
HETATM   28  C3  UNL     1       3.506   8.372  12.079  1.00  0.00     0.008 C 
BRANCH  28  29
HETATM   29  C4  UNL     1       4.209   7.672  10.910  1.00  0.00     0.028 C 
BRANCH  29  30
HETATM   30  C5  UNL     1       3.434   7.857   9.633  1.00  0.00    -0.020 C 
HETATM   31  C6  UNL     1       3.058   6.891   8.767  1.00  0.00    -0.037 C 
BRANCH  31  32
HETATM   32  C7  UNL     1       3.301   5.418   8.973  1.00  0.00     0.200 C 
BRANCH  32  33
HETATM   33  O1  UNL     1       3.316   4.761   7.713  1.00  0.00    -0.397 OA
HETATM   34  H12 UNL     1       2.586   5.172   7.199  1.00  0.00     0.209 HD
ENDBRANCH  32  33
ENDBRANCH  31  32
BRANCH  31  35
HETATM   35  C8  UNL     1       2.333   7.232   7.490  1.00  0.00     0.200 C 
BRANCH  35  36
HETATM   36  O2  UNL     1       2.555   8.607   7.210  1.00  0.00    -0.397 OA
HETATM   37  H15 UNL     1       2.167   8.775   6.332  1.00  0.00     0.209 HD
ENDBRANCH  35  36
ENDBRANCH  31  35
ENDBRANCH  29  30
ENDBRANCH  28  29
ENDBRANCH  26  28
ENDBRANCH   1  26
TORSDOF 8
ENDMDL
MODEL 5
REMARK minimizedAffinity -8.73583603
REMARK  8 active torsions:
REMARK  status: ('A' for Active; 'I' for Inactive)
REMARK    1  A    between atoms: C2_2  and  C3_3 
REMARK    2  A    between atoms: C2_2  and  C9_11 
REMARK    3  A    between atoms: C3_3  and  C4_4 
REMARK    4  A    between atoms: C4_4  and  C5_5 
REMARK    5  A    between atoms: C6_6  and  C7_7 
REMARK    6  A    between atoms: C6_6  and  C8_9 
REMARK    7  A    between atoms: C7_7  and  O1_8 
REMARK    8  A    between atoms: C8_9  and  O2_10 
ROOT
HETATM    1  C9  UNL     1      -2.526   7.888  13.945  1.00  0.00    -0.001 C 
HETATM    2  C10 UNL     1      -2.411   7.507  15.449  1.00  0.00     0.007 C 
HETATM    3  C11 UNL     1      -0.916   7.538  15.810  1.00  0.00     0.015 C 
HETATM    4  C12 UNL     1      -0.239   8.313  14.661  1.00  0.00    -0.004 C 
HETATM    5  C13 UNL     1      -0.426   9.831  14.969  1.00  0.00     0.021 C 
HETATM    6  C14 UNL     1       1.252   8.159  14.376  1.00  0.00     0.007 C 
HETATM    7  C15 UNL     1       1.788   8.361  13.143  1.00  0.00     0.007 C 
HETATM    8  C16 UNL     1       0.819   8.629  11.998  1.00  0.00     0.157 C 
HETATM    9  O3  UNL     1       1.227   8.853  10.861  1.00  0.00    -0.293 OA
HETATM   10  C17 UNL     1      -0.689   8.608  12.229  1.00  0.00     0.094 C 
HETATM   11  C18 UNL     1      -1.060   7.754  13.437  1.00  0.00    -0.022 C 
HETATM   12  C19 UNL     1      -0.730   6.265  13.119  1.00  0.00     0.017 C 
HETATM   13  C20 UNL     1       3.310   8.267  12.823  1.00  0.00    -0.007 C 
HETATM   14  C21 UNL     1       3.499   6.883  12.161  1.00  0.00     0.021 C 
HETATM   15  C22 UNL     1       3.820   9.381  11.862  1.00  0.00     0.022 C 
HETATM   16  C23 UNL     1       5.329   9.377  11.651  1.00  0.00     0.080 C 
HETATM   17  C24 UNL     1       6.080   9.491  12.951  1.00  0.00     0.135 C 
HETATM   18  O4  UNL     1       7.038  10.260  13.041  1.00  0.00    -0.297 OA
HETATM   19  C25 UNL     1       5.677   8.543  14.088  1.00  0.00     0.018 C 
HETATM   20  C26 UNL     1       6.232   9.145  15.406  1.00  0.00     0.023 C 
HETATM   21  C27 UNL     1       6.391   7.198  13.878  1.00  0.00     0.023 C 
HETATM   22  C28 UNL     1       4.113   8.466  14.166  1.00  0.00     0.021 C 
HETATM   23  C29 UNL     1       3.600   7.496  15.232  1.00  0.00     0.090 C 
HETATM   24  C30 UNL     1       2.151   7.793  15.518  1.00  0.00     0.157 C 
HETATM   25  O5  UNL     1       1.722   7.702  16.667  1.00  0.00    -0.293 OA
ENDROOT
BRANCH   1  26
HETATM   26  C2  UNL     1      -3.761   7.241  13.246  1.00  0.00    -0.014 C 
HETATM   27  C1  UNL     1      -5.026   8.090  13.095  1.00  0.00     0.010 C 
BRANCH  26  28
HETATM   28  C3  UNL     1      -4.057   5.790  13.711  1.00  0.00     0.008 C 
BRANCH  28  29
HETATM   29  C4  UNL     1      -4.494   4.787  12.637  1.00  0.00     0.028 C 
BRANCH  29  30
HETATM   30  C5  UNL     1      -5.777   4.106  13.034  1.00  0.00    -0.020 C 
HETATM   31  C6  UNL     1      -6.349   3.042  12.430  1.00  0.00    -0.037 C 
BRANCH  31  32
HETATM   32  C7  UNL     1      -5.747   2.296  11.266  1.00  0.00     0.200 C 
BRANCH  32  33
HETATM   33  O1  UNL     1      -6.399   1.041  11.121  1.00  0.00    -0.397 OA
HETATM   34  H12 UNL     1      -6.521   0.707  12.038  1.00  0.00     0.209 HD
ENDBRANCH  32  33
ENDBRANCH  31  32
BRANCH  31  35
HETATM   35  C8  UNL     1      -7.673   2.499  12.903  1.00  0.00     0.200 C 
BRANCH  35  36
HETATM   36  O2  UNL     1      -8.573   3.590  13.040  1.00  0.00    -0.397 OA
HETATM   37  H15 UNL     1      -9.444   3.204  13.243  1.00  0.00     0.209 HD
ENDBRANCH  35  36
ENDBRANCH  31  35
ENDBRANCH  29  30
ENDBRANCH  28  29
ENDBRANCH  26  28
ENDBRANCH   1  26
TORSDOF 8
ENDMDL
MODEL 6
REMARK minimizedAffinity -8.71950817
REMARK  8 active torsions:
REMARK  status: ('A' for Active; 'I' for Inactive)
REMARK    1  A    between atoms: C2_2  and  C3_3 
REMARK    2  A    between atoms: C2_2  and  C9_11 
REMARK    3  A    between atoms: C3_3  and  C4_4 
REMARK    4  A    between atoms: C4_4  and  C5_5 
REMARK    5  A    between atoms: C6_6  and  C7_7 
REMARK    6  A    between atoms: C6_6  and  C8_9 
REMARK    7  A    between atoms: C7_7  and  O1_8 
REMARK    8  A    between atoms: C8_9  and  O2_10 
ROOT
HETATM    1  C9  UNL     1      -6.231   7.070  14.264  1.00  0.00    -0.001 C 
HETATM    2  C10 UNL     1      -6.201   8.448  14.984  1.00  0.00     0.007 C 
HETATM    3  C11 UNL     1      -4.741   8.932  14.972  1.00  0.00     0.015 C 
HETATM    4  C12 UNL     1      -4.033   8.057  13.918  1.00  0.00    -0.004 C 
HETATM    5  C13 UNL     1      -4.339   8.691  12.525  1.00  0.00     0.021 C 
HETATM    6  C14 UNL     1      -2.520   7.873  13.932  1.00  0.00     0.007 C 
HETATM    7  C15 UNL     1      -1.909   6.771  13.420  1.00  0.00     0.007 C 
HETATM    8  C16 UNL     1      -2.808   5.641  12.933  1.00  0.00     0.157 C 
HETATM    9  O3  UNL     1      -2.333   4.626  12.428  1.00  0.00    -0.293 OA
HETATM   10  C17 UNL     1      -4.324   5.730  13.077  1.00  0.00     0.094 C 
HETATM   11  C18 UNL     1      -4.726   6.672  14.207  1.00  0.00    -0.022 C 
HETATM   12  C19 UNL     1      -4.280   6.045  15.562  1.00  0.00     0.017 C 
HETATM   13  C20 UNL     1      -0.365   6.569  13.367  1.00  0.00    -0.007 C 
HETATM   14  C21 UNL     1      -0.041   5.623  14.545  1.00  0.00     0.021 C 
HETATM   15  C22 UNL     1       0.141   5.940  12.035  1.00  0.00     0.022 C 
HETATM   16  C23 UNL     1       1.658   5.863  11.922  1.00  0.00     0.080 C 
HETATM   17  C24 UNL     1       2.304   7.214  12.084  1.00  0.00     0.135 C 
HETATM   18  O4  UNL     1       3.202   7.562  11.316  1.00  0.00    -0.297 OA
HETATM   19  C25 UNL     1       1.882   8.060  13.292  1.00  0.00     0.018 C 
HETATM   20  C26 UNL     1       2.299   9.525  12.994  1.00  0.00     0.023 C 
HETATM   21  C27 UNL     1       2.693   7.606  14.515  1.00  0.00     0.023 C 
HETATM   22  C28 UNL     1       0.324   7.985  13.456  1.00  0.00     0.021 C 
HETATM   23  C29 UNL     1      -0.202   8.749  14.672  1.00  0.00     0.090 C 
HETATM   24  C30 UNL     1      -1.684   8.971  14.517  1.00  0.00     0.157 C 
HETATM   25  O5  UNL     1      -2.188  10.026  14.897  1.00  0.00    -0.293 OA
ENDROOT
BRANCH   1  26
HETATM   26  C2  UNL     1      -7.368   6.136  14.782  1.00  0.00    -0.014 C 
HETATM   27  C1  UNL     1      -7.819   6.295  16.237  1.00  0.00     0.010 C 
BRANCH  26  28
HETATM   28  C3  UNL     1      -7.205   4.653  14.357  1.00  0.00     0.008 C 
BRANCH  28  29
HETATM   29  C4  UNL     1      -7.472   4.313  12.886  1.00  0.00     0.028 C 
BRANCH  29  30
HETATM   30  C5  UNL     1      -7.029   2.909  12.573  1.00  0.00    -0.020 C 
HETATM   31  C6  UNL     1      -6.158   2.530  11.614  1.00  0.00    -0.037 C 
BRANCH  31  32
HETATM   32  C7  UNL     1      -5.411   3.482  10.714  1.00  0.00     0.200 C 
BRANCH  32  33
HETATM   33  O1  UNL     1      -5.440   2.991   9.380  1.00  0.00    -0.397 OA
HETATM   34  H12 UNL     1      -5.300   2.021   9.459  1.00  0.00     0.209 HD
ENDBRANCH  32  33
ENDBRANCH  31  32
BRANCH  31  35
HETATM   35  C8  UNL     1      -5.851   1.074  11.374  1.00  0.00     0.200 C 
BRANCH  35  36
HETATM   36  O2  UNL     1      -4.439   0.922  11.336  1.00  0.00    -0.397 OA
HETATM   37  H15 UNL     1      -4.266  -0.036  11.286  1.00  0.00     0.209 HD
ENDBRANCH  35  36
ENDBRANCH  31  35
ENDBRANCH  29  30
ENDBRANCH  28  29
ENDBRANCH  26  28
ENDBRANCH   1  26
TORSDOF 8
ENDMDL
MODEL 7
REMARK minimizedAffinity -8.5833931
REMARK  8 active torsions:
REMARK  status: ('A' for Active; 'I' for Inactive)
REMARK    1  A    between atoms: C2_2  and  C3_3 
REMARK    2  A    between atoms: C2_2  and  C9_11 
REMARK    3  A    between atoms: C3_3  and  C4_4 
REMARK    4  A    between atoms: C4_4  and  C5_5 
REMARK    5  A    between atoms: C6_6  and  C7_7 
REMARK    6  A    between atoms: C6_6  and  C8_9 
REMARK    7  A    between atoms: C7_7  and  O1_8 
REMARK    8  A    between atoms: C8_9  and  O2_10 
ROOT
HETATM    1  C9  UNL     1       2.917   7.375  11.089  1.00  0.00    -0.001 C 
HETATM    2  C10 UNL     1       3.027   5.836  10.900  1.00  0.00     0.007 C 
HETATM    3  C11 UNL     1       1.678   5.231  11.327  1.00  0.00     0.015 C 
HETATM    4  C12 UNL     1       0.696   6.419  11.364  1.00  0.00    -0.004 C 
HETATM    5  C13 UNL     1       0.217   6.654   9.898  1.00  0.00     0.021 C 
HETATM    6  C14 UNL     1      -0.589   6.355  12.183  1.00  0.00     0.007 C 
HETATM    7  C15 UNL     1      -1.199   7.464  12.679  1.00  0.00     0.007 C 
HETATM    8  C16 UNL     1      -0.479   8.795  12.496  1.00  0.00     0.157 C 
HETATM    9  O3  UNL     1      -0.981   9.846  12.888  1.00  0.00    -0.293 OA
HETATM   10  C17 UNL     1       0.895   8.856  11.838  1.00  0.00     0.094 C 
HETATM   11  C18 UNL     1       1.638   7.530  11.964  1.00  0.00    -0.022 C 
HETATM   12  C19 UNL     1       1.976   7.288  13.466  1.00  0.00     0.017 C 
HETATM   13  C20 UNL     1      -2.540   7.446  13.474  1.00  0.00    -0.007 C 
HETATM   14  C21 UNL     1      -2.131   7.582  14.958  1.00  0.00     0.021 C 
HETATM   15  C22 UNL     1      -3.513   8.600  13.090  1.00  0.00     0.022 C 
HETATM   16  C23 UNL     1      -4.876   8.512  13.764  1.00  0.00     0.080 C 
HETATM   17  C24 UNL     1      -5.560   7.200  13.482  1.00  0.00     0.135 C 
HETATM   18  O4  UNL     1      -6.754   7.183  13.176  1.00  0.00    -0.297 OA
HETATM   19  C25 UNL     1      -4.750   5.916  13.703  1.00  0.00     0.018 C 
HETATM   20  C26 UNL     1      -5.468   4.781  12.926  1.00  0.00     0.023 C 
HETATM   21  C27 UNL     1      -4.816   5.548  15.193  1.00  0.00     0.023 C 
HETATM   22  C28 UNL     1      -3.306   6.112  13.125  1.00  0.00     0.021 C 
HETATM   23  C29 UNL     1      -2.389   4.908  13.347  1.00  0.00     0.090 C 
HETATM   24  C30 UNL     1      -1.203   5.008  12.423  1.00  0.00     0.157 C 
HETATM   25  O5  UNL     1      -0.741   3.993  11.907  1.00  0.00    -0.293 OA
ENDROOT
BRANCH   1  26
HETATM   26  C2  UNL     1       4.287   8.050  11.408  1.00  0.00    -0.014 C 
HETATM   27  C1  UNL     1       4.908   8.952  10.338  1.00  0.00     0.010 C 
BRANCH  26  28
HETATM   28  C3  UNL     1       5.317   7.095  12.069  1.00  0.00     0.008 C 
BRANCH  28  29
HETATM   29  C4  UNL     1       6.744   7.624  12.251  1.00  0.00     0.028 C 
BRANCH  29  30
HETATM   30  C5  UNL     1       7.169   7.528  13.693  1.00  0.00    -0.020 C 
HETATM   31  C6  UNL     1       8.116   8.267  14.309  1.00  0.00    -0.037 C 
BRANCH  31  32
HETATM   32  C7  UNL     1       8.882   9.389  13.655  1.00  0.00     0.200 C 
BRANCH  32  33
HETATM   33  O1  UNL     1      10.151   8.910  13.229  1.00  0.00    -0.397 OA
HETATM   34  H12 UNL     1      10.463   8.326  13.957  1.00  0.00     0.209 HD
ENDBRANCH  32  33
ENDBRANCH  31  32
BRANCH  31  35
HETATM   35  C8  UNL     1       8.480   8.019  15.750  1.00  0.00     0.200 C 
BRANCH  35  36
HETATM   36  O2  UNL     1       7.280   8.008  16.512  1.00  0.00    -0.397 OA
HETATM   37  H15 UNL     1       7.531   7.744  17.415  1.00  0.00     0.209 HD
ENDBRANCH  35  36
ENDBRANCH  31  35
ENDBRANCH  29  30
ENDBRANCH  28  29
ENDBRANCH  26  28
ENDBRANCH   1  26
TORSDOF 8
ENDMDL
MODEL 8
REMARK minimizedAffinity -8.55760384
REMARK  8 active torsions:
REMARK  status: ('A' for Active; 'I' for Inactive)
REMARK    1  A    between atoms: C2_2  and  C3_3 
REMARK    2  A    between atoms: C2_2  and  C9_11 
REMARK    3  A    between atoms: C3_3  and  C4_4 
REMARK    4  A    between atoms: C4_4  and  C5_5 
REMARK    5  A    between atoms: C6_6  and  C7_7 
REMARK    6  A    between atoms: C6_6  and  C8_9 
REMARK    7  A    between atoms: C7_7  and  O1_8 
REMARK    8  A    between atoms: C8_9  and  O2_10 
ROOT
HETATM    1  C9  UNL     1       1.088   7.838  13.521  1.00  0.00    -0.001 C 
HETATM    2  C10 UNL     1       1.572   6.445  13.028  1.00  0.00     0.007 C 
HETATM    3  C11 UNL     1       0.320   5.570  12.846  1.00  0.00     0.015 C 
HETATM    4  C12 UNL     1      -0.865   6.556  12.836  1.00  0.00    -0.004 C 
HETATM    5  C13 UNL     1      -0.960   7.133  11.389  1.00  0.00     0.021 C 
HETATM    6  C14 UNL     1      -2.281   6.092  13.159  1.00  0.00     0.007 C 
HETATM    7  C15 UNL     1      -3.227   6.922  13.672  1.00  0.00     0.007 C 
HETATM    8  C16 UNL     1      -2.786   8.334  14.043  1.00  0.00     0.157 C 
HETATM    9  O3  UNL     1      -3.590   9.154  14.482  1.00  0.00    -0.293 OA
HETATM   10  C17 UNL     1      -1.330   8.762  13.896  1.00  0.00     0.094 C 
HETATM   11  C18 UNL     1      -0.385   7.566  13.947  1.00  0.00    -0.022 C 
HETATM   12  C19 UNL     1      -0.431   6.953  15.379  1.00  0.00     0.017 C 
HETATM   13  C20 UNL     1      -4.699   6.501  13.965  1.00  0.00    -0.007 C 
HETATM   14  C21 UNL     1      -4.754   6.263  15.491  1.00  0.00     0.021 C 
HETATM   15  C22 UNL     1      -5.751   7.577  13.564  1.00  0.00     0.022 C 
HETATM   16  C23 UNL     1      -7.196   7.120  13.722  1.00  0.00     0.080 C 
HETATM   17  C24 UNL     1      -7.479   5.864  12.941  1.00  0.00     0.135 C 
HETATM   18  O4  UNL     1      -8.509   5.776  12.271  1.00  0.00    -0.297 OA
HETATM   19  C25 UNL     1      -6.506   4.690  13.110  1.00  0.00     0.018 C 
HETATM   20  C26 UNL     1      -6.721   3.738  11.903  1.00  0.00     0.023 C 
HETATM   21  C27 UNL     1      -6.900   3.907  14.372  1.00  0.00     0.023 C 
HETATM   22  C28 UNL     1      -5.035   5.232  13.091  1.00  0.00     0.021 C 
HETATM   23  C29 UNL     1      -3.979   4.148  13.313  1.00  0.00     0.090 C 
HETATM   24  C30 UNL     1      -2.635   4.664  12.871  1.00  0.00     0.157 C 
HETATM   25  O5  UNL     1      -1.842   3.908  12.313  1.00  0.00    -0.293 OA
ENDROOT
BRANCH   1  26
HETATM   26  C2  UNL     1       2.140   8.569  14.411  1.00  0.00    -0.014 C 
HETATM   27  C1  UNL     1       2.053  10.095  14.516  1.00  0.00     0.010 C 
BRANCH  26  28
HETATM   28  C3  UNL     1       3.591   8.056  14.217  1.00  0.00     0.008 C 
BRANCH  28  29
HETATM   29  C4  UNL     1       4.369   8.599  13.013  1.00  0.00     0.028 C 
BRANCH  29  30
HETATM   30  C5  UNL     1       5.481   7.659  12.628  1.00  0.00    -0.020 C 
HETATM   31  C6  UNL     1       5.518   6.847  11.550  1.00  0.00    -0.037 C 
BRANCH  31  32
HETATM   32  C7  UNL     1       4.451   6.792  10.485  1.00  0.00     0.200 C 
BRANCH  32  33
HETATM   33  O1  UNL     1       3.671   5.616  10.658  1.00  0.00    -0.397 OA
HETATM   34  H12 UNL     1       4.316   4.910  10.885  1.00  0.00     0.209 HD
ENDBRANCH  32  33
ENDBRANCH  31  32
BRANCH  31  35
HETATM   35  C8  UNL     1       6.676   5.910  11.321  1.00  0.00     0.200 C 
BRANCH  35  36
HETATM   36  O2  UNL     1       6.267   4.925  10.382  1.00  0.00    -0.397 OA
HETATM   37  H15 UNL     1       7.060   4.398  10.173  1.00  0.00     0.209 HD
ENDBRANCH  35  36
ENDBRANCH  31  35
ENDBRANCH  29  30
ENDBRANCH  28  29
ENDBRANCH  26  28
ENDBRANCH   1  26
TORSDOF 8
ENDMDL
MODEL 9
REMARK minimizedAffinity -8.46287823
REMARK  8 active torsions:
REMARK  status: ('A' for Active; 'I' for Inactive)
REMARK    1  A    between atoms: C2_2  and  C3_3 
REMARK    2  A    between atoms: C2_2  and  C9_11 
REMARK    3  A    between atoms: C3_3  and  C4_4 
REMARK    4  A    between atoms: C4_4  and  C5_5 
REMARK    5  A    between atoms: C6_6  and  C7_7 
REMARK    6  A    between atoms: C6_6  and  C8_9 
REMARK    7  A    between atoms: C7_7  and  O1_8 
REMARK    8  A    between atoms: C8_9  and  O2_10 
ROOT
HETATM    1  C9  UNL     1      -6.039   7.085  15.141  1.00  0.00    -0.001 C 
HETATM    2  C10 UNL     1      -5.750   8.570  15.501  1.00  0.00     0.007 C 
HETATM    3  C11 UNL     1      -4.365   8.913  14.925  1.00  0.00     0.015 C 
HETATM    4  C12 UNL     1      -4.057   7.788  13.916  1.00  0.00    -0.004 C 
HETATM    5  C13 UNL     1      -4.789   8.160  12.589  1.00  0.00     0.021 C 
HETATM    6  C14 UNL     1      -2.625   7.478  13.491  1.00  0.00     0.007 C 
HETATM    7  C15 UNL     1      -2.236   6.248  13.063  1.00  0.00     0.007 C 
HETATM    8  C16 UNL     1      -3.266   5.127  13.139  1.00  0.00     0.157 C 
HETATM    9  O3  UNL     1      -3.002   3.995  12.741  1.00  0.00    -0.293 OA
HETATM   10  C17 UNL     1      -4.650   5.376  13.730  1.00  0.00     0.094 C 
HETATM   11  C18 UNL     1      -4.643   6.553  14.700  1.00  0.00    -0.022 C 
HETATM   12  C19 UNL     1      -3.790   6.170  15.946  1.00  0.00     0.017 C 
HETATM   13  C20 UNL     1      -0.798   5.905  12.570  1.00  0.00    -0.007 C 
HETATM   14  C21 UNL     1      -0.125   5.185  13.760  1.00  0.00     0.021 C 
HETATM   15  C22 UNL     1      -0.767   4.983  11.315  1.00  0.00     0.022 C 
HETATM   16  C23 UNL     1       0.627   4.753  10.748  1.00  0.00     0.080 C 
HETATM   17  C24 UNL     1       1.316   6.048  10.404  1.00  0.00     0.135 C 
HETATM   18  O4  UNL     1       1.921   6.157   9.336  1.00  0.00    -0.297 OA
HETATM   19  C25 UNL     1       1.328   7.150  11.472  1.00  0.00     0.018 C 
HETATM   20  C26 UNL     1       1.653   8.485  10.750  1.00  0.00     0.023 C 
HETATM   21  C27 UNL     1       2.486   6.876  12.444  1.00  0.00     0.023 C 
HETATM   22  C28 UNL     1      -0.092   7.245  12.130  1.00  0.00     0.021 C 
HETATM   23  C29 UNL     1      -0.177   8.276  13.256  1.00  0.00     0.090 C 
HETATM   24  C30 UNL     1      -1.624   8.593  13.532  1.00  0.00     0.157 C 
HETATM   25  O5  UNL     1      -1.956   9.742  13.815  1.00  0.00    -0.293 OA
ENDROOT
BRANCH   1  26
HETATM   26  C2  UNL     1      -6.962   6.375  16.180  1.00  0.00    -0.014 C 
HETATM   27  C1  UNL     1      -7.659   5.081  15.752  1.00  0.00     0.010 C 
BRANCH  26  28
HETATM   28  C3  UNL     1      -7.899   7.342  16.950  1.00  0.00     0.008 C 
BRANCH  28  29
HETATM   29  C4  UNL     1      -9.256   7.658  16.312  1.00  0.00     0.028 C 
BRANCH  29  30
HETATM   30  C5  UNL     1      -9.240   7.343  14.839  1.00  0.00    -0.020 C 
HETATM   31  C6  UNL     1     -10.310   7.110  14.049  1.00  0.00    -0.037 C 
BRANCH  31  32
HETATM   32  C7  UNL     1     -11.744   7.193  14.508  1.00  0.00     0.200 C 
BRANCH  32  33
HETATM   33  O1  UNL     1     -12.348   5.911  14.404  1.00  0.00    -0.397 OA
HETATM   34  H12 UNL     1     -12.020   5.539  13.554  1.00  0.00     0.209 HD
ENDBRANCH  32  33
ENDBRANCH  31  32
BRANCH  31  35
HETATM   35  C8  UNL     1     -10.139   6.747  12.596  1.00  0.00     0.200 C 
BRANCH  35  36
HETATM   36  O2  UNL     1      -9.003   5.902  12.484  1.00  0.00    -0.397 OA
HETATM   37  H15 UNL     1      -8.976   5.598  11.559  1.00  0.00     0.209 HD
ENDBRANCH  35  36
ENDBRANCH  31  35
ENDBRANCH  29  30
ENDBRANCH  28  29
ENDBRANCH  26  28
ENDBRANCH   1  26
TORSDOF 8
ENDMDL
