MODEL 1
REMARK minimizedAffinity -7.74331141
REMARK CNNscore 0.523659468
REMARK CNNaffinity 6.18503809
REMARK  8 active torsions:
REMARK  status: ('A' for Active; 'I' for Inactive)
REMARK    1  A    between atoms: C4_4  and  C5_5 
REMARK    2  A    between atoms: C5_5  and  C6_6 
REMARK    3  A    between atoms: C6_6  and  C7_7 
REMARK    4  A    between atoms: C9_9  and  C10_10 
REMARK    5  A    between atoms: C11_11  and  C12_12 
REMARK    6  A    between atoms: C14_14  and  C15_15 
REMARK    7  A    between atoms: C24_25  and  C26_27 
REMARK    8  A    between atoms: C29_31  and  O3_33 
ROOT
HETATM    1  C15 UNL     1      -6.434  47.761 -28.428  1.00  0.00     0.149 C 
HETATM    2  C16 UNL     1      -7.952  47.790 -28.314  1.00  0.00     0.054 C 
HETATM    3  C17 UNL     1      -8.472  46.972 -29.544  1.00  0.00     0.050 C 
HETATM    4  C18 UNL     1      -7.127  46.500 -30.179  1.00  0.00     0.272 C 
HETATM    5  O1  UNL     1      -7.096  45.274 -30.890  1.00  0.00    -0.360 OA
HETATM    6  C19 UNL     1      -7.239  44.102 -30.113  1.00  0.00     0.171 C 
HETATM    7  C20 UNL     1      -8.678  43.612 -30.145  1.00  0.00     0.027 C 
HETATM    8  C21 UNL     1      -9.733  44.710 -30.005  1.00  0.00     0.012 C 
HETATM    9  C22 UNL     1      -9.353  45.795 -28.976  1.00  0.00     0.032 C 
HETATM   10  C23 UNL     1     -10.616  46.326 -28.263  1.00  0.00    -0.066 C 
HETATM   11  C24 UNL     1     -11.194  45.732 -27.187  1.00  0.00    -0.021 C 
HETATM   12  C25 UNL     1     -12.357  46.284 -26.403  1.00  0.00     0.052 C 
HETATM   13  C27 UNL     1     -11.162  47.628 -28.823  1.00  0.00     0.038 C 
HETATM   14  C28 UNL     1     -10.822  47.819 -30.293  1.00  0.00     0.042 C 
HETATM   15  C29 UNL     1      -9.304  47.837 -30.576  1.00  0.00     0.067 C 
HETATM   16  C30 UNL     1      -8.823  49.295 -30.712  1.00  0.00     0.047 C 
HETATM   17  O4  UNL     1      -6.139  46.558 -29.135  1.00  0.00    -0.351 OA
ENDROOT
BRANCH   1  18
HETATM   18  C14 UNL     1      -5.705  47.865 -27.118  1.00  0.00     0.011 C 
HETATM   19  C12 UNL     1      -4.536  48.468 -26.814  1.00  0.00    -0.063 C 
HETATM   20  C13 UNL     1      -3.650  49.137 -27.832  1.00  0.00     0.048 C 
BRANCH  19  21
HETATM   21  C11 UNL     1      -4.087  48.458 -25.420  1.00  0.00     0.006 C 
HETATM   22  C10 UNL     1      -3.008  49.086 -24.921  1.00  0.00     0.001 C 
BRANCH  22  23
HETATM   23  C9  UNL     1      -2.648  49.028 -23.518  1.00  0.00     0.002 C 
HETATM   24  C7  UNL     1      -1.819  49.858 -22.851  1.00  0.00    -0.084 C 
HETATM   25  C8  UNL     1      -1.082  51.022 -23.473  1.00  0.00     0.043 C 
BRANCH  24  26
HETATM   26  C6  UNL     1      -1.516  49.723 -21.361  1.00  0.00     0.037 C 
BRANCH  26  27
HETATM   27  C5  UNL     1      -0.946  48.388 -20.859  1.00  0.00     0.031 C 
BRANCH  27  28
HETATM   28  C4  UNL     1      -1.895  47.250 -21.127  1.00  0.00    -0.024 C 
HETATM   29  C2  UNL     1      -2.901  46.815 -20.343  1.00  0.00    -0.091 C 
HETATM   30  C1  UNL     1      -3.783  45.677 -20.786  1.00  0.00     0.042 C 
HETATM   31  C3  UNL     1      -3.244  47.372 -18.988  1.00  0.00     0.042 C 
ENDBRANCH  27  28
ENDBRANCH  26  27
ENDBRANCH  24  26
ENDBRANCH  22  23
ENDBRANCH  19  21
ENDBRANCH   1  18
BRANCH  15  32
HETATM   32  O3  UNL     1      -9.143  47.276 -31.889  1.00  0.00    -0.389 OA
HETATM   33  H44 UNL     1      -9.706  47.762 -32.517  1.00  0.00     0.210 HD
ENDBRANCH  15  32
BRANCH  11  34
HETATM   34  C26 UNL     1     -10.711  44.420 -26.646  1.00  0.00     0.265 C 
HETATM   35  O2  UNL     1     -10.935  44.055 -25.497  1.00  0.00    -0.302 OA
ENDBRANCH  11  34
TORSDOF 8
ENDMDL
MODEL 2
REMARK minimizedAffinity -7.42693996
REMARK CNNscore 0.456637561
REMARK CNNaffinity 6.67496061
REMARK  8 active torsions:
REMARK  status: ('A' for Active; 'I' for Inactive)
REMARK    1  A    between atoms: C4_4  and  C5_5 
REMARK    2  A    between atoms: C5_5  and  C6_6 
REMARK    3  A    between atoms: C6_6  and  C7_7 
REMARK    4  A    between atoms: C9_9  and  C10_10 
REMARK    5  A    between atoms: C11_11  and  C12_12 
REMARK    6  A    between atoms: C14_14  and  C15_15 
REMARK    7  A    between atoms: C24_25  and  C26_27 
REMARK    8  A    between atoms: C29_31  and  O3_33 
ROOT
HETATM    1  C15 UNL     1      -1.468  51.336 -13.436  1.00  0.00     0.149 C 
HETATM    2  C16 UNL     1      -1.004  52.549 -12.641  1.00  0.00     0.054 C 
HETATM    3  C17 UNL     1      -1.076  52.108 -11.140  1.00  0.00     0.050 C 
HETATM    4  C18 UNL     1      -1.515  50.618 -11.287  1.00  0.00     0.272 C 
HETATM    5  O1  UNL     1      -1.110  49.682 -10.302  1.00  0.00    -0.360 OA
HETATM    6  C19 UNL     1       0.267  49.365 -10.277  1.00  0.00     0.171 C 
HETATM    7  C20 UNL     1       0.984  50.178  -9.212  1.00  0.00     0.027 C 
HETATM    8  C21 UNL     1       0.578  51.651  -9.148  1.00  0.00     0.012 C 
HETATM    9  C22 UNL     1       0.368  52.289 -10.537  1.00  0.00     0.032 C 
HETATM   10  C23 UNL     1       0.792  53.774 -10.516  1.00  0.00    -0.066 C 
HETATM   11  C24 UNL     1       2.068  54.207 -10.685  1.00  0.00    -0.021 C 
HETATM   12  C25 UNL     1       2.497  55.648 -10.782  1.00  0.00     0.052 C 
HETATM   13  C27 UNL     1      -0.350  54.759 -10.344  1.00  0.00     0.038 C 
HETATM   14  C28 UNL     1      -1.530  54.159  -9.594  1.00  0.00     0.042 C 
HETATM   15  C29 UNL     1      -2.136  52.921 -10.290  1.00  0.00     0.067 C 
HETATM   16  C30 UNL     1      -3.393  53.338 -11.078  1.00  0.00     0.047 C 
HETATM   17  O4  UNL     1      -1.148  50.213 -12.617  1.00  0.00    -0.351 OA
ENDROOT
BRANCH   1  18
HETATM   18  C14 UNL     1      -0.891  51.236 -14.820  1.00  0.00     0.011 C 
HETATM   19  C12 UNL     1      -1.327  50.554 -15.901  1.00  0.00    -0.063 C 
HETATM   20  C13 UNL     1      -2.527  49.644 -15.888  1.00  0.00     0.048 C 
BRANCH  19  21
HETATM   21  C11 UNL     1      -0.584  50.687 -17.156  1.00  0.00     0.006 C 
HETATM   22  C10 UNL     1      -1.108  50.821 -18.387  1.00  0.00     0.001 C 
BRANCH  22  23
HETATM   23  C9  UNL     1      -0.288  50.959 -19.575  1.00  0.00     0.002 C 
HETATM   24  C7  UNL     1       0.248  52.093 -20.072  1.00  0.00    -0.084 C 
HETATM   25  C8  UNL     1       0.068  53.467 -19.469  1.00  0.00     0.043 C 
BRANCH  24  26
HETATM   26  C6  UNL     1       1.115  52.132 -21.328  1.00  0.00     0.037 C 
BRANCH  26  27
HETATM   27  C5  UNL     1       0.602  52.929 -22.535  1.00  0.00     0.031 C 
BRANCH  27  28
HETATM   28  C4  UNL     1      -0.392  52.131 -23.339  1.00  0.00    -0.024 C 
HETATM   29  C2  UNL     1      -0.258  51.683 -24.602  1.00  0.00    -0.091 C 
HETATM   30  C1  UNL     1      -1.344  50.861 -25.245  1.00  0.00     0.042 C 
HETATM   31  C3  UNL     1       0.927  51.945 -25.491  1.00  0.00     0.042 C 
ENDBRANCH  27  28
ENDBRANCH  26  27
ENDBRANCH  24  26
ENDBRANCH  22  23
ENDBRANCH  19  21
ENDBRANCH   1  18
BRANCH  15  32
HETATM   32  O3  UNL     1      -2.630  52.080  -9.235  1.00  0.00    -0.389 OA
HETATM   33  H44 UNL     1      -3.230  52.596  -8.668  1.00  0.00     0.210 HD
ENDBRANCH  15  32
BRANCH  11  34
HETATM   34  C26 UNL     1       3.223  53.258 -10.803  1.00  0.00     0.265 C 
HETATM   35  O2  UNL     1       3.890  52.903  -9.837  1.00  0.00    -0.302 OA
ENDBRANCH  11  34
TORSDOF 8
ENDMDL
MODEL 3
REMARK minimizedAffinity -8.31716537
REMARK CNNscore 0.326208264
REMARK CNNaffinity 6.28230095
REMARK  8 active torsions:
REMARK  status: ('A' for Active; 'I' for Inactive)
REMARK    1  A    between atoms: C4_4  and  C5_5 
REMARK    2  A    between atoms: C5_5  and  C6_6 
REMARK    3  A    between atoms: C6_6  and  C7_7 
REMARK    4  A    between atoms: C9_9  and  C10_10 
REMARK    5  A    between atoms: C11_11  and  C12_12 
REMARK    6  A    between atoms: C14_14  and  C15_15 
REMARK    7  A    between atoms: C24_25  and  C26_27 
REMARK    8  A    between atoms: C29_31  and  O3_33 
ROOT
HETATM    1  C15 UNL     1      -5.861  47.070 -31.248  1.00  0.00     0.149 C 
HETATM    2  C16 UNL     1      -7.378  47.141 -31.353  1.00  0.00     0.054 C 
HETATM    3  C17 UNL     1      -7.794  45.863 -32.156  1.00  0.00     0.050 C 
HETATM    4  C18 UNL     1      -6.411  45.164 -32.342  1.00  0.00     0.272 C 
HETATM    5  O1  UNL     1      -6.362  43.750 -32.434  1.00  0.00    -0.360 OA
HETATM    6  C19 UNL     1      -6.658  43.041 -31.248  1.00  0.00     0.171 C 
HETATM    7  C20 UNL     1      -8.107  42.582 -31.246  1.00  0.00     0.027 C 
HETATM    8  C21 UNL     1      -9.111  43.625 -31.737  1.00  0.00     0.012 C 
HETATM    9  C22 UNL     1      -8.797  45.054 -31.248  1.00  0.00     0.032 C 
HETATM   10  C23 UNL     1     -10.104  45.841 -31.009  1.00  0.00    -0.066 C 
HETATM   11  C24 UNL     1     -10.834  45.780 -29.865  1.00  0.00    -0.021 C 
HETATM   12  C25 UNL     1     -12.049  46.617 -29.558  1.00  0.00     0.052 C 
HETATM   13  C27 UNL     1     -10.511  46.760 -32.147  1.00  0.00     0.038 C 
HETATM   14  C28 UNL     1      -9.992  46.283 -33.495  1.00  0.00     0.042 C 
HETATM   15  C29 UNL     1      -8.453  46.180 -33.560  1.00  0.00     0.067 C 
HETATM   16  C30 UNL     1      -7.882  47.431 -34.258  1.00  0.00     0.047 C 
HETATM   17  O4  UNL     1      -5.550  45.681 -31.312  1.00  0.00    -0.351 OA
ENDROOT
BRANCH   1  18
HETATM   18  C14 UNL     1      -5.285  47.745 -30.034  1.00  0.00     0.011 C 
HETATM   19  C12 UNL     1      -5.652  47.668 -28.737  1.00  0.00    -0.063 C 
HETATM   20  C13 UNL     1      -6.843  46.886 -28.248  1.00  0.00     0.048 C 
BRANCH  19  21
HETATM   21  C11 UNL     1      -4.863  48.402 -27.745  1.00  0.00     0.006 C 
HETATM   22  C10 UNL     1      -3.590  48.152 -27.389  1.00  0.00     0.001 C 
BRANCH  22  23
HETATM   23  C9  UNL     1      -2.885  48.945 -26.401  1.00  0.00     0.002 C 
HETATM   24  C7  UNL     1      -3.203  49.099 -25.098  1.00  0.00    -0.084 C 
HETATM   25  C8  UNL     1      -4.399  48.469 -24.423  1.00  0.00     0.043 C 
BRANCH  24  26
HETATM   26  C6  UNL     1      -2.382  49.946 -24.129  1.00  0.00     0.037 C 
BRANCH  26  27
HETATM   27  C5  UNL     1      -1.924  51.336 -24.594  1.00  0.00     0.031 C 
BRANCH  27  28
HETATM   28  C4  UNL     1      -1.124  51.252 -25.869  1.00  0.00    -0.024 C 
HETATM   29  C2  UNL     1       0.144  51.658 -26.073  1.00  0.00    -0.091 C 
HETATM   30  C1  UNL     1       0.806  51.464 -27.411  1.00  0.00     0.042 C 
HETATM   31  C3  UNL     1       1.010  52.336 -25.047  1.00  0.00     0.042 C 
ENDBRANCH  27  28
ENDBRANCH  26  27
ENDBRANCH  24  26
ENDBRANCH  22  23
ENDBRANCH  19  21
ENDBRANCH   1  18
BRANCH  15  32
HETATM   32  O3  UNL     1      -8.169  45.098 -34.462  1.00  0.00    -0.389 OA
HETATM   33  H44 UNL     1      -8.629  45.255 -35.306  1.00  0.00     0.210 HD
ENDBRANCH  15  32
BRANCH  11  34
HETATM   34  C26 UNL     1     -10.488  44.843 -28.747  1.00  0.00     0.265 C 
HETATM   35  O2  UNL     1      -9.986  45.225 -27.695  1.00  0.00    -0.302 OA
ENDBRANCH  11  34
TORSDOF 8
ENDMDL
MODEL 4
REMARK minimizedAffinity -6.42025614
REMARK CNNscore 0.325603455
REMARK CNNaffinity 6.19228935
REMARK  8 active torsions:
REMARK  status: ('A' for Active; 'I' for Inactive)
REMARK    1  A    between atoms: C4_4  and  C5_5 
REMARK    2  A    between atoms: C5_5  and  C6_6 
REMARK    3  A    between atoms: C6_6  and  C7_7 
REMARK    4  A    between atoms: C9_9  and  C10_10 
REMARK    5  A    between atoms: C11_11  and  C12_12 
REMARK    6  A    between atoms: C14_14  and  C15_15 
REMARK    7  A    between atoms: C24_25  and  C26_27 
REMARK    8  A    between atoms: C29_31  and  O3_33 
ROOT
HETATM    1  C15 UNL     1       3.340  50.654 -11.315  1.00  0.00     0.149 C 
HETATM    2  C16 UNL     1       2.646  51.544 -10.293  1.00  0.00     0.054 C 
HETATM    3  C17 UNL     1       3.584  51.539  -9.040  1.00  0.00     0.050 C 
HETATM    4  C18 UNL     1       4.776  50.676  -9.562  1.00  0.00     0.272 C 
HETATM    5  O1  UNL     1       6.075  50.917  -9.049  1.00  0.00    -0.360 OA
HETATM    6  C19 UNL     1       6.677  52.137  -9.434  1.00  0.00     0.171 C 
HETATM    7  C20 UNL     1       6.499  53.186  -8.349  1.00  0.00     0.027 C 
HETATM    8  C21 UNL     1       5.106  53.231  -7.722  1.00  0.00     0.012 C 
HETATM    9  C22 UNL     1       3.968  53.039  -8.745  1.00  0.00     0.032 C 
HETATM   10  C23 UNL     1       2.732  53.870  -8.338  1.00  0.00    -0.066 C 
HETATM   11  C24 UNL     1       2.563  55.185  -8.635  1.00  0.00    -0.021 C 
HETATM   12  C25 UNL     1       1.323  55.993  -8.350  1.00  0.00     0.052 C 
HETATM   13  C27 UNL     1       1.654  53.090  -7.607  1.00  0.00     0.038 C 
HETATM   14  C28 UNL     1       2.210  51.893  -6.852  1.00  0.00     0.042 C 
HETATM   15  C29 UNL     1       2.932  50.874  -7.760  1.00  0.00     0.067 C 
HETATM   16  C30 UNL     1       1.983  49.699  -8.072  1.00  0.00     0.047 C 
HETATM   17  O4  UNL     1       4.727  50.740 -10.998  1.00  0.00    -0.351 OA
ENDROOT
BRANCH   1  18
HETATM   18  C14 UNL     1       3.044  50.998 -12.748  1.00  0.00     0.011 C 
HETATM   19  C12 UNL     1       2.545  50.235 -13.744  1.00  0.00    -0.063 C 
HETATM   20  C13 UNL     1       2.240  48.767 -13.602  1.00  0.00     0.048 C 
BRANCH  19  21
HETATM   21  C11 UNL     1       2.304  50.859 -15.047  1.00  0.00     0.006 C 
HETATM   22  C10 UNL     1       1.645  52.009 -15.275  1.00  0.00     0.001 C 
BRANCH  22  23
HETATM   23  C9  UNL     1       1.465  52.557 -16.605  1.00  0.00     0.002 C 
HETATM   24  C7  UNL     1       0.698  52.059 -17.598  1.00  0.00    -0.084 C 
HETATM   25  C8  UNL     1      -0.119  50.791 -17.502  1.00  0.00     0.043 C 
BRANCH  24  26
HETATM   26  C6  UNL     1       0.562  52.722 -18.966  1.00  0.00     0.037 C 
BRANCH  26  27
HETATM   27  C5  UNL     1       0.169  51.840 -20.161  1.00  0.00     0.031 C 
BRANCH  27  28
HETATM   28  C4  UNL     1       0.622  52.445 -21.464  1.00  0.00    -0.024 C 
HETATM   29  C2  UNL     1      -0.041  52.467 -22.636  1.00  0.00    -0.091 C 
HETATM   30  C1  UNL     1       0.549  53.153 -23.840  1.00  0.00     0.042 C 
HETATM   31  C3  UNL     1      -1.381  51.828 -22.883  1.00  0.00     0.042 C 
ENDBRANCH  27  28
ENDBRANCH  26  27
ENDBRANCH  24  26
ENDBRANCH  22  23
ENDBRANCH  19  21
ENDBRANCH   1  18
BRANCH  15  32
HETATM   32  O3  UNL     1       3.972  50.297  -6.954  1.00  0.00    -0.389 OA
HETATM   33  H44 UNL     1       3.585  49.947  -6.132  1.00  0.00     0.210 HD
ENDBRANCH  15  32
BRANCH  11  34
HETATM   34  C26 UNL     1       3.631  55.993  -9.307  1.00  0.00     0.265 C 
HETATM   35  O2  UNL     1       3.499  56.457 -10.435  1.00  0.00    -0.302 OA
ENDBRANCH  11  34
TORSDOF 8
ENDMDL
MODEL 5
REMARK minimizedAffinity -7.09486771
REMARK CNNscore 0.316719651
REMARK CNNaffinity 6.38119698
REMARK  8 active torsions:
REMARK  status: ('A' for Active; 'I' for Inactive)
REMARK    1  A    between atoms: C4_4  and  C5_5 
REMARK    2  A    between atoms: C5_5  and  C6_6 
REMARK    3  A    between atoms: C6_6  and  C7_7 
REMARK    4  A    between atoms: C9_9  and  C10_10 
REMARK    5  A    between atoms: C11_11  and  C12_12 
REMARK    6  A    between atoms: C14_14  and  C15_15 
REMARK    7  A    between atoms: C24_25  and  C26_27 
REMARK    8  A    between atoms: C29_31  and  O3_33 
ROOT
HETATM    1  C15 UNL     1      -0.611  52.584 -12.337  1.00  0.00     0.149 C 
HETATM    2  C16 UNL     1       0.352  53.546 -11.654  1.00  0.00     0.054 C 
HETATM    3  C17 UNL     1       0.175  53.284 -10.121  1.00  0.00     0.050 C 
HETATM    4  C18 UNL     1      -0.848  52.105 -10.135  1.00  0.00     0.272 C 
HETATM    5  O1  UNL     1      -0.821  51.159  -9.080  1.00  0.00    -0.360 OA
HETATM    6  C19 UNL     1       0.300  50.299  -9.048  1.00  0.00     0.171 C 
HETATM    7  C20 UNL     1       1.340  50.813  -8.065  1.00  0.00     0.027 C 
HETATM    8  C21 UNL     1       1.583  52.321  -8.120  1.00  0.00     0.012 C 
HETATM    9  C22 UNL     1       1.591  52.888  -9.554  1.00  0.00     0.032 C 
HETATM   10  C23 UNL     1       2.592  54.058  -9.665  1.00  0.00    -0.066 C 
HETATM   11  C24 UNL     1       3.924  53.907  -9.888  1.00  0.00    -0.021 C 
HETATM   12  C25 UNL     1       4.906  55.027 -10.112  1.00  0.00     0.052 C 
HETATM   13  C27 UNL     1       1.971  55.440  -9.561  1.00  0.00     0.038 C 
HETATM   14  C28 UNL     1       0.686  55.441  -8.747  1.00  0.00     0.042 C 
HETATM   15  C29 UNL     1      -0.411  54.523  -9.328  1.00  0.00     0.067 C 
HETATM   16  C30 UNL     1      -1.419  55.369 -10.131  1.00  0.00     0.047 C 
HETATM   17  O4  UNL     1      -0.746  51.491 -11.432  1.00  0.00    -0.351 OA
ENDROOT
BRANCH   1  18
HETATM   18  C14 UNL     1      -0.194  52.155 -13.716  1.00  0.00     0.011 C 
HETATM   19  C12 UNL     1       0.905  51.487 -14.127  1.00  0.00    -0.063 C 
HETATM   20  C13 UNL     1       2.031  51.084 -13.212  1.00  0.00     0.048 C 
BRANCH  19  21
HETATM   21  C11 UNL     1       1.025  51.149 -15.548  1.00  0.00     0.006 C 
HETATM   22  C10 UNL     1       0.015  50.989 -16.421  1.00  0.00     0.001 C 
BRANCH  22  23
HETATM   23  C9  UNL     1       0.234  50.665 -17.818  1.00  0.00     0.002 C 
HETATM   24  C7  UNL     1      -0.556  50.985 -18.864  1.00  0.00    -0.084 C 
HETATM   25  C8  UNL     1      -1.858  51.745 -18.761  1.00  0.00     0.043 C 
BRANCH  24  26
HETATM   26  C6  UNL     1      -0.229  50.610 -20.308  1.00  0.00     0.037 C 
BRANCH  26  27
HETATM   27  C5  UNL     1      -1.390  50.212 -21.231  1.00  0.00     0.031 C 
BRANCH  27  28
HETATM   28  C4  UNL     1      -1.438  51.082 -22.460  1.00  0.00    -0.024 C 
HETATM   29  C2  UNL     1      -2.474  51.818 -22.907  1.00  0.00    -0.091 C 
HETATM   30  C1  UNL     1      -2.336  52.665 -24.144  1.00  0.00     0.042 C 
HETATM   31  C3  UNL     1      -3.835  51.873 -22.268  1.00  0.00     0.042 C 
ENDBRANCH  27  28
ENDBRANCH  26  27
ENDBRANCH  24  26
ENDBRANCH  22  23
ENDBRANCH  19  21
ENDBRANCH   1  18
BRANCH  15  32
HETATM   32  O3  UNL     1      -1.158  54.041  -8.199  1.00  0.00    -0.389 OA
HETATM   33  H44 UNL     1      -1.463  54.799  -7.669  1.00  0.00     0.210 HD
ENDBRANCH  15  32
BRANCH  11  34
HETATM   34  C26 UNL     1       4.574  52.557  -9.941  1.00  0.00     0.265 C 
HETATM   35  O2  UNL     1       5.157  52.064  -8.981  1.00  0.00    -0.302 OA
ENDBRANCH  11  34
TORSDOF 8
ENDMDL
MODEL 6
REMARK minimizedAffinity -6.78087187
REMARK CNNscore 0.315859705
REMARK CNNaffinity 5.59233999
REMARK  8 active torsions:
REMARK  status: ('A' for Active; 'I' for Inactive)
REMARK    1  A    between atoms: C4_4  and  C5_5 
REMARK    2  A    between atoms: C5_5  and  C6_6 
REMARK    3  A    between atoms: C6_6  and  C7_7 
REMARK    4  A    between atoms: C9_9  and  C10_10 
REMARK    5  A    between atoms: C11_11  and  C12_12 
REMARK    6  A    between atoms: C14_14  and  C15_15 
REMARK    7  A    between atoms: C24_25  and  C26_27 
REMARK    8  A    between atoms: C29_31  and  O3_33 
ROOT
HETATM    1  C15 UNL     1       3.421  66.014 -36.616  1.00  0.00     0.149 C 
HETATM    2  C16 UNL     1       4.377  66.132 -35.436  1.00  0.00     0.054 C 
HETATM    3  C17 UNL     1       5.789  65.784 -36.015  1.00  0.00     0.050 C 
HETATM    4  C18 UNL     1       5.451  65.583 -37.526  1.00  0.00     0.272 C 
HETATM    5  O1  UNL     1       6.443  65.874 -38.497  1.00  0.00    -0.360 OA
HETATM    6  C19 UNL     1       6.765  67.240 -38.662  1.00  0.00     0.171 C 
HETATM    7  C20 UNL     1       8.016  67.593 -37.875  1.00  0.00     0.027 C 
HETATM    8  C21 UNL     1       8.077  66.999 -36.467  1.00  0.00     0.012 C 
HETATM    9  C22 UNL     1       6.721  67.024 -35.733  1.00  0.00     0.032 C 
HETATM   10  C23 UNL     1       6.932  67.240 -34.219  1.00  0.00    -0.066 C 
HETATM   11  C24 UNL     1       7.091  68.457 -33.636  1.00  0.00    -0.021 C 
HETATM   12  C25 UNL     1       7.186  68.709 -32.153  1.00  0.00     0.052 C 
HETATM   13  C27 UNL     1       6.897  65.972 -33.384  1.00  0.00     0.038 C 
HETATM   14  C28 UNL     1       7.314  64.742 -34.175  1.00  0.00     0.042 C 
HETATM   15  C29 UNL     1       6.420  64.468 -35.403  1.00  0.00     0.067 C 
HETATM   16  C30 UNL     1       5.390  63.374 -35.057  1.00  0.00     0.047 C 
HETATM   17  O4  UNL     1       4.219  66.284 -37.766  1.00  0.00    -0.351 OA
ENDROOT
BRANCH   1  18
HETATM   18  C14 UNL     1       2.205  66.892 -36.527  1.00  0.00     0.011 C 
HETATM   19  C12 UNL     1       1.219  67.112 -37.423  1.00  0.00    -0.063 C 
HETATM   20  C13 UNL     1       1.200  66.522 -38.808  1.00  0.00     0.048 C 
BRANCH  19  21
HETATM   21  C11 UNL     1       0.110  67.989 -37.039  1.00  0.00     0.006 C 
HETATM   22  C10 UNL     1      -0.207  69.170 -37.598  1.00  0.00     0.001 C 
BRANCH  22  23
HETATM   23  C9  UNL     1      -1.335  69.967 -37.157  1.00  0.00     0.002 C 
HETATM   24  C7  UNL     1      -1.416  70.722 -36.041  1.00  0.00    -0.084 C 
HETATM   25  C8  UNL     1      -0.317  70.861 -35.013  1.00  0.00     0.043 C 
BRANCH  24  26
HETATM   26  C6  UNL     1      -2.650  71.542 -35.670  1.00  0.00     0.037 C 
BRANCH  26  27
HETATM   27  C5  UNL     1      -3.184  72.549 -36.699  1.00  0.00     0.031 C 
BRANCH  27  28
HETATM   28  C4  UNL     1      -4.345  71.981 -37.473  1.00  0.00    -0.024 C 
HETATM   29  C2  UNL     1      -4.377  71.637 -38.775  1.00  0.00    -0.091 C 
HETATM   30  C1  UNL     1      -5.622  71.045 -39.382  1.00  0.00     0.042 C 
HETATM   31  C3  UNL     1      -3.237  71.805 -39.742  1.00  0.00     0.042 C 
ENDBRANCH  27  28
ENDBRANCH  26  27
ENDBRANCH  24  26
ENDBRANCH  22  23
ENDBRANCH  19  21
ENDBRANCH   1  18
BRANCH  15  32
HETATM   32  O3  UNL     1       7.277  63.863 -36.386  1.00  0.00    -0.389 OA
HETATM   33  H44 UNL     1       7.721  63.091 -35.992  1.00  0.00     0.210 HD
ENDBRANCH  15  32
BRANCH  11  34
HETATM   34  C26 UNL     1       7.183  69.719 -34.438  1.00  0.00     0.265 C 
HETATM   35  O2  UNL     1       8.155  70.467 -34.385  1.00  0.00    -0.302 OA
ENDBRANCH  11  34
TORSDOF 8
ENDMDL
MODEL 7
REMARK minimizedAffinity -6.60426617
REMARK CNNscore 0.3105492
REMARK CNNaffinity 5.85384512
REMARK  8 active torsions:
REMARK  status: ('A' for Active; 'I' for Inactive)
REMARK    1  A    between atoms: C4_4  and  C5_5 
REMARK    2  A    between atoms: C5_5  and  C6_6 
REMARK    3  A    between atoms: C6_6  and  C7_7 
REMARK    4  A    between atoms: C9_9  and  C10_10 
REMARK    5  A    between atoms: C11_11  and  C12_12 
REMARK    6  A    between atoms: C14_14  and  C15_15 
REMARK    7  A    between atoms: C24_25  and  C26_27 
REMARK    8  A    between atoms: C29_31  and  O3_33 
ROOT
HETATM    1  C15 UNL     1     -10.744  47.347 -29.333  1.00  0.00     0.149 C 
HETATM    2  C16 UNL     1     -10.338  47.224 -30.796  1.00  0.00     0.054 C 
HETATM    3  C17 UNL     1      -8.812  46.873 -30.770  1.00  0.00     0.050 C 
HETATM    4  C18 UNL     1      -8.557  46.761 -29.234  1.00  0.00     0.272 C 
HETATM    5  O1  UNL     1      -7.546  45.883 -28.767  1.00  0.00    -0.360 OA
HETATM    6  C19 UNL     1      -7.811  44.502 -28.912  1.00  0.00     0.171 C 
HETATM    7  C20 UNL     1      -7.137  43.956 -30.160  1.00  0.00     0.027 C 
HETATM    8  C21 UNL     1      -7.253  44.850 -31.395  1.00  0.00     0.012 C 
HETATM    9  C22 UNL     1      -8.638  45.511 -31.543  1.00  0.00     0.032 C 
HETATM   10  C23 UNL     1      -9.008  45.656 -33.035  1.00  0.00    -0.066 C 
HETATM   11  C24 UNL     1      -9.573  44.672 -33.782  1.00  0.00    -0.021 C 
HETATM   12  C25 UNL     1     -10.048  44.817 -35.205  1.00  0.00     0.052 C 
HETATM   13  C27 UNL     1      -8.743  47.030 -33.626  1.00  0.00     0.038 C 
HETATM   14  C28 UNL     1      -7.620  47.765 -32.911  1.00  0.00     0.042 C 
HETATM   15  C29 UNL     1      -7.892  47.992 -31.408  1.00  0.00     0.067 C 
HETATM   16  C30 UNL     1      -8.401  49.431 -31.189  1.00  0.00     0.047 C 
HETATM   17  O4  UNL     1      -9.835  46.507 -28.625  1.00  0.00    -0.351 OA
ENDROOT
BRANCH   1  18
HETATM   18  C14 UNL     1     -12.184  47.019 -29.054  1.00  0.00     0.011 C 
HETATM   19  C12 UNL     1     -12.849  45.849 -29.158  1.00  0.00    -0.063 C 
HETATM   20  C13 UNL     1     -12.233  44.580 -29.683  1.00  0.00     0.048 C 
BRANCH  19  21
HETATM   21  C11 UNL     1     -14.258  45.810 -28.759  1.00  0.00     0.006 C 
HETATM   22  C10 UNL     1     -14.802  45.020 -27.816  1.00  0.00     0.001 C 
BRANCH  22  23
HETATM   23  C9  UNL     1     -16.212  45.060 -27.480  1.00  0.00     0.002 C 
HETATM   24  C7  UNL     1     -17.204  44.328 -28.028  1.00  0.00    -0.084 C 
HETATM   25  C8  UNL     1     -17.018  43.318 -29.136  1.00  0.00     0.043 C 
BRANCH  24  26
HETATM   26  C6  UNL     1     -18.663  44.432 -27.591  1.00  0.00     0.037 C 
BRANCH  26  27
HETATM   27  C5  UNL     1     -19.139  43.531 -26.443  1.00  0.00     0.031 C 
BRANCH  27  28
HETATM   28  C4  UNL     1     -18.587  43.991 -25.119  1.00  0.00    -0.024 C 
HETATM   29  C2  UNL     1     -18.932  45.090 -24.420  1.00  0.00    -0.091 C 
HETATM   30  C1  UNL     1     -18.300  45.381 -23.085  1.00  0.00     0.042 C 
HETATM   31  C3  UNL     1     -19.931  46.121 -24.869  1.00  0.00     0.042 C 
ENDBRANCH  27  28
ENDBRANCH  26  27
ENDBRANCH  24  26
ENDBRANCH  22  23
ENDBRANCH  19  21
ENDBRANCH   1  18
BRANCH  15  32
HETATM   32  O3  UNL     1      -6.606  47.960 -30.767  1.00  0.00    -0.389 OA
HETATM   33  H44 UNL     1      -6.015  48.599 -31.202  1.00  0.00     0.210 HD
ENDBRANCH  15  32
BRANCH  11  34
HETATM   34  C26 UNL     1      -9.797  43.291 -33.243  1.00  0.00     0.265 C 
HETATM   35  O2  UNL     1     -10.840  42.957 -32.690  1.00  0.00    -0.302 OA
ENDBRANCH  11  34
TORSDOF 8
ENDMDL
MODEL 8
REMARK minimizedAffinity -8.36644363
REMARK CNNscore 0.290592015
REMARK CNNaffinity 6.16016054
REMARK  8 active torsions:
REMARK  status: ('A' for Active; 'I' for Inactive)
REMARK    1  A    between atoms: C4_4  and  C5_5 
REMARK    2  A    between atoms: C5_5  and  C6_6 
REMARK    3  A    between atoms: C6_6  and  C7_7 
REMARK    4  A    between atoms: C9_9  and  C10_10 
REMARK    5  A    between atoms: C11_11  and  C12_12 
REMARK    6  A    between atoms: C14_14  and  C15_15 
REMARK    7  A    between atoms: C24_25  and  C26_27 
REMARK    8  A    between atoms: C29_31  and  O3_33 
ROOT
HETATM    1  C15 UNL     1      -5.649  48.192 -29.073  1.00  0.00     0.149 C 
HETATM    2  C16 UNL     1      -7.132  47.924 -28.855  1.00  0.00     0.054 C 
HETATM    3  C17 UNL     1      -7.647  47.342 -30.215  1.00  0.00     0.050 C 
HETATM    4  C18 UNL     1      -6.321  47.279 -31.035  1.00  0.00     0.272 C 
HETATM    5  O1  UNL     1      -6.177  46.283 -32.033  1.00  0.00    -0.360 OA
HETATM    6  C19 UNL     1      -6.053  44.954 -31.567  1.00  0.00     0.171 C 
HETATM    7  C20 UNL     1      -7.393  44.239 -31.628  1.00  0.00     0.027 C 
HETATM    8  C21 UNL     1      -8.584  45.068 -31.147  1.00  0.00     0.012 C 
HETATM    9  C22 UNL     1      -8.269  45.927 -29.905  1.00  0.00     0.032 C 
HETATM   10  C23 UNL     1      -9.516  46.043 -29.001  1.00  0.00    -0.066 C 
HETATM   11  C24 UNL     1      -9.876  45.118 -28.073  1.00  0.00    -0.021 C 
HETATM   12  C25 UNL     1     -11.020  45.254 -27.101  1.00  0.00     0.052 C 
HETATM   13  C27 UNL     1     -10.314  47.322 -29.178  1.00  0.00     0.038 C 
HETATM   14  C28 UNL     1     -10.167  47.913 -30.571  1.00  0.00     0.042 C 
HETATM   15  C29 UNL     1      -8.709  48.266 -30.939  1.00  0.00     0.067 C 
HETATM   16  C30 UNL     1      -8.478  49.776 -30.735  1.00  0.00     0.047 C 
HETATM   17  O4  UNL     1      -5.249  47.263 -30.077  1.00  0.00    -0.351 OA
ENDROOT
BRANCH   1  18
HETATM   18  C14 UNL     1      -4.809  48.109 -27.829  1.00  0.00     0.011 C 
HETATM   19  C12 UNL     1      -3.856  48.944 -27.362  1.00  0.00    -0.063 C 
HETATM   20  C13 UNL     1      -3.379  50.166 -28.101  1.00  0.00     0.048 C 
BRANCH  19  21
HETATM   21  C11 UNL     1      -3.232  48.638 -26.072  1.00  0.00     0.006 C 
HETATM   22  C10 UNL     1      -3.802  48.751 -24.860  1.00  0.00     0.001 C 
BRANCH  22  23
HETATM   23  C9  UNL     1      -3.105  48.412 -23.634  1.00  0.00     0.002 C 
HETATM   24  C7  UNL     1      -3.265  48.978 -22.419  1.00  0.00    -0.084 C 
HETATM   25  C8  UNL     1      -4.214  50.114 -22.117  1.00  0.00     0.043 C 
BRANCH  24  26
HETATM   26  C6  UNL     1      -2.491  48.536 -21.179  1.00  0.00     0.037 C 
BRANCH  26  27
HETATM   27  C5  UNL     1      -0.958  48.624 -21.215  1.00  0.00     0.031 C 
BRANCH  27  28
HETATM   28  C4  UNL     1      -0.468  49.916 -20.615  1.00  0.00    -0.024 C 
HETATM   29  C2  UNL     1      -0.319  51.105 -21.231  1.00  0.00    -0.091 C 
HETATM   30  C1  UNL     1       0.153  52.313 -20.465  1.00  0.00     0.042 C 
HETATM   31  C3  UNL     1      -0.577  51.361 -22.691  1.00  0.00     0.042 C 
ENDBRANCH  27  28
ENDBRANCH  26  27
ENDBRANCH  24  26
ENDBRANCH  22  23
ENDBRANCH  19  21
ENDBRANCH   1  18
BRANCH  15  32
HETATM   32  O3  UNL     1      -8.605  48.070 -32.359  1.00  0.00    -0.389 OA
HETATM   33  H44 UNL     1      -9.301  48.583 -32.806  1.00  0.00     0.210 HD
ENDBRANCH  15  32
BRANCH  11  34
HETATM   34  C26 UNL     1      -9.140  43.822 -27.913  1.00  0.00     0.265 C 
HETATM   35  O2  UNL     1      -9.006  43.267 -26.827  1.00  0.00    -0.302 OA
ENDBRANCH  11  34
TORSDOF 8
ENDMDL
MODEL 9
REMARK minimizedAffinity -7.3508091
REMARK CNNscore 0.290528089
REMARK CNNaffinity 5.80093002
REMARK  8 active torsions:
REMARK  status: ('A' for Active; 'I' for Inactive)
REMARK    1  A    between atoms: C4_4  and  C5_5 
REMARK    2  A    between atoms: C5_5  and  C6_6 
REMARK    3  A    between atoms: C6_6  and  C7_7 
REMARK    4  A    between atoms: C9_9  and  C10_10 
REMARK    5  A    between atoms: C11_11  and  C12_12 
REMARK    6  A    between atoms: C14_14  and  C15_15 
REMARK    7  A    between atoms: C24_25  and  C26_27 
REMARK    8  A    between atoms: C29_31  and  O3_33 
ROOT
HETATM    1  C15 UNL     1      -8.081  47.231 -29.220  1.00  0.00     0.149 C 
HETATM    2  C16 UNL     1      -9.250  46.814 -28.337  1.00  0.00     0.054 C 
HETATM    3  C17 UNL     1     -10.123  45.872 -29.232  1.00  0.00     0.050 C 
HETATM    4  C18 UNL     1      -9.262  45.812 -30.533  1.00  0.00     0.272 C 
HETATM    5  O1  UNL     1      -9.312  44.645 -31.336  1.00  0.00    -0.360 OA
HETATM    6  C19 UNL     1      -8.716  43.488 -30.785  1.00  0.00     0.171 C 
HETATM    7  C20 UNL     1      -9.770  42.597 -30.147  1.00  0.00     0.027 C 
HETATM    8  C21 UNL     1     -10.819  43.337 -29.318  1.00  0.00     0.012 C 
HETATM    9  C22 UNL     1     -10.233  44.492 -28.479  1.00  0.00     0.032 C 
HETATM   10  C23 UNL     1     -11.002  44.633 -27.147  1.00  0.00    -0.066 C 
HETATM   11  C24 UNL     1     -10.740  43.902 -26.033  1.00  0.00    -0.021 C 
HETATM   12  C25 UNL     1     -11.394  44.093 -24.688  1.00  0.00     0.052 C 
HETATM   13  C27 UNL     1     -12.068  45.714 -27.140  1.00  0.00     0.038 C 
HETATM   14  C28 UNL     1     -12.631  45.987 -28.526  1.00  0.00     0.042 C 
HETATM   15  C29 UNL     1     -11.565  46.448 -29.543  1.00  0.00     0.067 C 
HETATM   16  C30 UNL     1     -11.616  47.983 -29.682  1.00  0.00     0.047 C 
HETATM   17  O4  UNL     1      -7.921  46.164 -30.151  1.00  0.00    -0.351 OA
ENDROOT
BRANCH   1  18
HETATM   18  C14 UNL     1      -6.817  47.553 -28.473  1.00  0.00     0.011 C 
HETATM   19  C12 UNL     1      -5.652  48.077 -28.913  1.00  0.00    -0.063 C 
HETATM   20  C13 UNL     1      -5.369  48.391 -30.358  1.00  0.00     0.048 C 
BRANCH  19  21
HETATM   21  C11 UNL     1      -4.592  48.338 -27.936  1.00  0.00     0.006 C 
HETATM   22  C10 UNL     1      -4.677  48.188 -26.602  1.00  0.00     0.001 C 
BRANCH  22  23
HETATM   23  C9  UNL     1      -3.565  48.461 -25.713  1.00  0.00     0.002 C 
HETATM   24  C7  UNL     1      -3.618  49.025 -24.487  1.00  0.00    -0.084 C 
HETATM   25  C8  UNL     1      -4.883  49.502 -23.812  1.00  0.00     0.043 C 
BRANCH  24  26
HETATM   26  C6  UNL     1      -2.386  49.257 -23.616  1.00  0.00     0.037 C 
BRANCH  26  27
HETATM   27  C5  UNL     1      -2.500  50.257 -22.456  1.00  0.00     0.031 C 
BRANCH  27  28
HETATM   28  C4  UNL     1      -1.311  51.181 -22.408  1.00  0.00    -0.024 C 
HETATM   29  C2  UNL     1      -0.315  51.194 -21.501  1.00  0.00    -0.091 C 
HETATM   30  C1  UNL     1       0.824  52.171 -21.626  1.00  0.00     0.042 C 
HETATM   31  C3  UNL     1      -0.227  50.290 -20.302  1.00  0.00     0.042 C 
ENDBRANCH  27  28
ENDBRANCH  26  27
ENDBRANCH  24  26
ENDBRANCH  22  23
ENDBRANCH  19  21
ENDBRANCH   1  18
BRANCH  15  32
HETATM   32  O3  UNL     1     -11.999  45.952 -30.819  1.00  0.00    -0.389 OA
HETATM   33  H44 UNL     1     -12.912  46.247 -30.985  1.00  0.00     0.210 HD
ENDBRANCH  15  32
BRANCH  11  34
HETATM   34  C26 UNL     1      -9.732  42.793 -26.025  1.00  0.00     0.265 C 
HETATM   35  O2  UNL     1     -10.022  41.632 -26.297  1.00  0.00    -0.302 OA
ENDBRANCH  11  34
TORSDOF 8
ENDMDL
