MODEL 1
REMARK minimizedAffinity -9.42664814
REMARK CNNscore 0.478588998
REMARK CNNaffinity 6.74679375
REMARK  11 active torsions:
REMARK  status: ('A' for Active; 'I' for Inactive)
REMARK    1  A    between atoms: C3_3  and  O1_4 
REMARK    2  A    between atoms: N1_14  and  O2_16 
REMARK    3  A    between atoms: O2_16  and  C13_17 
REMARK    4  A    between atoms: C13_17  and  C14_18 
REMARK       I    between atoms: C14_18  and  N2_20 
REMARK    5  A    between atoms: N2_20  and  C15_21 
REMARK    6  A    between atoms: C15_21  and  C16_22 
REMARK       I    between atoms: C16_22  and  N3_24 
REMARK    7  A    between atoms: N3_24  and  C17_25 
REMARK    8  A    between atoms: C17_25  and  C18_26 
REMARK    9  A    between atoms: C17_25  and  C27_36 
REMARK   10  A    between atoms: C18_26  and  C19_27 
REMARK   11  A    between atoms: C27_36  and  O6_38 
ROOT
HETATM    1  C1  UNL     1       0.250  51.834 -28.002  1.00  0.00     0.015 C 
HETATM    2  C2  UNL     1      -0.824  51.785 -27.466  1.00  0.00    -0.078 C 
HETATM    3  C3  UNL     1      -2.149  51.699 -26.809  1.00  0.00     0.128 C 
HETATM    4  C4  UNL     1      -3.009  50.647 -27.521  1.00  0.00     0.052 C 
HETATM    5  C5  UNL     1      -2.491  49.330 -26.960  1.00  0.00     0.010 C 
HETATM    6  C6  UNL     1      -2.186  49.616 -25.476  1.00  0.00     0.002 C 
HETATM    7  C7  UNL     1      -3.101  48.876 -24.451  1.00  0.00    -0.004 C 
HETATM    8  C8  UNL     1      -4.571  48.632 -24.858  1.00  0.00     0.010 C 
HETATM    9  C9  UNL     1      -5.349  47.847 -23.793  1.00  0.00     0.035 C 
HETATM   10  C10 UNL     1      -5.209  48.467 -22.420  1.00  0.00    -0.069 C 
HETATM   11  C11 UNL     1      -6.309  48.784 -21.717  1.00  0.00     0.030 C 
HETATM   12  C12 UNL     1      -6.205  49.501 -20.421  1.00  0.00     0.032 C 
HETATM   13  N1  UNL     1      -7.117  49.549 -19.498  1.00  0.00    -0.271 N 
ATOM     14  H1  UNL     1      -7.030  50.087 -18.636  1.00  0.00     0.194 HD
HETATM   15  C28 UNL     1      -4.935  50.284 -20.190  1.00  0.00     0.060 C 
HETATM   16  C29 UNL     1      -3.726  49.431 -20.543  1.00  0.00     0.020 C 
HETATM   17  C30 UNL     1      -3.783  48.726 -21.940  1.00  0.00    -0.016 C 
HETATM   18  C31 UNL     1      -3.056  47.366 -21.732  1.00  0.00     0.020 C 
HETATM   19  C32 UNL     1      -3.035  49.557 -23.055  1.00  0.00     0.002 C 
HETATM   20  C33 UNL     1      -3.513  51.025 -23.153  1.00  0.00     0.007 C 
HETATM   21  C34 UNL     1      -3.310  51.702 -24.513  1.00  0.00     0.014 C 
HETATM   22  C35 UNL     1      -2.105  51.175 -25.329  1.00  0.00     0.003 C 
HETATM   23  C36 UNL     1      -0.817  51.619 -24.593  1.00  0.00     0.020 C 
ENDROOT
BRANCH   3  24
HETATM   24  O1  UNL     1      -2.766  52.977 -26.898  1.00  0.00    -0.377 OA
HETATM   25  H2  UNL     1      -2.726  53.245 -27.829  1.00  0.00     0.211 HD
ENDBRANCH   3  24
BRANCH  13  26
HETATM   26  O2  UNL     1      -8.238  48.771 -19.831  1.00  0.00    -0.271 OA
BRANCH  26  27
HETATM   27  C13 UNL     1      -8.200  48.525 -21.232  1.00  0.00     0.303 C 
BRANCH  27  28
HETATM   28  C14 UNL     1      -8.948  47.250 -21.580  1.00  0.00     0.244 C 
HETATM   29  O3  UNL     1      -9.172  46.366 -20.756  1.00  0.00    -0.271 OA
HETATM   30  N2  UNL     1      -9.298  47.118 -22.902  1.00  0.00    -0.350 N 
HETATM   31  H16 UNL     1      -9.322  47.966 -23.457  1.00  0.00     0.163 HD
BRANCH  30  32
HETATM   32  C15 UNL     1     -10.030  45.964 -23.381  1.00  0.00     0.225 C 
BRANCH  32  33
HETATM   33  C16 UNL     1     -11.357  46.400 -24.000  1.00  0.00     0.236 C 
HETATM   34  O4  UNL     1     -11.468  47.416 -24.683  1.00  0.00    -0.272 OA
HETATM   35  N3  UNL     1     -12.417  45.600 -23.646  1.00  0.00    -0.345 N 
HETATM   36  H19 UNL     1     -12.279  44.888 -22.919  1.00  0.00     0.163 HD
BRANCH  35  37
HETATM   37  C17 UNL     1     -13.773  45.800 -24.145  1.00  0.00     0.186 C 
BRANCH  37  38
HETATM   38  C18 UNL     1     -14.529  46.925 -23.425  1.00  0.00     0.077 C 
BRANCH  38  39
HETATM   39  C19 UNL     1     -15.953  46.631 -23.036  1.00  0.00    -0.028 A 
HETATM   40  C20 UNL     1     -16.998  46.257 -23.861  1.00  0.00     0.096 A 
HETATM   41  N4  UNL     1     -18.116  46.089 -23.093  1.00  0.00    -0.365 N 
HETATM   42  C21 UNL     1     -17.831  46.332 -21.769  1.00  0.00     0.042 A 
HETATM   43  H24 UNL     1     -19.026  45.815 -23.440  1.00  0.00     0.165 HD
HETATM   44  C22 UNL     1     -18.667  46.278 -20.643  1.00  0.00     0.030 A 
HETATM   45  C26 UNL     1     -16.480  46.673 -21.698  1.00  0.00    -0.002 A 
HETATM   46  C23 UNL     1     -18.096  46.565 -19.400  1.00  0.00     0.002 A 
HETATM   47  C24 UNL     1     -16.749  46.902 -19.295  1.00  0.00     0.001 A 
HETATM   48  C25 UNL     1     -15.930  46.961 -20.430  1.00  0.00     0.014 A 
ENDBRANCH  38  39
ENDBRANCH  37  38
BRANCH  37  49
HETATM   49  C27 UNL     1     -13.792  46.020 -25.658  1.00  0.00     0.163 C 
HETATM   50  O5  UNL     1     -14.348  46.935 -26.248  1.00  0.00    -0.648 OA
BRANCH  49  51
HETATM   51  O6  UNL     1     -13.123  45.075 -26.354  1.00  0.00    -0.775 OA
HETATM   52  H29 UNL     1     -13.224  45.341 -27.294  1.00  0.00     0.167 HD
ENDBRANCH  49  51
ENDBRANCH  37  49
ENDBRANCH  35  37
ENDBRANCH  32  33
ENDBRANCH  30  32
ENDBRANCH  27  28
ENDBRANCH  26  27
ENDBRANCH  13  26
TORSDOF 11
ENDMDL
MODEL 2
REMARK minimizedAffinity -10.4013252
REMARK CNNscore 0.389838666
REMARK CNNaffinity 6.85661745
REMARK  11 active torsions:
REMARK  status: ('A' for Active; 'I' for Inactive)
REMARK    1  A    between atoms: C3_3  and  O1_4 
REMARK    2  A    between atoms: N1_14  and  O2_16 
REMARK    3  A    between atoms: O2_16  and  C13_17 
REMARK    4  A    between atoms: C13_17  and  C14_18 
REMARK       I    between atoms: C14_18  and  N2_20 
REMARK    5  A    between atoms: N2_20  and  C15_21 
REMARK    6  A    between atoms: C15_21  and  C16_22 
REMARK       I    between atoms: C16_22  and  N3_24 
REMARK    7  A    between atoms: N3_24  and  C17_25 
REMARK    8  A    between atoms: C17_25  and  C18_26 
REMARK    9  A    between atoms: C17_25  and  C27_36 
REMARK   10  A    between atoms: C18_26  and  C19_27 
REMARK   11  A    between atoms: C27_36  and  O6_38 
ROOT
HETATM    1  C1  UNL     1       0.253  51.700 -28.140  1.00  0.00     0.015 C 
HETATM    2  C2  UNL     1      -0.793  51.710 -27.550  1.00  0.00    -0.078 C 
HETATM    3  C3  UNL     1      -2.085  51.695 -26.826  1.00  0.00     0.128 C 
HETATM    4  C4  UNL     1      -3.054  50.729 -27.521  1.00  0.00     0.052 C 
HETATM    5  C5  UNL     1      -2.603  49.362 -27.024  1.00  0.00     0.010 C 
HETATM    6  C6  UNL     1      -2.203  49.580 -25.551  1.00  0.00     0.002 C 
HETATM    7  C7  UNL     1      -3.116  48.874 -24.500  1.00  0.00    -0.004 C 
HETATM    8  C8  UNL     1      -4.618  48.746 -24.835  1.00  0.00     0.010 C 
HETATM    9  C9  UNL     1      -5.394  47.984 -23.752  1.00  0.00     0.035 C 
HETATM   10  C10 UNL     1      -5.141  48.550 -22.372  1.00  0.00    -0.069 C 
HETATM   11  C11 UNL     1      -6.178  48.920 -21.603  1.00  0.00     0.030 C 
HETATM   12  C12 UNL     1      -5.958  49.588 -20.295  1.00  0.00     0.032 C 
HETATM   13  N1  UNL     1      -6.815  49.671 -19.325  1.00  0.00    -0.271 N 
ATOM     14  H1  UNL     1      -6.646  50.174 -18.454  1.00  0.00     0.194 HD
HETATM   15  C28 UNL     1      -4.625  50.273 -20.111  1.00  0.00     0.060 C 
HETATM   16  C29 UNL     1      -3.499  49.349 -20.550  1.00  0.00     0.020 C 
HETATM   17  C30 UNL     1      -3.677  48.693 -21.961  1.00  0.00    -0.016 C 
HETATM   18  C31 UNL     1      -3.040  47.280 -21.829  1.00  0.00     0.020 C 
HETATM   19  C32 UNL     1      -2.930  49.504 -23.091  1.00  0.00     0.002 C 
HETATM   20  C33 UNL     1      -3.306  51.005 -23.123  1.00  0.00     0.007 C 
HETATM   21  C34 UNL     1      -3.125  51.708 -24.473  1.00  0.00     0.014 C 
HETATM   22  C35 UNL     1      -2.003  51.124 -25.366  1.00  0.00     0.003 C 
HETATM   23  C36 UNL     1      -0.651  51.453 -24.687  1.00  0.00     0.020 C 
ENDROOT
BRANCH   3  24
HETATM   24  O1  UNL     1      -2.613  53.015 -26.847  1.00  0.00    -0.377 OA
HETATM   25  H2  UNL     1      -2.602  53.309 -27.771  1.00  0.00     0.211 HD
ENDBRANCH   3  24
BRANCH  13  26
HETATM   26  O2  UNL     1      -8.004  48.984 -19.619  1.00  0.00    -0.271 OA
BRANCH  26  27
HETATM   27  C13 UNL     1      -8.807  48.973 -18.443  1.00  0.00     0.303 C 
BRANCH  27  28
HETATM   28  C14 UNL     1      -9.855  47.878 -18.511  1.00  0.00     0.244 C 
HETATM   29  O3  UNL     1     -10.198  47.351 -19.568  1.00  0.00    -0.271 OA
HETATM   30  N2  UNL     1     -10.450  47.560 -17.314  1.00  0.00    -0.350 N 
HETATM   31  H16 UNL     1      -9.955  47.828 -16.470  1.00  0.00     0.163 HD
BRANCH  30  32
HETATM   32  C15 UNL     1     -11.456  46.522 -17.218  1.00  0.00     0.225 C 
BRANCH  32  33
HETATM   33  C16 UNL     1     -12.840  47.101 -17.507  1.00  0.00     0.236 C 
HETATM   34  O4  UNL     1     -13.554  47.583 -16.631  1.00  0.00    -0.272 OA
HETATM   35  N3  UNL     1     -13.236  46.949 -18.815  1.00  0.00    -0.345 N 
HETATM   36  H19 UNL     1     -12.667  46.366 -19.440  1.00  0.00     0.163 HD
BRANCH  35  37
HETATM   37  C17 UNL     1     -14.501  47.457 -19.332  1.00  0.00     0.186 C 
BRANCH  37  38
HETATM   38  C18 UNL     1     -15.728  46.729 -18.766  1.00  0.00     0.077 C 
BRANCH  38  39
HETATM   39  C19 UNL     1     -16.953  46.703 -19.641  1.00  0.00    -0.028 A 
HETATM   40  C20 UNL     1     -18.272  46.866 -19.257  1.00  0.00     0.096 A 
HETATM   41  N4  UNL     1     -19.060  46.774 -20.370  1.00  0.00    -0.365 N 
HETATM   42  C21 UNL     1     -18.288  46.566 -21.491  1.00  0.00     0.042 A 
HETATM   43  H24 UNL     1     -20.069  46.855 -20.380  1.00  0.00     0.165 HD
HETATM   44  C22 UNL     1     -18.670  46.414 -22.832  1.00  0.00     0.030 A 
HETATM   45  C26 UNL     1     -16.959  46.518 -21.067  1.00  0.00    -0.002 A 
HETATM   46  C23 UNL     1     -17.656  46.226 -23.775  1.00  0.00     0.002 A 
HETATM   47  C24 UNL     1     -16.319  46.181 -23.386  1.00  0.00     0.001 A 
HETATM   48  C25 UNL     1     -15.955  46.325 -22.041  1.00  0.00     0.014 A 
ENDBRANCH  38  39
ENDBRANCH  37  38
BRANCH  37  49
HETATM   49  C27 UNL     1     -14.630  48.967 -19.131  1.00  0.00     0.163 C 
HETATM   50  O5  UNL     1     -15.362  49.529 -18.330  1.00  0.00    -0.648 OA
BRANCH  49  51
HETATM   51  O6  UNL     1     -13.843  49.694 -19.953  1.00  0.00    -0.775 OA
HETATM   52  H29 UNL     1     -14.033  50.629 -19.716  1.00  0.00     0.167 HD
ENDBRANCH  49  51
ENDBRANCH  37  49
ENDBRANCH  35  37
ENDBRANCH  32  33
ENDBRANCH  30  32
ENDBRANCH  27  28
ENDBRANCH  26  27
ENDBRANCH  13  26
TORSDOF 11
ENDMDL
MODEL 3
REMARK minimizedAffinity -9.15322304
REMARK CNNscore 0.385264456
REMARK CNNaffinity 6.74653864
REMARK  11 active torsions:
REMARK  status: ('A' for Active; 'I' for Inactive)
REMARK    1  A    between atoms: C3_3  and  O1_4 
REMARK    2  A    between atoms: N1_14  and  O2_16 
REMARK    3  A    between atoms: O2_16  and  C13_17 
REMARK    4  A    between atoms: C13_17  and  C14_18 
REMARK       I    between atoms: C14_18  and  N2_20 
REMARK    5  A    between atoms: N2_20  and  C15_21 
REMARK    6  A    between atoms: C15_21  and  C16_22 
REMARK       I    between atoms: C16_22  and  N3_24 
REMARK    7  A    between atoms: N3_24  and  C17_25 
REMARK    8  A    between atoms: C17_25  and  C18_26 
REMARK    9  A    between atoms: C17_25  and  C27_36 
REMARK   10  A    between atoms: C18_26  and  C19_27 
REMARK   11  A    between atoms: C27_36  and  O6_38 
ROOT
HETATM    1  C1  UNL     1       0.409  51.865 -28.172  1.00  0.00     0.015 C 
HETATM    2  C2  UNL     1      -0.636  51.849 -27.579  1.00  0.00    -0.078 C 
HETATM    3  C3  UNL     1      -1.926  51.803 -26.852  1.00  0.00     0.128 C 
HETATM    4  C4  UNL     1      -2.870  50.809 -27.541  1.00  0.00     0.052 C 
HETATM    5  C5  UNL     1      -2.382  49.457 -27.040  1.00  0.00     0.010 C 
HETATM    6  C6  UNL     1      -1.984  49.690 -25.569  1.00  0.00     0.002 C 
HETATM    7  C7  UNL     1      -2.876  48.964 -24.513  1.00  0.00    -0.004 C 
HETATM    8  C8  UNL     1      -4.375  48.795 -24.844  1.00  0.00     0.010 C 
HETATM    9  C9  UNL     1      -5.128  48.018 -23.757  1.00  0.00     0.035 C 
HETATM   10  C10 UNL     1      -4.886  48.594 -22.379  1.00  0.00    -0.069 C 
HETATM   11  C11 UNL     1      -5.931  48.940 -21.609  1.00  0.00     0.030 C 
HETATM   12  C12 UNL     1      -5.726  49.619 -20.304  1.00  0.00     0.032 C 
HETATM   13  N1  UNL     1      -6.583  49.682 -19.332  1.00  0.00    -0.271 N 
ATOM     14  H1  UNL     1      -6.425  50.193 -18.463  1.00  0.00     0.194 HD
HETATM   15  C28 UNL     1      -4.411  50.339 -20.126  1.00  0.00     0.060 C 
HETATM   16  C29 UNL     1      -3.262  49.443 -20.564  1.00  0.00     0.020 C 
HETATM   17  C30 UNL     1      -3.427  48.778 -21.972  1.00  0.00    -0.016 C 
HETATM   18  C31 UNL     1      -2.752  47.383 -21.837  1.00  0.00     0.020 C 
HETATM   19  C32 UNL     1      -2.703  49.604 -23.107  1.00  0.00     0.002 C 
HETATM   20  C33 UNL     1      -3.119  51.094 -23.144  1.00  0.00     0.007 C 
HETATM   21  C34 UNL     1      -2.960  51.797 -24.496  1.00  0.00     0.014 C 
HETATM   22  C35 UNL     1      -1.825  51.240 -25.390  1.00  0.00     0.003 C 
HETATM   23  C36 UNL     1      -0.481  51.607 -24.716  1.00  0.00     0.020 C 
ENDROOT
BRANCH   3  24
HETATM   24  O1  UNL     1      -2.489  53.109 -26.877  1.00  0.00    -0.377 OA
HETATM   25  H2  UNL     1      -2.487  53.399 -27.802  1.00  0.00     0.211 HD
ENDBRANCH   3  24
BRANCH  13  26
HETATM   26  O2  UNL     1      -7.754  48.963 -19.621  1.00  0.00    -0.271 OA
BRANCH  26  27
HETATM   27  C13 UNL     1      -8.597  49.020 -18.475  1.00  0.00     0.303 C 
BRANCH  27  28
HETATM   28  C14 UNL     1      -9.832  48.159 -18.666  1.00  0.00     0.244 C 
HETATM   29  O3  UNL     1     -10.125  47.648 -19.746  1.00  0.00    -0.271 OA
HETATM   30  N2  UNL     1     -10.644  48.045 -17.564  1.00  0.00    -0.350 N 
HETATM   31  H16 UNL     1     -10.229  48.259 -16.664  1.00  0.00     0.163 HD
BRANCH  30  32
HETATM   32  C15 UNL     1     -11.849  47.242 -17.589  1.00  0.00     0.225 C 
BRANCH  32  33
HETATM   33  C16 UNL     1     -12.608  47.469 -18.896  1.00  0.00     0.236 C 
HETATM   34  O4  UNL     1     -13.230  48.502 -19.130  1.00  0.00    -0.272 OA
HETATM   35  N3  UNL     1     -12.597  46.379 -19.733  1.00  0.00    -0.345 N 
HETATM   36  H19 UNL     1     -12.221  45.490 -19.383  1.00  0.00     0.163 HD
BRANCH  35  37
HETATM   37  C17 UNL     1     -13.222  46.376 -21.051  1.00  0.00     0.186 C 
BRANCH  37  38
HETATM   38  C18 UNL     1     -14.290  47.465 -21.222  1.00  0.00     0.077 C 
BRANCH  38  39
HETATM   39  C19 UNL     1     -15.655  47.001 -21.658  1.00  0.00    -0.028 A 
HETATM   40  C20 UNL     1     -16.110  46.804 -22.949  1.00  0.00     0.096 A 
HETATM   41  N4  UNL     1     -17.408  46.377 -22.888  1.00  0.00    -0.365 N 
HETATM   42  C21 UNL     1     -17.820  46.274 -21.578  1.00  0.00     0.042 A 
HETATM   43  H24 UNL     1     -17.988  46.156 -23.687  1.00  0.00     0.165 HD
HETATM   44  C22 UNL     1     -19.058  45.879 -21.053  1.00  0.00     0.030 A 
HETATM   45  C26 UNL     1     -16.741  46.658 -20.780  1.00  0.00    -0.002 A 
HETATM   46  C23 UNL     1     -19.192  45.856 -19.662  1.00  0.00     0.002 A 
HETATM   47  C24 UNL     1     -18.133  46.225 -18.837  1.00  0.00     0.001 A 
HETATM   48  C25 UNL     1     -16.905  46.628 -19.378  1.00  0.00     0.014 A 
ENDBRANCH  38  39
ENDBRANCH  37  38
BRANCH  37  49
HETATM   49  C27 UNL     1     -12.185  46.458 -22.171  1.00  0.00     0.163 C 
HETATM   50  O5  UNL     1     -12.211  47.220 -23.126  1.00  0.00    -0.648 OA
BRANCH  49  51
HETATM   51  O6  UNL     1     -11.174  45.572 -22.041  1.00  0.00    -0.775 OA
HETATM   52  H29 UNL     1     -10.598  45.736 -22.820  1.00  0.00     0.167 HD
ENDBRANCH  49  51
ENDBRANCH  37  49
ENDBRANCH  35  37
ENDBRANCH  32  33
ENDBRANCH  30  32
ENDBRANCH  27  28
ENDBRANCH  26  27
ENDBRANCH  13  26
TORSDOF 11
ENDMDL
MODEL 4
REMARK minimizedAffinity -9.54798031
REMARK CNNscore 0.376734227
REMARK CNNaffinity 6.69409132
REMARK  11 active torsions:
REMARK  status: ('A' for Active; 'I' for Inactive)
REMARK    1  A    between atoms: C3_3  and  O1_4 
REMARK    2  A    between atoms: N1_14  and  O2_16 
REMARK    3  A    between atoms: O2_16  and  C13_17 
REMARK    4  A    between atoms: C13_17  and  C14_18 
REMARK       I    between atoms: C14_18  and  N2_20 
REMARK    5  A    between atoms: N2_20  and  C15_21 
REMARK    6  A    between atoms: C15_21  and  C16_22 
REMARK       I    between atoms: C16_22  and  N3_24 
REMARK    7  A    between atoms: N3_24  and  C17_25 
REMARK    8  A    between atoms: C17_25  and  C18_26 
REMARK    9  A    between atoms: C17_25  and  C27_36 
REMARK   10  A    between atoms: C18_26  and  C19_27 
REMARK   11  A    between atoms: C27_36  and  O6_38 
ROOT
HETATM    1  C1  UNL     1       0.591  52.168 -28.152  1.00  0.00     0.015 C 
HETATM    2  C2  UNL     1      -0.475  52.114 -27.601  1.00  0.00    -0.078 C 
HETATM    3  C3  UNL     1      -1.790  52.021 -26.924  1.00  0.00     0.128 C 
HETATM    4  C4  UNL     1      -2.650  50.953 -27.613  1.00  0.00     0.052 C 
HETATM    5  C5  UNL     1      -2.110  49.648 -27.045  1.00  0.00     0.010 C 
HETATM    6  C6  UNL     1      -1.787  49.953 -25.569  1.00  0.00     0.002 C 
HETATM    7  C7  UNL     1      -2.680  49.215 -24.523  1.00  0.00    -0.004 C 
HETATM    8  C8  UNL     1      -4.153  48.952 -24.906  1.00  0.00     0.010 C 
HETATM    9  C9  UNL     1      -4.908  48.171 -23.822  1.00  0.00     0.035 C 
HETATM   10  C10 UNL     1      -4.755  48.806 -22.458  1.00  0.00    -0.069 C 
HETATM   11  C11 UNL     1      -5.848  49.119 -21.743  1.00  0.00     0.030 C 
HETATM   12  C12 UNL     1      -5.733  49.852 -20.456  1.00  0.00     0.032 C 
HETATM   13  N1  UNL     1      -6.632  49.900 -19.521  1.00  0.00    -0.271 N 
ATOM     14  H1  UNL     1      -6.538  50.448 -18.666  1.00  0.00     0.194 HD
HETATM   15  C28 UNL     1      -4.468  50.650 -20.252  1.00  0.00     0.060 C 
HETATM   16  C29 UNL     1      -3.255  49.805 -20.612  1.00  0.00     0.020 C 
HETATM   17  C30 UNL     1      -3.325  49.085 -22.001  1.00  0.00    -0.016 C 
HETATM   18  C31 UNL     1      -2.582  47.734 -21.789  1.00  0.00     0.020 C 
HETATM   19  C32 UNL     1      -2.601  49.911 -23.135  1.00  0.00     0.002 C 
HETATM   20  C33 UNL     1      -3.095  51.373 -23.242  1.00  0.00     0.007 C 
HETATM   21  C34 UNL     1      -2.919  52.037 -24.612  1.00  0.00     0.014 C 
HETATM   22  C35 UNL     1      -1.720  51.514 -25.439  1.00  0.00     0.003 C 
HETATM   23  C36 UNL     1      -0.426  51.978 -24.727  1.00  0.00     0.020 C 
ENDROOT
BRANCH   3  24
HETATM   24  O1  UNL     1      -2.421  53.292 -27.018  1.00  0.00    -0.377 OA
HETATM   25  H2  UNL     1      -2.397  53.550 -27.952  1.00  0.00     0.211 HD
ENDBRANCH   3  24
BRANCH  13  26
HETATM   26  O2  UNL     1      -7.749  49.108 -19.830  1.00  0.00    -0.271 OA
BRANCH  26  27
HETATM   27  C13 UNL     1      -7.836  48.074 -18.856  1.00  0.00     0.303 C 
BRANCH  27  28
HETATM   28  C14 UNL     1      -8.747  46.955 -19.330  1.00  0.00     0.244 C 
HETATM   29  O3  UNL     1      -8.318  45.872 -19.723  1.00  0.00    -0.271 OA
HETATM   30  N2  UNL     1     -10.086  47.261 -19.357  1.00  0.00    -0.350 N 
HETATM   31  H16 UNL     1     -10.389  48.045 -18.790  1.00  0.00     0.163 HD
BRANCH  30  32
HETATM   32  C15 UNL     1     -11.077  46.289 -19.770  1.00  0.00     0.225 C 
BRANCH  32  33
HETATM   33  C16 UNL     1     -12.243  46.272 -18.781  1.00  0.00     0.236 C 
HETATM   34  O4  UNL     1     -12.652  45.240 -18.256  1.00  0.00    -0.272 OA
HETATM   35  N3  UNL     1     -12.834  47.502 -18.610  1.00  0.00    -0.345 N 
HETATM   36  H19 UNL     1     -12.560  48.274 -19.228  1.00  0.00     0.163 HD
BRANCH  35  37
HETATM   37  C17 UNL     1     -13.939  47.735 -17.688  1.00  0.00     0.186 C 
BRANCH  37  38
HETATM   38  C18 UNL     1     -15.205  48.270 -18.373  1.00  0.00     0.077 C 
BRANCH  38  39
HETATM   39  C19 UNL     1     -15.563  47.648 -19.696  1.00  0.00    -0.028 A 
HETATM   40  C20 UNL     1     -14.791  47.589 -20.842  1.00  0.00     0.096 A 
HETATM   41  N4  UNL     1     -15.501  46.932 -21.808  1.00  0.00    -0.365 N 
HETATM   42  C21 UNL     1     -16.727  46.541 -21.321  1.00  0.00     0.042 A 
HETATM   43  H24 UNL     1     -15.175  46.747 -22.748  1.00  0.00     0.165 HD
HETATM   44  C22 UNL     1     -17.768  45.847 -21.956  1.00  0.00     0.030 A 
HETATM   45  C26 UNL     1     -16.797  46.974 -19.996  1.00  0.00    -0.002 A 
HETATM   46  C23 UNL     1     -18.913  45.569 -21.204  1.00  0.00     0.002 A 
HETATM   47  C24 UNL     1     -19.011  45.981 -19.877  1.00  0.00     0.001 A 
HETATM   48  C25 UNL     1     -17.967  46.682 -19.261  1.00  0.00     0.014 A 
ENDBRANCH  38  39
ENDBRANCH  37  38
BRANCH  37  49
HETATM   49  C27 UNL     1     -14.260  46.491 -16.860  1.00  0.00     0.163 C 
HETATM   50  O5  UNL     1     -15.013  45.583 -17.182  1.00  0.00    -0.648 OA
BRANCH  49  51
HETATM   51  O6  UNL     1     -13.628  46.453 -15.667  1.00  0.00    -0.775 OA
HETATM   52  H29 UNL     1     -13.928  45.615 -15.253  1.00  0.00     0.167 HD
ENDBRANCH  49  51
ENDBRANCH  37  49
ENDBRANCH  35  37
ENDBRANCH  32  33
ENDBRANCH  30  32
ENDBRANCH  27  28
ENDBRANCH  26  27
ENDBRANCH  13  26
TORSDOF 11
ENDMDL
MODEL 5
REMARK minimizedAffinity -9.05511093
REMARK CNNscore 0.344268024
REMARK CNNaffinity 6.44947958
REMARK  11 active torsions:
REMARK  status: ('A' for Active; 'I' for Inactive)
REMARK    1  A    between atoms: C3_3  and  O1_4 
REMARK    2  A    between atoms: N1_14  and  O2_16 
REMARK    3  A    between atoms: O2_16  and  C13_17 
REMARK    4  A    between atoms: C13_17  and  C14_18 
REMARK       I    between atoms: C14_18  and  N2_20 
REMARK    5  A    between atoms: N2_20  and  C15_21 
REMARK    6  A    between atoms: C15_21  and  C16_22 
REMARK       I    between atoms: C16_22  and  N3_24 
REMARK    7  A    between atoms: N3_24  and  C17_25 
REMARK    8  A    between atoms: C17_25  and  C18_26 
REMARK    9  A    between atoms: C17_25  and  C27_36 
REMARK   10  A    between atoms: C18_26  and  C19_27 
REMARK   11  A    between atoms: C27_36  and  O6_38 
ROOT
HETATM    1  C1  UNL     1       0.137  51.295 -25.520  1.00  0.00     0.015 C 
HETATM    2  C2  UNL     1      -0.966  51.292 -25.047  1.00  0.00    -0.078 C 
HETATM    3  C3  UNL     1      -2.332  51.265 -24.473  1.00  0.00     0.128 C 
HETATM    4  C4  UNL     1      -3.306  50.656 -25.491  1.00  0.00     0.052 C 
HETATM    5  C5  UNL     1      -3.068  49.159 -25.352  1.00  0.00     0.010 C 
HETATM    6  C6  UNL     1      -2.831  48.926 -23.847  1.00  0.00     0.002 C 
HETATM    7  C7  UNL     1      -3.937  48.100 -23.117  1.00  0.00    -0.004 C 
HETATM    8  C8  UNL     1      -5.391  48.270 -23.607  1.00  0.00     0.010 C 
HETATM    9  C9  UNL     1      -6.372  47.364 -22.850  1.00  0.00     0.035 C 
HETATM   10  C10 UNL     1      -6.232  47.508 -21.351  1.00  0.00    -0.069 C 
HETATM   11  C11 UNL     1      -7.310  47.802 -20.606  1.00  0.00     0.030 C 
HETATM   12  C12 UNL     1      -7.182  48.066 -19.150  1.00  0.00     0.032 C 
HETATM   13  N1  UNL     1      -8.139  48.007 -18.276  1.00  0.00    -0.271 N 
ATOM     14  H1  UNL     1      -8.026  48.237 -17.288  1.00  0.00     0.194 HD
HETATM   15  C28 UNL     1      -5.817  48.491 -18.666  1.00  0.00     0.060 C 
HETATM   16  C29 UNL     1      -4.751  47.570 -19.240  1.00  0.00     0.020 C 
HETATM   17  C30 UNL     1      -4.823  47.338 -20.787  1.00  0.00    -0.016 C 
HETATM   18  C31 UNL     1      -4.362  45.866 -20.993  1.00  0.00     0.020 C 
HETATM   19  C32 UNL     1      -3.860  48.307 -21.578  1.00  0.00     0.002 C 
HETATM   20  C33 UNL     1      -4.066  49.800 -21.229  1.00  0.00     0.007 C 
HETATM   21  C34 UNL     1      -3.647  50.801 -22.311  1.00  0.00     0.014 C 
HETATM   22  C35 UNL     1      -2.492  50.325 -23.226  1.00  0.00     0.003 C 
HETATM   23  C36 UNL     1      -1.207  50.277 -22.365  1.00  0.00     0.020 C 
ENDROOT
BRANCH   3  24
HETATM   24  O1  UNL     1      -2.710  52.603 -24.177  1.00  0.00    -0.377 OA
HETATM   25  H2  UNL     1      -2.553  53.125 -24.980  1.00  0.00     0.211 HD
ENDBRANCH   3  24
BRANCH  13  26
HETATM   26  O2  UNL     1      -9.350  47.591 -18.853  1.00  0.00    -0.271 OA
BRANCH  26  27
HETATM   27  C13 UNL     1      -9.894  46.562 -18.034  1.00  0.00     0.303 C 
BRANCH  27  28
HETATM   28  C14 UNL     1     -11.140  47.044 -17.312  1.00  0.00     0.244 C 
HETATM   29  O3  UNL     1     -11.119  47.449 -16.152  1.00  0.00    -0.271 OA
HETATM   30  N2  UNL     1     -12.310  46.930 -18.022  1.00  0.00    -0.350 N 
HETATM   31  H16 UNL     1     -12.230  46.843 -19.029  1.00  0.00     0.163 HD
BRANCH  30  32
HETATM   32  C15 UNL     1     -13.577  47.365 -17.470  1.00  0.00     0.225 C 
BRANCH  32  33
HETATM   33  C16 UNL     1     -14.654  47.361 -18.555  1.00  0.00     0.236 C 
HETATM   34  O4  UNL     1     -15.753  47.889 -18.401  1.00  0.00    -0.272 OA
HETATM   35  N3  UNL     1     -14.304  46.641 -19.673  1.00  0.00    -0.345 N 
HETATM   36  H19 UNL     1     -13.451  46.070 -19.647  1.00  0.00     0.163 HD
BRANCH  35  37
HETATM   37  C17 UNL     1     -15.156  46.528 -20.850  1.00  0.00     0.186 C 
BRANCH  37  38
HETATM   38  C18 UNL     1     -16.603  46.977 -20.603  1.00  0.00     0.077 C 
BRANCH  38  39
HETATM   39  C19 UNL     1     -17.673  45.945 -20.839  1.00  0.00    -0.028 A 
HETATM   40  C20 UNL     1     -18.092  44.946 -19.979  1.00  0.00     0.096 A 
HETATM   41  N4  UNL     1     -19.087  44.238 -20.592  1.00  0.00    -0.365 N 
HETATM   42  C21 UNL     1     -19.348  44.757 -21.840  1.00  0.00     0.042 A 
HETATM   43  H24 UNL     1     -19.576  43.449 -20.189  1.00  0.00     0.165 HD
HETATM   44  C22 UNL     1     -20.280  44.350 -22.807  1.00  0.00     0.030 A 
HETATM   45  C26 UNL     1     -18.478  45.831 -22.026  1.00  0.00    -0.002 A 
HETATM   46  C23 UNL     1     -20.336  45.080 -23.998  1.00  0.00     0.002 A 
HETATM   47  C24 UNL     1     -19.486  46.163 -24.211  1.00  0.00     0.001 A 
HETATM   48  C25 UNL     1     -18.554  46.550 -23.239  1.00  0.00     0.014 A 
ENDBRANCH  38  39
ENDBRANCH  37  38
BRANCH  37  49
HETATM   49  C27 UNL     1     -14.562  47.263 -22.052  1.00  0.00     0.163 C 
HETATM   50  O5  UNL     1     -13.435  47.732 -22.128  1.00  0.00    -0.648 OA
BRANCH  49  51
HETATM   51  O6  UNL     1     -15.414  47.382 -23.093  1.00  0.00    -0.775 OA
HETATM   52  H29 UNL     1     -14.905  47.870 -23.777  1.00  0.00     0.167 HD
ENDBRANCH  49  51
ENDBRANCH  37  49
ENDBRANCH  35  37
ENDBRANCH  32  33
ENDBRANCH  30  32
ENDBRANCH  27  28
ENDBRANCH  26  27
ENDBRANCH  13  26
TORSDOF 11
ENDMDL
MODEL 6
REMARK minimizedAffinity -9.35155582
REMARK CNNscore 0.311122179
REMARK CNNaffinity 6.77724695
REMARK  11 active torsions:
REMARK  status: ('A' for Active; 'I' for Inactive)
REMARK    1  A    between atoms: C3_3  and  O1_4 
REMARK    2  A    between atoms: N1_14  and  O2_16 
REMARK    3  A    between atoms: O2_16  and  C13_17 
REMARK    4  A    between atoms: C13_17  and  C14_18 
REMARK       I    between atoms: C14_18  and  N2_20 
REMARK    5  A    between atoms: N2_20  and  C15_21 
REMARK    6  A    between atoms: C15_21  and  C16_22 
REMARK       I    between atoms: C16_22  and  N3_24 
REMARK    7  A    between atoms: N3_24  and  C17_25 
REMARK    8  A    between atoms: C17_25  and  C18_26 
REMARK    9  A    between atoms: C17_25  and  C27_36 
REMARK   10  A    between atoms: C18_26  and  C19_27 
REMARK   11  A    between atoms: C27_36  and  O6_38 
ROOT
HETATM    1  C1  UNL     1       7.759  56.017  -6.489  1.00  0.00     0.015 C 
HETATM    2  C2  UNL     1       7.068  55.533  -7.343  1.00  0.00    -0.078 C 
HETATM    3  C3  UNL     1       6.207  54.916  -8.380  1.00  0.00     0.128 C 
HETATM    4  C4  UNL     1       6.267  53.388  -8.257  1.00  0.00     0.052 C 
HETATM    5  C5  UNL     1       5.324  53.091  -7.100  1.00  0.00     0.010 C 
HETATM    6  C6  UNL     1       4.163  54.093  -7.258  1.00  0.00     0.002 C 
HETATM    7  C7  UNL     1       2.781  53.463  -7.618  1.00  0.00    -0.004 C 
HETATM    8  C8  UNL     1       2.785  52.205  -8.515  1.00  0.00     0.010 C 
HETATM    9  C9  UNL     1       1.374  51.649  -8.748  1.00  0.00     0.035 C 
HETATM   10  C10 UNL     1       0.418  52.718  -9.230  1.00  0.00    -0.069 C 
HETATM   11  C11 UNL     1      -0.281  52.526 -10.361  1.00  0.00     0.030 C 
HETATM   12  C12 UNL     1      -1.135  53.604 -10.922  1.00  0.00     0.032 C 
HETATM   13  N1  UNL     1      -2.105  53.447 -11.769  1.00  0.00    -0.271 N 
ATOM     14  H1  UNL     1      -2.646  54.214 -12.168  1.00  0.00     0.194 HD
HETATM   15  C28 UNL     1      -0.798  55.012 -10.497  1.00  0.00     0.060 C 
HETATM   16  C29 UNL     1      -0.612  55.071  -8.988  1.00  0.00     0.020 C 
HETATM   17  C30 UNL     1       0.346  53.988  -8.386  1.00  0.00    -0.016 C 
HETATM   18  C31 UNL     1      -0.261  53.646  -6.994  1.00  0.00     0.020 C 
HETATM   19  C32 UNL     1       1.816  54.534  -8.198  1.00  0.00     0.002 C 
HETATM   20  C33 UNL     1       2.412  55.150  -9.486  1.00  0.00     0.007 C 
HETATM   21  C34 UNL     1       3.942  55.149  -9.578  1.00  0.00     0.014 C 
HETATM   22  C35 UNL     1       4.676  55.223  -8.217  1.00  0.00     0.003 C 
HETATM   23  C36 UNL     1       4.425  56.634  -7.630  1.00  0.00     0.020 C 
ENDROOT
BRANCH   3  24
HETATM   24  O1  UNL     1       6.694  55.324  -9.652  1.00  0.00    -0.377 OA
HETATM   25  H2  UNL     1       7.644  55.133  -9.664  1.00  0.00     0.211 HD
ENDBRANCH   3  24
BRANCH  13  26
HETATM   26  O2  UNL     1      -2.321  52.093 -12.071  1.00  0.00    -0.271 OA
BRANCH  26  27
HETATM   27  C13 UNL     1      -3.012  52.025 -13.314  1.00  0.00     0.303 C 
BRANCH  27  28
HETATM   28  C14 UNL     1      -2.341  51.043 -14.257  1.00  0.00     0.244 C 
HETATM   29  O3  UNL     1      -1.330  50.414 -13.951  1.00  0.00    -0.271 OA
HETATM   30  N2  UNL     1      -2.901  50.954 -15.508  1.00  0.00    -0.350 N 
HETATM   31  H16 UNL     1      -3.855  51.283 -15.608  1.00  0.00     0.163 HD
BRANCH  30  32
HETATM   32  C15 UNL     1      -2.381  50.047 -16.510  1.00  0.00     0.225 C 
BRANCH  32  33
HETATM   33  C16 UNL     1      -2.628  50.608 -17.909  1.00  0.00     0.236 C 
HETATM   34  O4  UNL     1      -2.804  51.805 -18.122  1.00  0.00    -0.272 OA
HETATM   35  N3  UNL     1      -2.719  49.639 -18.881  1.00  0.00    -0.345 N 
HETATM   36  H19 UNL     1      -2.755  48.654 -18.595  1.00  0.00     0.163 HD
BRANCH  35  37
HETATM   37  C17 UNL     1      -2.914  49.940 -20.294  1.00  0.00     0.186 C 
BRANCH  37  38
HETATM   38  C18 UNL     1      -1.733  49.515 -21.178  1.00  0.00     0.077 C 
BRANCH  38  39
HETATM   39  C19 UNL     1      -1.069  50.603 -21.977  1.00  0.00    -0.028 A 
HETATM   40  C20 UNL     1      -1.120  50.801 -23.345  1.00  0.00     0.096 A 
HETATM   41  N4  UNL     1      -0.377  51.908 -23.649  1.00  0.00    -0.365 N 
HETATM   42  C21 UNL     1       0.157  52.458 -22.505  1.00  0.00     0.042 A 
HETATM   43  H24 UNL     1      -0.241  52.283 -24.579  1.00  0.00     0.165 HD
HETATM   44  C22 UNL     1       0.973  53.588 -22.346  1.00  0.00     0.030 A 
HETATM   45  C26 UNL     1      -0.260  51.663 -21.437  1.00  0.00    -0.002 A 
HETATM   46  C23 UNL     1       1.361  53.926 -21.047  1.00  0.00     0.002 A 
HETATM   47  C24 UNL     1       0.956  53.158 -19.958  1.00  0.00     0.001 A 
HETATM   48  C25 UNL     1       0.148  52.027 -20.136  1.00  0.00     0.014 A 
ENDBRANCH  38  39
ENDBRANCH  37  38
BRANCH  37  49
HETATM   49  C27 UNL     1      -4.222  49.353 -20.824  1.00  0.00     0.163 C 
HETATM   50  O5  UNL     1      -5.318  49.433 -20.289  1.00  0.00    -0.648 OA
BRANCH  49  51
HETATM   51  O6  UNL     1      -4.087  48.687 -21.991  1.00  0.00    -0.775 OA
HETATM   52  H29 UNL     1      -4.992  48.369 -22.202  1.00  0.00     0.167 HD
ENDBRANCH  49  51
ENDBRANCH  37  49
ENDBRANCH  35  37
ENDBRANCH  32  33
ENDBRANCH  30  32
ENDBRANCH  27  28
ENDBRANCH  26  27
ENDBRANCH  13  26
TORSDOF 11
ENDMDL
MODEL 7
REMARK minimizedAffinity -9.81952953
REMARK CNNscore 0.270684779
REMARK CNNaffinity 6.62665224
REMARK  11 active torsions:
REMARK  status: ('A' for Active; 'I' for Inactive)
REMARK    1  A    between atoms: C3_3  and  O1_4 
REMARK    2  A    between atoms: N1_14  and  O2_16 
REMARK    3  A    between atoms: O2_16  and  C13_17 
REMARK    4  A    between atoms: C13_17  and  C14_18 
REMARK       I    between atoms: C14_18  and  N2_20 
REMARK    5  A    between atoms: N2_20  and  C15_21 
REMARK    6  A    between atoms: C15_21  and  C16_22 
REMARK       I    between atoms: C16_22  and  N3_24 
REMARK    7  A    between atoms: N3_24  and  C17_25 
REMARK    8  A    between atoms: C17_25  and  C18_26 
REMARK    9  A    between atoms: C17_25  and  C27_36 
REMARK   10  A    between atoms: C18_26  and  C19_27 
REMARK   11  A    between atoms: C27_36  and  O6_38 
ROOT
HETATM    1  C1  UNL     1       0.362  51.654 -28.062  1.00  0.00     0.015 C 
HETATM    2  C2  UNL     1      -0.712  51.668 -27.525  1.00  0.00    -0.078 C 
HETATM    3  C3  UNL     1      -2.039  51.658 -26.865  1.00  0.00     0.128 C 
HETATM    4  C4  UNL     1      -2.963  50.665 -27.582  1.00  0.00     0.052 C 
HETATM    5  C5  UNL     1      -2.525  49.316 -27.029  1.00  0.00     0.010 C 
HETATM    6  C6  UNL     1      -2.200  49.575 -25.544  1.00  0.00     0.002 C 
HETATM    7  C7  UNL     1      -3.158  48.886 -24.521  1.00  0.00    -0.004 C 
HETATM    8  C8  UNL     1      -4.640  48.734 -24.927  1.00  0.00     0.010 C 
HETATM    9  C9  UNL     1      -5.463  47.992 -23.864  1.00  0.00     0.035 C 
HETATM   10  C10 UNL     1      -5.283  48.595 -22.489  1.00  0.00    -0.069 C 
HETATM   11  C11 UNL     1      -6.360  48.974 -21.781  1.00  0.00     0.030 C 
HETATM   12  C12 UNL     1      -6.211  49.677 -20.481  1.00  0.00     0.032 C 
HETATM   13  N1  UNL     1      -7.117  49.775 -19.557  1.00  0.00    -0.271 N 
ATOM     14  H1  UNL     1      -6.996  50.301 -18.692  1.00  0.00     0.194 HD
HETATM   15  C28 UNL     1      -4.896  50.380 -20.249  1.00  0.00     0.060 C 
HETATM   16  C29 UNL     1      -3.741  49.456 -20.609  1.00  0.00     0.020 C 
HETATM   17  C30 UNL     1      -3.844  48.764 -22.009  1.00  0.00    -0.016 C 
HETATM   18  C31 UNL     1      -3.201  47.361 -21.810  1.00  0.00     0.020 C 
HETATM   19  C32 UNL     1      -3.048  49.553 -23.122  1.00  0.00     0.002 C 
HETATM   20  C33 UNL     1      -3.435  51.049 -23.211  1.00  0.00     0.007 C 
HETATM   21  C34 UNL     1      -3.194  51.720 -24.567  1.00  0.00     0.014 C 
HETATM   22  C35 UNL     1      -2.024  51.125 -25.388  1.00  0.00     0.003 C 
HETATM   23  C36 UNL     1      -0.710  51.485 -24.653  1.00  0.00     0.020 C 
ENDROOT
BRANCH   3  24
HETATM   24  O1  UNL     1      -2.577  52.972 -26.946  1.00  0.00    -0.377 OA
HETATM   25  H2  UNL     1      -2.522  53.242 -27.876  1.00  0.00     0.211 HD
ENDBRANCH   3  24
BRANCH  13  26
HETATM   26  O2  UNL     1      -8.284  49.069 -19.892  1.00  0.00    -0.271 OA
BRANCH  26  27
HETATM   27  C13 UNL     1      -8.951  48.726 -18.682  1.00  0.00     0.303 C 
BRANCH  27  28
HETATM   28  C14 UNL     1      -9.617  47.367 -18.796  1.00  0.00     0.244 C 
HETATM   29  O3  UNL     1      -9.264  46.520 -19.614  1.00  0.00    -0.271 OA
HETATM   30  N2  UNL     1     -10.694  47.170 -17.966  1.00  0.00    -0.350 N 
HETATM   31  H16 UNL     1     -10.768  47.778 -17.158  1.00  0.00     0.163 HD
BRANCH  30  32
HETATM   32  C15 UNL     1     -11.420  45.917 -17.949  1.00  0.00     0.225 C 
BRANCH  32  33
HETATM   33  C16 UNL     1     -12.893  46.156 -18.281  1.00  0.00     0.236 C 
HETATM   34  O4  UNL     1     -13.800  45.484 -17.797  1.00  0.00    -0.272 OA
HETATM   35  N3  UNL     1     -13.089  47.128 -19.234  1.00  0.00    -0.345 N 
HETATM   36  H19 UNL     1     -12.273  47.506 -19.731  1.00  0.00     0.163 HD
BRANCH  35  37
HETATM   37  C17 UNL     1     -14.409  47.553 -19.682  1.00  0.00     0.186 C 
BRANCH  37  38
HETATM   38  C18 UNL     1     -15.191  46.451 -20.411  1.00  0.00     0.077 C 
BRANCH  38  39
HETATM   39  C19 UNL     1     -15.498  46.698 -21.864  1.00  0.00    -0.028 A 
HETATM   40  C20 UNL     1     -14.616  47.052 -22.868  1.00  0.00     0.096 A 
HETATM   41  N4  UNL     1     -15.316  47.170 -24.036  1.00  0.00    -0.365 N 
HETATM   42  C21 UNL     1     -16.648  46.886 -23.830  1.00  0.00     0.042 A 
HETATM   43  H24 UNL     1     -14.919  47.420 -24.933  1.00  0.00     0.165 HD
HETATM   44  C22 UNL     1     -17.718  46.882 -24.737  1.00  0.00     0.030 A 
HETATM   45  C26 UNL     1     -16.795  46.584 -22.476  1.00  0.00    -0.002 A 
HETATM   46  C23 UNL     1     -18.980  46.538 -24.244  1.00  0.00     0.002 A 
HETATM   47  C24 UNL     1     -19.160  46.223 -22.900  1.00  0.00     0.001 A 
HETATM   48  C25 UNL     1     -18.081  46.242 -22.005  1.00  0.00     0.014 A 
ENDBRANCH  38  39
ENDBRANCH  37  38
BRANCH  37  49
HETATM   49  C27 UNL     1     -15.238  48.133 -18.536  1.00  0.00     0.163 C 
HETATM   50  O5  UNL     1     -14.800  48.652 -17.519  1.00  0.00    -0.648 OA
BRANCH  49  51
HETATM   51  O6  UNL     1     -16.571  48.023 -18.718  1.00  0.00    -0.775 OA
HETATM   52  H29 UNL     1     -16.966  48.427 -17.914  1.00  0.00     0.167 HD
ENDBRANCH  49  51
ENDBRANCH  37  49
ENDBRANCH  35  37
ENDBRANCH  32  33
ENDBRANCH  30  32
ENDBRANCH  27  28
ENDBRANCH  26  27
ENDBRANCH  13  26
TORSDOF 11
ENDMDL
MODEL 8
REMARK minimizedAffinity -8.01261806
REMARK CNNscore 0.259232402
REMARK CNNaffinity 5.32141304
REMARK  11 active torsions:
REMARK  status: ('A' for Active; 'I' for Inactive)
REMARK    1  A    between atoms: C3_3  and  O1_4 
REMARK    2  A    between atoms: N1_14  and  O2_16 
REMARK    3  A    between atoms: O2_16  and  C13_17 
REMARK    4  A    between atoms: C13_17  and  C14_18 
REMARK       I    between atoms: C14_18  and  N2_20 
REMARK    5  A    between atoms: N2_20  and  C15_21 
REMARK    6  A    between atoms: C15_21  and  C16_22 
REMARK       I    between atoms: C16_22  and  N3_24 
REMARK    7  A    between atoms: N3_24  and  C17_25 
REMARK    8  A    between atoms: C17_25  and  C18_26 
REMARK    9  A    between atoms: C17_25  and  C27_36 
REMARK   10  A    between atoms: C18_26  and  C19_27 
REMARK   11  A    between atoms: C27_36  and  O6_38 
ROOT
HETATM    1  C1  UNL     1      -4.143  46.694 -32.638  1.00  0.00     0.015 C 
HETATM    2  C2  UNL     1      -5.294  46.705 -32.294  1.00  0.00    -0.078 C 
HETATM    3  C3  UNL     1      -6.710  46.694 -31.860  1.00  0.00     0.128 C 
HETATM    4  C4  UNL     1      -7.334  45.327 -32.174  1.00  0.00     0.052 C 
HETATM    5  C5  UNL     1      -6.835  44.445 -31.037  1.00  0.00     0.010 C 
HETATM    6  C6  UNL     1      -6.846  45.350 -29.789  1.00  0.00     0.002 C 
HETATM    7  C7  UNL     1      -7.885  44.960 -28.691  1.00  0.00    -0.004 C 
HETATM    8  C8  UNL     1      -9.224  44.354 -29.162  1.00  0.00     0.010 C 
HETATM    9  C9  UNL     1     -10.132  43.960 -27.989  1.00  0.00     0.035 C 
HETATM   10  C10 UNL     1     -10.309  45.096 -27.006  1.00  0.00    -0.069 C 
HETATM   11  C11 UNL     1     -11.545  45.501 -26.671  1.00  0.00     0.030 C 
HETATM   12  C12 UNL     1     -11.750  46.689 -25.803  1.00  0.00     0.032 C 
HETATM   13  N1  UNL     1     -12.824  46.968 -25.131  1.00  0.00    -0.271 N 
ATOM     14  H1  UNL     1     -12.948  47.815 -24.577  1.00  0.00     0.194 HD
HETATM   15  C28 UNL     1     -10.613  47.680 -25.748  1.00  0.00     0.060 C 
HETATM   16  C29 UNL     1      -9.296  46.949 -25.525  1.00  0.00     0.020 C 
HETATM   17  C30 UNL     1      -9.027  45.739 -26.481  1.00  0.00    -0.016 C 
HETATM   18  C31 UNL     1      -8.253  44.706 -25.612  1.00  0.00     0.020 C 
HETATM   19  C32 UNL     1      -8.142  46.149 -27.723  1.00  0.00     0.002 C 
HETATM   20  C33 UNL     1      -8.703  47.362 -28.505  1.00  0.00     0.007 C 
HETATM   21  C34 UNL     1      -8.292  47.452 -29.978  1.00  0.00     0.014 C 
HETATM   22  C35 UNL     1      -6.915  46.828 -30.309  1.00  0.00     0.003 C 
HETATM   23  C36 UNL     1      -5.832  47.720 -29.655  1.00  0.00     0.020 C 
ENDROOT
BRANCH   3  24
HETATM   24  O1  UNL     1      -7.394  47.717 -32.573  1.00  0.00    -0.377 OA
HETATM   25  H2  UNL     1      -7.195  47.587 -33.513  1.00  0.00     0.211 HD
ENDBRANCH   3  24
BRANCH  13  26
HETATM   26  O2  UNL     1     -13.797  45.963 -25.259  1.00  0.00    -0.271 OA
BRANCH  26  27
HETATM   27  C13 UNL     1     -15.024  46.584 -25.625  1.00  0.00     0.303 C 
BRANCH  27  28
HETATM   28  C14 UNL     1     -16.067  46.410 -24.537  1.00  0.00     0.244 C 
HETATM   29  O3  UNL     1     -15.879  45.712 -23.542  1.00  0.00    -0.271 OA
HETATM   30  N2  UNL     1     -17.270  47.031 -24.772  1.00  0.00    -0.350 N 
HETATM   31  H16 UNL     1     -17.273  47.782 -25.453  1.00  0.00     0.163 HD
BRANCH  30  32
HETATM   32  C15 UNL     1     -18.356  46.968 -23.816  1.00  0.00     0.225 C 
BRANCH  32  33
HETATM   33  C16 UNL     1     -19.431  45.996 -24.300  1.00  0.00     0.236 C 
HETATM   34  O4  UNL     1     -20.270  46.301 -25.144  1.00  0.00    -0.272 OA
HETATM   35  N3  UNL     1     -19.417  44.790 -23.640  1.00  0.00    -0.345 N 
HETATM   36  H19 UNL     1     -18.813  44.683 -22.817  1.00  0.00     0.163 HD
BRANCH  35  37
HETATM   37  C17 UNL     1     -20.324  43.693 -23.958  1.00  0.00     0.186 C 
BRANCH  37  38
HETATM   38  C18 UNL     1     -19.624  42.486 -24.597  1.00  0.00     0.077 C 
BRANCH  38  39
HETATM   39  C19 UNL     1     -18.564  42.792 -25.621  1.00  0.00    -0.028 A 
HETATM   40  C20 UNL     1     -17.202  42.916 -25.420  1.00  0.00     0.096 A 
HETATM   41  N4  UNL     1     -16.611  43.195 -26.621  1.00  0.00    -0.365 N 
HETATM   42  C21 UNL     1     -17.556  43.245 -27.621  1.00  0.00     0.042 A 
HETATM   43  H24 UNL     1     -15.620  43.336 -26.766  1.00  0.00     0.165 HD
HETATM   44  C22 UNL     1     -17.402  43.497 -28.993  1.00  0.00     0.030 A 
HETATM   45  C26 UNL     1     -18.793  42.995 -27.026  1.00  0.00    -0.002 A 
HETATM   46  C23 UNL     1     -18.552  43.473 -29.786  1.00  0.00     0.002 A 
HETATM   47  C24 UNL     1     -19.801  43.219 -29.226  1.00  0.00     0.001 A 
HETATM   48  C25 UNL     1     -19.938  42.979 -27.852  1.00  0.00     0.014 A 
ENDBRANCH  38  39
ENDBRANCH  37  38
BRANCH  37  49
HETATM   49  C27 UNL     1     -21.140  43.260 -22.739  1.00  0.00     0.163 C 
HETATM   50  O5  UNL     1     -20.938  43.593 -21.580  1.00  0.00    -0.648 OA
BRANCH  49  51
HETATM   51  O6  UNL     1     -22.158  42.425 -23.035  1.00  0.00    -0.775 OA
HETATM   52  H29 UNL     1     -22.581  42.232 -22.170  1.00  0.00     0.167 HD
ENDBRANCH  49  51
ENDBRANCH  37  49
ENDBRANCH  35  37
ENDBRANCH  32  33
ENDBRANCH  30  32
ENDBRANCH  27  28
ENDBRANCH  26  27
ENDBRANCH  13  26
TORSDOF 11
ENDMDL
MODEL 9
REMARK minimizedAffinity -9.42044353
REMARK CNNscore 0.237372935
REMARK CNNaffinity 6.17644167
REMARK  11 active torsions:
REMARK  status: ('A' for Active; 'I' for Inactive)
REMARK    1  A    between atoms: C3_3  and  O1_4 
REMARK    2  A    between atoms: N1_14  and  O2_16 
REMARK    3  A    between atoms: O2_16  and  C13_17 
REMARK    4  A    between atoms: C13_17  and  C14_18 
REMARK       I    between atoms: C14_18  and  N2_20 
REMARK    5  A    between atoms: N2_20  and  C15_21 
REMARK    6  A    between atoms: C15_21  and  C16_22 
REMARK       I    between atoms: C16_22  and  N3_24 
REMARK    7  A    between atoms: N3_24  and  C17_25 
REMARK    8  A    between atoms: C17_25  and  C18_26 
REMARK    9  A    between atoms: C17_25  and  C27_36 
REMARK   10  A    between atoms: C18_26  and  C19_27 
REMARK   11  A    between atoms: C27_36  and  O6_38 
ROOT
HETATM    1  C1  UNL     1       0.360  51.335 -26.341  1.00  0.00     0.015 C 
HETATM    2  C2  UNL     1      -0.778  51.370 -25.955  1.00  0.00    -0.078 C 
HETATM    3  C3  UNL     1      -2.183  51.388 -25.488  1.00  0.00     0.128 C 
HETATM    4  C4  UNL     1      -3.066  50.617 -26.479  1.00  0.00     0.052 C 
HETATM    5  C5  UNL     1      -2.817  49.161 -26.112  1.00  0.00     0.010 C 
HETATM    6  C6  UNL     1      -2.695  49.147 -24.575  1.00  0.00     0.002 C 
HETATM    7  C7  UNL     1      -3.841  48.404 -23.820  1.00  0.00    -0.004 C 
HETATM    8  C8  UNL     1      -5.255  48.466 -24.438  1.00  0.00     0.010 C 
HETATM    9  C9  UNL     1      -6.279  47.651 -23.636  1.00  0.00     0.035 C 
HETATM   10  C10 UNL     1      -6.257  48.006 -22.166  1.00  0.00    -0.069 C 
HETATM   11  C11 UNL     1      -7.394  48.373 -21.552  1.00  0.00     0.030 C 
HETATM   12  C12 UNL     1      -7.384  48.843 -20.143  1.00  0.00     0.032 C 
HETATM   13  N1  UNL     1      -8.405  48.882 -19.343  1.00  0.00    -0.271 N 
ATOM     14  H1  UNL     1      -8.372  49.250 -18.392  1.00  0.00     0.194 HD
HETATM   15  C28 UNL     1      -6.067  49.366 -19.623  1.00  0.00     0.060 C 
HETATM   16  C29 UNL     1      -4.946  48.401 -19.980  1.00  0.00     0.020 C 
HETATM   17  C30 UNL     1      -4.894  47.953 -21.479  1.00  0.00    -0.016 C 
HETATM   18  C31 UNL     1      -4.396  46.479 -21.440  1.00  0.00     0.020 C 
HETATM   19  C32 UNL     1      -3.887  48.826 -22.325  1.00  0.00     0.002 C 
HETATM   20  C33 UNL     1      -4.142  50.348 -22.208  1.00  0.00     0.007 C 
HETATM   21  C34 UNL     1      -3.655  51.198 -23.386  1.00  0.00     0.014 C 
HETATM   22  C35 UNL     1      -2.426  50.628 -24.135  1.00  0.00     0.003 C 
HETATM   23  C36 UNL     1      -1.210  50.734 -23.182  1.00  0.00     0.020 C 
ENDROOT
BRANCH   3  24
HETATM   24  O1  UNL     1      -2.602  52.744 -25.413  1.00  0.00    -0.377 OA
HETATM   25  H2  UNL     1      -2.392  53.152 -26.267  1.00  0.00     0.211 HD
ENDBRANCH   3  24
BRANCH  13  26
HETATM   26  O2  UNL     1      -9.560  48.358 -19.944  1.00  0.00    -0.271 OA
BRANCH  26  27
HETATM   27  C13 UNL     1     -10.096  47.367 -19.074  1.00  0.00     0.303 C 
BRANCH  27  28
HETATM   28  C14 UNL     1     -11.609  47.468 -19.002  1.00  0.00     0.244 C 
HETATM   29  O3  UNL     1     -12.245  47.195 -17.986  1.00  0.00    -0.271 OA
HETATM   30  N2  UNL     1     -12.230  47.819 -20.176  1.00  0.00    -0.350 N 
HETATM   31  H16 UNL     1     -11.659  48.275 -20.879  1.00  0.00     0.163 HD
BRANCH  30  32
HETATM   32  C15 UNL     1     -13.669  47.972 -20.257  1.00  0.00     0.225 C 
BRANCH  32  33
HETATM   33  C16 UNL     1     -14.215  47.196 -21.455  1.00  0.00     0.236 C 
HETATM   34  O4  UNL     1     -15.273  46.574 -21.415  1.00  0.00    -0.272 OA
HETATM   35  N3  UNL     1     -13.368  47.193 -22.538  1.00  0.00    -0.345 N 
HETATM   36  H19 UNL     1     -12.420  47.571 -22.427  1.00  0.00     0.163 HD
BRANCH  35  37
HETATM   37  C17 UNL     1     -13.695  46.550 -23.806  1.00  0.00     0.186 C 
BRANCH  37  38
HETATM   38  C18 UNL     1     -14.854  47.223 -24.552  1.00  0.00     0.077 C 
BRANCH  38  39
HETATM   39  C19 UNL     1     -15.771  46.313 -25.325  1.00  0.00    -0.028 A 
HETATM   40  C20 UNL     1     -15.428  45.391 -26.297  1.00  0.00     0.096 A 
HETATM   41  N4  UNL     1     -16.570  44.779 -26.734  1.00  0.00    -0.365 N 
HETATM   42  C21 UNL     1     -17.666  45.269 -26.060  1.00  0.00     0.042 A 
HETATM   43  H24 UNL     1     -16.612  44.060 -27.444  1.00  0.00     0.165 HD
HETATM   44  C22 UNL     1     -19.022  44.932 -26.182  1.00  0.00     0.030 A 
HETATM   45  C26 UNL     1     -17.198  46.233 -25.166  1.00  0.00    -0.002 A 
HETATM   46  C23 UNL     1     -19.929  45.591 -25.348  1.00  0.00     0.002 A 
HETATM   47  C24 UNL     1     -19.494  46.553 -24.440  1.00  0.00     0.001 A 
HETATM   48  C25 UNL     1     -18.137  46.885 -24.337  1.00  0.00     0.014 A 
ENDBRANCH  38  39
ENDBRANCH  37  38
BRANCH  37  49
HETATM   49  C27 UNL     1     -12.469  46.428 -24.711  1.00  0.00     0.163 C 
HETATM   50  O5  UNL     1     -11.694  47.327 -25.003  1.00  0.00    -0.648 OA
BRANCH  49  51
HETATM   51  O6  UNL     1     -12.284  45.188 -25.213  1.00  0.00    -0.775 OA
HETATM   52  H29 UNL     1     -11.477  45.262 -25.768  1.00  0.00     0.167 HD
ENDBRANCH  49  51
ENDBRANCH  37  49
ENDBRANCH  35  37
ENDBRANCH  32  33
ENDBRANCH  30  32
ENDBRANCH  27  28
ENDBRANCH  26  27
ENDBRANCH  13  26
TORSDOF 11
ENDMDL
