MODEL 1
REMARK minimizedAffinity -7.78613806
REMARK CNNscore 0.621810973
REMARK CNNaffinity 7.30272055
REMARK  7 active torsions:
REMARK  status: ('A' for Active; 'I' for Inactive)
REMARK    1  A    between atoms: C3_3  and  C5_5 
REMARK    2  A    between atoms: C24_26  and  O3_27 
REMARK    3  A    between atoms: C30_35  and  O6_36 
REMARK    4  A    between atoms: C31_38  and  O8_39 
REMARK    5  A    between atoms: C32_40  and  O9_41 
REMARK    6  A    between atoms: O9_41  and  C33_42 
REMARK    7  A    between atoms: C33_42  and  C34_44 
ROOT
HETATM    1  C5  UNL     1      -8.821  42.753 -21.122  1.00  0.00     0.160 C 
HETATM    2  O1  UNL     1      -9.302  44.093 -21.254  1.00  0.00    -0.342 OA
HETATM    3  C6  UNL     1      -8.954  44.700 -22.510  1.00  0.00     0.196 C 
HETATM    4  C7  UNL     1      -9.089  46.227 -22.279  1.00  0.00     0.104 C 
HETATM    5  C8  UNL     1      -9.678  46.948 -23.485  1.00  0.00     0.139 C 
HETATM    6  C9  UNL     1     -11.029  46.344 -23.885  1.00  0.00     0.065 C 
HETATM    7  C10 UNL     1     -11.155  44.879 -23.446  1.00  0.00     0.131 C 
HETATM    8  C11 UNL     1     -12.121  44.061 -24.324  1.00  0.00     0.059 C 
HETATM    9  C12 UNL     1     -13.505  44.647 -24.451  1.00  0.00    -0.022 C 
HETATM   10  C13 UNL     1     -14.339  44.555 -25.510  1.00  0.00    -0.087 C 
HETATM   11  C14 UNL     1     -15.701  45.198 -25.436  1.00  0.00     0.043 C 
HETATM   12  C15 UNL     1     -14.055  43.727 -26.754  1.00  0.00     0.041 C 
HETATM   13  C16 UNL     1     -13.700  44.463 -28.074  1.00  0.00     0.008 C 
HETATM   14  C17 UNL     1     -14.918  45.129 -28.724  1.00  0.00     0.014 C 
HETATM   15  C18 UNL     1     -12.484  45.352 -27.914  1.00  0.00    -0.022 C 
HETATM   16  C19 UNL     1     -12.380  46.658 -28.207  1.00  0.00    -0.003 C 
HETATM   17  C20 UNL     1     -11.197  47.444 -27.942  1.00  0.00     0.008 C 
HETATM   18  C21 UNL     1      -9.947  47.172 -28.350  1.00  0.00    -0.019 C 
HETATM   19  C22 UNL     1      -9.502  46.052 -29.254  1.00  0.00     0.206 C 
HETATM   20  O2  UNL     1      -8.097  46.285 -29.517  1.00  0.00    -0.375 OA
HETATM   21  C23 UNL     1      -7.905  47.699 -29.278  1.00  0.00     0.194 C 
HETATM   22  C24 UNL     1      -6.415  48.079 -29.155  1.00  0.00     0.179 C 
HETATM   23  C25 UNL     1      -5.818  48.017 -27.765  1.00  0.00    -0.056 C 
HETATM   24  C26 UNL     1      -4.351  48.333 -27.660  1.00  0.00     0.046 C 
HETATM   25  C27 UNL     1      -6.553  47.730 -26.675  1.00  0.00    -0.004 C 
HETATM   26  C28 UNL     1      -8.018  47.399 -26.761  1.00  0.00     0.150 C 
HETATM   27  C29 UNL     1      -8.761  47.823 -25.506  1.00  0.00     0.270 C 
HETATM   28  O4  UNL     1      -9.305  48.913 -25.356  1.00  0.00    -0.264 OA
HETATM   29  O5  UNL     1      -8.759  46.816 -24.590  1.00  0.00    -0.315 OA
HETATM   30  C30 UNL     1      -8.719  47.986 -28.021  1.00  0.00     0.128 C 
HETATM   31  O7  UNL     1      -9.870  44.261 -23.525  1.00  0.00    -0.347 OA
HETATM   32  C31 UNL     1      -7.490  44.321 -22.939  1.00  0.00     0.210 C 
HETATM   33  C32 UNL     1      -6.641  43.956 -21.708  1.00  0.00     0.172 C 
HETATM   34  C37 UNL     1      -7.291  42.805 -20.892  1.00  0.00     0.047 C 
HETATM   35  C38 UNL     1      -6.624  41.464 -21.218  1.00  0.00     0.015 C 
ENDROOT
BRANCH  32  36
HETATM   36  O8  UNL     1      -7.463  43.194 -23.839  1.00  0.00    -0.387 OA
HETATM   37  H42 UNL     1      -6.593  43.183 -24.272  1.00  0.00     0.210 HD
ENDBRANCH  32  36
BRANCH   1  38
HETATM   38  C3  UNL     1      -9.572  42.084 -19.968  1.00  0.00    -0.059 C 
HETATM   39  C2  UNL     1     -10.780  41.500 -20.137  1.00  0.00    -0.026 C 
HETATM   40  C1  UNL     1     -11.617  40.829 -19.097  1.00  0.00     0.036 C 
HETATM   41  C4  UNL     1      -8.847  42.062 -18.648  1.00  0.00     0.046 C 
ENDBRANCH   1  38
BRANCH  33  42
HETATM   42  O9  UNL     1      -6.493  45.128 -20.874  1.00  0.00    -0.312 OA
BRANCH  42  43
HETATM   43  C33 UNL     1      -5.466  45.964 -21.199  1.00  0.00     0.262 C 
HETATM   44  O10 UNL     1      -5.606  47.013 -21.814  1.00  0.00    -0.265 OA
BRANCH  43  45
HETATM   45  C34 UNL     1      -4.125  45.383 -20.776  1.00  0.00     0.077 C 
HETATM   46  C35 UNL     1      -2.998  46.356 -21.124  1.00  0.00     0.020 C 
HETATM   47  C36 UNL     1      -4.072  45.047 -19.285  1.00  0.00     0.020 C 
ENDBRANCH  43  45
ENDBRANCH  42  43
ENDBRANCH  33  42
BRANCH  30  48
HETATM   48  O6  UNL     1      -8.999  49.381 -27.970  1.00  0.00    -0.381 OA
HETATM   49  H40 UNL     1      -9.290  49.604 -27.061  1.00  0.00     0.211 HD
ENDBRANCH  30  48
BRANCH  22  50
HETATM   50  O3  UNL     1      -5.641  47.246 -30.019  1.00  0.00    -0.389 OA
HETATM   51  H34 UNL     1      -6.171  46.431 -30.133  1.00  0.00     0.210 HD
ENDBRANCH  22  50
TORSDOF 7
ENDMDL
MODEL 2
REMARK minimizedAffinity -7.8936553
REMARK CNNscore 0.461586803
REMARK CNNaffinity 6.35515594
REMARK  7 active torsions:
REMARK  status: ('A' for Active; 'I' for Inactive)
REMARK    1  A    between atoms: C3_3  and  C5_5 
REMARK    2  A    between atoms: C24_26  and  O3_27 
REMARK    3  A    between atoms: C30_35  and  O6_36 
REMARK    4  A    between atoms: C31_38  and  O8_39 
REMARK    5  A    between atoms: C32_40  and  O9_41 
REMARK    6  A    between atoms: O9_41  and  C33_42 
REMARK    7  A    between atoms: C33_42  and  C34_44 
ROOT
HETATM    1  C5  UNL     1      -8.086  46.813 -28.194  1.00  0.00     0.160 C 
HETATM    2  O1  UNL     1      -8.434  47.718 -27.141  1.00  0.00    -0.342 OA
HETATM    3  C6  UNL     1      -8.386  47.115 -25.838  1.00  0.00     0.196 C 
HETATM    4  C7  UNL     1      -9.248  48.031 -24.931  1.00  0.00     0.104 C 
HETATM    5  C8  UNL     1      -8.654  48.195 -23.537  1.00  0.00     0.139 C 
HETATM    6  C9  UNL     1      -7.213  48.712 -23.607  1.00  0.00     0.065 C 
HETATM    7  C10 UNL     1      -6.538  48.350 -24.937  1.00  0.00     0.131 C 
HETATM    8  C11 UNL     1      -5.004  48.247 -24.833  1.00  0.00     0.059 C 
HETATM    9  C12 UNL     1      -4.328  49.472 -24.267  1.00  0.00    -0.022 C 
HETATM   10  C13 UNL     1      -3.194  49.515 -23.533  1.00  0.00    -0.087 C 
HETATM   11  C14 UNL     1      -2.664  50.849 -23.072  1.00  0.00     0.043 C 
HETATM   12  C15 UNL     1      -2.320  48.306 -23.235  1.00  0.00     0.041 C 
HETATM   13  C16 UNL     1      -2.317  47.726 -21.795  1.00  0.00     0.008 C 
HETATM   14  C17 UNL     1      -1.541  48.605 -20.807  1.00  0.00     0.014 C 
HETATM   15  C18 UNL     1      -3.706  47.320 -21.349  1.00  0.00    -0.022 C 
HETATM   16  C19 UNL     1      -4.351  47.698 -20.233  1.00  0.00    -0.003 C 
HETATM   17  C20 UNL     1      -5.713  47.321 -19.932  1.00  0.00     0.008 C 
HETATM   18  C21 UNL     1      -6.207  46.073 -19.890  1.00  0.00    -0.019 C 
HETATM   19  C22 UNL     1      -5.448  44.781 -20.047  1.00  0.00     0.206 C 
HETATM   20  O2  UNL     1      -6.396  43.724 -19.764  1.00  0.00    -0.375 OA
HETATM   21  C23 UNL     1      -7.421  44.351 -18.957  1.00  0.00     0.194 C 
HETATM   22  C24 UNL     1      -8.698  43.491 -18.852  1.00  0.00     0.179 C 
HETATM   23  C25 UNL     1      -9.749  43.716 -19.918  1.00  0.00    -0.056 C 
HETATM   24  C26 UNL     1     -10.966  42.834 -19.844  1.00  0.00     0.046 C 
HETATM   25  C27 UNL     1      -9.630  44.667 -20.862  1.00  0.00    -0.004 C 
HETATM   26  C28 UNL     1      -8.416  45.549 -20.960  1.00  0.00     0.150 C 
HETATM   27  C29 UNL     1      -8.763  46.916 -21.526  1.00  0.00     0.270 C 
HETATM   28  O4  UNL     1      -9.068  47.892 -20.847  1.00  0.00    -0.264 OA
HETATM   29  O5  UNL     1      -8.660  46.908 -22.884  1.00  0.00    -0.315 OA
HETATM   30  C30 UNL     1      -7.646  45.708 -19.616  1.00  0.00     0.128 C 
HETATM   31  O7  UNL     1      -7.027  47.082 -25.373  1.00  0.00    -0.347 OA
HETATM   32  C31 UNL     1      -8.956  45.651 -25.865  1.00  0.00     0.210 C 
HETATM   33  C32 UNL     1      -9.934  45.471 -27.041  1.00  0.00     0.172 C 
HETATM   34  C37 UNL     1      -9.262  45.827 -28.396  1.00  0.00     0.047 C 
HETATM   35  C38 UNL     1      -8.815  44.557 -29.131  1.00  0.00     0.015 C 
ENDROOT
BRANCH  32  36
HETATM   36  O8  UNL     1      -7.913  44.665 -26.009  1.00  0.00    -0.387 OA
HETATM   37  H42 UNL     1      -8.283  43.804 -25.750  1.00  0.00     0.210 HD
ENDBRANCH  32  36
BRANCH   1  38
HETATM   38  C3  UNL     1      -7.777  47.633 -29.449  1.00  0.00    -0.059 C 
HETATM   39  C2  UNL     1      -6.657  47.437 -30.181  1.00  0.00    -0.026 C 
HETATM   40  C1  UNL     1      -6.235  48.173 -31.411  1.00  0.00     0.036 C 
HETATM   41  C4  UNL     1      -8.835  48.629 -29.851  1.00  0.00     0.046 C 
ENDBRANCH   1  38
BRANCH  33  42
HETATM   42  O9  UNL     1     -11.087  46.316 -26.827  1.00  0.00    -0.312 OA
BRANCH  42  43
HETATM   43  C33 UNL     1     -12.300  45.695 -26.891  1.00  0.00     0.262 C 
HETATM   44  O10 UNL     1     -12.473  44.506 -26.659  1.00  0.00    -0.265 OA
BRANCH  43  45
HETATM   45  C34 UNL     1     -13.385  46.650 -27.368  1.00  0.00     0.077 C 
HETATM   46  C35 UNL     1     -12.763  47.980 -27.795  1.00  0.00     0.020 C 
HETATM   47  C36 UNL     1     -14.211  46.074 -28.519  1.00  0.00     0.020 C 
ENDBRANCH  43  45
ENDBRANCH  42  43
ENDBRANCH  33  42
BRANCH  30  48
HETATM   48  O6  UNL     1      -8.249  46.580 -18.666  1.00  0.00    -0.381 OA
HETATM   49  H40 UNL     1      -8.621  47.349 -19.146  1.00  0.00     0.211 HD
ENDBRANCH  30  48
BRANCH  22  50
HETATM   50  O3  UNL     1      -8.339  42.109 -18.852  1.00  0.00    -0.389 OA
HETATM   51  H34 UNL     1      -7.477  42.067 -19.315  1.00  0.00     0.210 HD
ENDBRANCH  22  50
TORSDOF 7
ENDMDL
MODEL 3
REMARK minimizedAffinity -9.96799564
REMARK CNNscore 0.397498071
REMARK CNNaffinity 6.91273165
REMARK  7 active torsions:
REMARK  status: ('A' for Active; 'I' for Inactive)
REMARK    1  A    between atoms: C3_3  and  C5_5 
REMARK    2  A    between atoms: C24_26  and  O3_27 
REMARK    3  A    between atoms: C30_35  and  O6_36 
REMARK    4  A    between atoms: C31_38  and  O8_39 
REMARK    5  A    between atoms: C32_40  and  O9_41 
REMARK    6  A    between atoms: O9_41  and  C33_42 
REMARK    7  A    between atoms: C33_42  and  C34_44 
ROOT
HETATM    1  C5  UNL     1      -5.131  49.337 -24.641  1.00  0.00     0.160 C 
HETATM    2  O1  UNL     1      -5.501  47.958 -24.735  1.00  0.00    -0.342 OA
HETATM    3  C6  UNL     1      -6.924  47.753 -24.748  1.00  0.00     0.196 C 
HETATM    4  C7  UNL     1      -7.128  46.270 -24.343  1.00  0.00     0.104 C 
HETATM    5  C8  UNL     1      -8.253  45.603 -25.125  1.00  0.00     0.139 C 
HETATM    6  C9  UNL     1      -8.021  45.721 -26.636  1.00  0.00     0.065 C 
HETATM    7  C10 UNL     1      -7.150  46.933 -26.990  1.00  0.00     0.131 C 
HETATM    8  C11 UNL     1      -7.406  47.473 -28.410  1.00  0.00     0.059 C 
HETATM    9  C12 UNL     1      -7.270  46.445 -29.507  1.00  0.00    -0.022 C 
HETATM   10  C13 UNL     1      -7.946  46.403 -30.677  1.00  0.00    -0.087 C 
HETATM   11  C14 UNL     1      -7.653  45.297 -31.659  1.00  0.00     0.043 C 
HETATM   12  C15 UNL     1      -8.912  47.480 -31.147  1.00  0.00     0.041 C 
HETATM   13  C16 UNL     1     -10.433  47.170 -31.142  1.00  0.00     0.008 C 
HETATM   14  C17 UNL     1     -10.846  46.222 -32.274  1.00  0.00     0.014 C 
HETATM   15  C18 UNL     1     -10.925  46.785 -29.762  1.00  0.00    -0.022 C 
HETATM   16  C19 UNL     1     -11.610  45.682 -29.415  1.00  0.00    -0.003 C 
HETATM   17  C20 UNL     1     -11.966  45.360 -28.052  1.00  0.00     0.008 C 
HETATM   18  C21 UNL     1     -12.637  46.145 -27.193  1.00  0.00    -0.019 C 
HETATM   19  C22 UNL     1     -13.257  47.489 -27.473  1.00  0.00     0.206 C 
HETATM   20  O2  UNL     1     -13.995  47.845 -26.278  1.00  0.00    -0.375 OA
HETATM   21  C23 UNL     1     -14.258  46.585 -25.616  1.00  0.00     0.194 C 
HETATM   22  C24 UNL     1     -14.716  46.772 -24.155  1.00  0.00     0.179 C 
HETATM   23  C25 UNL     1     -13.623  46.809 -23.108  1.00  0.00    -0.056 C 
HETATM   24  C26 UNL     1     -14.070  47.048 -21.692  1.00  0.00     0.046 C 
HETATM   25  C27 UNL     1     -12.327  46.608 -23.408  1.00  0.00    -0.004 C 
HETATM   26  C28 UNL     1     -11.858  46.379 -24.819  1.00  0.00     0.150 C 
HETATM   27  C29 UNL     1     -10.621  45.498 -24.861  1.00  0.00     0.270 C 
HETATM   28  O4  UNL     1     -10.643  44.276 -24.970  1.00  0.00    -0.264 OA
HETATM   29  O5  UNL     1      -9.494  46.258 -24.787  1.00  0.00    -0.315 OA
HETATM   30  C30 UNL     1     -12.957  45.802 -25.758  1.00  0.00     0.128 C 
HETATM   31  O7  UNL     1      -7.432  47.988 -26.070  1.00  0.00    -0.347 OA
HETATM   32  C31 UNL     1      -7.648  48.717 -23.739  1.00  0.00     0.210 C 
HETATM   33  C32 UNL     1      -6.686  49.153 -22.619  1.00  0.00     0.172 C 
HETATM   34  C37 UNL     1      -5.407  49.818 -23.196  1.00  0.00     0.047 C 
HETATM   35  C38 UNL     1      -5.507  51.346 -23.119  1.00  0.00     0.015 C 
ENDROOT
BRANCH  32  36
HETATM   36  O8  UNL     1      -8.135  49.911 -24.385  1.00  0.00    -0.387 OA
HETATM   37  H42 UNL     1      -8.789  50.321 -23.794  1.00  0.00     0.210 HD
ENDBRANCH  32  36
BRANCH   1  38
HETATM   38  C3  UNL     1      -3.658  49.467 -25.040  1.00  0.00    -0.059 C 
HETATM   39  C2  UNL     1      -2.832  50.367 -24.461  1.00  0.00    -0.026 C 
HETATM   40  C1  UNL     1      -1.388  50.601 -24.766  1.00  0.00     0.036 C 
HETATM   41  C4  UNL     1      -3.176  48.481 -26.073  1.00  0.00     0.046 C 
ENDBRANCH   1  38
BRANCH  33  42
HETATM   42  O9  UNL     1      -6.325  47.994 -21.832  1.00  0.00    -0.312 OA
BRANCH  42  43
HETATM   43  C33 UNL     1      -5.160  48.092 -21.129  1.00  0.00     0.262 C 
HETATM   44  O10 UNL     1      -4.956  48.925 -20.256  1.00  0.00    -0.265 OA
BRANCH  43  45
HETATM   45  C34 UNL     1      -4.127  47.094 -21.629  1.00  0.00     0.077 C 
HETATM   46  C35 UNL     1      -2.766  47.775 -21.774  1.00  0.00     0.020 C 
HETATM   47  C36 UNL     1      -3.996  45.873 -20.717  1.00  0.00     0.020 C 
ENDBRANCH  43  45
ENDBRANCH  42  43
ENDBRANCH  33  42
BRANCH  30  48
HETATM   48  O6  UNL     1     -13.240  44.417 -25.588  1.00  0.00    -0.381 OA
HETATM   49  H40 UNL     1     -12.396  43.947 -25.426  1.00  0.00     0.211 HD
ENDBRANCH  30  48
BRANCH  22  50
HETATM   50  O3  UNL     1     -15.487  47.969 -24.049  1.00  0.00    -0.389 OA
HETATM   51  H34 UNL     1     -15.185  48.535 -24.789  1.00  0.00     0.210 HD
ENDBRANCH  22  50
TORSDOF 7
ENDMDL
MODEL 4
REMARK minimizedAffinity -8.86565781
REMARK CNNscore 0.325857878
REMARK CNNaffinity 6.60379267
REMARK  7 active torsions:
REMARK  status: ('A' for Active; 'I' for Inactive)
REMARK    1  A    between atoms: C3_3  and  C5_5 
REMARK    2  A    between atoms: C24_26  and  O3_27 
REMARK    3  A    between atoms: C30_35  and  O6_36 
REMARK    4  A    between atoms: C31_38  and  O8_39 
REMARK    5  A    between atoms: C32_40  and  O9_41 
REMARK    6  A    between atoms: O9_41  and  C33_42 
REMARK    7  A    between atoms: C33_42  and  C34_44 
ROOT
HETATM    1  C5  UNL     1      -4.884  49.959 -24.269  1.00  0.00     0.160 C 
HETATM    2  O1  UNL     1      -5.035  48.567 -23.973  1.00  0.00    -0.342 OA
HETATM    3  C6  UNL     1      -6.236  48.269 -23.242  1.00  0.00     0.196 C 
HETATM    4  C7  UNL     1      -5.986  46.885 -22.590  1.00  0.00     0.104 C 
HETATM    5  C8  UNL     1      -7.229  46.003 -22.602  1.00  0.00     0.139 C 
HETATM    6  C9  UNL     1      -7.776  45.837 -24.025  1.00  0.00     0.065 C 
HETATM    7  C10 UNL     1      -7.383  47.012 -24.931  1.00  0.00     0.131 C 
HETATM    8  C11 UNL     1      -8.372  47.243 -26.090  1.00  0.00     0.059 C 
HETATM    9  C12 UNL     1      -8.623  46.032 -26.953  1.00  0.00    -0.022 C 
HETATM   10  C13 UNL     1      -9.763  45.715 -27.608  1.00  0.00    -0.087 C 
HETATM   11  C14 UNL     1      -9.812  44.460 -28.441  1.00  0.00     0.043 C 
HETATM   12  C15 UNL     1     -10.990  46.612 -27.673  1.00  0.00     0.041 C 
HETATM   13  C16 UNL     1     -12.252  46.209 -26.863  1.00  0.00     0.008 C 
HETATM   14  C17 UNL     1     -13.005  45.032 -27.492  1.00  0.00     0.014 C 
HETATM   15  C18 UNL     1     -11.951  46.070 -25.384  1.00  0.00    -0.022 C 
HETATM   16  C19 UNL     1     -12.203  45.015 -24.593  1.00  0.00    -0.003 C 
HETATM   17  C20 UNL     1     -11.804  44.944 -23.206  1.00  0.00     0.008 C 
HETATM   18  C21 UNL     1     -12.091  45.835 -22.244  1.00  0.00    -0.019 C 
HETATM   19  C22 UNL     1     -12.970  47.054 -22.356  1.00  0.00     0.206 C 
HETATM   20  O2  UNL     1     -13.086  47.588 -21.015  1.00  0.00    -0.375 OA
HETATM   21  C23 UNL     1     -12.799  46.468 -20.145  1.00  0.00     0.194 C 
HETATM   22  C24 UNL     1     -12.518  46.908 -18.692  1.00  0.00     0.179 C 
HETATM   23  C25 UNL     1     -11.077  47.222 -18.351  1.00  0.00    -0.056 C 
HETATM   24  C26 UNL     1     -10.819  47.705 -16.950  1.00  0.00     0.046 C 
HETATM   25  C27 UNL     1     -10.073  47.053 -19.230  1.00  0.00    -0.004 C 
HETATM   26  C28 UNL     1     -10.313  46.583 -20.639  1.00  0.00     0.150 C 
HETATM   27  C29 UNL     1      -9.129  45.795 -21.174  1.00  0.00     0.270 C 
HETATM   28  O4  UNL     1      -9.010  44.577 -21.089  1.00  0.00    -0.264 OA
HETATM   29  O5  UNL     1      -8.239  46.628 -21.781  1.00  0.00    -0.315 OA
HETATM   30  C30 UNL     1     -11.624  45.761 -20.811  1.00  0.00     0.128 C 
HETATM   31  O7  UNL     1      -7.347  48.206 -24.149  1.00  0.00    -0.347 OA
HETATM   32  C31 UNL     1      -6.524  49.363 -22.150  1.00  0.00     0.210 C 
HETATM   33  C32 UNL     1      -5.223  50.072 -21.735  1.00  0.00     0.172 C 
HETATM   34  C37 UNL     1      -4.501  50.695 -22.962  1.00  0.00     0.047 C 
HETATM   35  C38 UNL     1      -4.788  52.199 -23.055  1.00  0.00     0.015 C 
ENDROOT
BRANCH  32  36
HETATM   36  O8  UNL     1      -7.441  50.371 -22.622  1.00  0.00    -0.387 OA
HETATM   37  H42 UNL     1      -7.785  50.844 -21.845  1.00  0.00     0.210 HD
ENDBRANCH  32  36
BRANCH   1  38
HETATM   38  C3  UNL     1      -3.826  50.105 -25.365  1.00  0.00    -0.059 C 
HETATM   39  C2  UNL     1      -3.496  51.306 -25.892  1.00  0.00    -0.026 C 
HETATM   40  C1  UNL     1      -2.496  51.581 -26.969  1.00  0.00     0.036 C 
HETATM   41  C4  UNL     1      -3.132  48.831 -25.771  1.00  0.00     0.046 C 
ENDBRANCH   1  38
BRANCH  33  42
HETATM   42  O9  UNL     1      -4.353  49.118 -21.086  1.00  0.00    -0.312 OA
BRANCH  42  43
HETATM   43  C33 UNL     1      -3.220  49.631 -20.524  1.00  0.00     0.262 C 
HETATM   44  O10 UNL     1      -3.169  50.711 -19.951  1.00  0.00    -0.265 OA
BRANCH  43  45
HETATM   45  C34 UNL     1      -2.020  48.731 -20.780  1.00  0.00     0.077 C 
HETATM   46  C35 UNL     1      -2.257  47.883 -22.030  1.00  0.00     0.020 C 
HETATM   47  C36 UNL     1      -0.716  49.516 -20.930  1.00  0.00     0.020 C 
ENDBRANCH  43  45
ENDBRANCH  42  43
ENDBRANCH  33  42
BRANCH  30  48
HETATM   48  O6  UNL     1     -11.570  44.420 -20.333  1.00  0.00    -0.381 OA
HETATM   49  H40 UNL     1     -10.691  44.049 -20.554  1.00  0.00     0.211 HD
ENDBRANCH  30  48
BRANCH  22  50
HETATM   50  O3  UNL     1     -13.319  48.048 -18.380  1.00  0.00    -0.389 OA
HETATM   51  H34 UNL     1     -13.502  48.477 -19.241  1.00  0.00     0.210 HD
ENDBRANCH  22  50
TORSDOF 7
ENDMDL
MODEL 5
REMARK minimizedAffinity -7.05326509
REMARK CNNscore 0.293321788
REMARK CNNaffinity 6.10116148
REMARK  7 active torsions:
REMARK  status: ('A' for Active; 'I' for Inactive)
REMARK    1  A    between atoms: C3_3  and  C5_5 
REMARK    2  A    between atoms: C24_26  and  O3_27 
REMARK    3  A    between atoms: C30_35  and  O6_36 
REMARK    4  A    between atoms: C31_38  and  O8_39 
REMARK    5  A    between atoms: C32_40  and  O9_41 
REMARK    6  A    between atoms: O9_41  and  C33_42 
REMARK    7  A    between atoms: C33_42  and  C34_44 
ROOT
HETATM    1  C5  UNL     1       3.123  55.515  -8.551  1.00  0.00     0.160 C 
HETATM    2  O1  UNL     1       3.274  55.106  -7.189  1.00  0.00    -0.342 OA
HETATM    3  C6  UNL     1       4.557  55.441  -6.635  1.00  0.00     0.196 C 
HETATM    4  C7  UNL     1       4.727  54.514  -5.404  1.00  0.00     0.104 C 
HETATM    5  C8  UNL     1       5.399  55.219  -4.232  1.00  0.00     0.139 C 
HETATM    6  C9  UNL     1       4.638  56.492  -3.844  1.00  0.00     0.065 C 
HETATM    7  C10 UNL     1       3.841  57.066  -5.023  1.00  0.00     0.131 C 
HETATM    8  C11 UNL     1       3.611  58.587  -4.921  1.00  0.00     0.059 C 
HETATM    9  C12 UNL     1       2.963  59.039  -3.635  1.00  0.00    -0.022 C 
HETATM   10  C13 UNL     1       3.147  60.215  -2.995  1.00  0.00    -0.087 C 
HETATM   11  C14 UNL     1       2.388  60.490  -1.722  1.00  0.00     0.043 C 
HETATM   12  C15 UNL     1       3.986  61.362  -3.538  1.00  0.00     0.041 C 
HETATM   13  C16 UNL     1       5.355  61.666  -2.872  1.00  0.00     0.008 C 
HETATM   14  C17 UNL     1       5.208  62.342  -1.504  1.00  0.00     0.014 C 
HETATM   15  C18 UNL     1       6.276  60.464  -2.906  1.00  0.00    -0.022 C 
HETATM   16  C19 UNL     1       6.911  59.890  -1.871  1.00  0.00    -0.003 C 
HETATM   17  C20 UNL     1       7.708  58.691  -1.989  1.00  0.00     0.008 C 
HETATM   18  C21 UNL     1       8.734  58.491  -2.833  1.00  0.00    -0.019 C 
HETATM   19  C22 UNL     1       9.354  59.492  -3.773  1.00  0.00     0.206 C 
HETATM   20  O2  UNL     1      10.517  58.840  -4.339  1.00  0.00    -0.375 OA
HETATM   21  C23 UNL     1      10.863  57.807  -3.387  1.00  0.00     0.194 C 
HETATM   22  C24 UNL     1      11.848  56.773  -3.971  1.00  0.00     0.179 C 
HETATM   23  C25 UNL     1      11.233  55.578  -4.668  1.00  0.00    -0.056 C 
HETATM   24  C26 UNL     1      12.198  54.603  -5.285  1.00  0.00     0.046 C 
HETATM   25  C27 UNL     1       9.904  55.371  -4.711  1.00  0.00    -0.004 C 
HETATM   26  C28 UNL     1       8.923  56.340  -4.111  1.00  0.00     0.150 C 
HETATM   27  C29 UNL     1       7.667  55.636  -3.626  1.00  0.00     0.270 C 
HETATM   28  O4  UNL     1       7.509  55.207  -2.487  1.00  0.00    -0.264 OA
HETATM   29  O5  UNL     1       6.742  55.574  -4.622  1.00  0.00    -0.315 OA
HETATM   30  C30 UNL     1       9.523  57.212  -2.969  1.00  0.00     0.128 C 
HETATM   31  O7  UNL     1       4.561  56.819  -6.231  1.00  0.00    -0.347 OA
HETATM   32  C31 UNL     1       5.707  55.207  -7.680  1.00  0.00     0.210 C 
HETATM   33  C32 UNL     1       5.286  54.160  -8.727  1.00  0.00     0.172 C 
HETATM   34  C37 UNL     1       3.968  54.570  -9.439  1.00  0.00     0.047 C 
HETATM   35  C38 UNL     1       4.262  55.194 -10.809  1.00  0.00     0.015 C 
ENDROOT
BRANCH  32  36
HETATM   36  O8  UNL     1       6.052  56.417  -8.387  1.00  0.00    -0.387 OA
HETATM   37  H42 UNL     1       6.921  56.280  -8.801  1.00  0.00     0.210 HD
ENDBRANCH  32  36
BRANCH   1  38
HETATM   38  C3  UNL     1       1.633  55.484  -8.900  1.00  0.00    -0.059 C 
HETATM   39  C2  UNL     1       1.161  54.839  -9.991  1.00  0.00    -0.026 C 
HETATM   40  C1  UNL     1      -0.259  54.744 -10.447  1.00  0.00     0.036 C 
HETATM   41  C4  UNL     1       0.721  56.164  -7.912  1.00  0.00     0.046 C 
ENDBRANCH   1  38
BRANCH  33  42
HETATM   42  O9  UNL     1       5.113  52.883  -8.071  1.00  0.00    -0.312 OA
BRANCH  42  43
HETATM   43  C33 UNL     1       6.096  51.964  -8.291  1.00  0.00     0.262 C 
HETATM   44  O10 UNL     1       7.021  51.751  -7.519  1.00  0.00    -0.265 OA
BRANCH  43  45
HETATM   45  C34 UNL     1       5.940  51.304  -9.654  1.00  0.00     0.077 C 
HETATM   46  C35 UNL     1       7.031  50.251  -9.856  1.00  0.00     0.020 C 
HETATM   47  C36 UNL     1       4.565  50.663  -9.845  1.00  0.00     0.020 C 
ENDBRANCH  43  45
ENDBRANCH  42  43
ENDBRANCH  33  42
BRANCH  30  48
HETATM   48  O6  UNL     1       9.689  56.550  -1.719  1.00  0.00    -0.381 OA
HETATM   49  H40 UNL     1       8.918  55.963  -1.576  1.00  0.00     0.211 HD
ENDBRANCH  30  48
BRANCH  22  50
HETATM   50  O3  UNL     1      12.733  57.424  -4.882  1.00  0.00    -0.389 OA
HETATM   51  H34 UNL     1      12.245  58.213  -5.196  1.00  0.00     0.210 HD
ENDBRANCH  22  50
TORSDOF 7
ENDMDL
MODEL 6
REMARK minimizedAffinity -6.9744277
REMARK CNNscore 0.288591892
REMARK CNNaffinity 6.19815493
REMARK  7 active torsions:
REMARK  status: ('A' for Active; 'I' for Inactive)
REMARK    1  A    between atoms: C3_3  and  C5_5 
REMARK    2  A    between atoms: C24_26  and  O3_27 
REMARK    3  A    between atoms: C30_35  and  O6_36 
REMARK    4  A    between atoms: C31_38  and  O8_39 
REMARK    5  A    between atoms: C32_40  and  O9_41 
REMARK    6  A    between atoms: O9_41  and  C33_42 
REMARK    7  A    between atoms: C33_42  and  C34_44 
ROOT
HETATM    1  C5  UNL     1     -10.330  43.895 -23.065  1.00  0.00     0.160 C 
HETATM    2  O1  UNL     1     -11.055  45.042 -23.519  1.00  0.00    -0.342 OA
HETATM    3  C6  UNL     1     -12.367  44.725 -24.013  1.00  0.00     0.196 C 
HETATM    4  C7  UNL     1     -12.776  45.933 -24.895  1.00  0.00     0.104 C 
HETATM    5  C8  UNL     1     -14.250  46.289 -24.746  1.00  0.00     0.139 C 
HETATM    6  C9  UNL     1     -14.611  46.548 -23.279  1.00  0.00     0.065 C 
HETATM    7  C10 UNL     1     -13.665  45.816 -22.318  1.00  0.00     0.131 C 
HETATM    8  C11 UNL     1     -14.309  45.497 -20.954  1.00  0.00     0.059 C 
HETATM    9  C12 UNL     1     -14.891  46.692 -20.240  1.00  0.00    -0.022 C 
HETATM   10  C13 UNL     1     -15.959  46.710 -19.411  1.00  0.00    -0.087 C 
HETATM   11  C14 UNL     1     -16.378  48.011 -18.775  1.00  0.00     0.043 C 
HETATM   12  C15 UNL     1     -16.712  45.468 -18.959  1.00  0.00     0.041 C 
HETATM   13  C16 UNL     1     -18.132  45.208 -19.532  1.00  0.00     0.008 C 
HETATM   14  C17 UNL     1     -19.190  46.141 -18.933  1.00  0.00     0.014 C 
HETATM   15  C18 UNL     1     -18.121  45.126 -21.045  1.00  0.00    -0.022 C 
HETATM   16  C19 UNL     1     -18.877  45.825 -21.908  1.00  0.00    -0.003 C 
HETATM   17  C20 UNL     1     -18.738  45.737 -23.343  1.00  0.00     0.008 C 
HETATM   18  C21 UNL     1     -18.785  44.618 -24.085  1.00  0.00    -0.019 C 
HETATM   19  C22 UNL     1     -19.089  43.220 -23.615  1.00  0.00     0.206 C 
HETATM   20  O2  UNL     1     -19.174  42.406 -24.810  1.00  0.00    -0.375 OA
HETATM   21  C23 UNL     1     -19.475  43.341 -25.873  1.00  0.00     0.194 C 
HETATM   22  C24 UNL     1     -19.253  42.732 -27.273  1.00  0.00     0.179 C 
HETATM   23  C25 UNL     1     -17.869  42.891 -27.864  1.00  0.00    -0.056 C 
HETATM   24  C26 UNL     1     -17.642  42.246 -29.204  1.00  0.00     0.046 C 
HETATM   25  C27 UNL     1     -16.898  43.594 -27.251  1.00  0.00    -0.004 C 
HETATM   26  C28 UNL     1     -17.101  44.235 -25.906  1.00  0.00     0.150 C 
HETATM   27  C29 UNL     1     -16.260  45.491 -25.753  1.00  0.00     0.270 C 
HETATM   28  O4  UNL     1     -16.643  46.622 -26.036  1.00  0.00    -0.264 OA
HETATM   29  O5  UNL     1     -15.038  45.184 -25.235  1.00  0.00    -0.315 OA
HETATM   30  C30 UNL     1     -18.592  44.548 -25.580  1.00  0.00     0.128 C 
HETATM   31  O7  UNL     1     -13.274  44.577 -22.910  1.00  0.00    -0.347 OA
HETATM   32  C31 UNL     1     -12.354  43.395 -24.851  1.00  0.00     0.210 C 
HETATM   33  C32 UNL     1     -10.951  43.129 -25.426  1.00  0.00     0.172 C 
HETATM   34  C37 UNL     1      -9.878  43.085 -24.304  1.00  0.00     0.047 C 
HETATM   35  C38 UNL     1      -9.534  41.636 -23.937  1.00  0.00     0.015 C 
ENDROOT
BRANCH  32  36
HETATM   36  O8  UNL     1     -12.725  42.250 -24.055  1.00  0.00    -0.387 OA
HETATM   37  H42 UNL     1     -12.961  41.530 -24.666  1.00  0.00     0.210 HD
ENDBRANCH  32  36
BRANCH   1  38
HETATM   38  C3  UNL     1      -9.156  44.376 -22.209  1.00  0.00    -0.059 C 
HETATM   39  C2  UNL     1      -9.076  44.116 -20.885  1.00  0.00    -0.026 C 
HETATM   40  C1  UNL     1      -7.997  44.537 -19.940  1.00  0.00     0.036 C 
HETATM   41  C4  UNL     1      -8.066  45.103 -22.953  1.00  0.00     0.046 C 
ENDBRANCH   1  38
BRANCH  33  42
HETATM   42  O9  UNL     1     -10.627  44.170 -26.375  1.00  0.00    -0.312 OA
BRANCH  42  43
HETATM   43  C33 UNL     1      -9.784  43.812 -27.386  1.00  0.00     0.262 C 
HETATM   44  O10 UNL     1     -10.098  43.077 -28.312  1.00  0.00    -0.265 OA
BRANCH  43  45
HETATM   45  C34 UNL     1      -8.386  44.372 -27.164  1.00  0.00     0.077 C 
HETATM   46  C35 UNL     1      -7.597  44.349 -28.473  1.00  0.00     0.020 C 
HETATM   47  C36 UNL     1      -8.404  45.794 -26.600  1.00  0.00     0.020 C 
ENDBRANCH  43  45
ENDBRANCH  42  43
ENDBRANCH  33  42
BRANCH  30  48
HETATM   48  O6  UNL     1     -19.137  45.683 -26.245  1.00  0.00    -0.381 OA
HETATM   49  H40 UNL     1     -18.452  46.383 -26.272  1.00  0.00     0.211 HD
ENDBRANCH  30  48
BRANCH  22  50
HETATM   50  O3  UNL     1     -19.577  41.342 -27.242  1.00  0.00    -0.389 OA
HETATM   51  H34 UNL     1     -19.454  41.070 -26.309  1.00  0.00     0.210 HD
ENDBRANCH  22  50
TORSDOF 7
ENDMDL
MODEL 7
REMARK minimizedAffinity -8.99365234
REMARK CNNscore 0.26242727
REMARK CNNaffinity 6.3052125
REMARK  7 active torsions:
REMARK  status: ('A' for Active; 'I' for Inactive)
REMARK    1  A    between atoms: C3_3  and  C5_5 
REMARK    2  A    between atoms: C24_26  and  O3_27 
REMARK    3  A    between atoms: C30_35  and  O6_36 
REMARK    4  A    between atoms: C31_38  and  O8_39 
REMARK    5  A    between atoms: C32_40  and  O9_41 
REMARK    6  A    between atoms: O9_41  and  C33_42 
REMARK    7  A    between atoms: C33_42  and  C34_44 
ROOT
HETATM    1  C5  UNL     1      -4.889  49.679 -23.555  1.00  0.00     0.160 C 
HETATM    2  O1  UNL     1      -5.151  48.280 -23.412  1.00  0.00    -0.342 OA
HETATM    3  C6  UNL     1      -6.266  47.997 -22.552  1.00  0.00     0.196 C 
HETATM    4  C7  UNL     1      -6.085  46.519 -22.119  1.00  0.00     0.104 C 
HETATM    5  C8  UNL     1      -7.407  45.766 -22.051  1.00  0.00     0.139 C 
HETATM    6  C9  UNL     1      -8.158  45.847 -23.385  1.00  0.00     0.065 C 
HETATM    7  C10 UNL     1      -7.766  47.093 -24.190  1.00  0.00     0.131 C 
HETATM    8  C11 UNL     1      -8.872  47.571 -25.151  1.00  0.00     0.059 C 
HETATM    9  C12 UNL     1      -9.372  46.518 -26.108  1.00  0.00    -0.022 C 
HETATM   10  C13 UNL     1     -10.618  46.400 -26.617  1.00  0.00    -0.087 C 
HETATM   11  C14 UNL     1     -10.919  45.280 -27.581  1.00  0.00     0.043 C 
HETATM   12  C15 UNL     1     -11.736  47.406 -26.387  1.00  0.00     0.041 C 
HETATM   13  C16 UNL     1     -12.911  47.013 -25.452  1.00  0.00     0.008 C 
HETATM   14  C17 UNL     1     -13.870  46.008 -26.101  1.00  0.00     0.014 C 
HETATM   15  C18 UNL     1     -12.428  46.647 -24.064  1.00  0.00    -0.022 C 
HETATM   16  C19 UNL     1     -12.686  45.520 -23.379  1.00  0.00    -0.003 C 
HETATM   17  C20 UNL     1     -12.111  45.223 -22.087  1.00  0.00     0.008 C 
HETATM   18  C21 UNL     1     -12.163  45.997 -20.990  1.00  0.00    -0.019 C 
HETATM   19  C22 UNL     1     -12.908  47.295 -20.820  1.00  0.00     0.206 C 
HETATM   20  O2  UNL     1     -12.780  47.649 -19.422  1.00  0.00    -0.375 OA
HETATM   21  C23 UNL     1     -12.502  46.399 -18.748  1.00  0.00     0.194 C 
HETATM   22  C24 UNL     1     -11.979  46.608 -17.311  1.00  0.00     0.179 C 
HETATM   23  C25 UNL     1     -10.479  46.739 -17.154  1.00  0.00    -0.056 C 
HETATM   24  C26 UNL     1      -9.979  46.999 -15.760  1.00  0.00     0.046 C 
HETATM   25  C27 UNL     1      -9.629  46.600 -18.188  1.00  0.00    -0.004 C 
HETATM   26  C28 UNL     1     -10.110  46.352 -19.592  1.00  0.00     0.150 C 
HETATM   27  C29 UNL     1      -9.105  45.539 -20.391  1.00  0.00     0.270 C 
HETATM   28  O4  UNL     1      -9.111  44.315 -20.474  1.00  0.00    -0.264 OA
HETATM   29  O5  UNL     1      -8.220  46.362 -21.018  1.00  0.00    -0.315 OA
HETATM   30  C30 UNL     1     -11.515  45.685 -19.664  1.00  0.00     0.128 C 
HETATM   31  O7  UNL     1      -7.491  48.161 -23.282  1.00  0.00    -0.347 OA
HETATM   32  C31 UNL     1      -6.279  48.952 -21.303  1.00  0.00     0.210 C 
HETATM   33  C32 UNL     1      -4.863  49.476 -21.005  1.00  0.00     0.172 C 
HETATM   34  C37 UNL     1      -4.252  50.192 -22.241  1.00  0.00     0.047 C 
HETATM   35  C38 UNL     1      -4.380  51.714 -22.105  1.00  0.00     0.015 C 
ENDROOT
BRANCH  32  36
HETATM   36  O8  UNL     1      -7.135  50.096 -21.505  1.00  0.00    -0.387 OA
HETATM   37  H42 UNL     1      -7.315  50.487 -20.634  1.00  0.00     0.210 HD
ENDBRANCH  32  36
BRANCH   1  38
HETATM   38  C3  UNL     1      -3.981  49.877 -24.772  1.00  0.00    -0.059 C 
HETATM   39  C2  UNL     1      -3.399  48.839 -25.412  1.00  0.00    -0.026 C 
HETATM   40  C1  UNL     1      -2.488  48.898 -26.596  1.00  0.00     0.036 C 
HETATM   41  C4  UNL     1      -3.834  51.300 -25.246  1.00  0.00     0.046 C 
ENDBRANCH   1  38
BRANCH  33  42
HETATM   42  O9  UNL     1      -4.023  48.365 -20.615  1.00  0.00    -0.312 OA
BRANCH  42  43
HETATM   43  C33 UNL     1      -2.900  48.687 -19.912  1.00  0.00     0.262 C 
HETATM   44  O10 UNL     1      -2.902  49.348 -18.882  1.00  0.00    -0.265 OA
BRANCH  43  45
HETATM   45  C34 UNL     1      -1.645  48.195 -20.620  1.00  0.00     0.077 C 
HETATM   46  C35 UNL     1      -2.026  47.309 -21.807  1.00  0.00     0.020 C 
HETATM   47  C36 UNL     1      -0.751  49.340 -21.098  1.00  0.00     0.020 C 
ENDBRANCH  43  45
ENDBRANCH  42  43
ENDBRANCH  33  42
BRANCH  30  48
HETATM   48  O6  UNL     1     -11.545  44.292 -19.367  1.00  0.00    -0.381 OA
HETATM   49  H40 UNL     1     -10.751  43.875 -19.761  1.00  0.00     0.211 HD
ENDBRANCH  30  48
BRANCH  22  50
HETATM   50  O3  UNL     1     -12.598  47.763 -16.745  1.00  0.00    -0.389 OA
HETATM   51  H34 UNL     1     -12.849  48.321 -17.510  1.00  0.00     0.210 HD
ENDBRANCH  22  50
TORSDOF 7
ENDMDL
MODEL 8
REMARK minimizedAffinity -7.16662645
REMARK CNNscore 0.246831194
REMARK CNNaffinity 5.86829615
REMARK  7 active torsions:
REMARK  status: ('A' for Active; 'I' for Inactive)
REMARK    1  A    between atoms: C3_3  and  C5_5 
REMARK    2  A    between atoms: C24_26  and  O3_27 
REMARK    3  A    between atoms: C30_35  and  O6_36 
REMARK    4  A    between atoms: C31_38  and  O8_39 
REMARK    5  A    between atoms: C32_40  and  O9_41 
REMARK    6  A    between atoms: O9_41  and  C33_42 
REMARK    7  A    between atoms: C33_42  and  C34_44 
ROOT
HETATM    1  C5  UNL     1      -9.717  43.374 -21.656  1.00  0.00     0.160 C 
HETATM    2  O1  UNL     1     -10.453  44.574 -21.912  1.00  0.00    -0.342 OA
HETATM    3  C6  UNL     1     -10.388  44.997 -23.284  1.00  0.00     0.196 C 
HETATM    4  C7  UNL     1     -10.776  46.498 -23.268  1.00  0.00     0.104 C 
HETATM    5  C8  UNL     1     -11.639  46.889 -24.462  1.00  0.00     0.139 C 
HETATM    6  C9  UNL     1     -12.892  46.011 -24.549  1.00  0.00     0.065 C 
HETATM    7  C10 UNL     1     -12.684  44.646 -23.879  1.00  0.00     0.131 C 
HETATM    8  C11 UNL     1     -13.584  43.538 -24.462  1.00  0.00     0.059 C 
HETATM    9  C12 UNL     1     -15.058  43.859 -24.456  1.00  0.00    -0.022 C 
HETATM   10  C13 UNL     1     -15.989  43.446 -25.346  1.00  0.00    -0.087 C 
HETATM   11  C14 UNL     1     -17.426  43.861 -25.157  1.00  0.00     0.043 C 
HETATM   12  C15 UNL     1     -15.715  42.469 -26.479  1.00  0.00     0.041 C 
HETATM   13  C16 UNL     1     -15.676  43.008 -27.935  1.00  0.00     0.008 C 
HETATM   14  C17 UNL     1     -17.070  43.341 -28.478  1.00  0.00     0.014 C 
HETATM   15  C18 UNL     1     -14.637  44.098 -28.103  1.00  0.00    -0.022 C 
HETATM   16  C19 UNL     1     -14.818  45.331 -28.603  1.00  0.00    -0.003 C 
HETATM   17  C20 UNL     1     -13.779  46.334 -28.649  1.00  0.00     0.008 C 
HETATM   18  C21 UNL     1     -12.562  46.202 -29.202  1.00  0.00    -0.019 C 
HETATM   19  C22 UNL     1     -12.035  45.028 -29.984  1.00  0.00     0.206 C 
HETATM   20  O2  UNL     1     -10.744  45.437 -30.497  1.00  0.00    -0.375 OA
HETATM   21  C23 UNL     1     -10.791  46.883 -30.508  1.00  0.00     0.194 C 
HETATM   22  C24 UNL     1      -9.395  47.518 -30.679  1.00  0.00     0.179 C 
HETATM   23  C25 UNL     1      -8.625  47.801 -29.407  1.00  0.00    -0.056 C 
HETATM   24  C26 UNL     1      -7.242  48.366 -29.582  1.00  0.00     0.046 C 
HETATM   25  C27 UNL     1      -9.148  47.595 -28.184  1.00  0.00    -0.004 C 
HETATM   26  C28 UNL     1     -10.523  47.019 -27.989  1.00  0.00     0.150 C 
HETATM   27  C29 UNL     1     -11.167  47.531 -26.711  1.00  0.00     0.270 C 
HETATM   28  O4  UNL     1     -11.881  48.526 -26.644  1.00  0.00    -0.264 OA
HETATM   29  O5  UNL     1     -10.859  46.715 -25.664  1.00  0.00    -0.315 OA
HETATM   30  C30 UNL     1     -11.477  47.251 -29.197  1.00  0.00     0.128 C 
HETATM   31  O7  UNL     1     -11.328  44.243 -24.065  1.00  0.00    -0.347 OA
HETATM   32  C31 UNL     1      -8.946  44.793 -23.875  1.00  0.00     0.210 C 
HETATM   33  C32 UNL     1      -7.893  44.795 -22.752  1.00  0.00     0.172 C 
HETATM   34  C37 UNL     1      -8.207  43.716 -21.679  1.00  0.00     0.047 C 
HETATM   35  C38 UNL     1      -7.348  42.466 -21.899  1.00  0.00     0.015 C 
ENDROOT
BRANCH  32  36
HETATM   36  O8  UNL     1      -8.823  43.545 -24.587  1.00  0.00    -0.387 OA
HETATM   37  H42 UNL     1      -8.029  43.600 -25.144  1.00  0.00     0.210 HD
ENDBRANCH  32  36
BRANCH   1  38
HETATM   38  C3  UNL     1     -10.176  42.806 -20.311  1.00  0.00    -0.059 C 
HETATM   39  C2  UNL     1     -10.637  41.542 -20.182  1.00  0.00    -0.026 C 
HETATM   40  C1  UNL     1     -11.124  40.875 -18.936  1.00  0.00     0.036 C 
HETATM   41  C4  UNL     1     -10.020  43.729 -19.129  1.00  0.00     0.046 C 
ENDBRANCH   1  38
BRANCH  33  42
HETATM   42  O9  UNL     1      -7.863  46.104 -22.138  1.00  0.00    -0.312 OA
BRANCH  42  43
HETATM   43  C33 UNL     1      -6.696  46.798 -22.273  1.00  0.00     0.262 C 
HETATM   44  O10 UNL     1      -6.318  47.304 -23.321  1.00  0.00    -0.265 OA
BRANCH  43  45
HETATM   45  C34 UNL     1      -5.892  46.783 -20.981  1.00  0.00     0.077 C 
HETATM   46  C35 UNL     1      -6.832  46.694 -19.779  1.00  0.00     0.020 C 
HETATM   47  C36 UNL     1      -4.881  45.636 -20.930  1.00  0.00     0.020 C 
ENDBRANCH  43  45
ENDBRANCH  42  43
ENDBRANCH  33  42
BRANCH  30  48
HETATM   48  O6  UNL     1     -12.005  48.569 -29.314  1.00  0.00    -0.381 OA
HETATM   49  H40 UNL     1     -12.214  48.898 -28.415  1.00  0.00     0.211 HD
ENDBRANCH  30  48
BRANCH  22  50
HETATM   50  O3  UNL     1      -8.595  46.684 -31.518  1.00  0.00    -0.389 OA
HETATM   51  H34 UNL     1      -8.973  45.785 -31.422  1.00  0.00     0.210 HD
ENDBRANCH  22  50
TORSDOF 7
ENDMDL
MODEL 9
REMARK minimizedAffinity -8.59062386
REMARK CNNscore 0.240773126
REMARK CNNaffinity 6.33919764
REMARK  7 active torsions:
REMARK  status: ('A' for Active; 'I' for Inactive)
REMARK    1  A    between atoms: C3_3  and  C5_5 
REMARK    2  A    between atoms: C24_26  and  O3_27 
REMARK    3  A    between atoms: C30_35  and  O6_36 
REMARK    4  A    between atoms: C31_38  and  O8_39 
REMARK    5  A    between atoms: C32_40  and  O9_41 
REMARK    6  A    between atoms: O9_41  and  C33_42 
REMARK    7  A    between atoms: C33_42  and  C34_44 
ROOT
HETATM    1  C5  UNL     1      -5.535  48.602 -24.071  1.00  0.00     0.160 C 
HETATM    2  O1  UNL     1      -5.996  47.261 -23.882  1.00  0.00    -0.342 OA
HETATM    3  C6  UNL     1      -7.281  47.188 -23.243  1.00  0.00     0.196 C 
HETATM    4  C7  UNL     1      -7.376  45.748 -22.677  1.00  0.00     0.104 C 
HETATM    5  C8  UNL     1      -8.773  45.156 -22.820  1.00  0.00     0.139 C 
HETATM    6  C9  UNL     1      -9.241  45.192 -24.279  1.00  0.00     0.065 C 
HETATM    7  C10 UNL     1      -8.547  46.303 -25.078  1.00  0.00     0.131 C 
HETATM    8  C11 UNL     1      -9.381  46.807 -26.272  1.00  0.00     0.059 C 
HETATM    9  C12 UNL     1      -9.821  45.728 -27.230  1.00  0.00    -0.022 C 
HETATM   10  C13 UNL     1     -10.953  45.701 -27.969  1.00  0.00    -0.087 C 
HETATM   11  C14 UNL     1     -11.207  44.534 -28.889  1.00  0.00     0.043 C 
HETATM   12  C15 UNL     1     -11.956  46.843 -28.040  1.00  0.00     0.041 C 
HETATM   13  C16 UNL     1     -13.328  46.675 -27.333  1.00  0.00     0.008 C 
HETATM   14  C17 UNL     1     -14.267  45.725 -28.084  1.00  0.00     0.014 C 
HETATM   15  C18 UNL     1     -13.167  46.393 -25.853  1.00  0.00    -0.022 C 
HETATM   16  C19 UNL     1     -13.691  45.373 -25.153  1.00  0.00    -0.003 C 
HETATM   17  C20 UNL     1     -13.414  45.140 -23.754  1.00  0.00     0.008 C 
HETATM   18  C21 UNL     1     -13.573  46.018 -22.749  1.00  0.00    -0.019 C 
HETATM   19  C22 UNL     1     -14.165  47.401 -22.826  1.00  0.00     0.206 C 
HETATM   20  O2  UNL     1     -14.260  47.871 -21.460  1.00  0.00    -0.375 OA
HETATM   21  C23 UNL     1     -14.277  46.669 -20.654  1.00  0.00     0.194 C 
HETATM   22  C24 UNL     1     -14.013  46.955 -19.162  1.00  0.00     0.179 C 
HETATM   23  C25 UNL     1     -12.565  46.933 -18.719  1.00  0.00    -0.056 C 
HETATM   24  C26 UNL     1     -12.309  47.270 -17.275  1.00  0.00     0.046 C 
HETATM   25  C27 UNL     1     -11.560  46.601 -19.549  1.00  0.00    -0.004 C 
HETATM   26  C28 UNL     1     -11.794  46.274 -20.998  1.00  0.00     0.150 C 
HETATM   27  C29 UNL     1     -10.769  45.281 -21.520  1.00  0.00     0.270 C 
HETATM   28  O4  UNL     1     -10.916  44.063 -21.513  1.00  0.00    -0.264 OA
HETATM   29  O5  UNL     1      -9.683  45.936 -22.016  1.00  0.00    -0.315 OA
HETATM   30  C30 UNL     1     -13.234  45.764 -21.301  1.00  0.00     0.128 C 
HETATM   31  O7  UNL     1      -8.315  47.416 -24.214  1.00  0.00    -0.347 OA
HETATM   32  C31 UNL     1      -7.408  48.255 -22.096  1.00  0.00     0.210 C 
HETATM   33  C32 UNL     1      -6.019  48.644 -21.560  1.00  0.00     0.172 C 
HETATM   34  C37 UNL     1      -5.098  49.165 -22.697  1.00  0.00     0.047 C 
HETATM   35  C38 UNL     1      -5.054  50.697 -22.701  1.00  0.00     0.015 C 
ENDROOT
BRANCH  32  36
HETATM   36  O8  UNL     1      -8.057  49.462 -22.547  1.00  0.00    -0.387 OA
HETATM   37  H42 UNL     1      -8.346  49.953 -21.760  1.00  0.00     0.210 HD
ENDBRANCH  32  36
BRANCH   1  38
HETATM   38  C3  UNL     1      -4.396  48.579 -25.094  1.00  0.00    -0.059 C 
HETATM   39  C2  UNL     1      -4.622  48.466 -26.422  1.00  0.00    -0.026 C 
HETATM   40  C1  UNL     1      -3.604  48.419 -27.515  1.00  0.00     0.036 C 
HETATM   41  C4  UNL     1      -3.012  48.757 -24.526  1.00  0.00     0.046 C 
ENDBRANCH   1  38
BRANCH  33  42
HETATM   42  O9  UNL     1      -5.417  47.490 -20.930  1.00  0.00    -0.312 OA
BRANCH  42  43
HETATM   43  C33 UNL     1      -4.334  47.740 -20.140  1.00  0.00     0.262 C 
HETATM   44  O10 UNL     1      -4.238  48.708 -19.397  1.00  0.00    -0.265 OA
BRANCH  43  45
HETATM   45  C34 UNL     1      -3.235  46.712 -20.367  1.00  0.00     0.077 C 
HETATM   46  C35 UNL     1      -3.845  45.381 -20.809  1.00  0.00     0.020 C 
HETATM   47  C36 UNL     1      -2.202  47.172 -21.397  1.00  0.00     0.020 C 
ENDBRANCH  43  45
ENDBRANCH  42  43
ENDBRANCH  33  42
BRANCH  30  48
HETATM   48  O6  UNL     1     -13.498  44.419 -20.916  1.00  0.00    -0.381 OA
HETATM   49  H40 UNL     1     -12.703  43.880 -21.112  1.00  0.00     0.211 HD
ENDBRANCH  30  48
BRANCH  22  50
HETATM   50  O3  UNL     1     -14.574  48.222 -18.816  1.00  0.00    -0.389 OA
HETATM   51  H34 UNL     1     -14.602  48.728 -19.654  1.00  0.00     0.210 HD
ENDBRANCH  22  50
TORSDOF 7
ENDMDL
