MODEL 1
REMARK minimizedAffinity -7.9831996
REMARK CNNscore 0.507661939
REMARK CNNaffinity 6.11064005
REMARK  11 active torsions:
REMARK  status: ('A' for Active; 'I' for Inactive)
REMARK    1  A    between atoms: C11_11  and  C13_13 
REMARK    2  A    between atoms: C13_13  and  O2_15 
REMARK    3  A    between atoms: O2_15  and  C14_16 
REMARK    4  A    between atoms: C15_18  and  C16_19 
REMARK    5  A    between atoms: C16_19  and  O4_20 
REMARK    6  A    between atoms: C17_21  and  O5_22 
REMARK    7  A    between atoms: C18_23  and  O6_24 
REMARK    8  A    between atoms: C19_25  and  O7_26 
REMARK    9  A    between atoms: C20_27  and  C21_28 
REMARK   10  A    between atoms: C21_28  and  C22_29 
REMARK   11  A    between atoms: C26_35  and  O10_36 
ROOT
HETATM    1  C1  UNL     1      -1.157  47.260 -21.375  1.00  0.00     0.015 C 
HETATM    2  C2  UNL     1      -2.256  48.031 -21.318  1.00  0.00    -0.084 C 
HETATM    3  C3  UNL     1      -3.561  47.493 -20.797  1.00  0.00     0.034 C 
HETATM    4  C4  UNL     1      -4.718  47.653 -21.795  1.00  0.00     0.011 C 
HETATM    5  C5  UNL     1      -4.451  48.688 -22.915  1.00  0.00     0.012 C 
HETATM    6  C6  UNL     1      -3.707  49.945 -22.344  1.00  0.00    -0.032 C 
HETATM    7  C7  UNL     1      -4.488  50.625 -21.200  1.00  0.00     0.016 C 
HETATM    8  C8  UNL     1      -3.525  50.955 -23.507  1.00  0.00     0.010 C 
HETATM    9  C9  UNL     1      -4.817  51.419 -24.176  1.00  0.00     0.002 C 
HETATM   10  C10 UNL     1      -6.008  50.475 -24.029  1.00  0.00     0.020 C 
HETATM   11  C11 UNL     1      -5.655  48.974 -23.895  1.00  0.00     0.049 C 
HETATM   12  C12 UNL     1      -5.254  48.485 -25.315  1.00  0.00     0.026 C 
HETATM   13  C20 UNL     1      -2.265  49.460 -21.869  1.00  0.00     0.025 C 
ENDROOT
BRANCH  11  14
HETATM   14  C13 UNL     1      -6.924  48.188 -23.508  1.00  0.00     0.270 C 
HETATM   15  O1  UNL     1      -7.519  48.321 -22.446  1.00  0.00    -0.264 OA
BRANCH  14  16
HETATM   16  O2  UNL     1      -7.319  47.370 -24.517  1.00  0.00    -0.286 OA
BRANCH  16  17
HETATM   17  C14 UNL     1      -8.647  46.833 -24.434  1.00  0.00     0.301 C 
HETATM   18  O3  UNL     1      -9.611  47.888 -24.574  1.00  0.00    -0.348 OA
HETATM   19  C15 UNL     1      -9.884  48.335 -25.911  1.00  0.00     0.179 C 
HETATM   20  C17 UNL     1      -8.860  47.851 -26.953  1.00  0.00     0.180 C 
HETATM   21  C18 UNL     1      -8.724  46.326 -26.934  1.00  0.00     0.183 C 
HETATM   22  C19 UNL     1      -8.827  45.746 -25.514  1.00  0.00     0.205 C 
BRANCH  19  23
HETATM   23  C16 UNL     1     -11.341  47.968 -26.246  1.00  0.00     0.198 C 
BRANCH  23  24
HETATM   24  O4  UNL     1     -11.919  48.909 -27.143  1.00  0.00    -0.398 OA
HETATM   25  H24 UNL     1     -12.869  48.690 -27.204  1.00  0.00     0.209 HD
ENDBRANCH  23  24
ENDBRANCH  19  23
BRANCH  20  26
HETATM   26  O5  UNL     1      -9.125  48.273 -28.295  1.00  0.00    -0.390 OA
HETATM   27  H26 UNL     1     -10.095  48.422 -28.368  1.00  0.00     0.210 HD
ENDBRANCH  20  26
BRANCH  21  28
HETATM   28  O6  UNL     1      -7.462  45.953 -27.526  1.00  0.00    -0.390 OA
HETATM   29  H28 UNL     1      -7.402  46.478 -28.350  1.00  0.00     0.210 HD
ENDBRANCH  21  28
BRANCH  22  30
HETATM   30  O7  UNL     1      -7.907  44.661 -25.349  1.00  0.00    -0.388 OA
HETATM   31  H30 UNL     1      -7.254  44.776 -26.074  1.00  0.00     0.210 HD
ENDBRANCH  22  30
ENDBRANCH  16  17
ENDBRANCH  14  16
ENDBRANCH  11  14
BRANCH  13  32
HETATM   32  C21 UNL     1      -1.448  50.454 -20.992  1.00  0.00     0.037 C 
BRANCH  32  33
HETATM   33  C22 UNL     1      -0.593  51.458 -21.721  1.00  0.00    -0.010 C 
HETATM   34  C23 UNL     1       0.062  52.501 -21.184  1.00  0.00     0.044 C 
HETATM   35  C24 UNL     1       0.837  53.431 -22.043  1.00  0.00     0.291 C 
HETATM   36  C26 UNL     1       0.183  52.999 -19.792  1.00  0.00     0.181 C 
HETATM   37  O8  UNL     1       0.843  53.455 -23.261  1.00  0.00    -0.260 OA
HETATM   38  O9  UNL     1       1.527  54.288 -21.241  1.00  0.00    -0.315 OA
HETATM   39  C25 UNL     1       1.438  53.839 -19.892  1.00  0.00     0.215 C 
BRANCH  36  40
HETATM   40  O10 UNL     1       0.334  51.963 -18.837  1.00  0.00    -0.389 OA
HETATM   41  H38 UNL     1       0.314  52.372 -17.955  1.00  0.00     0.210 HD
ENDBRANCH  36  40
ENDBRANCH  32  33
ENDBRANCH  13  32
TORSDOF 11
ENDMDL
MODEL 2
REMARK minimizedAffinity -9.11043262
REMARK CNNscore 0.45668897
REMARK CNNaffinity 6.03088999
REMARK  11 active torsions:
REMARK  status: ('A' for Active; 'I' for Inactive)
REMARK    1  A    between atoms: C11_11  and  C13_13 
REMARK    2  A    between atoms: C13_13  and  O2_15 
REMARK    3  A    between atoms: O2_15  and  C14_16 
REMARK    4  A    between atoms: C15_18  and  C16_19 
REMARK    5  A    between atoms: C16_19  and  O4_20 
REMARK    6  A    between atoms: C17_21  and  O5_22 
REMARK    7  A    between atoms: C18_23  and  O6_24 
REMARK    8  A    between atoms: C19_25  and  O7_26 
REMARK    9  A    between atoms: C20_27  and  C21_28 
REMARK   10  A    between atoms: C21_28  and  C22_29 
REMARK   11  A    between atoms: C26_35  and  O10_36 
ROOT
HETATM    1  C1  UNL     1       2.370  52.977 -21.385  1.00  0.00     0.015 C 
HETATM    2  C2  UNL     1       1.033  52.843 -21.329  1.00  0.00    -0.084 C 
HETATM    3  C3  UNL     1       0.237  53.419 -20.190  1.00  0.00     0.034 C 
HETATM    4  C4  UNL     1      -0.630  52.373 -19.473  1.00  0.00     0.011 C 
HETATM    5  C5  UNL     1      -0.863  51.077 -20.288  1.00  0.00     0.012 C 
HETATM    6  C6  UNL     1      -1.097  51.407 -21.803  1.00  0.00    -0.032 C 
HETATM    7  C7  UNL     1      -2.287  52.366 -22.022  1.00  0.00     0.016 C 
HETATM    8  C8  UNL     1      -1.377  50.072 -22.540  1.00  0.00     0.010 C 
HETATM    9  C9  UNL     1      -2.579  49.283 -22.026  1.00  0.00     0.002 C 
HETATM   10  C10 UNL     1      -2.990  49.578 -20.586  1.00  0.00     0.020 C 
HETATM   11  C11 UNL     1      -1.845  50.021 -19.644  1.00  0.00     0.049 C 
HETATM   12  C12 UNL     1      -1.029  48.742 -19.305  1.00  0.00     0.026 C 
HETATM   13  C20 UNL     1       0.265  52.016 -22.365  1.00  0.00     0.025 C 
ENDROOT
BRANCH  11  14
HETATM   14  C13 UNL     1      -2.446  50.517 -18.313  1.00  0.00     0.270 C 
HETATM   15  O1  UNL     1      -3.026  51.587 -18.177  1.00  0.00    -0.264 OA
BRANCH  14  16
HETATM   16  O2  UNL     1      -2.291  49.592 -17.332  1.00  0.00    -0.286 OA
BRANCH  16  17
HETATM   17  C14 UNL     1      -1.049  49.611 -16.614  1.00  0.00     0.301 C 
HETATM   18  O3  UNL     1      -0.751  50.949 -16.185  1.00  0.00    -0.348 OA
HETATM   19  C15 UNL     1      -1.430  51.410 -15.007  1.00  0.00     0.179 C 
HETATM   20  C17 UNL     1      -2.617  50.528 -14.582  1.00  0.00     0.180 C 
HETATM   21  C18 UNL     1      -2.187  49.070 -14.396  1.00  0.00     0.183 C 
HETATM   22  C19 UNL     1      -1.131  48.633 -15.424  1.00  0.00     0.205 C 
BRANCH  19  23
HETATM   23  C16 UNL     1      -0.376  51.618 -13.903  1.00  0.00     0.198 C 
BRANCH  23  24
HETATM   24  O4  UNL     1       0.509  52.684 -14.226  1.00  0.00    -0.398 OA
HETATM   25  H24 UNL     1       1.220  52.670 -13.557  1.00  0.00     0.209 HD
ENDBRANCH  23  24
ENDBRANCH  19  23
BRANCH  20  26
HETATM   26  O5  UNL     1      -3.295  50.963 -13.399  1.00  0.00    -0.390 OA
HETATM   27  H26 UNL     1      -2.646  51.470 -12.860  1.00  0.00     0.210 HD
ENDBRANCH  20  26
BRANCH  21  28
HETATM   28  O6  UNL     1      -3.346  48.216 -14.491  1.00  0.00    -0.390 OA
HETATM   29  H28 UNL     1      -4.025  48.642 -13.927  1.00  0.00     0.210 HD
ENDBRANCH  21  28
BRANCH  22  30
HETATM   30  O7  UNL     1      -1.371  47.286 -15.846  1.00  0.00    -0.388 OA
HETATM   31  H30 UNL     1      -2.306  47.111 -15.601  1.00  0.00     0.210 HD
ENDBRANCH  22  30
ENDBRANCH  16  17
ENDBRANCH  14  16
ENDBRANCH  11  14
BRANCH  13  32
HETATM   32  C21 UNL     1       0.199  52.701 -23.762  1.00  0.00     0.037 C 
BRANCH  32  33
HETATM   33  C22 UNL     1       1.188  52.232 -24.796  1.00  0.00    -0.010 C 
HETATM   34  C23 UNL     1       0.976  52.107 -26.117  1.00  0.00     0.044 C 
HETATM   35  C24 UNL     1       2.045  51.589 -27.008  1.00  0.00     0.291 C 
HETATM   36  C26 UNL     1      -0.206  52.374 -26.972  1.00  0.00     0.181 C 
HETATM   37  O8  UNL     1       3.105  51.103 -26.659  1.00  0.00    -0.260 OA
HETATM   38  O9  UNL     1       1.632  51.718 -28.299  1.00  0.00    -0.315 OA
HETATM   39  C25 UNL     1       0.443  52.504 -28.333  1.00  0.00     0.215 C 
BRANCH  36  40
HETATM   40  O10 UNL     1      -0.897  53.559 -26.619  1.00  0.00    -0.389 OA
HETATM   41  H38 UNL     1      -1.699  53.605 -27.166  1.00  0.00     0.210 HD
ENDBRANCH  36  40
ENDBRANCH  32  33
ENDBRANCH  13  32
TORSDOF 11
ENDMDL
MODEL 3
REMARK minimizedAffinity -8.83985996
REMARK CNNscore 0.382656902
REMARK CNNaffinity 5.97967005
REMARK  11 active torsions:
REMARK  status: ('A' for Active; 'I' for Inactive)
REMARK    1  A    between atoms: C11_11  and  C13_13 
REMARK    2  A    between atoms: C13_13  and  O2_15 
REMARK    3  A    between atoms: O2_15  and  C14_16 
REMARK    4  A    between atoms: C15_18  and  C16_19 
REMARK    5  A    between atoms: C16_19  and  O4_20 
REMARK    6  A    between atoms: C17_21  and  O5_22 
REMARK    7  A    between atoms: C18_23  and  O6_24 
REMARK    8  A    between atoms: C19_25  and  O7_26 
REMARK    9  A    between atoms: C20_27  and  C21_28 
REMARK   10  A    between atoms: C21_28  and  C22_29 
REMARK   11  A    between atoms: C26_35  and  O10_36 
ROOT
HETATM    1  C1  UNL     1      -2.845  51.195 -26.398  1.00  0.00     0.015 C 
HETATM    2  C2  UNL     1      -3.023  50.224 -25.484  1.00  0.00    -0.084 C 
HETATM    3  C3  UNL     1      -3.444  48.838 -25.890  1.00  0.00     0.034 C 
HETATM    4  C4  UNL     1      -4.719  48.364 -25.175  1.00  0.00     0.011 C 
HETATM    5  C5  UNL     1      -5.069  49.173 -23.902  1.00  0.00     0.012 C 
HETATM    6  C6  UNL     1      -3.774  49.514 -23.086  1.00  0.00    -0.032 C 
HETATM    7  C7  UNL     1      -2.979  48.253 -22.684  1.00  0.00     0.016 C 
HETATM    8  C8  UNL     1      -4.209  50.271 -21.804  1.00  0.00     0.010 C 
HETATM    9  C9  UNL     1      -5.170  49.512 -20.892  1.00  0.00     0.002 C 
HETATM   10  C10 UNL     1      -5.990  48.417 -21.569  1.00  0.00     0.020 C 
HETATM   11  C11 UNL     1      -6.303  48.650 -23.067  1.00  0.00     0.049 C 
HETATM   12  C12 UNL     1      -7.421  49.728 -23.124  1.00  0.00     0.026 C 
HETATM   13  C20 UNL     1      -2.903  50.502 -23.983  1.00  0.00     0.025 C 
ENDROOT
BRANCH  11  14
HETATM   14  C13 UNL     1      -6.910  47.364 -23.663  1.00  0.00     0.270 C 
HETATM   15  O1  UNL     1      -6.666  46.235 -23.257  1.00  0.00    -0.264 OA
BRANCH  14  16
HETATM   16  O2  UNL     1      -7.785  47.653 -24.660  1.00  0.00    -0.286 OA
BRANCH  16  17
HETATM   17  C14 UNL     1      -7.949  46.664 -25.686  1.00  0.00     0.301 C 
HETATM   18  O3  UNL     1      -9.021  45.773 -25.341  1.00  0.00    -0.348 OA
HETATM   19  C15 UNL     1     -10.353  46.245 -25.595  1.00  0.00     0.179 C 
HETATM   20  C17 UNL     1     -10.439  47.755 -25.882  1.00  0.00     0.180 C 
HETATM   21  C18 UNL     1      -9.517  48.155 -27.037  1.00  0.00     0.183 C 
HETATM   22  C19 UNL     1      -8.199  47.364 -27.037  1.00  0.00     0.205 C 
BRANCH  19  23
HETATM   23  C16 UNL     1     -10.967  45.362 -26.697  1.00  0.00     0.198 C 
BRANCH  23  24
HETATM   24  O4  UNL     1     -11.473  46.149 -27.770  1.00  0.00    -0.398 OA
HETATM   25  H24 UNL     1     -11.959  45.541 -28.359  1.00  0.00     0.209 HD
ENDBRANCH  23  24
ENDBRANCH  19  23
BRANCH  20  26
HETATM   26  O5  UNL     1     -11.757  48.240 -26.154  1.00  0.00    -0.390 OA
HETATM   27  H26 UNL     1     -12.277  47.487 -26.517  1.00  0.00     0.210 HD
ENDBRANCH  20  26
BRANCH  21  28
HETATM   28  O6  UNL     1      -9.242  49.569 -26.960  1.00  0.00    -0.390 OA
HETATM   29  H28 UNL     1     -10.113  49.991 -26.809  1.00  0.00     0.210 HD
ENDBRANCH  21  28
BRANCH  22  30
HETATM   30  O7  UNL     1      -7.109  48.212 -27.418  1.00  0.00    -0.388 OA
HETATM   31  H30 UNL     1      -7.443  49.125 -27.281  1.00  0.00     0.210 HD
ENDBRANCH  22  30
ENDBRANCH  16  17
ENDBRANCH  14  16
ENDBRANCH  11  14
BRANCH  13  32
HETATM   32  C21 UNL     1      -1.434  50.747 -23.526  1.00  0.00     0.037 C 
BRANCH  32  33
HETATM   33  C22 UNL     1      -1.240  51.381 -22.173  1.00  0.00    -0.010 C 
HETATM   34  C23 UNL     1      -0.233  52.185 -21.796  1.00  0.00     0.044 C 
HETATM   35  C24 UNL     1      -0.158  52.703 -20.406  1.00  0.00     0.291 C 
HETATM   36  C26 UNL     1       0.954  52.710 -22.515  1.00  0.00     0.181 C 
HETATM   37  O8  UNL     1      -0.857  52.362 -19.469  1.00  0.00    -0.260 OA
HETATM   38  O9  UNL     1       0.853  53.613 -20.337  1.00  0.00    -0.315 OA
HETATM   39  C25 UNL     1       1.311  53.903 -21.655  1.00  0.00     0.215 C 
BRANCH  36  40
HETATM   40  O10 UNL     1       0.673  53.104 -23.847  1.00  0.00    -0.389 OA
HETATM   41  H38 UNL     1       1.517  53.345 -24.265  1.00  0.00     0.210 HD
ENDBRANCH  36  40
ENDBRANCH  32  33
ENDBRANCH  13  32
TORSDOF 11
ENDMDL
MODEL 4
REMARK minimizedAffinity -8.07071877
REMARK CNNscore 0.362709135
REMARK CNNaffinity 5.73711586
REMARK  11 active torsions:
REMARK  status: ('A' for Active; 'I' for Inactive)
REMARK    1  A    between atoms: C11_11  and  C13_13 
REMARK    2  A    between atoms: C13_13  and  O2_15 
REMARK    3  A    between atoms: O2_15  and  C14_16 
REMARK    4  A    between atoms: C15_18  and  C16_19 
REMARK    5  A    between atoms: C16_19  and  O4_20 
REMARK    6  A    between atoms: C17_21  and  O5_22 
REMARK    7  A    between atoms: C18_23  and  O6_24 
REMARK    8  A    between atoms: C19_25  and  O7_26 
REMARK    9  A    between atoms: C20_27  and  C21_28 
REMARK   10  A    between atoms: C21_28  and  C22_29 
REMARK   11  A    between atoms: C26_35  and  O10_36 
ROOT
HETATM    1  C1  UNL     1     -12.348  45.906 -34.782  1.00  0.00     0.015 C 
HETATM    2  C2  UNL     1     -11.241  45.611 -34.079  1.00  0.00    -0.084 C 
HETATM    3  C3  UNL     1     -11.302  44.735 -32.858  1.00  0.00     0.034 C 
HETATM    4  C4  UNL     1     -10.708  45.403 -31.609  1.00  0.00     0.011 C 
HETATM    5  C5  UNL     1      -9.793  46.615 -31.913  1.00  0.00     0.012 C 
HETATM    6  C6  UNL     1      -8.901  46.336 -33.173  1.00  0.00    -0.032 C 
HETATM    7  C7  UNL     1      -8.031  45.071 -33.013  1.00  0.00     0.016 C 
HETATM    8  C8  UNL     1      -7.978  47.565 -33.380  1.00  0.00     0.010 C 
HETATM    9  C9  UNL     1      -7.064  47.900 -32.204  1.00  0.00     0.002 C 
HETATM   10  C10 UNL     1      -7.531  47.389 -30.843  1.00  0.00     0.020 C 
HETATM   11  C11 UNL     1      -9.064  47.262 -30.671  1.00  0.00     0.049 C 
HETATM   12  C12 UNL     1      -9.611  48.704 -30.483  1.00  0.00     0.026 C 
HETATM   13  C20 UNL     1      -9.881  46.226 -34.424  1.00  0.00     0.025 C 
ENDROOT
BRANCH  11  14
HETATM   14  C13 UNL     1      -9.365  46.510 -29.359  1.00  0.00     0.270 C 
HETATM   15  O1  UNL     1      -9.311  45.293 -29.235  1.00  0.00    -0.264 OA
BRANCH  14  16
HETATM   16  O2  UNL     1      -9.649  47.376 -28.353  1.00  0.00    -0.286 OA
BRANCH  16  17
HETATM   17  C14 UNL     1     -10.202  46.817 -27.153  1.00  0.00     0.301 C 
HETATM   18  O3  UNL     1      -9.255  45.923 -26.547  1.00  0.00    -0.348 OA
HETATM   19  C15 UNL     1      -8.207  46.527 -25.774  1.00  0.00     0.179 C 
HETATM   20  C17 UNL     1      -8.064  48.044 -25.989  1.00  0.00     0.180 C 
HETATM   21  C18 UNL     1      -9.387  48.770 -25.728  1.00  0.00     0.183 C 
HETATM   22  C19 UNL     1     -10.605  47.957 -26.195  1.00  0.00     0.205 C 
BRANCH  19  23
HETATM   23  C16 UNL     1      -8.408  46.119 -24.302  1.00  0.00     0.198 C 
BRANCH  23  24
HETATM   24  O4  UNL     1      -7.285  46.480 -23.507  1.00  0.00    -0.398 OA
HETATM   25  H24 UNL     1      -7.423  46.078 -22.627  1.00  0.00     0.209 HD
ENDBRANCH  23  24
ENDBRANCH  19  23
BRANCH  20  26
HETATM   26  O5  UNL     1      -7.035  48.666 -25.213  1.00  0.00    -0.390 OA
HETATM   27  H26 UNL     1      -6.905  48.117 -24.407  1.00  0.00     0.210 HD
ENDBRANCH  20  26
BRANCH  21  28
HETATM   28  O6  UNL     1      -9.366  50.051 -26.392  1.00  0.00    -0.390 OA
HETATM   29  H28 UNL     1      -8.497  50.441 -26.167  1.00  0.00     0.210 HD
ENDBRANCH  21  28
BRANCH  22  30
HETATM   30  O7  UNL     1     -11.592  48.822 -26.769  1.00  0.00    -0.388 OA
HETATM   31  H30 UNL     1     -11.105  49.648 -26.985  1.00  0.00     0.210 HD
ENDBRANCH  22  30
ENDBRANCH  16  17
ENDBRANCH  14  16
ENDBRANCH  11  14
BRANCH  13  32
HETATM   32  C21 UNL     1      -9.272  45.655 -35.739  1.00  0.00     0.037 C 
BRANCH  32  33
HETATM   33  C22 UNL     1      -9.838  46.179 -37.034  1.00  0.00    -0.010 C 
HETATM   34  C23 UNL     1      -9.539  47.345 -37.631  1.00  0.00     0.044 C 
HETATM   35  C24 UNL     1     -10.214  47.743 -38.892  1.00  0.00     0.291 C 
HETATM   36  C26 UNL     1      -8.613  48.447 -37.272  1.00  0.00     0.181 C 
HETATM   37  O8  UNL     1     -11.160  47.181 -39.414  1.00  0.00    -0.260 OA
HETATM   38  O9  UNL     1      -9.617  48.872 -39.365  1.00  0.00    -0.315 OA
HETATM   39  C25 UNL     1      -8.433  49.123 -38.614  1.00  0.00     0.215 C 
BRANCH  36  40
HETATM   40  O10 UNL     1      -7.374  47.992 -36.757  1.00  0.00    -0.389 OA
HETATM   41  H38 UNL     1      -6.873  48.773 -36.467  1.00  0.00     0.210 HD
ENDBRANCH  36  40
ENDBRANCH  32  33
ENDBRANCH  13  32
TORSDOF 11
ENDMDL
MODEL 5
REMARK minimizedAffinity -7.9978981
REMARK CNNscore 0.358339846
REMARK CNNaffinity 5.67309618
REMARK  11 active torsions:
REMARK  status: ('A' for Active; 'I' for Inactive)
REMARK    1  A    between atoms: C11_11  and  C13_13 
REMARK    2  A    between atoms: C13_13  and  O2_15 
REMARK    3  A    between atoms: O2_15  and  C14_16 
REMARK    4  A    between atoms: C15_18  and  C16_19 
REMARK    5  A    between atoms: C16_19  and  O4_20 
REMARK    6  A    between atoms: C17_21  and  O5_22 
REMARK    7  A    between atoms: C18_23  and  O6_24 
REMARK    8  A    between atoms: C19_25  and  O7_26 
REMARK    9  A    between atoms: C20_27  and  C21_28 
REMARK   10  A    between atoms: C21_28  and  C22_29 
REMARK   11  A    between atoms: C26_35  and  O10_36 
ROOT
HETATM    1  C1  UNL     1       1.219  52.284 -21.554  1.00  0.00     0.015 C 
HETATM    2  C2  UNL     1      -0.033  52.225 -21.070  1.00  0.00    -0.084 C 
HETATM    3  C3  UNL     1      -0.394  52.866 -19.757  1.00  0.00     0.034 C 
HETATM    4  C4  UNL     1      -1.034  51.882 -18.765  1.00  0.00     0.011 C 
HETATM    5  C5  UNL     1      -1.576  50.587 -19.417  1.00  0.00     0.012 C 
HETATM    6  C6  UNL     1      -2.268  50.903 -20.789  1.00  0.00    -0.032 C 
HETATM    7  C7  UNL     1      -3.419  51.922 -20.650  1.00  0.00     0.016 C 
HETATM    8  C8  UNL     1      -2.832  49.572 -21.351  1.00  0.00     0.010 C 
HETATM    9  C9  UNL     1      -3.841  48.860 -20.453  1.00  0.00     0.002 C 
HETATM   10  C10 UNL     1      -3.755  49.203 -18.968  1.00  0.00     0.020 C 
HETATM   11  C11 UNL     1      -2.348  49.599 -18.458  1.00  0.00     0.049 C 
HETATM   12  C12 UNL     1      -1.528  48.283 -18.352  1.00  0.00     0.026 C 
HETATM   13  C20 UNL     1      -1.131  51.425 -21.776  1.00  0.00     0.025 C 
ENDROOT
BRANCH  11  14
HETATM   14  C13 UNL     1      -2.467  50.151 -17.022  1.00  0.00     0.270 C 
HETATM   15  O1  UNL     1      -3.242  51.039 -16.689  1.00  0.00    -0.264 OA
BRANCH  14  16
HETATM   16  O2  UNL     1      -1.639  49.491 -16.174  1.00  0.00    -0.286 OA
BRANCH  16  17
HETATM   17  C14 UNL     1      -0.405  50.141 -15.836  1.00  0.00     0.301 C 
HETATM   18  O3  UNL     1      -0.673  51.371 -15.144  1.00  0.00    -0.348 OA
HETATM   19  C15 UNL     1      -0.990  51.265 -13.748  1.00  0.00     0.179 C 
HETATM   20  C17 UNL     1      -1.324  49.835 -13.288  1.00  0.00     0.180 C 
HETATM   21  C18 UNL     1      -0.196  48.860 -13.639  1.00  0.00     0.183 C 
HETATM   22  C19 UNL     1       0.462  49.185 -14.990  1.00  0.00     0.205 C 
BRANCH  19  23
HETATM   23  C16 UNL     1       0.147  51.930 -12.951  1.00  0.00     0.198 C 
BRANCH  23  24
HETATM   24  O4  UNL     1       0.986  52.709 -13.797  1.00  0.00    -0.398 OA
HETATM   25  H24 UNL     1       1.749  52.987 -13.255  1.00  0.00     0.209 HD
ENDBRANCH  23  24
ENDBRANCH  19  23
BRANCH  20  26
HETATM   26  O5  UNL     1      -1.626  49.707 -11.895  1.00  0.00    -0.390 OA
HETATM   27  H26 UNL     1      -1.167  50.441 -11.428  1.00  0.00     0.210 HD
ENDBRANCH  20  26
BRANCH  21  28
HETATM   28  O6  UNL     1      -0.718  47.515 -13.658  1.00  0.00    -0.390 OA
HETATM   29  H28 UNL     1      -1.248  47.435 -12.839  1.00  0.00     0.210 HD
ENDBRANCH  21  28
BRANCH  22  30
HETATM   30  O7  UNL     1       0.782  47.979 -15.693  1.00  0.00    -0.388 OA
HETATM   31  H30 UNL     1       0.228  47.288 -15.268  1.00  0.00     0.210 HD
ENDBRANCH  22  30
ENDBRANCH  16  17
ENDBRANCH  14  16
ENDBRANCH  11  14
BRANCH  13  32
HETATM   32  C21 UNL     1      -1.609  52.087 -23.102  1.00  0.00     0.037 C 
BRANCH  32  33
HETATM   33  C22 UNL     1      -0.935  51.633 -24.371  1.00  0.00    -0.010 C 
HETATM   34  C23 UNL     1      -1.511  51.451 -25.570  1.00  0.00     0.044 C 
HETATM   35  C24 UNL     1      -0.717  50.959 -26.724  1.00  0.00     0.291 C 
HETATM   36  C26 UNL     1      -2.904  51.626 -26.050  1.00  0.00     0.181 C 
HETATM   37  O8  UNL     1       0.426  50.541 -26.688  1.00  0.00    -0.260 OA
HETATM   38  O9  UNL     1      -1.492  51.020 -27.841  1.00  0.00    -0.315 OA
HETATM   39  C25 UNL     1      -2.685  51.741 -27.543  1.00  0.00     0.215 C 
BRANCH  36  40
HETATM   40  O10 UNL     1      -3.533  52.785 -25.533  1.00  0.00    -0.389 OA
HETATM   41  H38 UNL     1      -4.461  52.770 -25.825  1.00  0.00     0.210 HD
ENDBRANCH  36  40
ENDBRANCH  32  33
ENDBRANCH  13  32
TORSDOF 11
ENDMDL
MODEL 6
REMARK minimizedAffinity -9.08495712
REMARK CNNscore 0.316740274
REMARK CNNaffinity 5.63935661
REMARK  11 active torsions:
REMARK  status: ('A' for Active; 'I' for Inactive)
REMARK    1  A    between atoms: C11_11  and  C13_13 
REMARK    2  A    between atoms: C13_13  and  O2_15 
REMARK    3  A    between atoms: O2_15  and  C14_16 
REMARK    4  A    between atoms: C15_18  and  C16_19 
REMARK    5  A    between atoms: C16_19  and  O4_20 
REMARK    6  A    between atoms: C17_21  and  O5_22 
REMARK    7  A    between atoms: C18_23  and  O6_24 
REMARK    8  A    between atoms: C19_25  and  O7_26 
REMARK    9  A    between atoms: C20_27  and  C21_28 
REMARK   10  A    between atoms: C21_28  and  C22_29 
REMARK   11  A    between atoms: C26_35  and  O10_36 
ROOT
HETATM    1  C1  UNL     1       1.473  52.433 -21.053  1.00  0.00     0.015 C 
HETATM    2  C2  UNL     1       0.177  52.321 -21.391  1.00  0.00    -0.084 C 
HETATM    3  C3  UNL     1      -0.914  52.505 -20.372  1.00  0.00     0.034 C 
HETATM    4  C4  UNL     1      -1.866  51.301 -20.288  1.00  0.00     0.011 C 
HETATM    5  C5  UNL     1      -1.805  50.357 -21.514  1.00  0.00     0.012 C 
HETATM    6  C6  UNL     1      -1.671  51.180 -22.842  1.00  0.00    -0.032 C 
HETATM    7  C7  UNL     1      -2.825  52.186 -23.034  1.00  0.00     0.016 C 
HETATM    8  C8  UNL     1      -1.672  50.173 -24.023  1.00  0.00     0.010 C 
HETATM    9  C9  UNL     1      -2.912  49.289 -24.124  1.00  0.00     0.002 C 
HETATM   10  C10 UNL     1      -3.690  49.097 -22.825  1.00  0.00     0.020 C 
HETATM   11  C11 UNL     1      -2.848  49.172 -21.529  1.00  0.00     0.049 C 
HETATM   12  C12 UNL     1      -2.065  47.833 -21.430  1.00  0.00     0.026 C 
HETATM   13  C20 UNL     1      -0.253  51.907 -22.802  1.00  0.00     0.025 C 
ENDROOT
BRANCH  11  14
HETATM   14  C13 UNL     1      -3.794  49.211 -20.311  1.00  0.00     0.270 C 
HETATM   15  O1  UNL     1      -4.592  50.113 -20.089  1.00  0.00    -0.264 OA
BRANCH  14  16
HETATM   16  O2  UNL     1      -3.660  48.094 -19.552  1.00  0.00    -0.286 OA
BRANCH  16  17
HETATM   17  C14 UNL     1      -4.791  47.213 -19.489  1.00  0.00     0.301 C 
HETATM   18  O3  UNL     1      -4.405  45.891 -19.898  1.00  0.00    -0.348 OA
HETATM   19  C15 UNL     1      -3.734  45.087 -18.916  1.00  0.00     0.179 C 
HETATM   20  C17 UNL     1      -3.233  45.877 -17.695  1.00  0.00     0.180 C 
HETATM   21  C18 UNL     1      -4.371  46.660 -17.033  1.00  0.00     0.183 C 
HETATM   22  C19 UNL     1      -5.368  47.224 -18.058  1.00  0.00     0.205 C 
BRANCH  19  23
HETATM   23  C16 UNL     1      -4.654  43.904 -18.562  1.00  0.00     0.198 C 
BRANCH  23  24
HETATM   24  O4  UNL     1      -4.280  42.727 -19.269  1.00  0.00    -0.398 OA
HETATM   25  H24 UNL     1      -4.977  42.064 -19.100  1.00  0.00     0.209 HD
ENDBRANCH  23  24
ENDBRANCH  19  23
BRANCH  20  26
HETATM   26  O5  UNL     1      -2.576  45.089 -16.698  1.00  0.00    -0.390 OA
HETATM   27  H26 UNL     1      -2.930  44.173 -16.769  1.00  0.00     0.210 HD
ENDBRANCH  20  26
BRANCH  21  28
HETATM   28  O6  UNL     1      -3.815  47.734 -16.246  1.00  0.00    -0.390 OA
HETATM   29  H28 UNL     1      -3.088  47.326 -15.733  1.00  0.00     0.210 HD
ENDBRANCH  21  28
BRANCH  22  30
HETATM   30  O7  UNL     1      -5.807  48.528 -17.661  1.00  0.00    -0.388 OA
HETATM   31  H30 UNL     1      -5.134  48.833 -17.015  1.00  0.00     0.210 HD
ENDBRANCH  22  30
ENDBRANCH  16  17
ENDBRANCH  14  16
ENDBRANCH  11  14
BRANCH  13  32
HETATM   32  C21 UNL     1      -0.009  53.020 -23.863  1.00  0.00     0.037 C 
BRANCH  32  33
HETATM   33  C22 UNL     1       0.956  52.699 -24.975  1.00  0.00    -0.010 C 
HETATM   34  C23 UNL     1       0.650  52.260 -26.207  1.00  0.00     0.044 C 
HETATM   35  C24 UNL     1       1.722  51.947 -27.186  1.00  0.00     0.291 C 
HETATM   36  C26 UNL     1      -0.642  51.965 -26.874  1.00  0.00     0.181 C 
HETATM   37  O8  UNL     1       2.918  51.902 -26.959  1.00  0.00    -0.260 OA
HETATM   38  O9  UNL     1       1.145  51.685 -28.391  1.00  0.00    -0.315 OA
HETATM   39  C25 UNL     1      -0.237  52.028 -28.331  1.00  0.00     0.215 C 
BRANCH  36  40
HETATM   40  O10 UNL     1      -1.653  52.912 -26.581  1.00  0.00    -0.389 OA
HETATM   41  H38 UNL     1      -2.479  52.593 -26.982  1.00  0.00     0.210 HD
ENDBRANCH  36  40
ENDBRANCH  32  33
ENDBRANCH  13  32
TORSDOF 11
ENDMDL
MODEL 7
REMARK minimizedAffinity -8.1161623
REMARK CNNscore 0.313373417
REMARK CNNaffinity 5.70328903
REMARK  11 active torsions:
REMARK  status: ('A' for Active; 'I' for Inactive)
REMARK    1  A    between atoms: C11_11  and  C13_13 
REMARK    2  A    between atoms: C13_13  and  O2_15 
REMARK    3  A    between atoms: O2_15  and  C14_16 
REMARK    4  A    between atoms: C15_18  and  C16_19 
REMARK    5  A    between atoms: C16_19  and  O4_20 
REMARK    6  A    between atoms: C17_21  and  O5_22 
REMARK    7  A    between atoms: C18_23  and  O6_24 
REMARK    8  A    between atoms: C19_25  and  O7_26 
REMARK    9  A    between atoms: C20_27  and  C21_28 
REMARK   10  A    between atoms: C21_28  and  C22_29 
REMARK   11  A    between atoms: C26_35  and  O10_36 
ROOT
HETATM    1  C1  UNL     1       0.430  51.770 -20.797  1.00  0.00     0.015 C 
HETATM    2  C2  UNL     1      -0.876  51.506 -20.975  1.00  0.00    -0.084 C 
HETATM    3  C3  UNL     1      -1.802  51.325 -19.803  1.00  0.00     0.034 C 
HETATM    4  C4  UNL     1      -2.552  49.984 -19.832  1.00  0.00     0.011 C 
HETATM    5  C5  UNL     1      -2.561  49.293 -21.217  1.00  0.00     0.012 C 
HETATM    6  C6  UNL     1      -2.759  50.345 -22.363  1.00  0.00    -0.032 C 
HETATM    7  C7  UNL     1      -4.057  51.164 -22.196  1.00  0.00     0.016 C 
HETATM    8  C8  UNL     1      -2.813  49.575 -23.708  1.00  0.00     0.010 C 
HETATM    9  C9  UNL     1      -3.919  48.528 -23.816  1.00  0.00     0.002 C 
HETATM   10  C10 UNL     1      -4.442  47.986 -22.488  1.00  0.00     0.020 C 
HETATM   11  C11 UNL     1      -3.420  47.972 -21.327  1.00  0.00     0.049 C 
HETATM   12  C12 UNL     1      -2.454  46.785 -21.600  1.00  0.00     0.026 C 
HETATM   13  C20 UNL     1      -1.468  51.279 -22.369  1.00  0.00     0.025 C 
ENDROOT
BRANCH  11  14
HETATM   14  C13 UNL     1      -4.152  47.640 -20.011  1.00  0.00     0.270 C 
HETATM   15  O1  UNL     1      -3.611  47.151 -19.027  1.00  0.00    -0.264 OA
BRANCH  14  16
HETATM   16  O2  UNL     1      -5.458  48.005 -20.072  1.00  0.00    -0.286 OA
BRANCH  16  17
HETATM   17  C14 UNL     1      -6.407  46.970 -20.368  1.00  0.00     0.301 C 
HETATM   18  O3  UNL     1      -6.267  45.893 -19.427  1.00  0.00    -0.348 OA
HETATM   19  C15 UNL     1      -6.881  46.080 -18.143  1.00  0.00     0.179 C 
HETATM   20  C17 UNL     1      -7.304  47.531 -17.856  1.00  0.00     0.180 C 
HETATM   21  C18 UNL     1      -8.224  48.071 -18.954  1.00  0.00     0.183 C 
HETATM   22  C19 UNL     1      -7.831  47.562 -20.351  1.00  0.00     0.205 C 
BRANCH  19  23
HETATM   23  C16 UNL     1      -8.025  45.057 -18.011  1.00  0.00     0.198 C 
BRANCH  23  24
HETATM   24  O4  UNL     1      -8.050  44.164 -19.118  1.00  0.00    -0.398 OA
HETATM   25  H24 UNL     1      -8.869  43.637 -19.035  1.00  0.00     0.209 HD
ENDBRANCH  23  24
ENDBRANCH  19  23
BRANCH  20  26
HETATM   26  O5  UNL     1      -7.934  47.733 -16.587  1.00  0.00    -0.390 OA
HETATM   27  H26 UNL     1      -8.351  46.880 -16.328  1.00  0.00     0.210 HD
ENDBRANCH  20  26
BRANCH  21  28
HETATM   28  O6  UNL     1      -8.198  49.513 -18.932  1.00  0.00    -0.390 OA
HETATM   29  H28 UNL     1      -8.303  49.757 -17.990  1.00  0.00     0.210 HD
ENDBRANCH  21  28
BRANCH  22  30
HETATM   30  O7  UNL     1      -7.998  48.599 -21.325  1.00  0.00    -0.388 OA
HETATM   31  H30 UNL     1      -8.025  49.430 -20.803  1.00  0.00     0.210 HD
ENDBRANCH  22  30
ENDBRANCH  16  17
ENDBRANCH  14  16
ENDBRANCH  11  14
BRANCH  13  32
HETATM   32  C21 UNL     1      -1.555  52.585 -23.212  1.00  0.00     0.037 C 
BRANCH  32  33
HETATM   33  C22 UNL     1      -0.552  52.743 -24.325  1.00  0.00    -0.010 C 
HETATM   34  C23 UNL     1      -0.777  52.593 -25.641  1.00  0.00     0.044 C 
HETATM   35  C24 UNL     1       0.330  52.744 -26.619  1.00  0.00     0.291 C 
HETATM   36  C26 UNL     1      -1.995  52.255 -26.418  1.00  0.00     0.181 C 
HETATM   37  O8  UNL     1       1.514  52.856 -26.359  1.00  0.00    -0.260 OA
HETATM   38  O9  UNL     1      -0.194  52.705 -27.875  1.00  0.00    -0.315 OA
HETATM   39  C25 UNL     1      -1.615  52.767 -27.790  1.00  0.00     0.215 C 
BRANCH  36  40
HETATM   40  O10 UNL     1      -3.163  52.896 -25.936  1.00  0.00    -0.389 OA
HETATM   41  H38 UNL     1      -3.917  52.549 -26.441  1.00  0.00     0.210 HD
ENDBRANCH  36  40
ENDBRANCH  32  33
ENDBRANCH  13  32
TORSDOF 11
ENDMDL
MODEL 8
REMARK minimizedAffinity -7.99737549
REMARK CNNscore 0.287346214
REMARK CNNaffinity 5.64781237
REMARK  11 active torsions:
REMARK  status: ('A' for Active; 'I' for Inactive)
REMARK    1  A    between atoms: C11_11  and  C13_13 
REMARK    2  A    between atoms: C13_13  and  O2_15 
REMARK    3  A    between atoms: O2_15  and  C14_16 
REMARK    4  A    between atoms: C15_18  and  C16_19 
REMARK    5  A    between atoms: C16_19  and  O4_20 
REMARK    6  A    between atoms: C17_21  and  O5_22 
REMARK    7  A    between atoms: C18_23  and  O6_24 
REMARK    8  A    between atoms: C19_25  and  O7_26 
REMARK    9  A    between atoms: C20_27  and  C21_28 
REMARK   10  A    between atoms: C21_28  and  C22_29 
REMARK   11  A    between atoms: C26_35  and  O10_36 
ROOT
HETATM    1  C1  UNL     1      -0.255  51.270 -21.570  1.00  0.00     0.015 C 
HETATM    2  C2  UNL     1      -1.581  51.074 -21.469  1.00  0.00    -0.084 C 
HETATM    3  C3  UNL     1      -2.280  51.135 -20.137  1.00  0.00     0.034 C 
HETATM    4  C4  UNL     1      -3.077  49.861 -19.819  1.00  0.00     0.011 C 
HETATM    5  C5  UNL     1      -3.374  48.974 -21.053  1.00  0.00     0.012 C 
HETATM    6  C6  UNL     1      -3.738  49.855 -22.298  1.00  0.00    -0.032 C 
HETATM    7  C7  UNL     1      -4.946  50.779 -22.035  1.00  0.00     0.016 C 
HETATM    8  C8  UNL     1      -4.074  48.900 -23.472  1.00  0.00     0.010 C 
HETATM    9  C9  UNL     1      -5.223  47.929 -23.214  1.00  0.00     0.002 C 
HETATM   10  C10 UNL     1      -5.511  47.628 -21.746  1.00  0.00     0.020 C 
HETATM   11  C11 UNL     1      -4.292  47.715 -20.797  1.00  0.00     0.049 C 
HETATM   12  C12 UNL     1      -3.444  46.436 -21.046  1.00  0.00     0.026 C 
HETATM   13  C20 UNL     1      -2.432  50.685 -22.681  1.00  0.00     0.025 C 
ENDROOT
BRANCH  11  14
HETATM   14  C13 UNL     1      -4.779  47.634 -19.336  1.00  0.00     0.270 C 
HETATM   15  O1  UNL     1      -4.067  47.325 -18.389  1.00  0.00    -0.264 OA
BRANCH  14  16
HETATM   16  O2  UNL     1      -6.084  47.996 -19.235  1.00  0.00    -0.286 OA
BRANCH  16  17
HETATM   17  C14 UNL     1      -6.787  47.562 -18.062  1.00  0.00     0.301 C 
HETATM   18  O3  UNL     1      -7.815  48.509 -17.730  1.00  0.00    -0.348 OA
HETATM   19  C15 UNL     1      -9.034  48.423 -18.484  1.00  0.00     0.179 C 
HETATM   20  C17 UNL     1      -8.927  47.556 -19.750  1.00  0.00     0.180 C 
HETATM   21  C18 UNL     1      -8.420  46.149 -19.421  1.00  0.00     0.183 C 
HETATM   22  C19 UNL     1      -7.364  46.152 -18.303  1.00  0.00     0.205 C 
BRANCH  19  23
HETATM   23  C16 UNL     1     -10.157  47.991 -17.522  1.00  0.00     0.198 C 
BRANCH  23  24
HETATM   24  O4  UNL     1      -9.737  48.074 -16.165  1.00  0.00    -0.398 OA
HETATM   25  H24 UNL     1     -10.442  47.664 -15.628  1.00  0.00     0.209 HD
ENDBRANCH  23  24
ENDBRANCH  19  23
BRANCH  20  26
HETATM   26  O5  UNL     1     -10.138  47.444 -20.506  1.00  0.00    -0.390 OA
HETATM   27  H26 UNL     1     -10.886  47.577 -19.880  1.00  0.00     0.210 HD
ENDBRANCH  20  26
BRANCH  21  28
HETATM   28  O6  UNL     1      -7.871  45.549 -20.613  1.00  0.00    -0.390 OA
HETATM   29  H28 UNL     1      -8.534  45.720 -21.313  1.00  0.00     0.210 HD
ENDBRANCH  21  28
BRANCH  22  30
HETATM   30  O7  UNL     1      -6.341  45.189 -18.580  1.00  0.00    -0.388 OA
HETATM   31  H30 UNL     1      -6.425  45.005 -19.541  1.00  0.00     0.210 HD
ENDBRANCH  22  30
ENDBRANCH  16  17
ENDBRANCH  14  16
ENDBRANCH  11  14
BRANCH  13  32
HETATM   32  C21 UNL     1      -2.621  51.854 -23.692  1.00  0.00     0.037 C 
BRANCH  32  33
HETATM   33  C22 UNL     1      -1.386  52.631 -24.070  1.00  0.00    -0.010 C 
HETATM   34  C23 UNL     1      -0.937  52.879 -25.312  1.00  0.00     0.044 C 
HETATM   35  C24 UNL     1       0.325  53.630 -25.524  1.00  0.00     0.291 C 
HETATM   36  C26 UNL     1      -1.455  52.518 -26.655  1.00  0.00     0.181 C 
HETATM   37  O8  UNL     1       1.128  53.951 -24.667  1.00  0.00    -0.260 OA
HETATM   38  O9  UNL     1       0.461  53.881 -26.855  1.00  0.00    -0.315 OA
HETATM   39  C25 UNL     1      -0.752  53.542 -27.521  1.00  0.00     0.215 C 
BRANCH  36  40
HETATM   40  O10 UNL     1      -2.862  52.635 -26.763  1.00  0.00    -0.389 OA
HETATM   41  H38 UNL     1      -3.118  52.296 -27.638  1.00  0.00     0.210 HD
ENDBRANCH  36  40
ENDBRANCH  32  33
ENDBRANCH  13  32
TORSDOF 11
ENDMDL
MODEL 9
REMARK minimizedAffinity -8.70715332
REMARK CNNscore 0.263032585
REMARK CNNaffinity 5.39148378
REMARK  11 active torsions:
REMARK  status: ('A' for Active; 'I' for Inactive)
REMARK    1  A    between atoms: C11_11  and  C13_13 
REMARK    2  A    between atoms: C13_13  and  O2_15 
REMARK    3  A    between atoms: O2_15  and  C14_16 
REMARK    4  A    between atoms: C15_18  and  C16_19 
REMARK    5  A    between atoms: C16_19  and  O4_20 
REMARK    6  A    between atoms: C17_21  and  O5_22 
REMARK    7  A    between atoms: C18_23  and  O6_24 
REMARK    8  A    between atoms: C19_25  and  O7_26 
REMARK    9  A    between atoms: C20_27  and  C21_28 
REMARK   10  A    between atoms: C21_28  and  C22_29 
REMARK   11  A    between atoms: C26_35  and  O10_36 
ROOT
HETATM    1  C1  UNL     1       1.024  51.872 -21.004  1.00  0.00     0.015 C 
HETATM    2  C2  UNL     1      -0.259  51.777 -21.394  1.00  0.00    -0.084 C 
HETATM    3  C3  UNL     1      -1.385  51.871 -20.402  1.00  0.00     0.034 C 
HETATM    4  C4  UNL     1      -2.327  50.657 -20.445  1.00  0.00     0.011 C 
HETATM    5  C5  UNL     1      -2.214  49.814 -21.740  1.00  0.00     0.012 C 
HETATM    6  C6  UNL     1      -2.044  50.741 -22.993  1.00  0.00    -0.032 C 
HETATM    7  C7  UNL     1      -3.202  51.750 -23.144  1.00  0.00     0.016 C 
HETATM    8  C8  UNL     1      -1.995  49.832 -24.249  1.00  0.00     0.010 C 
HETATM    9  C9  UNL     1      -3.221  48.948 -24.463  1.00  0.00     0.002 C 
HETATM   10  C10 UNL     1      -4.040  48.647 -23.211  1.00  0.00     0.020 C 
HETATM   11  C11 UNL     1      -3.243  48.626 -21.884  1.00  0.00     0.049 C 
HETATM   12  C12 UNL     1      -2.450  47.289 -21.865  1.00  0.00     0.026 C 
HETATM   13  C20 UNL     1      -0.637  51.473 -22.847  1.00  0.00     0.025 C 
ENDROOT
BRANCH  11  14
HETATM   14  C13 UNL     1      -4.231  48.560 -20.701  1.00  0.00     0.270 C 
HETATM   15  O1  UNL     1      -4.917  49.502 -20.325  1.00  0.00    -0.264 OA
BRANCH  14  16
HETATM   16  O2  UNL     1      -4.273  47.312 -20.168  1.00  0.00    -0.286 OA
BRANCH  16  17
HETATM   17  C14 UNL     1      -5.444  46.968 -19.415  1.00  0.00     0.301 C 
HETATM   18  O3  UNL     1      -6.599  46.987 -20.269  1.00  0.00    -0.348 OA
HETATM   19  C15 UNL     1      -6.803  45.833 -21.098  1.00  0.00     0.179 C 
HETATM   20  C17 UNL     1      -5.578  44.905 -21.191  1.00  0.00     0.180 C 
HETATM   21  C18 UNL     1      -5.103  44.469 -19.802  1.00  0.00     0.183 C 
HETATM   22  C19 UNL     1      -5.242  45.588 -18.756  1.00  0.00     0.205 C 
BRANCH  19  23
HETATM   23  C16 UNL     1      -8.087  45.129 -20.623  1.00  0.00     0.198 C 
BRANCH  23  24
HETATM   24  O4  UNL     1      -8.071  44.914 -19.217  1.00  0.00    -0.398 OA
HETATM   25  H24 UNL     1      -8.843  44.353 -19.010  1.00  0.00     0.209 HD
ENDBRANCH  23  24
ENDBRANCH  19  23
BRANCH  20  26
HETATM   26  O5  UNL     1      -5.768  43.740 -21.999  1.00  0.00    -0.390 OA
HETATM   27  H26 UNL     1      -6.731  43.534 -21.994  1.00  0.00     0.210 HD
ENDBRANCH  20  26
BRANCH  21  28
HETATM   28  O6  UNL     1      -3.728  44.041 -19.882  1.00  0.00    -0.390 OA
HETATM   29  H28 UNL     1      -3.689  43.450 -20.662  1.00  0.00     0.210 HD
ENDBRANCH  21  28
BRANCH  22  30
HETATM   30  O7  UNL     1      -4.126  45.575 -17.859  1.00  0.00    -0.388 OA
HETATM   31  H30 UNL     1      -3.434  45.061 -18.329  1.00  0.00     0.210 HD
ENDBRANCH  22  30
ENDBRANCH  16  17
ENDBRANCH  14  16
ENDBRANCH  11  14
BRANCH  13  32
HETATM   32  C21 UNL     1      -0.369  52.669 -23.807  1.00  0.00     0.037 C 
BRANCH  32  33
HETATM   33  C22 UNL     1       0.681  52.466 -24.869  1.00  0.00    -0.010 C 
HETATM   34  C23 UNL     1       0.476  52.129 -26.153  1.00  0.00     0.044 C 
HETATM   35  C24 UNL     1       1.623  51.925 -27.074  1.00  0.00     0.291 C 
HETATM   36  C26 UNL     1      -0.757  51.865 -26.935  1.00  0.00     0.181 C 
HETATM   37  O8  UNL     1       2.800  51.886 -26.765  1.00  0.00    -0.260 OA
HETATM   38  O9  UNL     1       1.139  51.756 -28.335  1.00  0.00    -0.315 OA
HETATM   39  C25 UNL     1      -0.252  52.063 -28.348  1.00  0.00     0.215 C 
BRANCH  36  40
HETATM   40  O10 UNL     1      -1.812  52.762 -26.637  1.00  0.00    -0.389 OA
HETATM   41  H38 UNL     1      -2.598  52.461 -27.123  1.00  0.00     0.210 HD
ENDBRANCH  36  40
ENDBRANCH  32  33
ENDBRANCH  13  32
TORSDOF 11
ENDMDL
