MODEL 1
REMARK minimizedAffinity -8.10428333
REMARK CNNscore 0.350201756
REMARK CNNaffinity 5.58472443
REMARK  9 active torsions:
REMARK  status: ('A' for Active; 'I' for Inactive)
REMARK    1  A    between atoms: C3_3  and  O1_4 
REMARK    2  A    between atoms: N1_14  and  O2_16 
REMARK    3  A    between atoms: O2_16  and  C13_17 
REMARK    4  A    between atoms: C13_17  and  C14_18 
REMARK       I    between atoms: C14_18  and  N2_20 
REMARK    5  A    between atoms: N2_20  and  C15_21 
REMARK    6  A    between atoms: C15_21  and  C16_22 
REMARK    7  A    between atoms: C15_21  and  C18_26 
REMARK    8  A    between atoms: C16_22  and  C17_23 
REMARK    9  A    between atoms: C17_23  and  O5_25 
ROOT
HETATM    1  C1  UNL     1      -5.503  47.185 -33.230  1.00  0.00     0.015 C 
HETATM    2  C2  UNL     1      -5.763  47.593 -32.129  1.00  0.00    -0.078 C 
HETATM    3  C3  UNL     1      -6.093  48.117 -30.794  1.00  0.00     0.128 C 
HETATM    4  C4  UNL     1      -5.516  47.258 -29.661  1.00  0.00     0.052 C 
HETATM    5  C5  UNL     1      -6.486  47.415 -28.479  1.00  0.00     0.010 C 
HETATM    6  C6  UNL     1      -7.611  48.353 -28.956  1.00  0.00     0.002 C 
HETATM    7  C7  UNL     1      -8.987  48.153 -28.287  1.00  0.00    -0.004 C 
HETATM    8  C8  UNL     1      -8.880  48.252 -26.759  1.00  0.00     0.010 C 
HETATM    9  C9  UNL     1     -10.258  48.205 -26.117  1.00  0.00     0.035 C 
HETATM   10  C10 UNL     1     -11.025  46.965 -26.509  1.00  0.00    -0.069 C 
HETATM   11  C11 UNL     1     -11.646  46.247 -25.558  1.00  0.00     0.030 C 
HETATM   12  C12 UNL     1     -12.526  45.096 -25.881  1.00  0.00     0.032 C 
HETATM   13  N1  UNL     1     -13.162  44.527 -24.897  1.00  0.00    -0.271 N 
ATOM     14  H1  UNL     1     -13.103  44.829 -23.925  1.00  0.00     0.194 HD
HETATM   15  C25 UNL     1     -12.694  44.712 -27.337  1.00  0.00     0.060 C 
HETATM   16  C26 UNL     1     -11.498  45.138 -28.174  1.00  0.00     0.020 C 
HETATM   17  C27 UNL     1     -11.093  46.631 -28.002  1.00  0.00    -0.016 C 
HETATM   18  C28 UNL     1     -12.178  47.534 -28.631  1.00  0.00     0.020 C 
HETATM   19  C29 UNL     1      -9.684  46.833 -28.694  1.00  0.00     0.002 C 
HETATM   20  C30 UNL     1      -9.736  46.721 -30.232  1.00  0.00     0.007 C 
HETATM   21  C31 UNL     1      -8.355  46.862 -30.875  1.00  0.00     0.014 C 
HETATM   22  C32 UNL     1      -7.622  48.174 -30.493  1.00  0.00     0.003 C 
HETATM   23  C33 UNL     1      -8.299  49.374 -31.184  1.00  0.00     0.020 C 
ENDROOT
BRANCH   3  24
HETATM   24  O1  UNL     1      -5.522  49.424 -30.672  1.00  0.00    -0.377 OA
HETATM   25  H2  UNL     1      -4.606  49.362 -30.990  1.00  0.00     0.211 HD
ENDBRANCH   3  24
BRANCH  13  26
HETATM   26  O2  UNL     1     -13.939  43.445 -25.340  1.00  0.00    -0.271 OA
BRANCH  26  27
HETATM   27  C13 UNL     1     -14.758  42.987 -24.274  1.00  0.00     0.303 C 
BRANCH  27  28
HETATM   28  C14 UNL     1     -15.776  44.039 -23.834  1.00  0.00     0.244 C 
HETATM   29  O3  UNL     1     -15.482  45.092 -23.277  1.00  0.00    -0.271 OA
HETATM   30  N2  UNL     1     -17.087  43.694 -24.139  1.00  0.00    -0.354 N 
HETATM   31  H16 UNL     1     -17.263  42.701 -24.247  1.00  0.00     0.162 HD
BRANCH  30  32
HETATM   32  C15 UNL     1     -18.206  44.509 -23.671  1.00  0.00     0.098 C 
BRANCH  32  33
HETATM   33  C16 UNL     1     -18.268  45.888 -24.350  1.00  0.00     0.135 C 
BRANCH  33  34
HETATM   34  C17 UNL     1     -19.373  46.102 -25.343  1.00  0.00     0.141 C 
HETATM   35  O4  UNL     1     -20.432  46.663 -25.113  1.00  0.00    -0.650 OA
BRANCH  34  36
HETATM   36  O5  UNL     1     -19.150  45.565 -26.554  1.00  0.00    -0.776 OA
HETATM   37  H20 UNL     1     -19.998  45.711 -27.027  1.00  0.00     0.167 HD
ENDBRANCH  34  36
ENDBRANCH  33  34
ENDBRANCH  32  33
BRANCH  32  38
HETATM   38  C18 UNL     1     -18.311  44.553 -22.118  1.00  0.00     0.014 C 
HETATM   39  C19 UNL     1     -19.417  43.682 -21.507  1.00  0.00     0.033 C 
HETATM   40  C20 UNL     1     -19.480  43.850 -19.993  1.00  0.00     0.169 C 
HETATM   41  O6  UNL     1     -19.650  45.214 -19.627  1.00  0.00    -0.381 OA
HETATM   42  C21 UNL     1     -18.629  46.105 -20.094  1.00  0.00     0.054 C 
HETATM   43  C22 UNL     1     -19.101  47.517 -19.718  1.00  0.00     0.045 C 
HETATM   44  C23 UNL     1     -17.298  45.840 -19.374  1.00  0.00     0.045 C 
HETATM   45  C24 UNL     1     -18.496  46.005 -21.625  1.00  0.00     0.044 C 
ENDBRANCH  32  38
ENDBRANCH  30  32
ENDBRANCH  27  28
ENDBRANCH  26  27
ENDBRANCH  13  26
TORSDOF 9
ENDMDL
MODEL 2
REMARK minimizedAffinity -8.56119251
REMARK CNNscore 0.248868987
REMARK CNNaffinity 6.79970694
REMARK  9 active torsions:
REMARK  status: ('A' for Active; 'I' for Inactive)
REMARK    1  A    between atoms: C3_3  and  O1_4 
REMARK    2  A    between atoms: N1_14  and  O2_16 
REMARK    3  A    between atoms: O2_16  and  C13_17 
REMARK    4  A    between atoms: C13_17  and  C14_18 
REMARK       I    between atoms: C14_18  and  N2_20 
REMARK    5  A    between atoms: N2_20  and  C15_21 
REMARK    6  A    between atoms: C15_21  and  C16_22 
REMARK    7  A    between atoms: C15_21  and  C18_26 
REMARK    8  A    between atoms: C16_22  and  C17_23 
REMARK    9  A    between atoms: C17_23  and  O5_25 
ROOT
HETATM    1  C1  UNL     1      -3.743  48.679 -18.162  1.00  0.00     0.015 C 
HETATM    2  C2  UNL     1      -3.536  49.565 -18.948  1.00  0.00    -0.078 C 
HETATM    3  C3  UNL     1      -3.254  50.647 -19.904  1.00  0.00     0.128 C 
HETATM    4  C4  UNL     1      -4.528  51.335 -20.414  1.00  0.00     0.052 C 
HETATM    5  C5  UNL     1      -4.201  51.825 -21.834  1.00  0.00     0.010 C 
HETATM    6  C6  UNL     1      -2.749  51.401 -22.122  1.00  0.00     0.002 C 
HETATM    7  C7  UNL     1      -2.400  51.149 -23.603  1.00  0.00    -0.004 C 
HETATM    8  C8  UNL     1      -2.734  52.371 -24.468  1.00  0.00     0.010 C 
HETATM    9  C9  UNL     1      -2.249  52.173 -25.896  1.00  0.00     0.035 C 
HETATM   10  C10 UNL     1      -2.817  50.920 -26.518  1.00  0.00    -0.069 C 
HETATM   11  C11 UNL     1      -3.341  50.979 -27.755  1.00  0.00     0.030 C 
HETATM   12  C12 UNL     1      -3.794  49.766 -28.482  1.00  0.00     0.032 C 
HETATM   13  N1  UNL     1      -4.193  49.915 -29.714  1.00  0.00    -0.271 N 
ATOM     14  H1  UNL     1      -4.201  50.806 -30.210  1.00  0.00     0.194 HD
HETATM   15  C25 UNL     1      -3.685  48.429 -27.780  1.00  0.00     0.060 C 
HETATM   16  C26 UNL     1      -3.717  48.583 -26.267  1.00  0.00     0.020 C 
HETATM   17  C27 UNL     1      -2.706  49.627 -25.706  1.00  0.00    -0.016 C 
HETATM   18  C28 UNL     1      -1.267  49.092 -25.878  1.00  0.00     0.020 C 
HETATM   19  C29 UNL     1      -3.065  49.878 -24.186  1.00  0.00     0.002 C 
HETATM   20  C30 UNL     1      -2.766  48.667 -23.278  1.00  0.00     0.007 C 
HETATM   21  C31 UNL     1      -3.174  48.913 -21.824  1.00  0.00     0.014 C 
HETATM   22  C32 UNL     1      -2.526  50.177 -21.200  1.00  0.00     0.003 C 
HETATM   23  C33 UNL     1      -1.023  49.933 -20.960  1.00  0.00     0.020 C 
ENDROOT
BRANCH   3  24
HETATM   24  O1  UNL     1      -2.470  51.641 -19.238  1.00  0.00    -0.377 OA
HETATM   25  H2  UNL     1      -2.896  51.809 -18.380  1.00  0.00     0.211 HD
ENDBRANCH   3  24
BRANCH  13  26
HETATM   26  O2  UNL     1      -4.611  48.697 -30.272  1.00  0.00    -0.271 OA
BRANCH  26  27
HETATM   27  C13 UNL     1      -5.741  48.216 -29.560  1.00  0.00     0.303 C 
BRANCH  27  28
HETATM   28  C14 UNL     1      -6.198  46.846 -30.061  1.00  0.00     0.244 C 
HETATM   29  O3  UNL     1      -6.665  45.969 -29.342  1.00  0.00    -0.271 OA
HETATM   30  N2  UNL     1      -6.045  46.686 -31.433  1.00  0.00    -0.354 N 
HETATM   31  H16 UNL     1      -5.345  47.277 -31.866  1.00  0.00     0.162 HD
BRANCH  30  32
HETATM   32  C15 UNL     1      -6.296  45.395 -32.071  1.00  0.00     0.098 C 
BRANCH  32  33
HETATM   33  C16 UNL     1      -5.002  44.649 -32.440  1.00  0.00     0.135 C 
BRANCH  33  34
HETATM   34  C17 UNL     1      -5.051  43.149 -32.392  1.00  0.00     0.141 C 
HETATM   35  O4  UNL     1      -6.066  42.475 -32.323  1.00  0.00    -0.650 OA
BRANCH  34  36
HETATM   36  O5  UNL     1      -3.848  42.550 -32.370  1.00  0.00    -0.776 OA
HETATM   37  H20 UNL     1      -4.069  41.603 -32.238  1.00  0.00     0.167 HD
ENDBRANCH  34  36
ENDBRANCH  33  34
ENDBRANCH  32  33
BRANCH  32  38
HETATM   38  C18 UNL     1      -7.337  45.486 -33.225  1.00  0.00     0.014 C 
HETATM   39  C19 UNL     1      -7.632  46.903 -33.736  1.00  0.00     0.033 C 
HETATM   40  C20 UNL     1      -8.710  46.888 -34.813  1.00  0.00     0.169 C 
HETATM   41  O6  UNL     1      -9.900  46.259 -34.351  1.00  0.00    -0.381 OA
HETATM   42  C21 UNL     1      -9.744  44.904 -33.911  1.00  0.00     0.054 C 
HETATM   43  C22 UNL     1     -11.103  44.496 -33.321  1.00  0.00     0.045 C 
HETATM   44  C23 UNL     1      -9.440  43.974 -35.096  1.00  0.00     0.045 C 
HETATM   45  C24 UNL     1      -8.668  44.822 -32.812  1.00  0.00     0.044 C 
ENDBRANCH  32  38
ENDBRANCH  30  32
ENDBRANCH  27  28
ENDBRANCH  26  27
ENDBRANCH  13  26
TORSDOF 9
ENDMDL
MODEL 3
REMARK minimizedAffinity -8.41699028
REMARK CNNscore 0.222926781
REMARK CNNaffinity 6.12172651
REMARK  9 active torsions:
REMARK  status: ('A' for Active; 'I' for Inactive)
REMARK    1  A    between atoms: C3_3  and  O1_4 
REMARK    2  A    between atoms: N1_14  and  O2_16 
REMARK    3  A    between atoms: O2_16  and  C13_17 
REMARK    4  A    between atoms: C13_17  and  C14_18 
REMARK       I    between atoms: C14_18  and  N2_20 
REMARK    5  A    between atoms: N2_20  and  C15_21 
REMARK    6  A    between atoms: C15_21  and  C16_22 
REMARK    7  A    between atoms: C15_21  and  C18_26 
REMARK    8  A    between atoms: C16_22  and  C17_23 
REMARK    9  A    between atoms: C17_23  and  O5_25 
ROOT
HETATM    1  C1  UNL     1     -11.479  48.073 -40.211  1.00  0.00     0.015 C 
HETATM    2  C2  UNL     1     -11.827  47.399 -39.278  1.00  0.00    -0.078 C 
HETATM    3  C3  UNL     1     -12.242  46.551 -38.150  1.00  0.00     0.128 C 
HETATM    4  C4  UNL     1     -13.029  47.325 -37.084  1.00  0.00     0.052 C 
HETATM    5  C5  UNL     1     -12.736  46.621 -35.750  1.00  0.00     0.010 C 
HETATM    6  C6  UNL     1     -11.775  45.460 -36.068  1.00  0.00     0.002 C 
HETATM    7  C7  UNL     1     -10.821  45.040 -34.931  1.00  0.00    -0.004 C 
HETATM    8  C8  UNL     1     -11.598  44.697 -33.653  1.00  0.00     0.010 C 
HETATM    9  C9  UNL     1     -10.667  44.142 -32.586  1.00  0.00     0.035 C 
HETATM   10  C10 UNL     1      -9.535  45.090 -32.272  1.00  0.00    -0.069 C 
HETATM   11  C11 UNL     1      -9.236  45.355 -30.989  1.00  0.00     0.030 C 
HETATM   12  C12 UNL     1      -8.056  46.169 -30.601  1.00  0.00     0.032 C 
HETATM   13  N1  UNL     1      -7.794  46.285 -29.330  1.00  0.00    -0.271 N 
ATOM     14  H1  UNL     1      -8.339  45.843 -28.590  1.00  0.00     0.194 HD
HETATM   15  C25 UNL     1      -7.188  46.739 -31.704  1.00  0.00     0.060 C 
HETATM   16  C26 UNL     1      -7.968  46.920 -32.998  1.00  0.00     0.020 C 
HETATM   17  C27 UNL     1      -8.750  45.656 -33.459  1.00  0.00    -0.016 C 
HETATM   18  C28 UNL     1      -7.750  44.570 -33.914  1.00  0.00     0.020 C 
HETATM   19  C29 UNL     1      -9.723  46.089 -34.628  1.00  0.00     0.002 C 
HETATM   20  C30 UNL     1      -8.986  46.465 -35.930  1.00  0.00     0.007 C 
HETATM   21  C31 UNL     1      -9.942  46.936 -37.028  1.00  0.00     0.014 C 
HETATM   22  C32 UNL     1     -11.058  45.911 -37.363  1.00  0.00     0.003 C 
HETATM   23  C33 UNL     1     -10.455  44.705 -38.111  1.00  0.00     0.020 C 
ENDROOT
BRANCH   3  24
HETATM   24  O1  UNL     1     -13.103  45.524 -38.654  1.00  0.00    -0.377 OA
HETATM   25  H2  UNL     1     -13.748  45.959 -39.238  1.00  0.00     0.211 HD
ENDBRANCH   3  24
BRANCH  13  26
HETATM   26  O2  UNL     1      -6.669  47.094 -29.106  1.00  0.00    -0.271 OA
BRANCH  26  27
HETATM   27  C13 UNL     1      -6.575  47.397 -27.722  1.00  0.00     0.303 C 
BRANCH  27  28
HETATM   28  C14 UNL     1      -5.224  48.011 -27.357  1.00  0.00     0.244 C 
HETATM   29  O3  UNL     1      -4.217  47.926 -28.052  1.00  0.00    -0.271 OA
HETATM   30  N2  UNL     1      -5.243  48.697 -26.148  1.00  0.00    -0.354 N 
HETATM   31  H16 UNL     1      -5.967  48.413 -25.497  1.00  0.00     0.162 HD
BRANCH  30  32
HETATM   32  C15 UNL     1      -4.013  49.229 -25.567  1.00  0.00     0.098 C 
BRANCH  32  33
HETATM   33  C16 UNL     1      -2.783  49.013 -26.467  1.00  0.00     0.135 C 
BRANCH  33  34
HETATM   34  C17 UNL     1      -2.203  50.232 -27.121  1.00  0.00     0.141 C 
HETATM   35  O4  UNL     1      -1.276  50.897 -26.684  1.00  0.00    -0.650 OA
BRANCH  34  36
HETATM   36  O5  UNL     1      -2.825  50.613 -28.250  1.00  0.00    -0.776 OA
HETATM   37  H20 UNL     1      -2.387  51.462 -28.475  1.00  0.00     0.167 HD
ENDBRANCH  34  36
ENDBRANCH  33  34
ENDBRANCH  32  33
BRANCH  32  38
HETATM   38  C18 UNL     1      -3.809  48.794 -24.086  1.00  0.00     0.014 C 
HETATM   39  C19 UNL     1      -4.958  49.146 -23.132  1.00  0.00     0.033 C 
HETATM   40  C20 UNL     1      -4.630  48.741 -21.700  1.00  0.00     0.169 C 
HETATM   41  O6  UNL     1      -3.411  49.326 -21.258  1.00  0.00    -0.381 OA
HETATM   42  C21 UNL     1      -2.258  49.005 -22.048  1.00  0.00     0.054 C 
HETATM   43  C22 UNL     1      -1.114  49.860 -21.484  1.00  0.00     0.045 C 
HETATM   44  C23 UNL     1      -1.875  47.526 -21.881  1.00  0.00     0.045 C 
HETATM   45  C24 UNL     1      -2.499  49.385 -23.520  1.00  0.00     0.044 C 
ENDBRANCH  32  38
ENDBRANCH  30  32
ENDBRANCH  27  28
ENDBRANCH  26  27
ENDBRANCH  13  26
TORSDOF 9
ENDMDL
MODEL 4
REMARK minimizedAffinity -9.21791172
REMARK CNNscore 0.220237672
REMARK CNNaffinity 6.51660395
REMARK  9 active torsions:
REMARK  status: ('A' for Active; 'I' for Inactive)
REMARK    1  A    between atoms: C3_3  and  O1_4 
REMARK    2  A    between atoms: N1_14  and  O2_16 
REMARK    3  A    between atoms: O2_16  and  C13_17 
REMARK    4  A    between atoms: C13_17  and  C14_18 
REMARK       I    between atoms: C14_18  and  N2_20 
REMARK    5  A    between atoms: N2_20  and  C15_21 
REMARK    6  A    between atoms: C15_21  and  C16_22 
REMARK    7  A    between atoms: C15_21  and  C18_26 
REMARK    8  A    between atoms: C16_22  and  C17_23 
REMARK    9  A    between atoms: C17_23  and  O5_25 
ROOT
HETATM    1  C1  UNL     1      -0.426  54.290 -27.783  1.00  0.00     0.015 C 
HETATM    2  C2  UNL     1      -0.945  53.293 -27.356  1.00  0.00    -0.078 C 
HETATM    3  C3  UNL     1      -1.556  52.058 -26.840  1.00  0.00     0.128 C 
HETATM    4  C4  UNL     1      -3.035  52.236 -26.475  1.00  0.00     0.052 C 
HETATM    5  C5  UNL     1      -3.308  51.244 -25.332  1.00  0.00     0.010 C 
HETATM    6  C6  UNL     1      -1.978  50.521 -25.052  1.00  0.00     0.002 C 
HETATM    7  C7  UNL     1      -1.774  50.017 -23.607  1.00  0.00    -0.004 C 
HETATM    8  C8  UNL     1      -2.930  49.107 -23.170  1.00  0.00     0.010 C 
HETATM    9  C9  UNL     1      -2.649  48.495 -21.806  1.00  0.00     0.035 C 
HETATM   10  C10 UNL     1      -2.384  49.548 -20.756  1.00  0.00    -0.069 C 
HETATM   11  C11 UNL     1      -3.004  49.461 -19.567  1.00  0.00     0.030 C 
HETATM   12  C12 UNL     1      -2.694  50.379 -18.442  1.00  0.00     0.032 C 
HETATM   13  N1  UNL     1      -3.276  50.151 -17.299  1.00  0.00    -0.271 N 
ATOM     14  H1  UNL     1      -3.918  49.378 -17.126  1.00  0.00     0.194 HD
HETATM   15  C25 UNL     1      -1.663  51.465 -18.669  1.00  0.00     0.060 C 
HETATM   16  C26 UNL     1      -1.557  51.843 -20.139  1.00  0.00     0.020 C 
HETATM   17  C27 UNL     1      -1.362  50.634 -21.101  1.00  0.00    -0.016 C 
HETATM   18  C28 UNL     1       0.046  50.033 -20.892  1.00  0.00     0.020 C 
HETATM   19  C29 UNL     1      -1.567  51.157 -22.581  1.00  0.00     0.002 C 
HETATM   20  C30 UNL     1      -0.439  52.094 -23.060  1.00  0.00     0.007 C 
HETATM   21  C31 UNL     1      -0.687  52.632 -24.471  1.00  0.00     0.014 C 
HETATM   22  C32 UNL     1      -0.899  51.521 -25.532  1.00  0.00     0.003 C 
HETATM   23  C33 UNL     1       0.436  50.801 -25.812  1.00  0.00     0.020 C 
ENDROOT
BRANCH   3  24
HETATM   24  O1  UNL     1      -1.486  51.062 -27.866  1.00  0.00    -0.377 OA
HETATM   25  H2  UNL     1      -1.788  51.482 -28.689  1.00  0.00     0.211 HD
ENDBRANCH   3  24
BRANCH  13  26
HETATM   26  O2  UNL     1      -2.909  51.102 -16.334  1.00  0.00    -0.271 OA
BRANCH  26  27
HETATM   27  C13 UNL     1      -1.582  50.844 -15.899  1.00  0.00     0.303 C 
BRANCH  27  28
HETATM   28  C14 UNL     1      -1.518  50.513 -14.408  1.00  0.00     0.244 C 
HETATM   29  O3  UNL     1      -0.509  50.118 -13.832  1.00  0.00    -0.271 OA
HETATM   30  N2  UNL     1      -2.725  50.715 -13.749  1.00  0.00    -0.354 N 
HETATM   31  H16 UNL     1      -3.552  50.679 -14.334  1.00  0.00     0.162 HD
BRANCH  30  32
HETATM   32  C15 UNL     1      -2.894  50.319 -12.353  1.00  0.00     0.098 C 
BRANCH  32  33
HETATM   33  C16 UNL     1      -4.002  49.269 -12.158  1.00  0.00     0.135 C 
BRANCH  33  34
HETATM   34  C17 UNL     1      -3.739  47.900 -12.713  1.00  0.00     0.141 C 
HETATM   35  O4  UNL     1      -2.784  47.193 -12.432  1.00  0.00    -0.650 OA
BRANCH  34  36
HETATM   36  O5  UNL     1      -4.628  47.487 -13.632  1.00  0.00    -0.776 OA
HETATM   37  H20 UNL     1      -4.250  46.638 -13.949  1.00  0.00     0.167 HD
ENDBRANCH  34  36
ENDBRANCH  33  34
ENDBRANCH  32  33
BRANCH  32  38
HETATM   38  C18 UNL     1      -2.988  51.538 -11.389  1.00  0.00     0.014 C 
HETATM   39  C19 UNL     1      -3.801  52.730 -11.911  1.00  0.00     0.033 C 
HETATM   40  C20 UNL     1      -3.773  53.892 -10.925  1.00  0.00     0.169 C 
HETATM   41  O6  UNL     1      -2.440  54.285 -10.619  1.00  0.00    -0.381 OA
HETATM   42  C21 UNL     1      -1.612  53.256 -10.061  1.00  0.00     0.054 C 
HETATM   43  C22 UNL     1      -0.203  53.859  -9.965  1.00  0.00     0.045 C 
HETATM   44  C23 UNL     1      -2.074  52.891  -8.642  1.00  0.00     0.045 C 
HETATM   45  C24 UNL     1      -1.579  52.034 -10.998  1.00  0.00     0.044 C 
ENDBRANCH  32  38
ENDBRANCH  30  32
ENDBRANCH  27  28
ENDBRANCH  26  27
ENDBRANCH  13  26
TORSDOF 9
ENDMDL
MODEL 5
REMARK minimizedAffinity -8.39530849
REMARK CNNscore 0.217084497
REMARK CNNaffinity 5.82639647
REMARK  9 active torsions:
REMARK  status: ('A' for Active; 'I' for Inactive)
REMARK    1  A    between atoms: C3_3  and  O1_4 
REMARK    2  A    between atoms: N1_14  and  O2_16 
REMARK    3  A    between atoms: O2_16  and  C13_17 
REMARK    4  A    between atoms: C13_17  and  C14_18 
REMARK       I    between atoms: C14_18  and  N2_20 
REMARK    5  A    between atoms: N2_20  and  C15_21 
REMARK    6  A    between atoms: C15_21  and  C16_22 
REMARK    7  A    between atoms: C15_21  and  C18_26 
REMARK    8  A    between atoms: C16_22  and  C17_23 
REMARK    9  A    between atoms: C17_23  and  O5_25 
ROOT
HETATM    1  C1  UNL     1       0.361  53.417 -20.323  1.00  0.00     0.015 C 
HETATM    2  C2  UNL     1      -0.032  52.307 -20.078  1.00  0.00    -0.078 C 
HETATM    3  C3  UNL     1      -0.523  50.959 -19.753  1.00  0.00     0.128 C 
HETATM    4  C4  UNL     1      -0.062  49.900 -20.763  1.00  0.00     0.052 C 
HETATM    5  C5  UNL     1      -1.163  48.828 -20.781  1.00  0.00     0.010 C 
HETATM    6  C6  UNL     1      -2.245  49.294 -19.789  1.00  0.00     0.002 C 
HETATM    7  C7  UNL     1      -3.684  48.825 -20.088  1.00  0.00    -0.004 C 
HETATM    8  C8  UNL     1      -3.755  47.296 -20.209  1.00  0.00     0.010 C 
HETATM    9  C9  UNL     1      -5.196  46.832 -20.353  1.00  0.00     0.035 C 
HETATM   10  C10 UNL     1      -5.887  47.483 -21.527  1.00  0.00    -0.069 C 
HETATM   11  C11 UNL     1      -6.598  46.722 -22.377  1.00  0.00     0.030 C 
HETATM   12  C12 UNL     1      -7.412  47.305 -23.472  1.00  0.00     0.032 C 
HETATM   13  N1  UNL     1      -8.144  46.492 -24.180  1.00  0.00    -0.271 N 
ATOM     14  H1  UNL     1      -8.203  45.487 -24.019  1.00  0.00     0.194 HD
HETATM   15  C25 UNL     1      -7.405  48.810 -23.644  1.00  0.00     0.060 C 
HETATM   16  C26 UNL     1      -6.129  49.434 -23.098  1.00  0.00     0.020 C 
HETATM   17  C27 UNL     1      -5.778  49.005 -21.643  1.00  0.00    -0.016 C 
HETATM   18  C28 UNL     1      -6.802  49.622 -20.664  1.00  0.00     0.020 C 
HETATM   19  C29 UNL     1      -4.303  49.494 -21.339  1.00  0.00     0.002 C 
HETATM   20  C30 UNL     1      -4.177  51.027 -21.229  1.00  0.00     0.007 C 
HETATM   21  C31 UNL     1      -2.734  51.479 -20.992  1.00  0.00     0.014 C 
HETATM   22  C32 UNL     1      -2.077  50.832 -19.745  1.00  0.00     0.003 C 
HETATM   23  C33 UNL     1      -2.695  51.420 -18.461  1.00  0.00     0.020 C 
ENDROOT
BRANCH   3  24
HETATM   24  O1  UNL     1       0.004  50.587 -18.475  1.00  0.00    -0.377 OA
HETATM   25  H2  UNL     1       0.952  50.801 -18.487  1.00  0.00     0.211 HD
ENDBRANCH   3  24
BRANCH  13  26
HETATM   26  O2  UNL     1      -8.843  47.171 -25.189  1.00  0.00    -0.271 OA
BRANCH  26  27
HETATM   27  C13 UNL     1      -9.054  46.296 -26.287  1.00  0.00     0.303 C 
BRANCH  27  28
HETATM   28  C14 UNL     1      -9.340  47.054 -27.583  1.00  0.00     0.244 C 
HETATM   29  O3  UNL     1      -8.692  48.018 -27.976  1.00  0.00    -0.271 OA
HETATM   30  N2  UNL     1     -10.414  46.534 -28.296  1.00  0.00    -0.354 N 
HETATM   31  H16 UNL     1     -11.088  46.009 -27.749  1.00  0.00     0.162 HD
BRANCH  30  32
HETATM   32  C15 UNL     1     -10.924  47.211 -29.486  1.00  0.00     0.098 C 
BRANCH  32  33
HETATM   33  C16 UNL     1     -12.324  47.815 -29.278  1.00  0.00     0.135 C 
BRANCH  33  34
HETATM   34  C17 UNL     1     -12.803  47.935 -27.861  1.00  0.00     0.141 C 
HETATM   35  O4  UNL     1     -13.626  47.208 -27.327  1.00  0.00    -0.650 OA
BRANCH  34  36
HETATM   36  O5  UNL     1     -12.293  48.978 -27.183  1.00  0.00    -0.776 OA
HETATM   37  H20 UNL     1     -12.783  48.958 -26.333  1.00  0.00     0.167 HD
ENDBRANCH  34  36
ENDBRANCH  33  34
ENDBRANCH  32  33
BRANCH  32  38
HETATM   38  C18 UNL     1     -10.781  46.350 -30.776  1.00  0.00     0.014 C 
HETATM   39  C19 UNL     1     -11.188  44.878 -30.633  1.00  0.00     0.033 C 
HETATM   40  C20 UNL     1     -10.946  44.110 -31.928  1.00  0.00     0.169 C 
HETATM   41  O6  UNL     1      -9.594  44.222 -32.355  1.00  0.00    -0.381 OA
HETATM   42  C21 UNL     1      -9.133  45.560 -32.582  1.00  0.00     0.054 C 
HETATM   43  C22 UNL     1      -7.630  45.441 -32.876  1.00  0.00     0.045 C 
HETATM   44  C23 UNL     1      -9.813  46.173 -33.815  1.00  0.00     0.045 C 
HETATM   45  C24 UNL     1      -9.336  46.414 -31.317  1.00  0.00     0.044 C 
ENDBRANCH  32  38
ENDBRANCH  30  32
ENDBRANCH  27  28
ENDBRANCH  26  27
ENDBRANCH  13  26
TORSDOF 9
ENDMDL
MODEL 6
REMARK minimizedAffinity -7.86905861
REMARK CNNscore 0.214298189
REMARK CNNaffinity 6.86585665
REMARK  9 active torsions:
REMARK  status: ('A' for Active; 'I' for Inactive)
REMARK    1  A    between atoms: C3_3  and  O1_4 
REMARK    2  A    between atoms: N1_14  and  O2_16 
REMARK    3  A    between atoms: O2_16  and  C13_17 
REMARK    4  A    between atoms: C13_17  and  C14_18 
REMARK       I    between atoms: C14_18  and  N2_20 
REMARK    5  A    between atoms: N2_20  and  C15_21 
REMARK    6  A    between atoms: C15_21  and  C16_22 
REMARK    7  A    between atoms: C15_21  and  C18_26 
REMARK    8  A    between atoms: C16_22  and  C17_23 
REMARK    9  A    between atoms: C17_23  and  O5_25 
ROOT
HETATM    1  C1  UNL     1       0.297  56.999  -7.258  1.00  0.00     0.015 C 
HETATM    2  C2  UNL     1       1.090  56.260  -7.779  1.00  0.00    -0.078 C 
HETATM    3  C3  UNL     1       2.055  55.337  -8.396  1.00  0.00     0.128 C 
HETATM    4  C4  UNL     1       2.810  55.968  -9.573  1.00  0.00     0.052 C 
HETATM    5  C5  UNL     1       3.145  54.811 -10.528  1.00  0.00     0.010 C 
HETATM    6  C6  UNL     1       2.566  53.534  -9.889  1.00  0.00     0.002 C 
HETATM    7  C7  UNL     1       2.156  52.414 -10.868  1.00  0.00    -0.004 C 
HETATM    8  C8  UNL     1       3.326  52.020 -11.780  1.00  0.00     0.010 C 
HETATM    9  C9  UNL     1       2.961  50.817 -12.637  1.00  0.00     0.035 C 
HETATM   10  C10 UNL     1       1.717  51.060 -13.456  1.00  0.00    -0.069 C 
HETATM   11  C11 UNL     1       1.716  50.743 -14.762  1.00  0.00     0.030 C 
HETATM   12  C12 UNL     1       0.493  50.828 -15.599  1.00  0.00     0.032 C 
HETATM   13  N1  UNL     1       0.571  50.403 -16.828  1.00  0.00    -0.271 N 
ATOM     14  H1  UNL     1       1.413  50.006 -17.245  1.00  0.00     0.194 HD
HETATM   15  C25 UNL     1      -0.783  51.321 -14.950  1.00  0.00     0.060 C 
HETATM   16  C26 UNL     1      -0.498  52.218 -13.754  1.00  0.00     0.020 C 
HETATM   17  C27 UNL     1       0.493  51.611 -12.718  1.00  0.00    -0.016 C 
HETATM   18  C28 UNL     1      -0.184  50.427 -11.992  1.00  0.00     0.020 C 
HETATM   19  C29 UNL     1       0.907  52.761 -11.713  1.00  0.00     0.002 C 
HETATM   20  C30 UNL     1      -0.244  53.208 -10.788  1.00  0.00     0.007 C 
HETATM   21  C31 UNL     1       0.162  54.359  -9.865  1.00  0.00     0.014 C 
HETATM   22  C32 UNL     1       1.411  54.051  -8.998  1.00  0.00     0.003 C 
HETATM   23  C33 UNL     1       1.052  53.023  -7.907  1.00  0.00     0.020 C 
ENDROOT
BRANCH   3  24
HETATM   24  O1  UNL     1       3.027  54.979  -7.409  1.00  0.00    -0.377 OA
HETATM   25  H2  UNL     1       3.306  55.804  -6.975  1.00  0.00     0.211 HD
ENDBRANCH   3  24
BRANCH  13  26
HETATM   26  O2  UNL     1      -0.647  50.560 -17.507  1.00  0.00    -0.271 OA
BRANCH  26  27
HETATM   27  C13 UNL     1      -0.441  50.353 -18.897  1.00  0.00     0.303 C 
BRANCH  27  28
HETATM   28  C14 UNL     1      -1.713  50.591 -19.711  1.00  0.00     0.244 C 
HETATM   29  O3  UNL     1      -2.768  51.000 -19.238  1.00  0.00    -0.271 OA
HETATM   30  N2  UNL     1      -1.559  50.307 -21.062  1.00  0.00    -0.354 N 
HETATM   31  H16 UNL     1      -0.817  49.654 -21.290  1.00  0.00     0.162 HD
BRANCH  30  32
HETATM   32  C15 UNL     1      -2.703  50.339 -21.971  1.00  0.00     0.098 C 
BRANCH  32  33
HETATM   33  C16 UNL     1      -3.223  48.936 -22.329  1.00  0.00     0.135 C 
BRANCH  33  34
HETATM   34  C17 UNL     1      -4.554  48.544 -21.758  1.00  0.00     0.141 C 
HETATM   35  O4  UNL     1      -5.262  49.253 -21.059  1.00  0.00    -0.650 OA
BRANCH  34  36
HETATM   36  O5  UNL     1      -4.927  47.280 -22.021  1.00  0.00    -0.776 OA
HETATM   37  H20 UNL     1      -5.750  47.172 -21.497  1.00  0.00     0.167 HD
ENDBRANCH  34  36
ENDBRANCH  33  34
ENDBRANCH  32  33
BRANCH  32  38
HETATM   38  C18 UNL     1      -2.471  51.270 -23.198  1.00  0.00     0.014 C 
HETATM   39  C19 UNL     1      -3.631  51.339 -24.200  1.00  0.00     0.033 C 
HETATM   40  C20 UNL     1      -3.278  52.219 -25.394  1.00  0.00     0.169 C 
HETATM   41  O6  UNL     1      -2.085  51.777 -26.032  1.00  0.00    -0.381 OA
HETATM   42  C21 UNL     1      -0.922  51.739 -25.194  1.00  0.00     0.054 C 
HETATM   43  C22 UNL     1       0.183  51.093 -26.043  1.00  0.00     0.045 C 
HETATM   44  C23 UNL     1      -0.469  53.158 -24.820  1.00  0.00     0.045 C 
HETATM   45  C24 UNL     1      -1.188  50.864 -23.955  1.00  0.00     0.044 C 
ENDBRANCH  32  38
ENDBRANCH  30  32
ENDBRANCH  27  28
ENDBRANCH  26  27
ENDBRANCH  13  26
TORSDOF 9
ENDMDL
MODEL 7
REMARK minimizedAffinity -9.34103394
REMARK CNNscore 0.212743953
REMARK CNNaffinity 6.49027872
REMARK  9 active torsions:
REMARK  status: ('A' for Active; 'I' for Inactive)
REMARK    1  A    between atoms: C3_3  and  O1_4 
REMARK    2  A    between atoms: N1_14  and  O2_16 
REMARK    3  A    between atoms: O2_16  and  C13_17 
REMARK    4  A    between atoms: C13_17  and  C14_18 
REMARK       I    between atoms: C14_18  and  N2_20 
REMARK    5  A    between atoms: N2_20  and  C15_21 
REMARK    6  A    between atoms: C15_21  and  C16_22 
REMARK    7  A    between atoms: C15_21  and  C18_26 
REMARK    8  A    between atoms: C16_22  and  C17_23 
REMARK    9  A    between atoms: C17_23  and  O5_25 
ROOT
HETATM    1  C1  UNL     1      -2.372  49.744 -27.019  1.00  0.00     0.015 C 
HETATM    2  C2  UNL     1      -1.821  50.580 -26.353  1.00  0.00    -0.078 C 
HETATM    3  C3  UNL     1      -1.171  51.617 -25.537  1.00  0.00     0.128 C 
HETATM    4  C4  UNL     1       0.330  51.365 -25.342  1.00  0.00     0.052 C 
HETATM    5  C5  UNL     1       0.686  51.979 -23.978  1.00  0.00     0.010 C 
HETATM    6  C6  UNL     1      -0.619  52.565 -23.407  1.00  0.00     0.002 C 
HETATM    7  C7  UNL     1      -0.721  52.617 -21.868  1.00  0.00    -0.004 C 
HETATM    8  C8  UNL     1       0.466  53.376 -21.260  1.00  0.00     0.010 C 
HETATM    9  C9  UNL     1       0.283  53.554 -19.760  1.00  0.00     0.035 C 
HETATM   10  C10 UNL     1       0.087  52.234 -19.053  1.00  0.00    -0.069 C 
HETATM   11  C11 UNL     1       0.788  51.976 -17.936  1.00  0.00     0.030 C 
HETATM   12  C12 UNL     1       0.553  50.762 -17.114  1.00  0.00     0.032 C 
HETATM   13  N1  UNL     1       1.213  50.652 -15.997  1.00  0.00    -0.271 N 
ATOM     14  H1  UNL     1       1.869  51.350 -15.647  1.00  0.00     0.194 HD
HETATM   15  C25 UNL     1      -0.496  49.775 -17.583  1.00  0.00     0.060 C 
HETATM   16  C26 UNL     1      -0.704  49.845 -19.088  1.00  0.00     0.020 C 
HETATM   17  C27 UNL     1      -0.961  51.281 -19.634  1.00  0.00    -0.016 C 
HETATM   18  C28 UNL     1      -2.348  51.770 -19.163  1.00  0.00     0.020 C 
HETATM   19  C29 UNL     1      -0.861  51.222 -21.213  1.00  0.00     0.002 C 
HETATM   20  C30 UNL     1      -2.023  50.449 -21.871  1.00  0.00     0.007 C 
HETATM   21  C31 UNL     1      -1.875  50.356 -23.391  1.00  0.00     0.014 C 
HETATM   22  C32 UNL     1      -1.733  51.734 -24.088  1.00  0.00     0.003 C 
HETATM   23  C33 UNL     1      -3.081  52.482 -24.052  1.00  0.00     0.020 C 
ENDROOT
BRANCH   3  24
HETATM   24  O1  UNL     1      -1.307  52.871 -26.215  1.00  0.00    -0.377 OA
HETATM   25  H2  UNL     1      -1.065  52.717 -27.144  1.00  0.00     0.211 HD
ENDBRANCH   3  24
BRANCH  13  26
HETATM   26  O2  UNL     1       0.911  49.452 -15.334  1.00  0.00    -0.271 OA
BRANCH  26  27
HETATM   27  C13 UNL     1       0.679  49.721 -13.958  1.00  0.00     0.303 C 
BRANCH  27  28
HETATM   28  C14 UNL     1       1.905  50.325 -13.274  1.00  0.00     0.244 C 
HETATM   29  O3  UNL     1       2.986  50.502 -13.826  1.00  0.00    -0.271 OA
HETATM   30  N2  UNL     1       1.676  50.674 -11.949  1.00  0.00    -0.354 N 
HETATM   31  H16 UNL     1       0.920  50.176 -11.491  1.00  0.00     0.162 HD
BRANCH  30  32
HETATM   32  C15 UNL     1       2.767  51.135 -11.094  1.00  0.00     0.098 C 
BRANCH  32  33
HETATM   33  C16 UNL     1       3.235  50.065 -10.091  1.00  0.00     0.135 C 
BRANCH  33  34
HETATM   34  C17 UNL     1       4.064  48.941 -10.642  1.00  0.00     0.141 C 
HETATM   35  O4  UNL     1       3.677  48.099 -11.436  1.00  0.00    -0.650 OA
BRANCH  34  36
HETATM   36  O5  UNL     1       5.311  48.868 -10.144  1.00  0.00    -0.776 OA
HETATM   37  H20 UNL     1       5.661  48.036 -10.530  1.00  0.00     0.167 HD
ENDBRANCH  34  36
ENDBRANCH  33  34
ENDBRANCH  32  33
BRANCH  32  38
HETATM   38  C18 UNL     1       2.489  52.529 -10.460  1.00  0.00     0.014 C 
HETATM   39  C19 UNL     1       1.432  53.380 -11.179  1.00  0.00     0.033 C 
HETATM   40  C20 UNL     1       1.285  54.748 -10.523  1.00  0.00     0.169 C 
HETATM   41  O6  UNL     1       2.530  55.434 -10.463  1.00  0.00    -0.381 OA
HETATM   42  C21 UNL     1       3.571  54.750  -9.752  1.00  0.00     0.054 C 
HETATM   43  C22 UNL     1       4.839  55.594  -9.954  1.00  0.00     0.045 C 
HETATM   44  C23 UNL     1       3.266  54.699  -8.247  1.00  0.00     0.045 C 
HETATM   45  C24 UNL     1       3.793  53.349 -10.352  1.00  0.00     0.044 C 
ENDBRANCH  32  38
ENDBRANCH  30  32
ENDBRANCH  27  28
ENDBRANCH  26  27
ENDBRANCH  13  26
TORSDOF 9
ENDMDL
MODEL 8
REMARK minimizedAffinity -8.18022919
REMARK CNNscore 0.146425575
REMARK CNNaffinity 5.69207764
REMARK  9 active torsions:
REMARK  status: ('A' for Active; 'I' for Inactive)
REMARK    1  A    between atoms: C3_3  and  O1_4 
REMARK    2  A    between atoms: N1_14  and  O2_16 
REMARK    3  A    between atoms: O2_16  and  C13_17 
REMARK    4  A    between atoms: C13_17  and  C14_18 
REMARK       I    between atoms: C14_18  and  N2_20 
REMARK    5  A    between atoms: N2_20  and  C15_21 
REMARK    6  A    between atoms: C15_21  and  C16_22 
REMARK    7  A    between atoms: C15_21  and  C18_26 
REMARK    8  A    between atoms: C16_22  and  C17_23 
REMARK    9  A    between atoms: C17_23  and  O5_25 
ROOT
HETATM    1  C1  UNL     1      -1.063  51.662 -20.163  1.00  0.00     0.015 C 
HETATM    2  C2  UNL     1      -1.589  51.278 -21.174  1.00  0.00    -0.078 C 
HETATM    3  C3  UNL     1      -2.214  50.787 -22.411  1.00  0.00     0.128 C 
HETATM    4  C4  UNL     1      -3.251  51.764 -22.980  1.00  0.00     0.052 C 
HETATM    5  C5  UNL     1      -4.288  50.897 -23.713  1.00  0.00     0.010 C 
HETATM    6  C6  UNL     1      -3.837  49.435 -23.542  1.00  0.00     0.002 C 
HETATM    7  C7  UNL     1      -4.958  48.374 -23.559  1.00  0.00    -0.004 C 
HETATM    8  C8  UNL     1      -5.803  48.481 -24.835  1.00  0.00     0.010 C 
HETATM    9  C9  UNL     1      -6.807  47.342 -24.916  1.00  0.00     0.035 C 
HETATM   10  C10 UNL     1      -7.700  47.285 -23.699  1.00  0.00    -0.069 C 
HETATM   11  C11 UNL     1      -9.027  47.149 -23.863  1.00  0.00     0.030 C 
HETATM   12  C12 UNL     1      -9.951  46.953 -22.718  1.00  0.00     0.032 C 
HETATM   13  N1  UNL     1     -11.206  46.731 -22.986  1.00  0.00    -0.271 N 
ATOM     14  H1  UNL     1     -11.589  46.671 -23.929  1.00  0.00     0.194 HD
HETATM   15  C25 UNL     1      -9.365  46.939 -21.321  1.00  0.00     0.060 C 
HETATM   16  C26 UNL     1      -8.063  47.723 -21.248  1.00  0.00     0.020 C 
HETATM   17  C27 UNL     1      -7.015  47.331 -22.331  1.00  0.00    -0.016 C 
HETATM   18  C28 UNL     1      -6.475  45.914 -22.033  1.00  0.00     0.020 C 
HETATM   19  C29 UNL     1      -5.865  48.417 -22.306  1.00  0.00     0.002 C 
HETATM   20  C30 UNL     1      -4.999  48.363 -21.031  1.00  0.00     0.007 C 
HETATM   21  C31 UNL     1      -3.931  49.459 -21.003  1.00  0.00     0.014 C 
HETATM   22  C32 UNL     1      -2.998  49.450 -22.241  1.00  0.00     0.003 C 
HETATM   23  C33 UNL     1      -2.054  48.233 -22.178  1.00  0.00     0.020 C 
ENDROOT
BRANCH   3  24
HETATM   24  O1  UNL     1      -1.190  50.629 -23.399  1.00  0.00    -0.377 OA
HETATM   25  H2  UNL     1      -0.651  51.439 -23.379  1.00  0.00     0.211 HD
ENDBRANCH   3  24
BRANCH  13  26
HETATM   26  O2  UNL     1     -11.967  46.583 -21.816  1.00  0.00    -0.271 OA
BRANCH  26  27
HETATM   27  C13 UNL     1     -13.093  45.762 -22.087  1.00  0.00     0.303 C 
BRANCH  27  28
HETATM   28  C14 UNL     1     -14.157  45.863 -20.994  1.00  0.00     0.244 C 
HETATM   29  O3  UNL     1     -14.285  45.056 -20.079  1.00  0.00    -0.271 OA
HETATM   30  N2  UNL     1     -14.974  46.979 -21.126  1.00  0.00    -0.354 N 
HETATM   31  H16 UNL     1     -15.041  47.363 -22.063  1.00  0.00     0.162 HD
BRANCH  30  32
HETATM   32  C15 UNL     1     -16.134  47.168 -20.258  1.00  0.00     0.098 C 
BRANCH  32  33
HETATM   33  C16 UNL     1     -15.748  47.457 -18.797  1.00  0.00     0.135 C 
BRANCH  33  34
HETATM   34  C17 UNL     1     -15.160  48.808 -18.509  1.00  0.00     0.141 C 
HETATM   35  O4  UNL     1     -15.444  49.516 -17.556  1.00  0.00    -0.650 OA
BRANCH  34  36
HETATM   36  O5  UNL     1     -14.294  49.252 -19.437  1.00  0.00    -0.776 OA
HETATM   37  H20 UNL     1     -14.096  50.167 -19.143  1.00  0.00     0.167 HD
ENDBRANCH  34  36
ENDBRANCH  33  34
ENDBRANCH  32  33
BRANCH  32  38
HETATM   38  C18 UNL     1     -17.203  46.049 -20.429  1.00  0.00     0.014 C 
HETATM   39  C19 UNL     1     -18.150  46.221 -21.625  1.00  0.00     0.033 C 
HETATM   40  C20 UNL     1     -19.198  45.114 -21.662  1.00  0.00     0.169 C 
HETATM   41  O6  UNL     1     -19.929  45.047 -20.444  1.00  0.00    -0.381 OA
HETATM   42  C21 UNL     1     -19.140  44.822 -19.268  1.00  0.00     0.054 C 
HETATM   43  C22 UNL     1     -20.109  44.945 -18.083  1.00  0.00     0.045 C 
HETATM   44  C23 UNL     1     -18.557  43.400 -19.264  1.00  0.00     0.045 C 
HETATM   45  C24 UNL     1     -18.049  45.902 -19.146  1.00  0.00     0.044 C 
ENDBRANCH  32  38
ENDBRANCH  30  32
ENDBRANCH  27  28
ENDBRANCH  26  27
ENDBRANCH  13  26
TORSDOF 9
ENDMDL
MODEL 9
REMARK minimizedAffinity -7.96720839
REMARK CNNscore 0.137489334
REMARK CNNaffinity 6.0387435
REMARK  9 active torsions:
REMARK  status: ('A' for Active; 'I' for Inactive)
REMARK    1  A    between atoms: C3_3  and  O1_4 
REMARK    2  A    between atoms: N1_14  and  O2_16 
REMARK    3  A    between atoms: O2_16  and  C13_17 
REMARK    4  A    between atoms: C13_17  and  C14_18 
REMARK       I    between atoms: C14_18  and  N2_20 
REMARK    5  A    between atoms: N2_20  and  C15_21 
REMARK    6  A    between atoms: C15_21  and  C16_22 
REMARK    7  A    between atoms: C15_21  and  C18_26 
REMARK    8  A    between atoms: C16_22  and  C17_23 
REMARK    9  A    between atoms: C17_23  and  O5_25 
ROOT
HETATM    1  C1  UNL     1      -3.439  49.387 -27.579  1.00  0.00     0.015 C 
HETATM    2  C2  UNL     1      -2.791  50.178 -26.947  1.00  0.00    -0.078 C 
HETATM    3  C3  UNL     1      -2.021  51.164 -26.173  1.00  0.00     0.128 C 
HETATM    4  C4  UNL     1      -0.540  50.787 -26.038  1.00  0.00     0.052 C 
HETATM    5  C5  UNL     1      -0.075  51.380 -24.698  1.00  0.00     0.010 C 
HETATM    6  C6  UNL     1      -1.299  52.079 -24.079  1.00  0.00     0.002 C 
HETATM    7  C7  UNL     1      -1.329  52.152 -22.538  1.00  0.00    -0.004 C 
HETATM    8  C8  UNL     1      -0.058  52.813 -21.990  1.00  0.00     0.010 C 
HETATM    9  C9  UNL     1      -0.160  53.018 -20.486  1.00  0.00     0.035 C 
HETATM   10  C10 UNL     1      -0.435  51.726 -19.755  1.00  0.00    -0.069 C 
HETATM   11  C11 UNL     1       0.290  51.418 -18.666  1.00  0.00     0.030 C 
HETATM   12  C12 UNL     1      -0.012  50.236 -17.821  1.00  0.00     0.032 C 
HETATM   13  N1  UNL     1       0.685  50.079 -16.731  1.00  0.00    -0.271 N 
ATOM     14  H1  UNL     1       1.412  50.722 -16.418  1.00  0.00     0.194 HD
HETATM   15  C25 UNL     1      -1.159  49.337 -18.232  1.00  0.00     0.060 C 
HETATM   16  C26 UNL     1      -1.426  49.412 -19.728  1.00  0.00     0.020 C 
HETATM   17  C27 UNL     1      -1.584  50.860 -20.280  1.00  0.00    -0.016 C 
HETATM   18  C28 UNL     1      -2.903  51.469 -19.756  1.00  0.00     0.020 C 
HETATM   19  C29 UNL     1      -1.558  50.779 -21.860  1.00  0.00     0.002 C 
HETATM   20  C30 UNL     1      -2.808  50.102 -22.459  1.00  0.00     0.007 C 
HETATM   21  C31 UNL     1      -2.735  49.984 -23.983  1.00  0.00     0.014 C 
HETATM   22  C32 UNL     1      -2.508  51.340 -24.702  1.00  0.00     0.003 C 
HETATM   23  C33 UNL     1      -3.785  52.199 -24.618  1.00  0.00     0.020 C 
ENDROOT
BRANCH   3  24
HETATM   24  O1  UNL     1      -2.081  52.419 -26.859  1.00  0.00    -0.377 OA
HETATM   25  H2  UNL     1      -1.892  52.237 -27.795  1.00  0.00     0.211 HD
ENDBRANCH   3  24
BRANCH  13  26
HETATM   26  O2  UNL     1       0.312  48.915 -16.042  1.00  0.00    -0.271 OA
BRANCH  26  27
HETATM   27  C13 UNL     1       0.629  49.061 -14.665  1.00  0.00     0.303 C 
BRANCH  27  28
HETATM   28  C14 UNL     1      -0.571  48.777 -13.763  1.00  0.00     0.244 C 
HETATM   29  O3  UNL     1      -1.736  49.007 -14.071  1.00  0.00    -0.271 OA
HETATM   30  N2  UNL     1      -0.218  48.213 -12.543  1.00  0.00    -0.354 N 
HETATM   31  H16 UNL     1       0.731  48.397 -12.235  1.00  0.00     0.162 HD
BRANCH  30  32
HETATM   32  C15 UNL     1      -1.215  48.002 -11.496  1.00  0.00     0.098 C 
BRANCH  32  33
HETATM   33  C16 UNL     1      -2.274  46.954 -11.880  1.00  0.00     0.135 C 
BRANCH  33  34
HETATM   34  C17 UNL     1      -2.389  45.753 -10.988  1.00  0.00     0.141 C 
HETATM   35  O4  UNL     1      -1.615  44.809 -10.967  1.00  0.00    -0.650 OA
BRANCH  34  36
HETATM   36  O5  UNL     1      -3.483  45.737 -10.207  1.00  0.00    -0.776 OA
HETATM   37  H20 UNL     1      -3.444  44.854  -9.780  1.00  0.00     0.167 HD
ENDBRANCH  34  36
ENDBRANCH  33  34
ENDBRANCH  32  33
BRANCH  32  38
HETATM   38  C18 UNL     1      -1.802  49.335 -10.946  1.00  0.00     0.014 C 
HETATM   39  C19 UNL     1      -1.321  49.738  -9.545  1.00  0.00     0.033 C 
HETATM   40  C20 UNL     1      -2.005  51.016  -9.072  1.00  0.00     0.169 C 
HETATM   41  O6  UNL     1      -3.422  50.891  -9.104  1.00  0.00    -0.381 OA
HETATM   42  C21 UNL     1      -3.980  50.580 -10.388  1.00  0.00     0.054 C 
HETATM   43  C22 UNL     1      -5.478  50.343 -10.146  1.00  0.00     0.045 C 
HETATM   44  C23 UNL     1      -3.833  51.768 -11.351  1.00  0.00     0.045 C 
HETATM   45  C24 UNL     1      -3.345  49.292 -10.945  1.00  0.00     0.044 C 
ENDBRANCH  32  38
ENDBRANCH  30  32
ENDBRANCH  27  28
ENDBRANCH  26  27
ENDBRANCH  13  26
TORSDOF 9
ENDMDL
