MODEL 1
REMARK minimizedAffinity -6.47724056
REMARK CNNscore 0.846785188
REMARK CNNaffinity 6.6675086
REMARK  11 active torsions:
REMARK  status: ('A' for Active; 'I' for Inactive)
REMARK    1  A    between atoms: C4_4  and  C5_5 
REMARK    2  A    between atoms: C5_5  and  O2_7 
REMARK    3  A    between atoms: O2_7  and  C6_8 
REMARK    4  A    between atoms: C6_8  and  C7_9 
REMARK    5  A    between atoms: C7_9  and  N1_10 
REMARK    6  A    between atoms: C14_17  and  O3_18 
REMARK    7  A    between atoms: C20_24  and  O4_25 
REMARK    8  A    between atoms: O4_25  and  C21_26 
REMARK    9  A    between atoms: C21_26  and  C22_28 
REMARK   10  A    between atoms: C22_28  and  C23_29 
REMARK   11  A    between atoms: C23_29  and  O6_32 
ROOT
HETATM    1  C1  UNL     1       7.013  55.385  -3.742  1.00  0.00     0.015 C 
HETATM    2  C2  UNL     1       7.170  56.090  -5.098  1.00  0.00     0.017 C 
HETATM    3  C3  UNL     1       7.339  57.584  -4.878  1.00  0.00    -0.070 C 
HETATM    4  C4  UNL     1       8.504  58.271  -4.906  1.00  0.00     0.085 C 
HETATM    5  C10 UNL     1       6.057  58.351  -4.638  1.00  0.00     0.035 C 
HETATM    6  C11 UNL     1       4.864  57.834  -5.451  1.00  0.00     0.010 C 
HETATM    7  C12 UNL     1       5.288  56.962  -6.657  1.00  0.00     0.001 C 
HETATM    8  C13 UNL     1       5.989  55.722  -6.057  1.00  0.00     0.027 C 
HETATM    9  C14 UNL     1       6.469  54.799  -7.178  1.00  0.00     0.123 C 
HETATM   10  C15 UNL     1       5.316  54.378  -8.075  1.00  0.00     0.038 C 
HETATM   11  C16 UNL     1       4.577  55.557  -8.749  1.00  0.00     0.007 C 
HETATM   12  C17 UNL     1       3.417  55.016  -9.694  1.00  0.00    -0.016 C 
HETATM   13  C18 UNL     1       2.992  56.068 -10.752  1.00  0.00     0.018 C 
HETATM   14  C19 UNL     1       3.890  53.795 -10.536  1.00  0.00     0.018 C 
HETATM   15  C20 UNL     1       2.208  54.560  -8.828  1.00  0.00     0.140 C 
HETATM   16  C26 UNL     1       1.740  55.624  -7.837  1.00  0.00     0.034 C 
HETATM   17  C27 UNL     1       2.862  56.120  -6.929  1.00  0.00     0.012 C 
HETATM   18  C28 UNL     1       4.118  56.633  -7.678  1.00  0.00    -0.035 C 
HETATM   19  C29 UNL     1       3.782  57.976  -8.390  1.00  0.00     0.016 C 
ENDROOT
BRANCH   4  20
HETATM   20  C5  UNL     1       9.912  57.841  -5.095  1.00  0.00     0.283 C 
HETATM   21  O1  UNL     1      10.206  56.658  -5.210  1.00  0.00    -0.260 OA
BRANCH  20  22
HETATM   22  O2  UNL     1      10.768  58.878  -5.159  1.00  0.00    -0.316 OA
BRANCH  22  23
HETATM   23  C6  UNL     1      10.526  59.964  -4.252  1.00  0.00     0.209 C 
BRANCH  23  24
HETATM   24  C7  UNL     1      10.707  61.347  -4.913  1.00  0.00     0.298 C 
BRANCH  24  25
HETATM   25  N1  UNL     1       9.531  61.864  -5.644  1.00  0.00     0.082 N 
HETATM   26  C8  UNL     1       8.632  62.567  -4.727  1.00  0.00     0.309 C 
HETATM   27  C9  UNL     1       9.908  62.741  -6.756  1.00  0.00     0.309 C 
ENDBRANCH  24  25
ENDBRANCH  23  24
ENDBRANCH  22  23
ENDBRANCH  20  22
ENDBRANCH   4  20
BRANCH   9  28
HETATM   28  O3  UNL     1       7.058  53.613  -6.635  1.00  0.00    -0.395 OA
HETATM   29  H23 UNL     1       6.384  53.154  -6.108  1.00  0.00     0.210 HD
ENDBRANCH   9  28
BRANCH  15  30
HETATM   30  O4  UNL     1       1.098  54.228  -9.690  1.00  0.00    -0.315 OA
BRANCH  30  31
HETATM   31  C21 UNL     1      -0.151  54.371  -9.162  1.00  0.00     0.262 C 
HETATM   32  O5  UNL     1      -0.429  54.264  -7.977  1.00  0.00    -0.265 OA
BRANCH  31  33
HETATM   33  C22 UNL     1      -1.131  54.719 -10.255  1.00  0.00     0.148 C 
BRANCH  33  34
HETATM   34  C23 UNL     1      -2.124  53.602 -10.611  1.00  0.00     0.059 C 
HETATM   35  C24 UNL     1      -1.773  52.277  -9.930  1.00  0.00     0.045 C 
HETATM   36  C25 UNL     1      -3.582  53.981 -10.339  1.00  0.00     0.045 C 
BRANCH  34  37
HETATM   37  O6  UNL     1      -2.003  53.366 -12.026  1.00  0.00    -0.390 OA
HETATM   38  H42 UNL     1      -2.371  54.136 -12.496  1.00  0.00     0.210 HD
ENDBRANCH  34  37
ENDBRANCH  33  34
ENDBRANCH  31  33
ENDBRANCH  30  31
ENDBRANCH  15  30
TORSDOF 11
ENDMDL
MODEL 2
REMARK minimizedAffinity -6.12585115
REMARK CNNscore 0.774451733
REMARK CNNaffinity 6.37764502
REMARK  11 active torsions:
REMARK  status: ('A' for Active; 'I' for Inactive)
REMARK    1  A    between atoms: C4_4  and  C5_5 
REMARK    2  A    between atoms: C5_5  and  O2_7 
REMARK    3  A    between atoms: O2_7  and  C6_8 
REMARK    4  A    between atoms: C6_8  and  C7_9 
REMARK    5  A    between atoms: C7_9  and  N1_10 
REMARK    6  A    between atoms: C14_17  and  O3_18 
REMARK    7  A    between atoms: C20_24  and  O4_25 
REMARK    8  A    between atoms: O4_25  and  C21_26 
REMARK    9  A    between atoms: C21_26  and  C22_28 
REMARK   10  A    between atoms: C22_28  and  C23_29 
REMARK   11  A    between atoms: C23_29  and  O6_32 
ROOT
HETATM    1  C1  UNL     1       7.194  55.765  -3.665  1.00  0.00     0.015 C 
HETATM    2  C2  UNL     1       7.313  56.504  -5.006  1.00  0.00     0.017 C 
HETATM    3  C3  UNL     1       7.367  58.003  -4.757  1.00  0.00    -0.070 C 
HETATM    4  C4  UNL     1       8.477  58.775  -4.759  1.00  0.00     0.085 C 
HETATM    5  C10 UNL     1       6.029  58.667  -4.521  1.00  0.00     0.035 C 
HETATM    6  C11 UNL     1       4.887  58.077  -5.357  1.00  0.00     0.010 C 
HETATM    7  C12 UNL     1       5.388  57.262  -6.573  1.00  0.00     0.001 C 
HETATM    8  C13 UNL     1       6.174  56.067  -5.986  1.00  0.00     0.027 C 
HETATM    9  C14 UNL     1       6.734  55.203  -7.116  1.00  0.00     0.123 C 
HETATM   10  C15 UNL     1       5.625  54.714  -8.036  1.00  0.00     0.038 C 
HETATM   11  C16 UNL     1       4.808  55.847  -8.698  1.00  0.00     0.007 C 
HETATM   12  C17 UNL     1       3.703  55.238  -9.666  1.00  0.00    -0.016 C 
HETATM   13  C18 UNL     1       3.211  56.274 -10.711  1.00  0.00     0.018 C 
HETATM   14  C19 UNL     1       4.274  54.072 -10.524  1.00  0.00     0.018 C 
HETATM   15  C20 UNL     1       2.522  54.677  -8.824  1.00  0.00     0.140 C 
HETATM   16  C26 UNL     1       1.964  55.685  -7.820  1.00  0.00     0.034 C 
HETATM   17  C27 UNL     1       3.036  56.247  -6.890  1.00  0.00     0.012 C 
HETATM   18  C28 UNL     1       4.258  56.865  -7.614  1.00  0.00    -0.035 C 
HETATM   19  C29 UNL     1       3.830  58.193  -8.307  1.00  0.00     0.016 C 
ENDROOT
BRANCH   4  20
HETATM   20  C5  UNL     1       9.916  58.455  -4.938  1.00  0.00     0.283 C 
HETATM   21  O1  UNL     1      10.719  59.308  -5.289  1.00  0.00    -0.260 OA
BRANCH  20  22
HETATM   22  O2  UNL     1      10.205  57.174  -4.637  1.00  0.00    -0.316 OA
BRANCH  22  23
HETATM   23  C6  UNL     1      11.576  56.884  -4.324  1.00  0.00     0.209 C 
BRANCH  23  24
HETATM   24  C7  UNL     1      11.728  55.698  -3.348  1.00  0.00     0.298 C 
BRANCH  24  25
HETATM   25  N1  UNL     1      11.976  54.383  -3.976  1.00  0.00     0.082 N 
HETATM   26  C8  UNL     1      10.716  53.658  -4.149  1.00  0.00     0.309 C 
HETATM   27  C9  UNL     1      12.674  54.502  -5.260  1.00  0.00     0.309 C 
ENDBRANCH  24  25
ENDBRANCH  23  24
ENDBRANCH  22  23
ENDBRANCH  20  22
ENDBRANCH   4  20
BRANCH   9  28
HETATM   28  O3  UNL     1       7.404  54.055  -6.587  1.00  0.00    -0.395 OA
HETATM   29  H23 UNL     1       6.760  53.537  -6.077  1.00  0.00     0.210 HD
ENDBRANCH   9  28
BRANCH  15  30
HETATM   30  O4  UNL     1       1.449  54.280  -9.705  1.00  0.00    -0.315 OA
BRANCH  30  31
HETATM   31  C21 UNL     1       0.711  53.198  -9.324  1.00  0.00     0.262 C 
HETATM   32  O5  UNL     1       0.782  52.648  -8.235  1.00  0.00    -0.265 OA
BRANCH  31  33
HETATM   33  C22 UNL     1      -0.233  52.807 -10.434  1.00  0.00     0.148 C 
BRANCH  33  34
HETATM   34  C23 UNL     1      -1.593  53.521 -10.405  1.00  0.00     0.059 C 
HETATM   35  C24 UNL     1      -2.534  52.932  -9.350  1.00  0.00     0.045 C 
HETATM   36  C25 UNL     1      -1.476  55.037 -10.239  1.00  0.00     0.045 C 
BRANCH  34  37
HETATM   37  O6  UNL     1      -2.222  53.279 -11.678  1.00  0.00    -0.390 OA
HETATM   38  H42 UNL     1      -1.735  53.778 -12.358  1.00  0.00     0.210 HD
ENDBRANCH  34  37
ENDBRANCH  33  34
ENDBRANCH  31  33
ENDBRANCH  30  31
ENDBRANCH  15  30
TORSDOF 11
ENDMDL
MODEL 3
REMARK minimizedAffinity -6.1807065
REMARK CNNscore 0.77252382
REMARK CNNaffinity 6.20390368
REMARK  11 active torsions:
REMARK  status: ('A' for Active; 'I' for Inactive)
REMARK    1  A    between atoms: C4_4  and  C5_5 
REMARK    2  A    between atoms: C5_5  and  O2_7 
REMARK    3  A    between atoms: O2_7  and  C6_8 
REMARK    4  A    between atoms: C6_8  and  C7_9 
REMARK    5  A    between atoms: C7_9  and  N1_10 
REMARK    6  A    between atoms: C14_17  and  O3_18 
REMARK    7  A    between atoms: C20_24  and  O4_25 
REMARK    8  A    between atoms: O4_25  and  C21_26 
REMARK    9  A    between atoms: C21_26  and  C22_28 
REMARK   10  A    between atoms: C22_28  and  C23_29 
REMARK   11  A    between atoms: C23_29  and  O6_32 
ROOT
HETATM    1  C1  UNL     1       3.683  56.633 -10.345  1.00  0.00     0.015 C 
HETATM    2  C2  UNL     1       3.739  55.694  -9.131  1.00  0.00     0.017 C 
HETATM    3  C3  UNL     1       2.367  55.620  -8.481  1.00  0.00    -0.070 C 
HETATM    4  C4  UNL     1       1.463  54.625  -8.629  1.00  0.00     0.085 C 
HETATM    5  C10 UNL     1       2.025  56.771  -7.561  1.00  0.00     0.035 C 
HETATM    6  C11 UNL     1       3.219  57.298  -6.756  1.00  0.00     0.010 C 
HETATM    7  C12 UNL     1       4.394  56.293  -6.693  1.00  0.00     0.001 C 
HETATM    8  C13 UNL     1       4.882  56.120  -8.149  1.00  0.00     0.027 C 
HETATM    9  C14 UNL     1       6.038  55.121  -8.199  1.00  0.00     0.123 C 
HETATM   10  C15 UNL     1       7.184  55.561  -7.301  1.00  0.00     0.038 C 
HETATM   11  C16 UNL     1       6.794  55.726  -5.814  1.00  0.00     0.007 C 
HETATM   12  C17 UNL     1       8.063  56.150  -4.954  1.00  0.00    -0.016 C 
HETATM   13  C18 UNL     1       7.871  55.843  -3.445  1.00  0.00     0.018 C 
HETATM   14  C19 UNL     1       9.325  55.330  -5.353  1.00  0.00     0.018 C 
HETATM   15  C20 UNL     1       8.376  57.655  -5.192  1.00  0.00     0.140 C 
HETATM   16  C26 UNL     1       7.166  58.563  -4.981  1.00  0.00     0.034 C 
HETATM   17  C27 UNL     1       5.964  58.151  -5.826  1.00  0.00     0.012 C 
HETATM   18  C28 UNL     1       5.532  56.673  -5.654  1.00  0.00    -0.035 C 
HETATM   19  C29 UNL     1       4.904  56.480  -4.242  1.00  0.00     0.016 C 
ENDROOT
BRANCH   4  20
HETATM   20  C5  UNL     1       1.469  53.385  -9.446  1.00  0.00     0.283 C 
HETATM   21  O1  UNL     1       2.516  52.856  -9.794  1.00  0.00    -0.260 OA
BRANCH  20  22
HETATM   22  O2  UNL     1       0.229  52.926  -9.702  1.00  0.00    -0.316 OA
BRANCH  22  23
HETATM   23  C6  UNL     1      -0.420  53.452 -10.869  1.00  0.00     0.209 C 
BRANCH  23  24
HETATM   24  C7  UNL     1      -1.703  52.679 -11.241  1.00  0.00     0.298 C 
BRANCH  24  25
HETATM   25  N1  UNL     1      -2.790  52.730 -10.241  1.00  0.00     0.082 N 
HETATM   26  C8  UNL     1      -3.670  53.870 -10.506  1.00  0.00     0.309 C 
HETATM   27  C9  UNL     1      -3.567  51.489 -10.201  1.00  0.00     0.309 C 
ENDBRANCH  24  25
ENDBRANCH  23  24
ENDBRANCH  22  23
ENDBRANCH  20  22
ENDBRANCH   4  20
BRANCH   9  28
HETATM   28  O3  UNL     1       6.544  55.003  -9.532  1.00  0.00    -0.395 OA
HETATM   29  H23 UNL     1       6.863  55.876  -9.813  1.00  0.00     0.210 HD
ENDBRANCH   9  28
BRANCH  15  30
HETATM   30  O4  UNL     1       9.419  58.078  -4.286  1.00  0.00    -0.315 OA
BRANCH  30  31
HETATM   31  C21 UNL     1      10.449  58.789  -4.826  1.00  0.00     0.262 C 
HETATM   32  O5  UNL     1      10.329  59.825  -5.463  1.00  0.00    -0.265 OA
BRANCH  31  33
HETATM   33  C22 UNL     1      11.761  58.127  -4.485  1.00  0.00     0.148 C 
BRANCH  33  34
HETATM   34  C23 UNL     1      12.613  58.878  -3.450  1.00  0.00     0.059 C 
HETATM   35  C24 UNL     1      13.400  60.032  -4.077  1.00  0.00     0.045 C 
HETATM   36  C25 UNL     1      11.808  59.364  -2.243  1.00  0.00     0.045 C 
BRANCH  34  37
HETATM   37  O6  UNL     1      13.596  57.947  -2.960  1.00  0.00    -0.390 OA
HETATM   38  H42 UNL     1      13.139  57.280  -2.415  1.00  0.00     0.210 HD
ENDBRANCH  34  37
ENDBRANCH  33  34
ENDBRANCH  31  33
ENDBRANCH  30  31
ENDBRANCH  15  30
TORSDOF 11
ENDMDL
MODEL 4
REMARK minimizedAffinity -6.21785116
REMARK CNNscore 0.615174711
REMARK CNNaffinity 6.30335379
REMARK  11 active torsions:
REMARK  status: ('A' for Active; 'I' for Inactive)
REMARK    1  A    between atoms: C4_4  and  C5_5 
REMARK    2  A    between atoms: C5_5  and  O2_7 
REMARK    3  A    between atoms: O2_7  and  C6_8 
REMARK    4  A    between atoms: C6_8  and  C7_9 
REMARK    5  A    between atoms: C7_9  and  N1_10 
REMARK    6  A    between atoms: C14_17  and  O3_18 
REMARK    7  A    between atoms: C20_24  and  O4_25 
REMARK    8  A    between atoms: O4_25  and  C21_26 
REMARK    9  A    between atoms: C21_26  and  C22_28 
REMARK   10  A    between atoms: C22_28  and  C23_29 
REMARK   11  A    between atoms: C23_29  and  O6_32 
ROOT
HETATM    1  C1  UNL     1       3.957  57.550  -8.149  1.00  0.00     0.015 C 
HETATM    2  C2  UNL     1       4.168  56.042  -7.942  1.00  0.00     0.017 C 
HETATM    3  C3  UNL     1       5.457  55.611  -8.623  1.00  0.00    -0.070 C 
HETATM    4  C4  UNL     1       6.647  55.392  -8.019  1.00  0.00     0.085 C 
HETATM    5  C10 UNL     1       5.354  55.381 -10.115  1.00  0.00     0.035 C 
HETATM    6  C11 UNL     1       4.020  54.769 -10.558  1.00  0.00     0.010 C 
HETATM    7  C12 UNL     1       3.248  54.100  -9.396  1.00  0.00     0.001 C 
HETATM    8  C13 UNL     1       2.908  55.235  -8.403  1.00  0.00     0.027 C 
HETATM    9  C14 UNL     1       2.156  54.670  -7.199  1.00  0.00     0.123 C 
HETATM   10  C15 UNL     1       0.893  53.943  -7.631  1.00  0.00     0.038 C 
HETATM   11  C16 UNL     1       1.141  52.764  -8.600  1.00  0.00     0.007 C 
HETATM   12  C17 UNL     1      -0.232  52.047  -8.962  1.00  0.00    -0.016 C 
HETATM   13  C18 UNL     1      -0.012  50.606  -9.493  1.00  0.00     0.018 C 
HETATM   14  C19 UNL     1      -1.128  51.859  -7.703  1.00  0.00     0.018 C 
HETATM   15  C20 UNL     1      -1.021  52.915  -9.984  1.00  0.00     0.140 C 
HETATM   16  C26 UNL     1      -0.195  53.304 -11.209  1.00  0.00     0.034 C 
HETATM   17  C27 UNL     1       1.111  54.005 -10.843  1.00  0.00     0.012 C 
HETATM   18  C28 UNL     1       2.005  53.222  -9.848  1.00  0.00    -0.035 C 
HETATM   19  C29 UNL     1       2.601  51.973 -10.563  1.00  0.00     0.016 C 
ENDROOT
BRANCH   4  20
HETATM   20  C5  UNL     1       7.092  55.533  -6.609  1.00  0.00     0.283 C 
HETATM   21  O1  UNL     1       7.471  54.566  -5.962  1.00  0.00    -0.260 OA
BRANCH  20  22
HETATM   22  O2  UNL     1       7.060  56.808  -6.179  1.00  0.00    -0.316 OA
BRANCH  22  23
HETATM   23  C6  UNL     1       7.702  57.075  -4.922  1.00  0.00     0.209 C 
BRANCH  23  24
HETATM   24  C7  UNL     1       8.558  58.359  -4.949  1.00  0.00     0.298 C 
BRANCH  24  25
HETATM   25  N1  UNL     1      10.006  58.156  -5.164  1.00  0.00     0.082 N 
HETATM   26  C8  UNL     1      10.778  58.988  -4.240  1.00  0.00     0.309 C 
HETATM   27  C9  UNL     1      10.397  56.751  -5.029  1.00  0.00     0.309 C 
ENDBRANCH  24  25
ENDBRANCH  23  24
ENDBRANCH  22  23
ENDBRANCH  20  22
ENDBRANCH   4  20
BRANCH   9  28
HETATM   28  O3  UNL     1       1.775  55.720  -6.305  1.00  0.00    -0.395 OA
HETATM   29  H23 UNL     1       1.195  56.332  -6.787  1.00  0.00     0.210 HD
ENDBRANCH   9  28
BRANCH  15  30
HETATM   30  O4  UNL     1      -2.182  52.185 -10.438  1.00  0.00    -0.315 OA
BRANCH  30  31
HETATM   31  C21 UNL     1      -3.366  52.860 -10.442  1.00  0.00     0.262 C 
HETATM   32  O5  UNL     1      -3.511  54.028 -10.110  1.00  0.00    -0.265 OA
BRANCH  31  33
HETATM   33  C22 UNL     1      -4.464  51.962 -10.956  1.00  0.00     0.148 C 
BRANCH  33  34
HETATM   34  C23 UNL     1      -4.385  50.506 -10.474  1.00  0.00     0.059 C 
HETATM   35  C24 UNL     1      -5.769  49.865 -10.338  1.00  0.00     0.045 C 
HETATM   36  C25 UNL     1      -3.469  49.633 -11.335  1.00  0.00     0.045 C 
BRANCH  34  37
HETATM   37  O6  UNL     1      -3.826  50.531  -9.148  1.00  0.00    -0.390 OA
HETATM   38  H42 UNL     1      -2.888  50.783  -9.217  1.00  0.00     0.210 HD
ENDBRANCH  34  37
ENDBRANCH  33  34
ENDBRANCH  31  33
ENDBRANCH  30  31
ENDBRANCH  15  30
TORSDOF 11
ENDMDL
MODEL 5
REMARK minimizedAffinity -6.79483509
REMARK CNNscore 0.582207143
REMARK CNNaffinity 6.46300125
REMARK  11 active torsions:
REMARK  status: ('A' for Active; 'I' for Inactive)
REMARK    1  A    between atoms: C4_4  and  C5_5 
REMARK    2  A    between atoms: C5_5  and  O2_7 
REMARK    3  A    between atoms: O2_7  and  C6_8 
REMARK    4  A    between atoms: C6_8  and  C7_9 
REMARK    5  A    between atoms: C7_9  and  N1_10 
REMARK    6  A    between atoms: C14_17  and  O3_18 
REMARK    7  A    between atoms: C20_24  and  O4_25 
REMARK    8  A    between atoms: O4_25  and  C21_26 
REMARK    9  A    between atoms: C21_26  and  C22_28 
REMARK   10  A    between atoms: C22_28  and  C23_29 
REMARK   11  A    between atoms: C23_29  and  O6_32 
ROOT
HETATM    1  C1  UNL     1      -1.701  51.545 -22.939  1.00  0.00     0.015 C 
HETATM    2  C2  UNL     1      -1.995  51.219 -21.468  1.00  0.00     0.017 C 
HETATM    3  C3  UNL     1      -0.736  50.686 -20.803  1.00  0.00    -0.070 C 
HETATM    4  C4  UNL     1       0.102  51.382 -20.002  1.00  0.00     0.085 C 
HETATM    5  C10 UNL     1      -0.441  49.225 -21.057  1.00  0.00     0.035 C 
HETATM    6  C11 UNL     1      -1.693  48.342 -21.129  1.00  0.00     0.010 C 
HETATM    7  C12 UNL     1      -2.937  49.006 -20.492  1.00  0.00     0.001 C 
HETATM    8  C13 UNL     1      -3.228  50.263 -21.345  1.00  0.00     0.027 C 
HETATM    9  C14 UNL     1      -4.438  51.008 -20.781  1.00  0.00     0.123 C 
HETATM   10  C15 UNL     1      -5.661  50.107 -20.722  1.00  0.00     0.038 C 
HETATM   11  C16 UNL     1      -5.471  48.839 -19.859  1.00  0.00     0.007 C 
HETATM   12  C17 UNL     1      -6.813  47.984 -19.829  1.00  0.00    -0.016 C 
HETATM   13  C18 UNL     1      -6.856  47.013 -18.620  1.00  0.00     0.018 C 
HETATM   14  C19 UNL     1      -8.064  48.890 -19.637  1.00  0.00     0.018 C 
HETATM   15  C20 UNL     1      -6.977  47.222 -21.175  1.00  0.00     0.140 C 
HETATM   16  C26 UNL     1      -5.743  46.408 -21.561  1.00  0.00     0.034 C 
HETATM   17  C27 UNL     1      -4.469  47.248 -21.600  1.00  0.00     0.012 C 
HETATM   18  C28 UNL     1      -4.177  48.035 -20.298  1.00  0.00    -0.035 C 
HETATM   19  C29 UNL     1      -3.768  47.039 -19.173  1.00  0.00     0.016 C 
ENDROOT
BRANCH   4  20
HETATM   20  C5  UNL     1       0.118  52.802 -19.567  1.00  0.00     0.283 C 
HETATM   21  O1  UNL     1       0.049  53.717 -20.376  1.00  0.00    -0.260 OA
BRANCH  20  22
HETATM   22  O2  UNL     1       0.174  52.934 -18.228  1.00  0.00    -0.316 OA
BRANCH  22  23
HETATM   23  C6  UNL     1       1.026  52.013 -17.529  1.00  0.00     0.209 C 
BRANCH  23  24
HETATM   24  C7  UNL     1       1.672  52.632 -16.272  1.00  0.00     0.298 C 
BRANCH  24  25
HETATM   25  N1  UNL     1       2.731  51.821 -15.634  1.00  0.00     0.082 N 
HETATM   26  C8  UNL     1       4.050  52.375 -15.944  1.00  0.00     0.309 C 
HETATM   27  C9  UNL     1       2.553  51.716 -14.183  1.00  0.00     0.309 C 
ENDBRANCH  24  25
ENDBRANCH  23  24
ENDBRANCH  22  23
ENDBRANCH  20  22
ENDBRANCH   4  20
BRANCH   9  28
HETATM   28  O3  UNL     1      -4.761  52.135 -21.601  1.00  0.00    -0.395 OA
HETATM   29  H23 UNL     1      -4.972  51.811 -22.492  1.00  0.00     0.210 HD
ENDBRANCH   9  28
BRANCH  15  30
HETATM   30  O4  UNL     1      -8.100  46.320 -21.083  1.00  0.00    -0.315 OA
BRANCH  30  31
HETATM   31  C21 UNL     1      -8.657  45.912 -22.258  1.00  0.00     0.262 C 
HETATM   32  O5  UNL     1      -8.547  44.793 -22.737  1.00  0.00    -0.265 OA
BRANCH  31  33
HETATM   33  C22 UNL     1      -9.462  47.038 -22.860  1.00  0.00     0.148 C 
BRANCH  33  34
HETATM   34  C23 UNL     1      -8.838  47.681 -24.108  1.00  0.00     0.059 C 
HETATM   35  C24 UNL     1      -8.131  49.001 -23.786  1.00  0.00     0.045 C 
HETATM   36  C25 UNL     1      -7.904  46.739 -24.871  1.00  0.00     0.045 C 
BRANCH  34  37
HETATM   37  O6  UNL     1      -9.922  48.017 -24.994  1.00  0.00    -0.390 OA
HETATM   38  H42 UNL     1     -10.295  47.189 -25.347  1.00  0.00     0.210 HD
ENDBRANCH  34  37
ENDBRANCH  33  34
ENDBRANCH  31  33
ENDBRANCH  30  31
ENDBRANCH  15  30
TORSDOF 11
ENDMDL
MODEL 6
REMARK minimizedAffinity -6.28007984
REMARK CNNscore 0.500866592
REMARK CNNaffinity 5.88469648
REMARK  11 active torsions:
REMARK  status: ('A' for Active; 'I' for Inactive)
REMARK    1  A    between atoms: C4_4  and  C5_5 
REMARK    2  A    between atoms: C5_5  and  O2_7 
REMARK    3  A    between atoms: O2_7  and  C6_8 
REMARK    4  A    between atoms: C6_8  and  C7_9 
REMARK    5  A    between atoms: C7_9  and  N1_10 
REMARK    6  A    between atoms: C14_17  and  O3_18 
REMARK    7  A    between atoms: C20_24  and  O4_25 
REMARK    8  A    between atoms: O4_25  and  C21_26 
REMARK    9  A    between atoms: C21_26  and  C22_28 
REMARK   10  A    between atoms: C22_28  and  C23_29 
REMARK   11  A    between atoms: C23_29  and  O6_32 
ROOT
HETATM    1  C1  UNL     1      -9.036  48.466 -29.274  1.00  0.00     0.015 C 
HETATM    2  C2  UNL     1      -9.200  46.952 -29.074  1.00  0.00     0.017 C 
HETATM    3  C3  UNL     1      -9.279  46.266 -30.428  1.00  0.00    -0.070 C 
HETATM    4  C4  UNL     1      -8.276  45.609 -31.052  1.00  0.00     0.085 C 
HETATM    5  C10 UNL     1     -10.634  46.314 -31.098  1.00  0.00     0.035 C 
HETATM    6  C11 UNL     1     -11.813  46.207 -30.122  1.00  0.00     0.010 C 
HETATM    7  C12 UNL     1     -11.407  45.627 -28.747  1.00  0.00     0.001 C 
HETATM    8  C13 UNL     1     -10.414  46.642 -28.136  1.00  0.00     0.027 C 
HETATM    9  C14 UNL     1      -9.932  46.147 -26.772  1.00  0.00     0.123 C 
HETATM   10  C15 UNL     1     -11.101  45.910 -25.829  1.00  0.00     0.038 C 
HETATM   11  C16 UNL     1     -12.130  44.877 -26.345  1.00  0.00     0.007 C 
HETATM   12  C17 UNL     1     -13.289  44.671 -25.276  1.00  0.00    -0.016 C 
HETATM   13  C18 UNL     1     -14.043  43.331 -25.488  1.00  0.00     0.018 C 
HETATM   14  C19 UNL     1     -12.722  44.565 -23.830  1.00  0.00     0.018 C 
HETATM   15  C20 UNL     1     -14.263  45.883 -25.319  1.00  0.00     0.140 C 
HETATM   16  C26 UNL     1     -14.777  46.193 -26.724  1.00  0.00     0.034 C 
HETATM   17  C27 UNL     1     -13.651  46.404 -27.732  1.00  0.00     0.012 C 
HETATM   18  C28 UNL     1     -12.626  45.244 -27.805  1.00  0.00    -0.035 C 
HETATM   19  C29 UNL     1     -13.298  44.002 -28.461  1.00  0.00     0.016 C 
ENDROOT
BRANCH   4  20
HETATM   20  C5  UNL     1      -6.852  45.388 -30.694  1.00  0.00     0.283 C 
HETATM   21  O1  UNL     1      -6.502  45.255 -29.529  1.00  0.00    -0.260 OA
BRANCH  20  22
HETATM   22  O2  UNL     1      -6.049  45.317 -31.773  1.00  0.00    -0.316 OA
BRANCH  22  23
HETATM   23  C6  UNL     1      -6.077  46.441 -32.666  1.00  0.00     0.209 C 
BRANCH  23  24
HETATM   24  C7  UNL     1      -4.991  47.488 -32.343  1.00  0.00     0.298 C 
BRANCH  24  25
HETATM   25  N1  UNL     1      -4.465  48.240 -33.502  1.00  0.00     0.082 N 
HETATM   26  C8  UNL     1      -3.127  47.763 -33.853  1.00  0.00     0.309 C 
HETATM   27  C9  UNL     1      -5.353  48.161 -34.666  1.00  0.00     0.309 C 
ENDBRANCH  24  25
ENDBRANCH  23  24
ENDBRANCH  22  23
ENDBRANCH  20  22
ENDBRANCH   4  20
BRANCH   9  28
HETATM   28  O3  UNL     1      -9.066  47.111 -26.164  1.00  0.00    -0.395 OA
HETATM   29  H23 UNL     1      -9.565  47.936 -26.047  1.00  0.00     0.210 HD
ENDBRANCH   9  28
BRANCH  15  30
HETATM   30  O4  UNL     1     -15.402  45.616 -24.473  1.00  0.00    -0.315 OA
BRANCH  30  31
HETATM   31  C21 UNL     1     -16.153  46.690 -24.098  1.00  0.00     0.262 C 
HETATM   32  O5  UNL     1     -15.816  47.859 -24.219  1.00  0.00    -0.265 OA
BRANCH  31  33
HETATM   33  C22 UNL     1     -17.477  46.221 -23.549  1.00  0.00     0.148 C 
BRANCH  33  34
HETATM   34  C23 UNL     1     -18.640  46.252 -24.553  1.00  0.00     0.059 C 
HETATM   35  C24 UNL     1     -18.270  45.598 -25.887  1.00  0.00     0.045 C 
HETATM   36  C25 UNL     1     -19.934  45.652 -23.998  1.00  0.00     0.045 C 
BRANCH  34  37
HETATM   37  O6  UNL     1     -18.904  47.636 -24.848  1.00  0.00    -0.390 OA
HETATM   38  H42 UNL     1     -19.296  48.047 -24.057  1.00  0.00     0.210 HD
ENDBRANCH  34  37
ENDBRANCH  33  34
ENDBRANCH  31  33
ENDBRANCH  30  31
ENDBRANCH  15  30
TORSDOF 11
ENDMDL
MODEL 7
REMARK minimizedAffinity -6.95781326
REMARK CNNscore 0.459863842
REMARK CNNaffinity 6.42945242
REMARK  11 active torsions:
REMARK  status: ('A' for Active; 'I' for Inactive)
REMARK    1  A    between atoms: C4_4  and  C5_5 
REMARK    2  A    between atoms: C5_5  and  O2_7 
REMARK    3  A    between atoms: O2_7  and  C6_8 
REMARK    4  A    between atoms: C6_8  and  C7_9 
REMARK    5  A    between atoms: C7_9  and  N1_10 
REMARK    6  A    between atoms: C14_17  and  O3_18 
REMARK    7  A    between atoms: C20_24  and  O4_25 
REMARK    8  A    between atoms: O4_25  and  C21_26 
REMARK    9  A    between atoms: C21_26  and  C22_28 
REMARK   10  A    between atoms: C22_28  and  C23_29 
REMARK   11  A    between atoms: C23_29  and  O6_32 
ROOT
HETATM    1  C1  UNL     1      -7.363  49.743 -19.865  1.00  0.00     0.015 C 
HETATM    2  C2  UNL     1      -6.385  48.663 -20.350  1.00  0.00     0.017 C 
HETATM    3  C3  UNL     1      -5.408  48.323 -19.236  1.00  0.00    -0.070 C 
HETATM    4  C4  UNL     1      -5.469  47.248 -18.418  1.00  0.00     0.085 C 
HETATM    5  C10 UNL     1      -4.252  49.285 -19.075  1.00  0.00     0.035 C 
HETATM    6  C11 UNL     1      -3.725  49.848 -20.400  1.00  0.00     0.010 C 
HETATM    7  C12 UNL     1      -4.151  49.006 -21.626  1.00  0.00     0.001 C 
HETATM    8  C13 UNL     1      -5.693  49.097 -21.686  1.00  0.00     0.027 C 
HETATM    9  C14 UNL     1      -6.220  48.273 -22.861  1.00  0.00     0.123 C 
HETATM   10  C15 UNL     1      -5.607  48.734 -24.174  1.00  0.00     0.038 C 
HETATM   11  C16 UNL     1      -4.064  48.643 -24.217  1.00  0.00     0.007 C 
HETATM   12  C17 UNL     1      -3.523  49.109 -25.639  1.00  0.00    -0.016 C 
HETATM   13  C18 UNL     1      -2.092  48.578 -25.917  1.00  0.00     0.018 C 
HETATM   14  C19 UNL     1      -4.381  48.522 -26.797  1.00  0.00     0.018 C 
HETATM   15  C20 UNL     1      -3.582  50.660 -25.738  1.00  0.00     0.140 C 
HETATM   16  C26 UNL     1      -2.902  51.366 -24.566  1.00  0.00     0.034 C 
HETATM   17  C27 UNL     1      -3.446  50.918 -23.212  1.00  0.00     0.012 C 
HETATM   18  C28 UNL     1      -3.412  49.387 -22.978  1.00  0.00    -0.035 C 
HETATM   19  C29 UNL     1      -1.936  48.924 -22.803  1.00  0.00     0.016 C 
ENDROOT
BRANCH   4  20
HETATM   20  C5  UNL     1      -6.452  46.141 -18.295  1.00  0.00     0.283 C 
HETATM   21  O1  UNL     1      -7.266  45.912 -19.179  1.00  0.00    -0.260 OA
BRANCH  20  22
HETATM   22  O2  UNL     1      -6.304  45.438 -17.156  1.00  0.00    -0.316 OA
BRANCH  22  23
HETATM   23  C6  UNL     1      -7.511  45.055 -16.479  1.00  0.00     0.209 C 
BRANCH  23  24
HETATM   24  C7  UNL     1      -8.024  46.142 -15.511  1.00  0.00     0.298 C 
BRANCH  24  25
HETATM   25  N1  UNL     1      -9.301  45.838 -14.831  1.00  0.00     0.082 N 
HETATM   26  C8  UNL     1      -9.366  46.529 -13.542  1.00  0.00     0.309 C 
HETATM   27  C9  UNL     1     -10.465  46.184 -15.651  1.00  0.00     0.309 C 
ENDBRANCH  24  25
ENDBRANCH  23  24
ENDBRANCH  22  23
ENDBRANCH  20  22
ENDBRANCH   4  20
BRANCH   9  28
HETATM   28  O3  UNL     1      -7.641  48.405 -22.970  1.00  0.00    -0.395 OA
HETATM   29  H23 UNL     1      -7.849  49.342 -23.117  1.00  0.00     0.210 HD
ENDBRANCH   9  28
BRANCH  15  30
HETATM   30  O4  UNL     1      -2.936  51.088 -26.957  1.00  0.00    -0.315 OA
BRANCH  30  31
HETATM   31  C21 UNL     1      -2.047  52.116 -26.850  1.00  0.00     0.262 C 
HETATM   32  O5  UNL     1      -2.285  53.283 -27.127  1.00  0.00    -0.265 OA
BRANCH  31  33
HETATM   33  C22 UNL     1      -0.738  51.605 -26.301  1.00  0.00     0.148 C 
BRANCH  33  34
HETATM   34  C23 UNL     1       0.515  52.204 -26.958  1.00  0.00     0.059 C 
HETATM   35  C24 UNL     1       1.807  51.685 -26.321  1.00  0.00     0.045 C 
HETATM   36  C25 UNL     1       0.549  52.018 -28.477  1.00  0.00     0.045 C 
BRANCH  34  37
HETATM   37  O6  UNL     1       0.487  53.621 -26.703  1.00  0.00    -0.390 OA
HETATM   38  H42 UNL     1      -0.235  54.011 -27.228  1.00  0.00     0.210 HD
ENDBRANCH  34  37
ENDBRANCH  33  34
ENDBRANCH  31  33
ENDBRANCH  30  31
ENDBRANCH  15  30
TORSDOF 11
ENDMDL
MODEL 8
REMARK minimizedAffinity -6.8525095
REMARK CNNscore 0.434220195
REMARK CNNaffinity 6.40711403
REMARK  11 active torsions:
REMARK  status: ('A' for Active; 'I' for Inactive)
REMARK    1  A    between atoms: C4_4  and  C5_5 
REMARK    2  A    between atoms: C5_5  and  O2_7 
REMARK    3  A    between atoms: O2_7  and  C6_8 
REMARK    4  A    between atoms: C6_8  and  C7_9 
REMARK    5  A    between atoms: C7_9  and  N1_10 
REMARK    6  A    between atoms: C14_17  and  O3_18 
REMARK    7  A    between atoms: C20_24  and  O4_25 
REMARK    8  A    between atoms: O4_25  and  C21_26 
REMARK    9  A    between atoms: C21_26  and  C22_28 
REMARK   10  A    between atoms: C22_28  and  C23_29 
REMARK   11  A    between atoms: C23_29  and  O6_32 
ROOT
HETATM    1  C1  UNL     1      -7.728  49.201 -19.641  1.00  0.00     0.015 C 
HETATM    2  C2  UNL     1      -6.757  48.144 -20.187  1.00  0.00     0.017 C 
HETATM    3  C3  UNL     1      -5.764  47.757 -19.103  1.00  0.00    -0.070 C 
HETATM    4  C4  UNL     1      -5.813  46.648 -18.331  1.00  0.00     0.085 C 
HETATM    5  C10 UNL     1      -4.605  48.712 -18.918  1.00  0.00     0.035 C 
HETATM    6  C11 UNL     1      -4.098  49.332 -20.226  1.00  0.00     0.010 C 
HETATM    7  C12 UNL     1      -4.543  48.543 -21.480  1.00  0.00     0.001 C 
HETATM    8  C13 UNL     1      -6.086  48.635 -21.513  1.00  0.00     0.027 C 
HETATM    9  C14 UNL     1      -6.631  47.862 -22.714  1.00  0.00     0.123 C 
HETATM   10  C15 UNL     1      -6.038  48.379 -24.016  1.00  0.00     0.038 C 
HETATM   11  C16 UNL     1      -4.495  48.291 -24.086  1.00  0.00     0.007 C 
HETATM   12  C17 UNL     1      -3.975  48.817 -25.494  1.00  0.00    -0.016 C 
HETATM   13  C18 UNL     1      -2.549  48.300 -25.816  1.00  0.00     0.018 C 
HETATM   14  C19 UNL     1      -4.851  48.281 -26.664  1.00  0.00     0.018 C 
HETATM   15  C20 UNL     1      -4.036  50.371 -25.526  1.00  0.00     0.140 C 
HETATM   16  C26 UNL     1      -3.339  51.027 -24.335  1.00  0.00     0.034 C 
HETATM   17  C27 UNL     1      -3.862  50.521 -22.993  1.00  0.00     0.012 C 
HETATM   18  C28 UNL     1      -3.825  48.981 -22.826  1.00  0.00    -0.035 C 
HETATM   19  C29 UNL     1      -2.346  48.513 -22.693  1.00  0.00     0.016 C 
ENDROOT
BRANCH   4  20
HETATM   20  C5  UNL     1      -6.794  45.536 -18.241  1.00  0.00     0.283 C 
HETATM   21  O1  UNL     1      -7.936  45.727 -17.848  1.00  0.00    -0.260 OA
BRANCH  20  22
HETATM   22  O2  UNL     1      -6.290  44.363 -18.667  1.00  0.00    -0.316 OA
BRANCH  22  23
HETATM   23  C6  UNL     1      -6.305  43.280 -17.725  1.00  0.00     0.209 C 
BRANCH  23  24
HETATM   24  C7  UNL     1      -4.940  43.065 -17.038  1.00  0.00     0.298 C 
BRANCH  24  25
HETATM   25  N1  UNL     1      -3.756  43.427 -17.845  1.00  0.00     0.082 N 
HETATM   26  C8  UNL     1      -2.727  44.029 -16.995  1.00  0.00     0.309 C 
HETATM   27  C9  UNL     1      -3.206  42.280 -18.572  1.00  0.00     0.309 C 
ENDBRANCH  24  25
ENDBRANCH  23  24
ENDBRANCH  22  23
ENDBRANCH  20  22
ENDBRANCH   4  20
BRANCH   9  28
HETATM   28  O3  UNL     1      -8.053  47.997 -22.796  1.00  0.00    -0.395 OA
HETATM   29  H23 UNL     1      -8.263  48.940 -22.900  1.00  0.00     0.210 HD
ENDBRANCH   9  28
BRANCH  15  30
HETATM   30  O4  UNL     1      -3.408  50.852 -26.735  1.00  0.00    -0.315 OA
BRANCH  30  31
HETATM   31  C21 UNL     1      -2.569  51.918 -26.607  1.00  0.00     0.262 C 
HETATM   32  O5  UNL     1      -2.920  53.065 -26.368  1.00  0.00    -0.265 OA
BRANCH  31  33
HETATM   33  C22 UNL     1      -1.139  51.465 -26.765  1.00  0.00     0.148 C 
BRANCH  33  34
HETATM   34  C23 UNL     1      -0.207  52.489 -27.431  1.00  0.00     0.059 C 
HETATM   35  C24 UNL     1       0.304  53.537 -26.440  1.00  0.00     0.045 C 
HETATM   36  C25 UNL     1       0.958  51.844 -28.185  1.00  0.00     0.045 C 
BRANCH  34  37
HETATM   37  O6  UNL     1      -0.995  53.207 -28.399  1.00  0.00    -0.390 OA
HETATM   38  H42 UNL     1      -1.204  52.601 -29.132  1.00  0.00     0.210 HD
ENDBRANCH  34  37
ENDBRANCH  33  34
ENDBRANCH  31  33
ENDBRANCH  30  31
ENDBRANCH  15  30
TORSDOF 11
ENDMDL
MODEL 9
REMARK minimizedAffinity -7.56377316
REMARK CNNscore 0.42251125
REMARK CNNaffinity 6.33594131
REMARK  11 active torsions:
REMARK  status: ('A' for Active; 'I' for Inactive)
REMARK    1  A    between atoms: C4_4  and  C5_5 
REMARK    2  A    between atoms: C5_5  and  O2_7 
REMARK    3  A    between atoms: O2_7  and  C6_8 
REMARK    4  A    between atoms: C6_8  and  C7_9 
REMARK    5  A    between atoms: C7_9  and  N1_10 
REMARK    6  A    between atoms: C14_17  and  O3_18 
REMARK    7  A    between atoms: C20_24  and  O4_25 
REMARK    8  A    between atoms: O4_25  and  C21_26 
REMARK    9  A    between atoms: C21_26  and  C22_28 
REMARK   10  A    between atoms: C22_28  and  C23_29 
REMARK   11  A    between atoms: C23_29  and  O6_32 
ROOT
HETATM    1  C1  UNL     1       0.044  49.479 -17.690  1.00  0.00     0.015 C 
HETATM    2  C2  UNL     1      -1.343  50.082 -17.956  1.00  0.00     0.017 C 
HETATM    3  C3  UNL     1      -2.393  49.304 -17.179  1.00  0.00    -0.070 C 
HETATM    4  C4  UNL     1      -2.964  49.676 -16.011  1.00  0.00     0.085 C 
HETATM    5  C10 UNL     1      -2.844  48.010 -17.820  1.00  0.00     0.035 C 
HETATM    6  C11 UNL     1      -2.921  48.070 -19.351  1.00  0.00     0.010 C 
HETATM    7  C12 UNL     1      -2.971  49.517 -19.896  1.00  0.00     0.001 C 
HETATM    8  C13 UNL     1      -1.628  50.168 -19.493  1.00  0.00     0.027 C 
HETATM    9  C14 UNL     1      -1.586  51.619 -19.972  1.00  0.00     0.123 C 
HETATM   10  C15 UNL     1      -1.792  51.709 -21.475  1.00  0.00     0.038 C 
HETATM   11  C16 UNL     1      -3.131  51.111 -21.966  1.00  0.00     0.007 C 
HETATM   12  C17 UNL     1      -3.270  51.286 -23.541  1.00  0.00    -0.016 C 
HETATM   13  C18 UNL     1      -4.746  51.182 -24.009  1.00  0.00     0.018 C 
HETATM   14  C19 UNL     1      -2.823  52.705 -24.001  1.00  0.00     0.018 C 
HETATM   15  C20 UNL     1      -2.370  50.244 -24.264  1.00  0.00     0.140 C 
HETATM   16  C26 UNL     1      -2.604  48.811 -23.787  1.00  0.00     0.034 C 
HETATM   17  C27 UNL     1      -2.451  48.660 -22.276  1.00  0.00     0.012 C 
HETATM   18  C28 UNL     1      -3.324  49.628 -21.439  1.00  0.00    -0.035 C 
HETATM   19  C29 UNL     1      -4.820  49.215 -21.567  1.00  0.00     0.016 C 
ENDROOT
BRANCH   4  20
HETATM   20  C5  UNL     1      -2.750  50.848 -15.124  1.00  0.00     0.283 C 
HETATM   21  O1  UNL     1      -3.525  51.794 -15.122  1.00  0.00    -0.260 OA
BRANCH  20  22
HETATM   22  O2  UNL     1      -1.666  50.713 -14.337  1.00  0.00    -0.316 OA
BRANCH  22  23
HETATM   23  C6  UNL     1      -1.353  51.824 -13.482  1.00  0.00     0.209 C 
BRANCH  23  24
HETATM   24  C7  UNL     1      -1.962  51.683 -12.071  1.00  0.00     0.298 C 
BRANCH  24  25
HETATM   25  N1  UNL     1      -2.789  52.821 -11.617  1.00  0.00     0.082 N 
HETATM   26  C8  UNL     1      -4.115  52.354 -11.209  1.00  0.00     0.309 C 
HETATM   27  C9  UNL     1      -2.156  53.567 -10.526  1.00  0.00     0.309 C 
ENDBRANCH  24  25
ENDBRANCH  23  24
ENDBRANCH  22  23
ENDBRANCH  20  22
ENDBRANCH   4  20
BRANCH   9  28
HETATM   28  O3  UNL     1      -0.321  52.213 -19.666  1.00  0.00    -0.395 OA
HETATM   29  H23 UNL     1       0.370  51.705 -20.121  1.00  0.00     0.210 HD
ENDBRANCH   9  28
BRANCH  15  30
HETATM   30  O4  UNL     1      -2.626  50.292 -25.685  1.00  0.00    -0.315 OA
BRANCH  30  31
HETATM   31  C21 UNL     1      -1.734  50.989 -26.445  1.00  0.00     0.262 C 
HETATM   32  O5  UNL     1      -2.030  51.820 -27.291  1.00  0.00    -0.265 OA
BRANCH  31  33
HETATM   33  C22 UNL     1      -0.326  50.610 -26.057  1.00  0.00     0.148 C 
BRANCH  33  34
HETATM   34  C23 UNL     1       0.630  51.796 -25.859  1.00  0.00     0.059 C 
HETATM   35  C24 UNL     1       2.071  51.446 -26.239  1.00  0.00     0.045 C 
HETATM   36  C25 UNL     1       0.174  53.066 -26.580  1.00  0.00     0.045 C 
BRANCH  34  37
HETATM   37  O6  UNL     1       0.651  52.089 -24.450  1.00  0.00    -0.390 OA
HETATM   38  H42 UNL     1      -0.212  52.469 -24.205  1.00  0.00     0.210 HD
ENDBRANCH  34  37
ENDBRANCH  33  34
ENDBRANCH  31  33
ENDBRANCH  30  31
ENDBRANCH  15  30
TORSDOF 11
ENDMDL
