MODEL 1
REMARK minimizedAffinity -6.9688673
REMARK  7 active torsions:
REMARK  status: ('A' for Active; 'I' for Inactive)
REMARK    1  A    between atoms: C2_2  and  N1_3 
REMARK    2  A    between atoms: N1_3  and  C3_4 
REMARK    3  A    between atoms: N1_3  and  C5_6 
REMARK    4  A    between atoms: C5_6  and  C6_7 
REMARK    5  A    between atoms: C6_7  and  N2_8 
REMARK       I    between atoms: N2_8  and  C7_9 
REMARK    6  A    between atoms: C7_9  and  C8_11 
REMARK    7  A    between atoms: C11_14  and  N3_15 
REMARK       I    between atoms: N3_15  and  C12_16 
ROOT
HETATM    1  C8  UNL     1      -6.403   3.262  12.328  1.00  0.00     0.032 A 
HETATM    2  C9  UNL     1      -5.187   3.890  12.612  1.00  0.00     0.019 A 
HETATM    3  C10 UNL     1      -3.975   3.253  12.311  1.00  0.00     0.030 A 
HETATM    4  C11 UNL     1      -3.963   1.988  11.719  1.00  0.00     0.034 A 
HETATM    5  C14 UNL     1      -5.184   1.371  11.422  1.00  0.00     0.030 A 
HETATM    6  C15 UNL     1      -6.396   2.002  11.721  1.00  0.00     0.019 A 
ENDROOT
BRANCH   1   7
HETATM    7  C7  UNL     1      -7.717   3.898  12.628  1.00  0.00     0.251 C 
HETATM    8  N2  UNL     1      -7.751   5.277  12.593  1.00  0.00    -0.355 N 
HETATM    9  H15 UNL     1      -6.869   5.761  12.712  1.00  0.00     0.162 HD
HETATM   10  O1  UNL     1      -8.685   3.204  12.922  1.00  0.00    -0.268 OA
BRANCH   8  11
HETATM   11  C6  UNL     1      -8.902   5.999  13.111  1.00  0.00     0.153 C 
BRANCH  11  12
HETATM   12  C5  UNL     1      -8.646   6.507  14.544  1.00  0.00     0.292 C 
BRANCH  12  13
HETATM   13  N1  UNL     1      -7.289   7.074  14.739  1.00  0.00     0.089 N 
BRANCH  13  14
HETATM   14  C2  UNL     1      -6.511   6.293  15.715  1.00  0.00     0.268 C 
HETATM   15  C1  UNL     1      -5.014   6.328  15.423  1.00  0.00     0.037 C 
ENDBRANCH  13  14
BRANCH  13  16
HETATM   16  C3  UNL     1      -7.295   8.507  15.080  1.00  0.00     0.268 C 
HETATM   17  C4  UNL     1      -8.661   9.159  15.275  1.00  0.00     0.037 C 
ENDBRANCH  13  16
ENDBRANCH  12  13
ENDBRANCH  11  12
ENDBRANCH   8  11
ENDBRANCH   1   7
BRANCH   4  18
HETATM   18  N3  UNL     1      -2.787   1.284  11.387  1.00  0.00    -0.328 N 
HETATM   19  C12 UNL     1      -1.649   1.783  10.782  1.00  0.00     0.218 C 
HETATM   20  C13 UNL     1      -0.603   0.714  10.586  1.00  0.00     0.117 C 
HETATM   21  O2  UNL     1      -1.445   2.938  10.427  1.00  0.00    -0.274 OA
HETATM   22  H18 UNL     1      -2.779   0.301  11.626  1.00  0.00     0.169 HD
ENDBRANCH   4  18
TORSDOF 7
ENDMDL
MODEL 2
REMARK minimizedAffinity -6.50622416
REMARK  7 active torsions:
REMARK  status: ('A' for Active; 'I' for Inactive)
REMARK    1  A    between atoms: C2_2  and  N1_3 
REMARK    2  A    between atoms: N1_3  and  C3_4 
REMARK    3  A    between atoms: N1_3  and  C5_6 
REMARK    4  A    between atoms: C5_6  and  C6_7 
REMARK    5  A    between atoms: C6_7  and  N2_8 
REMARK       I    between atoms: N2_8  and  C7_9 
REMARK    6  A    between atoms: C7_9  and  C8_11 
REMARK    7  A    between atoms: C11_14  and  N3_15 
REMARK       I    between atoms: N3_15  and  C12_16 
ROOT
HETATM    1  C8  UNL     1      -5.852   4.076  12.593  1.00  0.00     0.032 A 
HETATM    2  C9  UNL     1      -6.180   2.898  11.915  1.00  0.00     0.019 A 
HETATM    3  C10 UNL     1      -5.174   2.005  11.521  1.00  0.00     0.030 A 
HETATM    4  C11 UNL     1      -3.833   2.272  11.806  1.00  0.00     0.034 A 
HETATM    5  C14 UNL     1      -3.512   3.445  12.500  1.00  0.00     0.030 A 
HETATM    6  C15 UNL     1      -4.512   4.339  12.894  1.00  0.00     0.019 A 
ENDROOT
BRANCH   1   7
HETATM    7  C7  UNL     1      -6.886   5.056  13.032  1.00  0.00     0.251 C 
HETATM    8  N2  UNL     1      -8.066   5.062  12.318  1.00  0.00    -0.355 N 
HETATM    9  H15 UNL     1      -8.036   4.682  11.379  1.00  0.00     0.162 HD
HETATM   10  O1  UNL     1      -6.651   5.824  13.959  1.00  0.00    -0.268 OA
BRANCH   8  11
HETATM   11  C6  UNL     1      -9.030   6.136  12.497  1.00  0.00     0.153 C 
BRANCH  11  12
HETATM   12  C5  UNL     1      -9.396   6.317  13.984  1.00  0.00     0.292 C 
BRANCH  12  13
HETATM   13  N1  UNL     1     -10.359   7.419  14.228  1.00  0.00     0.089 N 
BRANCH  13  14
HETATM   14  C2  UNL     1      -9.928   8.275  15.347  1.00  0.00     0.268 C 
HETATM   15  C1  UNL     1      -8.484   8.740  15.198  1.00  0.00     0.037 C 
ENDBRANCH  13  14
BRANCH  13  16
HETATM   16  C3  UNL     1     -11.747   6.958  14.407  1.00  0.00     0.268 C 
HETATM   17  C4  UNL     1     -12.669   7.081  13.198  1.00  0.00     0.037 C 
ENDBRANCH  13  16
ENDBRANCH  12  13
ENDBRANCH  11  12
ENDBRANCH   8  11
ENDBRANCH   1   7
BRANCH   4  18
HETATM   18  N3  UNL     1      -2.767   1.425  11.444  1.00  0.00    -0.328 N 
HETATM   19  C12 UNL     1      -1.582   1.777  10.824  1.00  0.00     0.218 C 
HETATM   20  C13 UNL     1      -0.691   0.583  10.596  1.00  0.00     0.117 C 
HETATM   21  O2  UNL     1      -1.233   2.901  10.480  1.00  0.00    -0.274 OA
HETATM   22  H18 UNL     1      -2.884   0.445  11.671  1.00  0.00     0.169 HD
ENDBRANCH   4  18
TORSDOF 7
ENDMDL
MODEL 3
REMARK minimizedAffinity -6.49255419
REMARK  7 active torsions:
REMARK  status: ('A' for Active; 'I' for Inactive)
REMARK    1  A    between atoms: C2_2  and  N1_3 
REMARK    2  A    between atoms: N1_3  and  C3_4 
REMARK    3  A    between atoms: N1_3  and  C5_6 
REMARK    4  A    between atoms: C5_6  and  C6_7 
REMARK    5  A    between atoms: C6_7  and  N2_8 
REMARK       I    between atoms: N2_8  and  C7_9 
REMARK    6  A    between atoms: C7_9  and  C8_11 
REMARK    7  A    between atoms: C11_14  and  N3_15 
REMARK       I    between atoms: N3_15  and  C12_16 
ROOT
HETATM    1  C8  UNL     1      -1.965   4.148  11.479  1.00  0.00     0.032 A 
HETATM    2  C9  UNL     1      -2.777   3.674  10.445  1.00  0.00     0.019 A 
HETATM    3  C10 UNL     1      -4.139   3.432  10.670  1.00  0.00     0.030 A 
HETATM    4  C11 UNL     1      -4.707   3.667  11.925  1.00  0.00     0.034 A 
HETATM    5  C14 UNL     1      -3.892   4.158  12.953  1.00  0.00     0.030 A 
HETATM    6  C15 UNL     1      -2.532   4.399  12.733  1.00  0.00     0.019 A 
ENDROOT
BRANCH   1   7
HETATM    7  C7  UNL     1      -0.512   4.421  11.289  1.00  0.00     0.251 C 
HETATM    8  N2  UNL     1      -0.150   5.746  11.159  1.00  0.00    -0.355 N 
HETATM    9  H15 UNL     1      -0.872   6.391  10.860  1.00  0.00     0.162 HD
HETATM   10  O1  UNL     1       0.285   3.491  11.221  1.00  0.00    -0.268 OA
BRANCH   8  11
HETATM   11  C6  UNL     1       1.190   6.104  10.722  1.00  0.00     0.153 C 
BRANCH  11  12
HETATM   12  C5  UNL     1       1.147   7.118   9.561  1.00  0.00     0.292 C 
BRANCH  12  13
HETATM   13  N1  UNL     1       2.438   7.253   8.843  1.00  0.00     0.089 N 
BRANCH  13  14
HETATM   14  C2  UNL     1       2.465   6.436   7.618  1.00  0.00     0.268 C 
HETATM   15  C1  UNL     1       1.758   7.117   6.452  1.00  0.00     0.037 C 
ENDBRANCH  13  14
BRANCH  13  16
HETATM   16  C3  UNL     1       3.613   6.988   9.692  1.00  0.00     0.268 C 
HETATM   17  C4  UNL     1       4.489   8.187  10.041  1.00  0.00     0.037 C 
ENDBRANCH  13  16
ENDBRANCH  12  13
ENDBRANCH  11  12
ENDBRANCH   8  11
ENDBRANCH   1   7
BRANCH   4  18
HETATM   18  N3  UNL     1      -6.066   3.449  12.229  1.00  0.00    -0.328 N 
HETATM   19  C12 UNL     1      -6.990   4.376  12.673  1.00  0.00     0.218 C 
HETATM   20  C13 UNL     1      -8.346   3.755  12.895  1.00  0.00     0.117 C 
HETATM   21  O2  UNL     1      -6.801   5.569  12.878  1.00  0.00    -0.274 OA
HETATM   22  H18 UNL     1      -6.400   2.502  12.101  1.00  0.00     0.169 HD
ENDBRANCH   4  18
TORSDOF 7
ENDMDL
MODEL 4
REMARK minimizedAffinity -6.48022795
REMARK  7 active torsions:
REMARK  status: ('A' for Active; 'I' for Inactive)
REMARK    1  A    between atoms: C2_2  and  N1_3 
REMARK    2  A    between atoms: N1_3  and  C3_4 
REMARK    3  A    between atoms: N1_3  and  C5_6 
REMARK    4  A    between atoms: C5_6  and  C6_7 
REMARK    5  A    between atoms: C6_7  and  N2_8 
REMARK       I    between atoms: N2_8  and  C7_9 
REMARK    6  A    between atoms: C7_9  and  C8_11 
REMARK    7  A    between atoms: C11_14  and  N3_15 
REMARK       I    between atoms: N3_15  and  C12_16 
ROOT
HETATM    1  C8  UNL     1      -5.816   4.298  12.575  1.00  0.00     0.032 A 
HETATM    2  C9  UNL     1      -4.504   4.522  13.001  1.00  0.00     0.019 A 
HETATM    3  C10 UNL     1      -3.481   3.636  12.637  1.00  0.00     0.030 A 
HETATM    4  C11 UNL     1      -3.754   2.522  11.838  1.00  0.00     0.034 A 
HETATM    5  C14 UNL     1      -5.068   2.312  11.401  1.00  0.00     0.030 A 
HETATM    6  C15 UNL     1      -6.091   3.193  11.763  1.00  0.00     0.019 A 
ENDROOT
BRANCH   1   7
HETATM    7  C7  UNL     1      -6.938   5.211  12.936  1.00  0.00     0.251 C 
HETATM    8  N2  UNL     1      -6.666   6.163  13.897  1.00  0.00    -0.355 N 
HETATM    9  H15 UNL     1      -5.889   5.978  14.520  1.00  0.00     0.162 HD
HETATM   10  O1  UNL     1      -8.038   5.071  12.413  1.00  0.00    -0.268 OA
BRANCH   8  11
HETATM   11  C6  UNL     1      -7.745   6.931  14.498  1.00  0.00     0.153 C 
BRANCH  11  12
HETATM   12  C5  UNL     1      -9.116   6.287  14.214  1.00  0.00     0.292 C 
BRANCH  12  13
HETATM   13  N1  UNL     1     -10.260   7.059  14.759  1.00  0.00     0.089 N 
BRANCH  13  14
HETATM   14  C2  UNL     1     -11.385   7.102  13.810  1.00  0.00     0.268 C 
HETATM   15  C1  UNL     1     -12.629   6.407  14.355  1.00  0.00     0.037 C 
ENDBRANCH  13  14
BRANCH  13  16
HETATM   16  C3  UNL     1      -9.891   8.410  15.217  1.00  0.00     0.268 C 
HETATM   17  C4  UNL     1     -10.569   9.580  14.511  1.00  0.00     0.037 C 
ENDBRANCH  13  16
ENDBRANCH  12  13
ENDBRANCH  11  12
ENDBRANCH   8  11
ENDBRANCH   1   7
BRANCH   4  18
HETATM   18  N3  UNL     1      -2.781   1.587  11.431  1.00  0.00    -0.328 N 
HETATM   19  C12 UNL     1      -1.526   1.848  10.911  1.00  0.00     0.218 C 
HETATM   20  C13 UNL     1      -0.778   0.579  10.588  1.00  0.00     0.117 C 
HETATM   21  O2  UNL     1      -1.020   2.947  10.717  1.00  0.00    -0.274 OA
HETATM   22  H18 UNL     1      -3.033   0.613  11.536  1.00  0.00     0.169 HD
ENDBRANCH   4  18
TORSDOF 7
ENDMDL
MODEL 5
REMARK minimizedAffinity -6.41120815
REMARK  7 active torsions:
REMARK  status: ('A' for Active; 'I' for Inactive)
REMARK    1  A    between atoms: C2_2  and  N1_3 
REMARK    2  A    between atoms: N1_3  and  C3_4 
REMARK    3  A    between atoms: N1_3  and  C5_6 
REMARK    4  A    between atoms: C5_6  and  C6_7 
REMARK    5  A    between atoms: C6_7  and  N2_8 
REMARK       I    between atoms: N2_8  and  C7_9 
REMARK    6  A    between atoms: C7_9  and  C8_11 
REMARK    7  A    between atoms: C11_14  and  N3_15 
REMARK       I    between atoms: N3_15  and  C12_16 
ROOT
HETATM    1  C8  UNL     1      -1.729   4.668  11.589  1.00  0.00     0.032 A 
HETATM    2  C9  UNL     1      -2.298   3.795  10.658  1.00  0.00     0.019 A 
HETATM    3  C10 UNL     1      -3.623   3.362  10.812  1.00  0.00     0.030 A 
HETATM    4  C11 UNL     1      -4.394   3.800  11.891  1.00  0.00     0.034 A 
HETATM    5  C14 UNL     1      -3.823   4.687  12.812  1.00  0.00     0.030 A 
HETATM    6  C15 UNL     1      -2.503   5.121  12.662  1.00  0.00     0.019 A 
ENDROOT
BRANCH   1   7
HETATM    7  C7  UNL     1      -0.326   5.157  11.468  1.00  0.00     0.251 C 
HETATM    8  N2  UNL     1      -0.107   6.478  11.802  1.00  0.00    -0.355 N 
HETATM    9  H15 UNL     1      -0.908   7.098  11.770  1.00  0.00     0.162 HD
HETATM   10  O1  UNL     1       0.553   4.409  11.055  1.00  0.00    -0.268 OA
BRANCH   8  11
HETATM   11  C6  UNL     1       1.158   7.119  11.483  1.00  0.00     0.153 C 
BRANCH  11  12
HETATM   12  C5  UNL     1       1.089   7.847  10.126  1.00  0.00     0.292 C 
BRANCH  12  13
HETATM   13  N1  UNL     1       1.826   7.153   9.041  1.00  0.00     0.089 N 
BRANCH  13  14
HETATM   14  C2  UNL     1       3.187   6.779   9.464  1.00  0.00     0.268 C 
HETATM   15  C1  UNL     1       3.434   5.278   9.359  1.00  0.00     0.037 C 
ENDBRANCH  13  14
BRANCH  13  16
HETATM   16  C3  UNL     1       1.844   7.899   7.771  1.00  0.00     0.268 C 
HETATM   17  C4  UNL     1       1.827   7.070   6.491  1.00  0.00     0.037 C 
ENDBRANCH  13  16
ENDBRANCH  12  13
ENDBRANCH  11  12
ENDBRANCH   8  11
ENDBRANCH   1   7
BRANCH   4  18
HETATM   18  N3  UNL     1      -5.730   3.409  12.115  1.00  0.00    -0.328 N 
HETATM   19  C12 UNL     1      -6.612   3.920  13.049  1.00  0.00     0.218 C 
HETATM   20  C13 UNL     1      -7.955   3.236  12.985  1.00  0.00     0.117 C 
HETATM   21  O2  UNL     1      -6.399   4.818  13.854  1.00  0.00    -0.274 OA
HETATM   22  H18 UNL     1      -6.081   2.672  11.516  1.00  0.00     0.169 HD
ENDBRANCH   4  18
TORSDOF 7
ENDMDL
MODEL 6
REMARK minimizedAffinity -6.13979149
REMARK  7 active torsions:
REMARK  status: ('A' for Active; 'I' for Inactive)
REMARK    1  A    between atoms: C2_2  and  N1_3 
REMARK    2  A    between atoms: N1_3  and  C3_4 
REMARK    3  A    between atoms: N1_3  and  C5_6 
REMARK    4  A    between atoms: C5_6  and  C6_7 
REMARK    5  A    between atoms: C6_7  and  N2_8 
REMARK       I    between atoms: N2_8  and  C7_9 
REMARK    6  A    between atoms: C7_9  and  C8_11 
REMARK    7  A    between atoms: C11_14  and  N3_15 
REMARK       I    between atoms: N3_15  and  C12_16 
ROOT
HETATM    1  C8  UNL     1      -1.636   4.106  12.050  1.00  0.00     0.032 A 
HETATM    2  C9  UNL     1      -2.236   5.128  12.790  1.00  0.00     0.019 A 
HETATM    3  C10 UNL     1      -3.603   5.070  13.098  1.00  0.00     0.030 A 
HETATM    4  C11 UNL     1      -4.382   3.989  12.678  1.00  0.00     0.034 A 
HETATM    5  C14 UNL     1      -3.771   2.960  11.950  1.00  0.00     0.030 A 
HETATM    6  C15 UNL     1      -2.409   3.015  11.640  1.00  0.00     0.019 A 
ENDROOT
BRANCH   1   7
HETATM    7  C7  UNL     1      -0.187   4.123  11.698  1.00  0.00     0.251 C 
HETATM    8  N2  UNL     1       0.465   5.329  11.848  1.00  0.00    -0.355 N 
HETATM    9  H15 UNL     1      -0.109   6.164  11.846  1.00  0.00     0.162 HD
HETATM   10  O1  UNL     1       0.353   3.110  11.267  1.00  0.00    -0.268 OA
BRANCH   8  11
HETATM   11  C6  UNL     1       1.798   5.519  11.301  1.00  0.00     0.153 C 
BRANCH  11  12
HETATM   12  C5  UNL     1       2.190   7.010  11.287  1.00  0.00     0.292 C 
BRANCH  12  13
HETATM   13  N1  UNL     1       1.668   7.750  10.112  1.00  0.00     0.089 N 
BRANCH  13  14
HETATM   14  C2  UNL     1       0.216   7.975  10.216  1.00  0.00     0.268 C 
HETATM   15  C1  UNL     1      -0.338   8.749   9.023  1.00  0.00     0.037 C 
ENDBRANCH  13  14
BRANCH  13  16
HETATM   16  C3  UNL     1       2.024   7.133   8.822  1.00  0.00     0.268 C 
HETATM   17  C4  UNL     1       2.754   8.020   7.818  1.00  0.00     0.037 C 
ENDBRANCH  13  16
ENDBRANCH  12  13
ENDBRANCH  11  12
ENDBRANCH   8  11
ENDBRANCH   1   7
BRANCH   4  18
HETATM   18  N3  UNL     1      -5.759   3.858  12.948  1.00  0.00    -0.328 N 
HETATM   19  C12 UNL     1      -6.624   2.891  12.469  1.00  0.00     0.218 C 
HETATM   20  C13 UNL     1      -8.029   3.093  12.980  1.00  0.00     0.117 C 
HETATM   21  O2  UNL     1      -6.350   1.957  11.725  1.00  0.00    -0.274 OA
HETATM   22  H18 UNL     1      -6.156   4.554  13.567  1.00  0.00     0.169 HD
ENDBRANCH   4  18
TORSDOF 7
ENDMDL
MODEL 7
REMARK minimizedAffinity -6.09397793
REMARK  7 active torsions:
REMARK  status: ('A' for Active; 'I' for Inactive)
REMARK    1  A    between atoms: C2_2  and  N1_3 
REMARK    2  A    between atoms: N1_3  and  C3_4 
REMARK    3  A    between atoms: N1_3  and  C5_6 
REMARK    4  A    between atoms: C5_6  and  C6_7 
REMARK    5  A    between atoms: C6_7  and  N2_8 
REMARK       I    between atoms: N2_8  and  C7_9 
REMARK    6  A    between atoms: C7_9  and  C8_11 
REMARK    7  A    between atoms: C11_14  and  N3_15 
REMARK       I    between atoms: N3_15  and  C12_16 
ROOT
HETATM    1  C8  UNL     1      -2.337   6.675  12.775  1.00  0.00     0.032 A 
HETATM    2  C9  UNL     1      -3.530   7.322  13.109  1.00  0.00     0.019 A 
HETATM    3  C10 UNL     1      -4.702   6.582  13.314  1.00  0.00     0.030 A 
HETATM    4  C11 UNL     1      -4.696   5.190  13.196  1.00  0.00     0.034 A 
HETATM    5  C14 UNL     1      -3.494   4.546  12.877  1.00  0.00     0.030 A 
HETATM    6  C15 UNL     1      -2.322   5.280  12.671  1.00  0.00     0.019 A 
ENDROOT
BRANCH   1   7
HETATM    7  C7  UNL     1      -1.064   7.418  12.548  1.00  0.00     0.251 C 
HETATM    8  N2  UNL     1      -0.273   6.973  11.508  1.00  0.00    -0.355 N 
HETATM    9  H15 UNL     1      -0.411   6.016  11.205  1.00  0.00     0.162 HD
HETATM   10  O1  UNL     1      -0.753   8.345  13.287  1.00  0.00    -0.268 OA
BRANCH   8  11
HETATM   11  C6  UNL     1       1.089   7.457  11.361  1.00  0.00     0.153 C 
BRANCH  11  12
HETATM   12  C5  UNL     1       1.303   8.114   9.982  1.00  0.00     0.292 C 
BRANCH  12  13
HETATM   13  N1  UNL     1       2.084   7.275   9.040  1.00  0.00     0.089 N 
BRANCH  13  14
HETATM   14  C2  UNL     1       3.356   6.832   9.635  1.00  0.00     0.268 C 
HETATM   15  C1  UNL     1       3.474   5.312   9.683  1.00  0.00     0.037 C 
ENDBRANCH  13  14
BRANCH  13  16
HETATM   16  C3  UNL     1       2.297   7.909   7.727  1.00  0.00     0.268 C 
HETATM   17  C4  UNL     1       1.783   7.147   6.509  1.00  0.00     0.037 C 
ENDBRANCH  13  16
ENDBRANCH  12  13
ENDBRANCH  11  12
ENDBRANCH   8  11
ENDBRANCH   1   7
BRANCH   4  18
HETATM   18  N3  UNL     1      -5.832   4.378  13.386  1.00  0.00    -0.328 N 
HETATM   19  C12 UNL     1      -6.406   3.505  12.480  1.00  0.00     0.218 C 
HETATM   20  C13 UNL     1      -7.620   2.818  13.054  1.00  0.00     0.117 C 
HETATM   21  O2  UNL     1      -6.026   3.266  11.340  1.00  0.00    -0.274 OA
HETATM   22  H18 UNL     1      -6.273   4.441  14.295  1.00  0.00     0.169 HD
ENDBRANCH   4  18
TORSDOF 7
ENDMDL
MODEL 8
REMARK minimizedAffinity -5.95649815
REMARK  7 active torsions:
REMARK  status: ('A' for Active; 'I' for Inactive)
REMARK    1  A    between atoms: C2_2  and  N1_3 
REMARK    2  A    between atoms: N1_3  and  C3_4 
REMARK    3  A    between atoms: N1_3  and  C5_6 
REMARK    4  A    between atoms: C5_6  and  C6_7 
REMARK    5  A    between atoms: C6_7  and  N2_8 
REMARK       I    between atoms: N2_8  and  C7_9 
REMARK    6  A    between atoms: C7_9  and  C8_11 
REMARK    7  A    between atoms: C11_14  and  N3_15 
REMARK       I    between atoms: N3_15  and  C12_16 
ROOT
HETATM    1  C8  UNL     1      -3.349   4.962  12.790  1.00  0.00     0.032 A 
HETATM    2  C9  UNL     1      -4.348   3.986  12.731  1.00  0.00     0.019 A 
HETATM    3  C10 UNL     1      -5.676   4.314  13.039  1.00  0.00     0.030 A 
HETATM    4  C11 UNL     1      -6.022   5.618  13.400  1.00  0.00     0.034 A 
HETATM    5  C14 UNL     1      -5.020   6.595  13.441  1.00  0.00     0.030 A 
HETATM    6  C15 UNL     1      -3.694   6.272  13.135  1.00  0.00     0.019 A 
ENDROOT
BRANCH   1   7
HETATM    7  C7  UNL     1      -1.924   4.662  12.471  1.00  0.00     0.251 C 
HETATM    8  N2  UNL     1      -1.031   5.702  12.625  1.00  0.00    -0.355 N 
HETATM    9  H15 UNL     1      -1.412   6.641  12.601  1.00  0.00     0.162 HD
HETATM   10  O1  UNL     1      -1.605   3.551  12.062  1.00  0.00    -0.268 OA
BRANCH   8  11
HETATM   11  C6  UNL     1       0.323   5.593  12.107  1.00  0.00     0.153 C 
BRANCH  11  12
HETATM   12  C5  UNL     1       0.380   5.957  10.609  1.00  0.00     0.292 C 
BRANCH  12  13
HETATM   13  N1  UNL     1       1.187   7.168  10.322  1.00  0.00     0.089 N 
BRANCH  13  14
HETATM   14  C2  UNL     1       0.338   8.361  10.170  1.00  0.00     0.268 C 
HETATM   15  C1  UNL     1      -0.162   8.538   8.740  1.00  0.00     0.037 C 
ENDBRANCH  13  14
BRANCH  13  16
HETATM   16  C3  UNL     1       2.099   7.008   9.176  1.00  0.00     0.268 C 
HETATM   17  C4  UNL     1       3.432   7.746   9.256  1.00  0.00     0.037 C 
ENDBRANCH  13  16
ENDBRANCH  12  13
ENDBRANCH  11  12
ENDBRANCH   8  11
ENDBRANCH   1   7
BRANCH   4  18
HETATM   18  N3  UNL     1      -7.332   6.025  13.723  1.00  0.00    -0.328 N 
HETATM   19  C12 UNL     1      -8.461   5.944  12.928  1.00  0.00     0.218 C 
HETATM   20  C13 UNL     1      -9.680   6.490  13.627  1.00  0.00     0.117 C 
HETATM   21  O2  UNL     1      -8.534   5.491  11.791  1.00  0.00    -0.274 OA
HETATM   22  H18 UNL     1      -7.458   6.418  14.647  1.00  0.00     0.169 HD
ENDBRANCH   4  18
TORSDOF 7
ENDMDL
MODEL 9
REMARK minimizedAffinity -5.91742992
REMARK  7 active torsions:
REMARK  status: ('A' for Active; 'I' for Inactive)
REMARK    1  A    between atoms: C2_2  and  N1_3 
REMARK    2  A    between atoms: N1_3  and  C3_4 
REMARK    3  A    between atoms: N1_3  and  C5_6 
REMARK    4  A    between atoms: C5_6  and  C6_7 
REMARK    5  A    between atoms: C6_7  and  N2_8 
REMARK       I    between atoms: N2_8  and  C7_9 
REMARK    6  A    between atoms: C7_9  and  C8_11 
REMARK    7  A    between atoms: C11_14  and  N3_15 
REMARK       I    between atoms: N3_15  and  C12_16 
ROOT
HETATM    1  C8  UNL     1      -5.249   4.621  13.018  1.00  0.00     0.032 A 
HETATM    2  C9  UNL     1      -6.284   3.688  12.902  1.00  0.00     0.019 A 
HETATM    3  C10 UNL     1      -7.617   4.086  13.077  1.00  0.00     0.030 A 
HETATM    4  C11 UNL     1      -7.931   5.417  13.361  1.00  0.00     0.034 A 
HETATM    5  C14 UNL     1      -6.891   6.350  13.459  1.00  0.00     0.030 A 
HETATM    6  C15 UNL     1      -5.561   5.957  13.286  1.00  0.00     0.019 A 
ENDROOT
BRANCH   1   7
HETATM    7  C7  UNL     1      -3.817   4.247  12.840  1.00  0.00     0.251 C 
HETATM    8  N2  UNL     1      -2.899   5.272  12.942  1.00  0.00    -0.355 N 
HETATM    9  H15 UNL     1      -3.243   6.213  12.786  1.00  0.00     0.162 HD
HETATM   10  O1  UNL     1      -3.511   3.088  12.582  1.00  0.00    -0.268 OA
BRANCH   8  11
HETATM   11  C6  UNL     1      -1.517   5.067  12.540  1.00  0.00     0.153 C 
BRANCH  11  12
HETATM   12  C5  UNL     1      -0.677   6.342  12.754  1.00  0.00     0.292 C 
BRANCH  12  13
HETATM   13  N1  UNL     1      -0.848   7.352  11.681  1.00  0.00     0.089 N 
BRANCH  13  14
HETATM   14  C2  UNL     1       0.359   7.464  10.844  1.00  0.00     0.268 C 
HETATM   15  C1  UNL     1       0.133   8.337   9.614  1.00  0.00     0.037 C 
ENDBRANCH  13  14
BRANCH  13  16
HETATM   16  C3  UNL     1      -1.281   8.670  12.177  1.00  0.00     0.268 C 
HETATM   17  C4  UNL     1      -2.726   8.780  12.656  1.00  0.00     0.037 C 
ENDBRANCH  13  16
ENDBRANCH  12  13
ENDBRANCH  11  12
ENDBRANCH   8  11
ENDBRANCH   1   7
BRANCH   4  18
HETATM   18  N3  UNL     1      -9.244   5.893  13.550  1.00  0.00    -0.328 N 
HETATM   19  C12 UNL     1      -9.672   6.854  14.448  1.00  0.00     0.218 C 
HETATM   20  C13 UNL     1     -11.159   7.087  14.354  1.00  0.00     0.117 C 
HETATM   21  O2  UNL     1      -8.984   7.480  15.244  1.00  0.00    -0.274 OA
HETATM   22  H18 UNL     1      -9.953   5.484  12.953  1.00  0.00     0.169 HD
ENDBRANCH   4  18
TORSDOF 7
ENDMDL
