MODEL 1
REMARK minimizedAffinity -7.53814602
REMARK CNNscore 0.557389557
REMARK CNNaffinity 6.09039259
REMARK  4 active torsions:
REMARK  status: ('A' for Active; 'I' for Inactive)
REMARK    1  A    between atoms: C4_4  and  C5_5 
REMARK    2  A    between atoms: C5_5  and  C6_7 
REMARK    3  A    between atoms: C6_7  and  C7_8 
REMARK    4  A    between atoms: C7_8  and  C8_9 
ROOT
HETATM    1  C8  UNL     1      -9.317  47.493 -29.462  1.00  0.00     0.028 C 
HETATM    2  C9  UNL     1      -9.993  47.096 -30.809  1.00  0.00     0.009 C 
HETATM    3  C10 UNL     1     -11.188  46.196 -30.467  1.00  0.00     0.011 C 
HETATM    4  C11 UNL     1     -11.589  46.616 -29.044  1.00  0.00    -0.032 C 
HETATM    5  C12 UNL     1     -12.317  47.999 -29.173  1.00  0.00     0.016 C 
HETATM    6  C13 UNL     1     -10.179  46.758 -28.405  1.00  0.00     0.001 C 
HETATM    7  C14 UNL     1     -10.305  47.362 -27.008  1.00  0.00     0.006 C 
HETATM    8  C15 UNL     1     -11.193  46.478 -26.115  1.00  0.00     0.006 C 
HETATM    9  C16 UNL     1     -12.588  46.145 -26.724  1.00  0.00     0.003 C 
HETATM   10  C17 UNL     1     -13.560  45.349 -25.743  1.00  0.00    -0.035 C 
HETATM   11  C18 UNL     1     -12.794  44.209 -25.021  1.00  0.00     0.016 C 
HETATM   12  C19 UNL     1     -14.031  46.323 -24.608  1.00  0.00     0.017 C 
HETATM   13  C20 UNL     1     -15.315  47.073 -24.918  1.00  0.00     0.080 C 
HETATM   14  C21 UNL     1     -16.466  46.118 -25.127  1.00  0.00     0.135 C 
HETATM   15  O2  UNL     1     -17.617  46.473 -24.860  1.00  0.00    -0.297 OA
HETATM   16  C22 UNL     1     -16.156  44.728 -25.693  1.00  0.00     0.017 C 
HETATM   17  C23 UNL     1     -16.089  43.738 -24.513  1.00  0.00     0.023 C 
HETATM   18  C24 UNL     1     -17.352  44.275 -26.565  1.00  0.00     0.023 C 
HETATM   19  C25 UNL     1     -14.814  44.772 -26.527  1.00  0.00     0.009 C 
HETATM   20  C26 UNL     1     -15.016  45.517 -27.875  1.00  0.00     0.007 C 
HETATM   21  C27 UNL     1     -13.845  45.353 -28.836  1.00  0.00     0.011 C 
HETATM   22  C28 UNL     1     -12.451  45.571 -28.196  1.00  0.00    -0.032 C 
HETATM   23  C29 UNL     1     -11.782  44.165 -28.181  1.00  0.00     0.016 C 
ENDROOT
BRANCH   1  24
HETATM   24  C7  UNL     1      -7.816  47.179 -29.389  1.00  0.00     0.093 A 
HETATM   25  C30 UNL     1      -7.250  46.060 -30.260  1.00  0.00     0.207 A 
HETATM   26  O3  UNL     1      -7.500  45.883 -28.856  1.00  0.00    -0.374 OA
BRANCH  24  27
HETATM   27  C6  UNL     1      -6.901  48.288 -28.907  1.00  0.00     0.123 C 
BRANCH  27  28
HETATM   28  C5  UNL     1      -5.414  48.027 -28.971  1.00  0.00     0.152 C 
HETATM   29  O1  UNL     1      -4.863  47.806 -30.054  1.00  0.00    -0.293 OA
BRANCH  28  30
HETATM   30  C4  UNL     1      -4.536  48.099 -27.763  1.00  0.00     0.052 C 
HETATM   31  C2  UNL     1      -3.596  48.974 -27.354  1.00  0.00    -0.084 C 
HETATM   32  C1  UNL     1      -2.843  48.705 -26.071  1.00  0.00     0.043 C 
HETATM   33  C3  UNL     1      -3.193  50.259 -28.021  1.00  0.00     0.043 C 
ENDBRANCH  28  30
ENDBRANCH  27  28
ENDBRANCH  24  27
ENDBRANCH   1  24
TORSDOF 4
ENDMDL
MODEL 2
REMARK minimizedAffinity -7.02127504
REMARK CNNscore 0.542340696
REMARK CNNaffinity 6.04097986
REMARK  4 active torsions:
REMARK  status: ('A' for Active; 'I' for Inactive)
REMARK    1  A    between atoms: C4_4  and  C5_5 
REMARK    2  A    between atoms: C5_5  and  C6_7 
REMARK    3  A    between atoms: C6_7  and  C7_8 
REMARK    4  A    between atoms: C7_8  and  C8_9 
ROOT
HETATM    1  C8  UNL     1     -17.349  44.742 -24.610  1.00  0.00     0.028 C 
HETATM    2  C9  UNL     1     -17.673  43.270 -25.007  1.00  0.00     0.009 C 
HETATM    3  C10 UNL     1     -16.809  42.929 -26.229  1.00  0.00     0.011 C 
HETATM    4  C11 UNL     1     -15.592  43.861 -26.109  1.00  0.00    -0.032 C 
HETATM    5  C12 UNL     1     -14.692  43.275 -24.966  1.00  0.00     0.016 C 
HETATM    6  C13 UNL     1     -16.306  45.171 -25.673  1.00  0.00     0.001 C 
HETATM    7  C14 UNL     1     -15.265  46.225 -25.300  1.00  0.00     0.006 C 
HETATM    8  C15 UNL     1     -14.335  46.512 -26.492  1.00  0.00     0.006 C 
HETATM    9  C16 UNL     1     -13.671  45.243 -27.109  1.00  0.00     0.003 C 
HETATM   10  C17 UNL     1     -12.602  45.551 -28.249  1.00  0.00    -0.035 C 
HETATM   11  C18 UNL     1     -13.136  46.636 -29.222  1.00  0.00     0.016 C 
HETATM   12  C19 UNL     1     -11.327  46.177 -27.583  1.00  0.00     0.017 C 
HETATM   13  C20 UNL     1     -10.274  45.162 -27.172  1.00  0.00     0.080 C 
HETATM   14  C21 UNL     1      -9.762  44.393 -28.367  1.00  0.00     0.135 C 
HETATM   15  O2  UNL     1      -8.610  43.952 -28.369  1.00  0.00    -0.297 OA
HETATM   16  C22 UNL     1     -10.718  44.171 -29.544  1.00  0.00     0.017 C 
HETATM   17  C23 UNL     1     -10.410  45.235 -30.616  1.00  0.00     0.023 C 
HETATM   18  C24 UNL     1     -10.390  42.803 -30.191  1.00  0.00     0.023 C 
HETATM   19  C25 UNL     1     -12.216  44.230 -29.041  1.00  0.00     0.009 C 
HETATM   20  C26 UNL     1     -12.582  42.964 -28.219  1.00  0.00     0.007 C 
HETATM   21  C27 UNL     1     -14.075  42.833 -27.945  1.00  0.00     0.011 C 
HETATM   22  C28 UNL     1     -14.753  44.133 -27.441  1.00  0.00    -0.032 C 
HETATM   23  C29 UNL     1     -15.677  44.591 -28.607  1.00  0.00     0.016 C 
ENDROOT
BRANCH   1  24
HETATM   24  C7  UNL     1     -18.576  45.659 -24.518  1.00  0.00     0.093 A 
HETATM   25  C30 UNL     1     -19.880  45.221 -25.182  1.00  0.00     0.207 A 
HETATM   26  O3  UNL     1     -19.014  46.204 -25.773  1.00  0.00    -0.374 OA
BRANCH  24  27
HETATM   27  C6  UNL     1     -18.617  46.644 -23.367  1.00  0.00     0.123 C 
BRANCH  27  28
HETATM   28  C5  UNL     1     -17.808  46.298 -22.138  1.00  0.00     0.152 C 
HETATM   29  O1  UNL     1     -16.615  46.611 -22.067  1.00  0.00    -0.293 OA
BRANCH  28  30
HETATM   30  C4  UNL     1     -18.413  45.647 -20.937  1.00  0.00     0.052 C 
HETATM   31  C2  UNL     1     -18.967  46.125 -19.806  1.00  0.00    -0.084 C 
HETATM   32  C1  UNL     1     -19.442  45.155 -18.747  1.00  0.00     0.043 C 
HETATM   33  C3  UNL     1     -19.214  47.563 -19.447  1.00  0.00     0.043 C 
ENDBRANCH  28  30
ENDBRANCH  27  28
ENDBRANCH  24  27
ENDBRANCH   1  24
TORSDOF 4
ENDMDL
MODEL 3
REMARK minimizedAffinity -7.33636045
REMARK CNNscore 0.500787854
REMARK CNNaffinity 6.71905661
REMARK  4 active torsions:
REMARK  status: ('A' for Active; 'I' for Inactive)
REMARK    1  A    between atoms: C4_4  and  C5_5 
REMARK    2  A    between atoms: C5_5  and  C6_7 
REMARK    3  A    between atoms: C6_7  and  C7_8 
REMARK    4  A    between atoms: C7_8  and  C8_9 
ROOT
HETATM    1  C8  UNL     1      -2.236  53.156  -9.739  1.00  0.00     0.028 C 
HETATM    2  C9  UNL     1      -2.166  52.094  -8.601  1.00  0.00     0.009 C 
HETATM    3  C10 UNL     1      -0.688  51.937  -8.219  1.00  0.00     0.011 C 
HETATM    4  C11 UNL     1      -0.050  53.285  -8.594  1.00  0.00    -0.032 C 
HETATM    5  C12 UNL     1      -0.506  54.314  -7.502  1.00  0.00     0.016 C 
HETATM    6  C13 UNL     1      -0.750  53.536  -9.959  1.00  0.00     0.001 C 
HETATM    7  C14 UNL     1      -0.414  54.939 -10.459  1.00  0.00     0.006 C 
HETATM    8  C15 UNL     1       1.107  55.108 -10.617  1.00  0.00     0.006 C 
HETATM    9  C16 UNL     1       1.930  54.740  -9.345  1.00  0.00     0.003 C 
HETATM   10  C17 UNL     1       3.489  55.047  -9.460  1.00  0.00    -0.035 C 
HETATM   11  C18 UNL     1       4.038  54.585 -10.836  1.00  0.00     0.016 C 
HETATM   12  C19 UNL     1       3.696  56.602  -9.426  1.00  0.00     0.017 C 
HETATM   13  C20 UNL     1       3.908  57.175  -8.036  1.00  0.00     0.080 C 
HETATM   14  C21 UNL     1       5.143  56.595  -7.389  1.00  0.00     0.135 C 
HETATM   15  O2  UNL     1       5.777  57.259  -6.566  1.00  0.00    -0.297 OA
HETATM   16  C22 UNL     1       5.555  55.170  -7.773  1.00  0.00     0.017 C 
HETATM   17  C23 UNL     1       6.663  55.267  -8.842  1.00  0.00     0.023 C 
HETATM   18  C24 UNL     1       6.207  54.498  -6.541  1.00  0.00     0.023 C 
HETATM   19  C25 UNL     1       4.294  54.360  -8.277  1.00  0.00     0.009 C 
HETATM   20  C26 UNL     1       3.350  54.003  -7.097  1.00  0.00     0.007 C 
HETATM   21  C27 UNL     1       2.271  52.995  -7.471  1.00  0.00     0.011 C 
HETATM   22  C28 UNL     1       1.534  53.304  -8.800  1.00  0.00    -0.032 C 
HETATM   23  C29 UNL     1       1.990  52.192  -9.789  1.00  0.00     0.016 C 
ENDROOT
BRANCH   1  24
HETATM   24  C7  UNL     1      -2.965  52.682 -11.004  1.00  0.00     0.093 A 
HETATM   25  C30 UNL     1      -3.942  53.630 -11.696  1.00  0.00     0.207 A 
HETATM   26  O3  UNL     1      -4.388  52.546 -10.863  1.00  0.00    -0.374 OA
BRANCH  24  27
HETATM   27  C6  UNL     1      -2.312  51.569 -11.800  1.00  0.00     0.123 C 
BRANCH  27  28
HETATM   28  C5  UNL     1      -2.818  50.165 -11.559  1.00  0.00     0.152 C 
HETATM   29  O1  UNL     1      -2.088  49.192 -11.772  1.00  0.00    -0.293 OA
BRANCH  28  30
HETATM   30  C4  UNL     1      -4.170  49.888 -10.986  1.00  0.00     0.052 C 
HETATM   31  C2  UNL     1      -4.590  49.300  -9.848  1.00  0.00    -0.084 C 
HETATM   32  C1  UNL     1      -6.073  49.134  -9.605  1.00  0.00     0.043 C 
HETATM   33  C3  UNL     1      -3.741  48.783  -8.721  1.00  0.00     0.043 C 
ENDBRANCH  28  30
ENDBRANCH  27  28
ENDBRANCH  24  27
ENDBRANCH   1  24
TORSDOF 4
ENDMDL
MODEL 4
REMARK minimizedAffinity -7.3044982
REMARK CNNscore 0.463013262
REMARK CNNaffinity 5.93162298
REMARK  4 active torsions:
REMARK  status: ('A' for Active; 'I' for Inactive)
REMARK    1  A    between atoms: C4_4  and  C5_5 
REMARK    2  A    between atoms: C5_5  and  C6_7 
REMARK    3  A    between atoms: C6_7  and  C7_8 
REMARK    4  A    between atoms: C7_8  and  C8_9 
ROOT
HETATM    1  C8  UNL     1     -10.583  45.744 -27.941  1.00  0.00     0.028 C 
HETATM    2  C9  UNL     1     -11.060  45.356 -29.374  1.00  0.00     0.009 C 
HETATM    3  C10 UNL     1     -12.459  44.739 -29.233  1.00  0.00     0.011 C 
HETATM    4  C11 UNL     1     -13.025  45.362 -27.948  1.00  0.00    -0.032 C 
HETATM    5  C12 UNL     1     -13.413  46.841 -28.301  1.00  0.00     0.016 C 
HETATM    6  C13 UNL     1     -11.763  45.293 -27.043  1.00  0.00     0.001 C 
HETATM    7  C14 UNL     1     -12.023  46.042 -25.738  1.00  0.00     0.006 C 
HETATM    8  C15 UNL     1     -13.227  45.434 -24.997  1.00  0.00     0.006 C 
HETATM    9  C16 UNL     1     -14.521  45.318 -25.859  1.00  0.00     0.003 C 
HETATM   10  C17 UNL     1     -15.804  44.822 -25.055  1.00  0.00    -0.035 C 
HETATM   11  C18 UNL     1     -15.441  43.631 -24.128  1.00  0.00     0.016 C 
HETATM   12  C19 UNL     1     -16.268  45.973 -24.096  1.00  0.00     0.017 C 
HETATM   13  C20 UNL     1     -17.287  46.921 -24.705  1.00  0.00     0.080 C 
HETATM   14  C21 UNL     1     -18.550  46.190 -25.091  1.00  0.00     0.135 C 
HETATM   15  O2  UNL     1     -19.632  46.783 -25.085  1.00  0.00    -0.297 OA
HETATM   16  C22 UNL     1     -18.433  44.718 -25.502  1.00  0.00     0.017 C 
HETATM   17  C23 UNL     1     -18.797  43.852 -24.280  1.00  0.00     0.023 C 
HETATM   18  C24 UNL     1     -19.511  44.421 -26.573  1.00  0.00     0.023 C 
HETATM   19  C25 UNL     1     -16.978  44.423 -26.045  1.00  0.00     0.009 C 
HETATM   20  C26 UNL     1     -16.763  45.059 -27.445  1.00  0.00     0.007 C 
HETATM   21  C27 UNL     1     -15.492  44.581 -28.136  1.00  0.00     0.011 C 
HETATM   22  C28 UNL     1     -14.229  44.590 -27.237  1.00  0.00    -0.032 C 
HETATM   23  C29 UNL     1     -13.881  43.090 -27.007  1.00  0.00     0.016 C 
ENDROOT
BRANCH   1  24
HETATM   24  C7  UNL     1      -9.222  45.156 -27.545  1.00  0.00     0.093 A 
HETATM   25  C30 UNL     1      -8.634  44.020 -28.380  1.00  0.00     0.207 A 
HETATM   26  O3  UNL     1      -9.263  43.788 -27.108  1.00  0.00    -0.374 OA
BRANCH  24  27
HETATM   27  C6  UNL     1      -8.299  46.040 -26.729  1.00  0.00     0.123 C 
BRANCH  27  28
HETATM   28  C5  UNL     1      -7.570  47.138 -27.468  1.00  0.00     0.152 C 
HETATM   29  O1  UNL     1      -8.113  47.727 -28.409  1.00  0.00    -0.293 OA
BRANCH  28  30
HETATM   30  C4  UNL     1      -6.214  47.616 -27.059  1.00  0.00     0.052 C 
HETATM   31  C2  UNL     1      -5.144  48.064 -27.745  1.00  0.00    -0.084 C 
HETATM   32  C1  UNL     1      -3.882  48.422 -26.995  1.00  0.00     0.043 C 
HETATM   33  C3  UNL     1      -5.040  48.290 -29.227  1.00  0.00     0.043 C 
ENDBRANCH  28  30
ENDBRANCH  27  28
ENDBRANCH  24  27
ENDBRANCH   1  24
TORSDOF 4
ENDMDL
MODEL 5
REMARK minimizedAffinity -8.24891376
REMARK CNNscore 0.370483637
REMARK CNNaffinity 7.18954229
REMARK  4 active torsions:
REMARK  status: ('A' for Active; 'I' for Inactive)
REMARK    1  A    between atoms: C4_4  and  C5_5 
REMARK    2  A    between atoms: C5_5  and  C6_7 
REMARK    3  A    between atoms: C6_7  and  C7_8 
REMARK    4  A    between atoms: C7_8  and  C8_9 
ROOT
HETATM    1  C8  UNL     1      -1.542  51.927 -21.684  1.00  0.00     0.028 C 
HETATM    2  C9  UNL     1      -2.699  51.024 -22.209  1.00  0.00     0.009 C 
HETATM    3  C10 UNL     1      -2.907  49.909 -21.174  1.00  0.00     0.011 C 
HETATM    4  C11 UNL     1      -2.413  50.516 -19.852  1.00  0.00    -0.032 C 
HETATM    5  C12 UNL     1      -3.516  51.530 -19.385  1.00  0.00     0.016 C 
HETATM    6  C13 UNL     1      -1.134  51.241 -20.356  1.00  0.00     0.001 C 
HETATM    7  C14 UNL     1      -0.550  52.096 -19.234  1.00  0.00     0.006 C 
HETATM    8  C15 UNL     1      -0.206  51.225 -18.012  1.00  0.00     0.006 C 
HETATM    9  C16 UNL     1      -1.383  50.337 -17.505  1.00  0.00     0.003 C 
HETATM   10  C17 UNL     1      -1.072  49.543 -16.159  1.00  0.00    -0.035 C 
HETATM   11  C18 UNL     1       0.343  48.909 -16.212  1.00  0.00     0.016 C 
HETATM   12  C19 UNL     1      -1.028  50.568 -14.972  1.00  0.00     0.017 C 
HETATM   13  C20 UNL     1      -2.363  50.783 -14.280  1.00  0.00     0.080 C 
HETATM   14  C21 UNL     1      -2.877  49.497 -13.677  1.00  0.00     0.135 C 
HETATM   15  O2  UNL     1      -3.596  49.531 -12.676  1.00  0.00    -0.297 OA
HETATM   16  C22 UNL     1      -2.495  48.178 -14.358  1.00  0.00     0.017 C 
HETATM   17  C23 UNL     1      -1.300  47.577 -13.593  1.00  0.00     0.023 C 
HETATM   18  C24 UNL     1      -3.663  47.178 -14.183  1.00  0.00     0.023 C 
HETATM   19  C25 UNL     1      -2.173  48.433 -15.885  1.00  0.00     0.009 C 
HETATM   20  C26 UNL     1      -3.469  48.726 -16.689  1.00  0.00     0.007 C 
HETATM   21  C27 UNL     1      -3.260  48.705 -18.198  1.00  0.00     0.011 C 
HETATM   22  C28 UNL     1      -2.019  49.495 -18.687  1.00  0.00    -0.032 C 
HETATM   23  C29 UNL     1      -1.021  48.415 -19.197  1.00  0.00     0.016 C 
ENDROOT
BRANCH   1  24
HETATM   24  C7  UNL     1      -0.389  52.122 -22.679  1.00  0.00     0.093 A 
HETATM   25  C30 UNL     1       1.049  52.000 -22.181  1.00  0.00     0.207 A 
HETATM   26  O3  UNL     1       0.431  53.274 -22.429  1.00  0.00    -0.374 OA
BRANCH  24  27
HETATM   27  C6  UNL     1      -0.696  51.885 -24.145  1.00  0.00     0.123 C 
BRANCH  27  28
HETATM   28  C5  UNL     1      -0.069  52.834 -25.139  1.00  0.00     0.152 C 
HETATM   29  O1  UNL     1      -0.521  53.975 -25.286  1.00  0.00    -0.293 OA
BRANCH  28  30
HETATM   30  C4  UNL     1       1.154  52.482 -25.923  1.00  0.00     0.052 C 
HETATM   31  C2  UNL     1       1.349  51.985 -27.160  1.00  0.00    -0.084 C 
HETATM   32  C1  UNL     1       2.757  51.691 -27.626  1.00  0.00     0.043 C 
HETATM   33  C3  UNL     1       0.306  51.694 -28.202  1.00  0.00     0.043 C 
ENDBRANCH  28  30
ENDBRANCH  27  28
ENDBRANCH  24  27
ENDBRANCH   1  24
TORSDOF 4
ENDMDL
MODEL 6
REMARK minimizedAffinity -9.65315342
REMARK CNNscore 0.36200887
REMARK CNNaffinity 6.7618928
REMARK  4 active torsions:
REMARK  status: ('A' for Active; 'I' for Inactive)
REMARK    1  A    between atoms: C4_4  and  C5_5 
REMARK    2  A    between atoms: C5_5  and  C6_7 
REMARK    3  A    between atoms: C6_7  and  C7_8 
REMARK    4  A    between atoms: C7_8  and  C8_9 
ROOT
HETATM    1  C8  UNL     1      -0.896  52.647 -24.831  1.00  0.00     0.028 C 
HETATM    2  C9  UNL     1      -0.488  51.708 -26.006  1.00  0.00     0.009 C 
HETATM    3  C10 UNL     1      -1.245  50.386 -25.812  1.00  0.00     0.011 C 
HETATM    4  C11 UNL     1      -2.501  50.777 -25.017  1.00  0.00    -0.032 C 
HETATM    5  C12 UNL     1      -3.463  51.497 -26.026  1.00  0.00     0.016 C 
HETATM    6  C13 UNL     1      -1.872  51.773 -24.003  1.00  0.00     0.001 C 
HETATM    7  C14 UNL     1      -2.976  52.459 -23.201  1.00  0.00     0.006 C 
HETATM    8  C15 UNL     1      -3.824  51.418 -22.449  1.00  0.00     0.006 C 
HETATM    9  C16 UNL     1      -4.391  50.279 -23.350  1.00  0.00     0.003 C 
HETATM   10  C17 UNL     1      -5.383  49.282 -22.600  1.00  0.00    -0.035 C 
HETATM   11  C18 UNL     1      -4.817  48.891 -21.209  1.00  0.00     0.016 C 
HETATM   12  C19 UNL     1      -6.726  50.037 -22.310  1.00  0.00     0.017 C 
HETATM   13  C20 UNL     1      -7.769  49.903 -23.406  1.00  0.00     0.080 C 
HETATM   14  C21 UNL     1      -8.160  48.459 -23.613  1.00  0.00     0.135 C 
HETATM   15  O2  UNL     1      -9.291  48.179 -24.017  1.00  0.00    -0.297 OA
HETATM   16  C22 UNL     1      -7.110  47.380 -23.326  1.00  0.00     0.017 C 
HETATM   17  C23 UNL     1      -7.376  46.821 -21.914  1.00  0.00     0.023 C 
HETATM   18  C24 UNL     1      -7.337  46.201 -24.303  1.00  0.00     0.023 C 
HETATM   19  C25 UNL     1      -5.658  47.987 -23.476  1.00  0.00     0.009 C 
HETATM   20  C26 UNL     1      -5.308  48.241 -24.967  1.00  0.00     0.007 C 
HETATM   21  C27 UNL     1      -3.836  48.560 -25.196  1.00  0.00     0.011 C 
HETATM   22  C28 UNL     1      -3.247  49.611 -24.220  1.00  0.00    -0.032 C 
HETATM   23  C29 UNL     1      -2.255  48.819 -23.317  1.00  0.00     0.016 C 
ENDROOT
BRANCH   1  24
HETATM   24  C7  UNL     1       0.286  53.212 -24.032  1.00  0.00     0.093 A 
HETATM   25  C30 UNL     1       0.722  54.656 -24.272  1.00  0.00     0.207 A 
HETATM   26  O3  UNL     1       1.442  53.539 -24.819  1.00  0.00    -0.374 OA
BRANCH  24  27
HETATM   27  C6  UNL     1       0.606  52.545 -22.708  1.00  0.00     0.123 C 
BRANCH  27  28
HETATM   28  C5  UNL     1       1.124  53.432 -21.600  1.00  0.00     0.152 C 
HETATM   29  O1  UNL     1       1.543  54.567 -21.850  1.00  0.00    -0.293 OA
BRANCH  28  30
HETATM   30  C4  UNL     1       1.082  53.025 -20.162  1.00  0.00     0.052 C 
HETATM   31  C2  UNL     1       0.192  52.337 -19.421  1.00  0.00    -0.084 C 
HETATM   32  C1  UNL     1       0.448  52.149 -17.942  1.00  0.00     0.043 C 
HETATM   33  C3  UNL     1      -1.072  51.675 -19.893  1.00  0.00     0.043 C 
ENDBRANCH  28  30
ENDBRANCH  27  28
ENDBRANCH  24  27
ENDBRANCH   1  24
TORSDOF 4
ENDMDL
MODEL 7
REMARK minimizedAffinity -8.59702492
REMARK CNNscore 0.339344531
REMARK CNNaffinity 6.88698626
REMARK  4 active torsions:
REMARK  status: ('A' for Active; 'I' for Inactive)
REMARK    1  A    between atoms: C4_4  and  C5_5 
REMARK    2  A    between atoms: C5_5  and  C6_7 
REMARK    3  A    between atoms: C6_7  and  C7_8 
REMARK    4  A    between atoms: C7_8  and  C8_9 
ROOT
HETATM    1  C8  UNL     1      -1.464  51.749 -22.994  1.00  0.00     0.028 C 
HETATM    2  C9  UNL     1      -1.553  51.048 -24.384  1.00  0.00     0.009 C 
HETATM    3  C10 UNL     1      -2.327  49.738 -24.181  1.00  0.00     0.011 C 
HETATM    4  C11 UNL     1      -3.212  50.002 -22.953  1.00  0.00    -0.032 C 
HETATM    5  C12 UNL     1      -4.377  50.936 -23.433  1.00  0.00     0.016 C 
HETATM    6  C13 UNL     1      -2.195  50.758 -22.053  1.00  0.00     0.001 C 
HETATM    7  C14 UNL     1      -2.906  51.305 -20.817  1.00  0.00     0.006 C 
HETATM    8  C15 UNL     1      -3.557  50.162 -20.018  1.00  0.00     0.006 C 
HETATM    9  C16 UNL     1      -4.493  49.241 -20.860  1.00  0.00     0.003 C 
HETATM   10  C17 UNL     1      -5.276  48.146 -20.007  1.00  0.00    -0.035 C 
HETATM   11  C18 UNL     1      -4.327  47.472 -18.980  1.00  0.00     0.016 C 
HETATM   12  C19 UNL     1      -6.373  48.870 -19.151  1.00  0.00     0.017 C 
HETATM   13  C20 UNL     1      -7.724  48.987 -19.835  1.00  0.00     0.080 C 
HETATM   14  C21 UNL     1      -8.296  47.625 -20.147  1.00  0.00     0.135 C 
HETATM   15  O2  UNL     1      -9.519  47.465 -20.187  1.00  0.00    -0.297 OA
HETATM   16  C22 UNL     1      -7.318  46.479 -20.427  1.00  0.00     0.017 C 
HETATM   17  C23 UNL     1      -7.160  45.660 -19.131  1.00  0.00     0.023 C 
HETATM   18  C24 UNL     1      -7.962  45.524 -21.461  1.00  0.00     0.023 C 
HETATM   19  C25 UNL     1      -5.943  47.059 -20.951  1.00  0.00     0.009 C 
HETATM   20  C26 UNL     1      -6.077  47.592 -22.403  1.00  0.00     0.007 C 
HETATM   21  C27 UNL     1      -4.737  47.906 -23.056  1.00  0.00     0.011 C 
HETATM   22  C28 UNL     1      -3.764  48.724 -22.169  1.00  0.00    -0.032 C 
HETATM   23  C29 UNL     1      -2.612  47.740 -21.809  1.00  0.00     0.016 C 
ENDROOT
BRANCH   1  24
HETATM   24  C7  UNL     1      -0.038  52.108 -22.556  1.00  0.00     0.093 A 
HETATM   25  C30 UNL     1       0.402  51.789 -21.129  1.00  0.00     0.207 A 
HETATM   26  O3  UNL     1       0.041  53.119 -21.538  1.00  0.00    -0.374 OA
BRANCH  24  27
HETATM   27  C6  UNL     1       1.006  52.245 -23.647  1.00  0.00     0.123 C 
BRANCH  27  28
HETATM   28  C5  UNL     1       0.755  53.289 -24.710  1.00  0.00     0.152 C 
HETATM   29  O1  UNL     1       0.771  54.491 -24.423  1.00  0.00    -0.293 OA
BRANCH  28  30
HETATM   30  C4  UNL     1       0.560  52.937 -26.150  1.00  0.00     0.052 C 
HETATM   31  C2  UNL     1       1.276  52.210 -27.030  1.00  0.00    -0.084 C 
HETATM   32  C1  UNL     1       0.800  52.102 -28.461  1.00  0.00     0.043 C 
HETATM   33  C3  UNL     1       2.534  51.432 -26.761  1.00  0.00     0.043 C 
ENDBRANCH  28  30
ENDBRANCH  27  28
ENDBRANCH  24  27
ENDBRANCH   1  24
TORSDOF 4
ENDMDL
MODEL 8
REMARK minimizedAffinity -7.24522829
REMARK CNNscore 0.282198071
REMARK CNNaffinity 5.66274214
REMARK  4 active torsions:
REMARK  status: ('A' for Active; 'I' for Inactive)
REMARK    1  A    between atoms: C4_4  and  C5_5 
REMARK    2  A    between atoms: C5_5  and  C6_7 
REMARK    3  A    between atoms: C6_7  and  C7_8 
REMARK    4  A    between atoms: C7_8  and  C8_9 
ROOT
HETATM    1  C8  UNL     1     -12.853  44.936 -26.665  1.00  0.00     0.028 C 
HETATM    2  C9  UNL     1     -12.376  43.454 -26.593  1.00  0.00     0.009 C 
HETATM    3  C10 UNL     1     -11.343  43.256 -27.712  1.00  0.00     0.011 C 
HETATM    4  C11 UNL     1     -10.756  44.657 -27.943  1.00  0.00    -0.032 C 
HETATM    5  C12 UNL     1      -9.798  44.946 -26.736  1.00  0.00     0.016 C 
HETATM    6  C13 UNL     1     -12.058  45.504 -27.868  1.00  0.00     0.001 C 
HETATM    7  C14 UNL     1     -11.707  46.990 -27.884  1.00  0.00     0.006 C 
HETATM    8  C15 UNL     1     -10.928  47.348 -29.161  1.00  0.00     0.006 C 
HETATM    9  C16 UNL     1      -9.673  46.460 -29.419  1.00  0.00     0.003 C 
HETATM   10  C17 UNL     1      -8.788  46.919 -30.662  1.00  0.00    -0.035 C 
HETATM   11  C18 UNL     1      -9.689  47.269 -31.876  1.00  0.00     0.016 C 
HETATM   12  C19 UNL     1      -8.053  48.252 -30.287  1.00  0.00     0.017 C 
HETATM   13  C20 UNL     1      -6.682  48.057 -29.662  1.00  0.00     0.080 C 
HETATM   14  C21 UNL     1      -5.749  47.340 -30.608  1.00  0.00     0.135 C 
HETATM   15  O2  UNL     1      -4.534  47.547 -30.550  1.00  0.00    -0.297 OA
HETATM   16  C22 UNL     1      -6.357  46.350 -31.607  1.00  0.00     0.017 C 
HETATM   17  C23 UNL     1      -6.508  47.073 -32.961  1.00  0.00     0.023 C 
HETATM   18  C24 UNL     1      -5.341  45.206 -31.844  1.00  0.00     0.023 C 
HETATM   19  C25 UNL     1      -7.732  45.800 -31.054  1.00  0.00     0.009 C 
HETATM   20  C26 UNL     1      -7.508  44.812 -29.877  1.00  0.00     0.007 C 
HETATM   21  C27 UNL     1      -8.764  44.043 -29.487  1.00  0.00     0.011 C 
HETATM   22  C28 UNL     1     -10.035  44.918 -29.345  1.00  0.00    -0.032 C 
HETATM   23  C29 UNL     1     -10.950  44.507 -30.536  1.00  0.00     0.016 C 
ENDROOT
BRANCH   1  24
HETATM   24  C7  UNL     1     -14.374  45.108 -26.771  1.00  0.00     0.093 A 
HETATM   25  C30 UNL     1     -15.056  44.863 -28.116  1.00  0.00     0.207 A 
HETATM   26  O3  UNL     1     -14.800  46.187 -27.618  1.00  0.00    -0.374 OA
BRANCH  24  27
HETATM   27  C6  UNL     1     -15.175  44.972 -25.491  1.00  0.00     0.123 C 
BRANCH  27  28
HETATM   28  C5  UNL     1     -16.019  46.157 -25.080  1.00  0.00     0.152 C 
HETATM   29  O1  UNL     1     -15.486  47.188 -24.659  1.00  0.00    -0.293 OA
BRANCH  28  30
HETATM   30  C4  UNL     1     -17.506  46.174 -25.235  1.00  0.00     0.052 C 
HETATM   31  C2  UNL     1     -18.527  46.199 -24.357  1.00  0.00    -0.084 C 
HETATM   32  C1  UNL     1     -19.948  46.153 -24.872  1.00  0.00     0.043 C 
HETATM   33  C3  UNL     1     -18.441  46.298 -22.859  1.00  0.00     0.043 C 
ENDBRANCH  28  30
ENDBRANCH  27  28
ENDBRANCH  24  27
ENDBRANCH   1  24
TORSDOF 4
ENDMDL
MODEL 9
REMARK minimizedAffinity -8.36567211
REMARK CNNscore 0.271586597
REMARK CNNaffinity 6.85876036
REMARK  4 active torsions:
REMARK  status: ('A' for Active; 'I' for Inactive)
REMARK    1  A    between atoms: C4_4  and  C5_5 
REMARK    2  A    between atoms: C5_5  and  C6_7 
REMARK    3  A    between atoms: C6_7  and  C7_8 
REMARK    4  A    between atoms: C7_8  and  C8_9 
ROOT
HETATM    1  C8  UNL     1      -3.050  52.010 -24.839  1.00  0.00     0.028 C 
HETATM    2  C9  UNL     1      -4.585  52.277 -24.789  1.00  0.00     0.009 C 
HETATM    3  C10 UNL     1      -5.195  51.236 -23.840  1.00  0.00     0.011 C 
HETATM    4  C11 UNL     1      -4.046  50.866 -22.888  1.00  0.00    -0.032 C 
HETATM    5  C12 UNL     1      -3.879  52.071 -21.899  1.00  0.00     0.016 C 
HETATM    6  C13 UNL     1      -2.875  50.784 -23.907  1.00  0.00     0.001 C 
HETATM    7  C14 UNL     1      -1.554  50.608 -23.162  1.00  0.00     0.006 C 
HETATM    8  C15 UNL     1      -1.585  49.332 -22.302  1.00  0.00     0.006 C 
HETATM    9  C16 UNL     1      -2.806  49.236 -21.337  1.00  0.00     0.003 C 
HETATM   10  C17 UNL     1      -2.764  47.987 -20.348  1.00  0.00    -0.035 C 
HETATM   11  C18 UNL     1      -2.337  46.702 -21.107  1.00  0.00     0.016 C 
HETATM   12  C19 UNL     1      -1.644  48.234 -19.278  1.00  0.00     0.017 C 
HETATM   13  C20 UNL     1      -2.124  48.936 -18.021  1.00  0.00     0.080 C 
HETATM   14  C21 UNL     1      -3.180  48.123 -17.311  1.00  0.00     0.135 C 
HETATM   15  O2  UNL     1      -3.305  48.209 -16.087  1.00  0.00    -0.297 OA
HETATM   16  C22 UNL     1      -4.085  47.222 -18.158  1.00  0.00     0.017 C 
HETATM   17  C23 UNL     1      -3.525  45.788 -18.093  1.00  0.00     0.023 C 
HETATM   18  C24 UNL     1      -5.483  47.166 -17.494  1.00  0.00     0.023 C 
HETATM   19  C25 UNL     1      -4.167  47.776 -19.637  1.00  0.00     0.009 C 
HETATM   20  C26 UNL     1      -5.023  49.070 -19.704  1.00  0.00     0.007 C 
HETATM   21  C27 UNL     1      -5.366  49.494 -21.126  1.00  0.00     0.011 C 
HETATM   22  C28 UNL     1      -4.169  49.476 -22.110  1.00  0.00    -0.032 C 
HETATM   23  C29 UNL     1      -4.463  48.303 -23.091  1.00  0.00     0.016 C 
ENDROOT
BRANCH   1  24
HETATM   24  C7  UNL     1      -2.486  51.818 -26.254  1.00  0.00     0.093 A 
HETATM   25  C30 UNL     1      -3.173  50.833 -27.199  1.00  0.00     0.207 A 
HETATM   26  O3  UNL     1      -1.950  50.511 -26.515  1.00  0.00    -0.374 OA
BRANCH  24  27
HETATM   27  C6  UNL     1      -1.660  52.953 -26.827  1.00  0.00     0.123 C 
BRANCH  27  28
HETATM   28  C5  UNL     1      -0.447  53.386 -26.038  1.00  0.00     0.152 C 
HETATM   29  O1  UNL     1      -0.468  54.433 -25.382  1.00  0.00    -0.293 OA
BRANCH  28  30
HETATM   30  C4  UNL     1       0.788  52.550 -25.944  1.00  0.00     0.052 C 
HETATM   31  C2  UNL     1       1.486  51.826 -26.841  1.00  0.00    -0.084 C 
HETATM   32  C1  UNL     1       2.691  51.037 -26.379  1.00  0.00     0.043 C 
HETATM   33  C3  UNL     1       1.232  51.711 -28.318  1.00  0.00     0.043 C 
ENDBRANCH  28  30
ENDBRANCH  27  28
ENDBRANCH  24  27
ENDBRANCH   1  24
TORSDOF 4
ENDMDL
