MODEL 1
REMARK minimizedAffinity -7.28667355
REMARK CNNscore 0.764682233
REMARK CNNaffinity 6.61270714
REMARK  5 active torsions:
REMARK  status: ('A' for Active; 'I' for Inactive)
REMARK    1  A    between atoms: C2_2  and  C4_4 
REMARK    2  A    between atoms: C7_7  and  C8_8 
REMARK    3  A    between atoms: C8_8  and  O2_10 
REMARK    4  A    between atoms: C22_25  and  C24_27 
REMARK    5  A    between atoms: C24_27  and  O4_28 
ROOT
HETATM    1  C4  UNL     1     -13.355   8.076  13.141  1.00  0.00     0.019 C 
HETATM    2  C5  UNL     1     -13.425   9.580  12.759  1.00  0.00     0.011 C 
HETATM    3  C6  UNL     1     -14.857  10.047  13.080  1.00  0.00     0.021 C 
HETATM    4  C7  UNL     1     -15.689   8.762  12.991  1.00  0.00     0.050 C 
HETATM    5  C9  UNL     1     -17.030   8.805  13.731  1.00  0.00     0.022 C 
HETATM    6  C10 UNL     1     -17.649   7.395  13.807  1.00  0.00     0.011 C 
HETATM    7  C11 UNL     1     -16.739   6.276  14.444  1.00  0.00    -0.032 C 
HETATM    8  C12 UNL     1     -16.625   6.652  15.957  1.00  0.00     0.016 C 
HETATM    9  C13 UNL     1     -15.320   6.344  13.769  1.00  0.00     0.000 C 
HETATM   10  C14 UNL     1     -14.349   5.368  14.438  1.00  0.00     0.006 C 
HETATM   11  C15 UNL     1     -14.956   4.008  14.762  1.00  0.00     0.006 C 
HETATM   12  C16 UNL     1     -16.211   3.672  13.922  1.00  0.00     0.003 C 
HETATM   13  C17 UNL     1     -16.637   2.119  14.017  1.00  0.00    -0.035 C 
HETATM   14  C18 UNL     1     -17.460   1.722  12.760  1.00  0.00     0.016 C 
HETATM   15  C19 UNL     1     -15.386   1.204  14.065  1.00  0.00     0.017 C 
HETATM   16  C20 UNL     1     -15.685  -0.283  14.093  1.00  0.00     0.080 C 
HETATM   17  C21 UNL     1     -16.869  -0.691  14.935  1.00  0.00     0.137 C 
HETATM   18  O3  UNL     1     -17.092  -1.898  15.088  1.00  0.00    -0.297 OA
HETATM   19  C22 UNL     1     -17.781   0.342  15.612  1.00  0.00     0.042 C 
HETATM   20  C23 UNL     1     -19.227   0.002  15.194  1.00  0.00     0.026 C 
HETATM   21  C25 UNL     1     -17.400   1.845  15.342  1.00  0.00     0.012 C 
HETATM   22  C26 UNL     1     -18.580   2.819  15.524  1.00  0.00     0.007 C 
HETATM   23  C27 UNL     1     -18.131   4.279  15.513  1.00  0.00     0.011 C 
HETATM   24  C28 UNL     1     -17.360   4.743  14.244  1.00  0.00    -0.032 C 
HETATM   25  C29 UNL     1     -18.371   4.762  13.067  1.00  0.00     0.016 C 
HETATM   26  C30 UNL     1     -14.758   7.783  13.730  1.00  0.00     0.017 C 
ENDROOT
BRANCH   4  27
HETATM   27  C8  UNL     1     -15.974   8.548  11.499  1.00  0.00     0.149 C 
HETATM   28  O1  UNL     1     -16.381   9.405  10.731  1.00  0.00    -0.649 OA
BRANCH  27  29
HETATM   29  O2  UNL     1     -15.686   7.330  11.013  1.00  0.00    -0.776 OA
HETATM   30  H11 UNL     1     -15.887   7.411  10.057  1.00  0.00     0.167 HD
ENDBRANCH  27  29
ENDBRANCH   4  27
BRANCH   1  31
HETATM   31  C2  UNL     1     -12.153   7.796  14.034  1.00  0.00    -0.088 C 
HETATM   32  C1  UNL     1     -11.148   6.967  13.698  1.00  0.00     0.014 C 
HETATM   33  C3  UNL     1     -12.154   8.502  15.365  1.00  0.00     0.043 C 
ENDBRANCH   1  31
BRANCH  19  34
HETATM   34  C24 UNL     1     -17.594   0.069  17.133  1.00  0.00     0.181 C 
BRANCH  34  35
HETATM   35  O4  UNL     1     -16.326  -0.486  17.475  1.00  0.00    -0.400 OA
HETATM   36  H37 UNL     1     -15.642  -0.075  16.906  1.00  0.00     0.209 HD
ENDBRANCH  34  35
ENDBRANCH  19  34
TORSDOF 5
ENDMDL
MODEL 2
REMARK minimizedAffinity -7.17654514
REMARK CNNscore 0.577708423
REMARK CNNaffinity 6.47952318
REMARK  5 active torsions:
REMARK  status: ('A' for Active; 'I' for Inactive)
REMARK    1  A    between atoms: C2_2  and  C4_4 
REMARK    2  A    between atoms: C7_7  and  C8_8 
REMARK    3  A    between atoms: C8_8  and  O2_10 
REMARK    4  A    between atoms: C22_25  and  C24_27 
REMARK    5  A    between atoms: C24_27  and  O4_28 
ROOT
HETATM    1  C4  UNL     1       0.293   7.031  11.310  1.00  0.00     0.019 C 
HETATM    2  C5  UNL     1       0.347   5.601  10.707  1.00  0.00     0.011 C 
HETATM    3  C6  UNL     1      -0.899   4.859  11.225  1.00  0.00     0.021 C 
HETATM    4  C7  UNL     1      -1.232   5.580  12.538  1.00  0.00     0.050 C 
HETATM    5  C9  UNL     1      -2.675   5.407  13.024  1.00  0.00     0.022 C 
HETATM    6  C10 UNL     1      -2.973   6.379  14.183  1.00  0.00     0.011 C 
HETATM    7  C11 UNL     1      -2.701   7.905  13.891  1.00  0.00    -0.032 C 
HETATM    8  C12 UNL     1      -3.785   8.321  12.844  1.00  0.00     0.016 C 
HETATM    9  C13 UNL     1      -1.268   8.043  13.258  1.00  0.00     0.000 C 
HETATM   10  C14 UNL     1      -0.997   9.487  12.829  1.00  0.00     0.006 C 
HETATM   11  C15 UNL     1      -1.475  10.535  13.827  1.00  0.00     0.006 C 
HETATM   12  C16 UNL     1      -1.651   9.989  15.264  1.00  0.00     0.003 C 
HETATM   13  C17 UNL     1      -1.817  11.155  16.367  1.00  0.00    -0.035 C 
HETATM   14  C18 UNL     1      -1.391  10.622  17.763  1.00  0.00     0.016 C 
HETATM   15  C19 UNL     1      -0.909  12.366  16.032  1.00  0.00     0.017 C 
HETATM   16  C20 UNL     1      -0.950  13.492  17.047  1.00  0.00     0.080 C 
HETATM   17  C21 UNL     1      -2.309  13.791  17.631  1.00  0.00     0.137 C 
HETATM   18  O3  UNL     1      -2.424  14.771  18.378  1.00  0.00    -0.297 OA
HETATM   19  C22 UNL     1      -3.538  12.930  17.313  1.00  0.00     0.042 C 
HETATM   20  C23 UNL     1      -4.152  12.511  18.665  1.00  0.00     0.026 C 
HETATM   21  C25 UNL     1      -3.268  11.710  16.356  1.00  0.00     0.012 C 
HETATM   22  C26 UNL     1      -4.305  10.579  16.496  1.00  0.00     0.007 C 
HETATM   23  C27 UNL     1      -4.174   9.535  15.387  1.00  0.00     0.011 C 
HETATM   24  C28 UNL     1      -2.782   8.853  15.259  1.00  0.00    -0.032 C 
HETATM   25  C29 UNL     1      -2.590   7.949  16.505  1.00  0.00     0.016 C 
HETATM   26  C30 UNL     1      -1.038   7.044  12.102  1.00  0.00     0.017 C 
ENDROOT
BRANCH   4  27
HETATM   27  C8  UNL     1      -0.297   4.980  13.596  1.00  0.00     0.149 C 
HETATM   28  O1  UNL     1       0.170   3.853  13.563  1.00  0.00    -0.649 OA
BRANCH  27  29
HETATM   29  O2  UNL     1       0.069   5.802  14.593  1.00  0.00    -0.776 OA
HETATM   30  H11 UNL     1       0.689   5.258  15.122  1.00  0.00     0.167 HD
ENDBRANCH  27  29
ENDBRANCH   4  27
BRANCH   1  31
HETATM   31  C2  UNL     1       0.469   8.087  10.227  1.00  0.00    -0.088 C 
HETATM   32  C1  UNL     1      -0.555   8.708   9.614  1.00  0.00     0.014 C 
HETATM   33  C3  UNL     1       1.894   8.400   9.849  1.00  0.00     0.043 C 
ENDBRANCH   1  31
BRANCH  19  34
HETATM   34  C24 UNL     1      -4.502  13.907  16.577  1.00  0.00     0.181 C 
BRANCH  34  35
HETATM   35  O4  UNL     1      -4.691  13.610  15.196  1.00  0.00    -0.400 OA
HETATM   36  H37 UNL     1      -4.712  12.637  15.086  1.00  0.00     0.209 HD
ENDBRANCH  34  35
ENDBRANCH  19  34
TORSDOF 5
ENDMDL
MODEL 3
REMARK minimizedAffinity -7.30641508
REMARK CNNscore 0.449374944
REMARK CNNaffinity 6.51202011
REMARK  5 active torsions:
REMARK  status: ('A' for Active; 'I' for Inactive)
REMARK    1  A    between atoms: C2_2  and  C4_4 
REMARK    2  A    between atoms: C7_7  and  C8_8 
REMARK    3  A    between atoms: C8_8  and  O2_10 
REMARK    4  A    between atoms: C22_25  and  C24_27 
REMARK    5  A    between atoms: C24_27  and  O4_28 
ROOT
HETATM    1  C4  UNL     1       2.525   8.180  10.203  1.00  0.00     0.019 C 
HETATM    2  C5  UNL     1       3.808   7.647   9.509  1.00  0.00     0.011 C 
HETATM    3  C6  UNL     1       4.829   7.371  10.628  1.00  0.00     0.021 C 
HETATM    4  C7  UNL     1       4.398   8.315  11.757  1.00  0.00     0.050 C 
HETATM    5  C9  UNL     1       4.895   7.927  13.153  1.00  0.00     0.022 C 
HETATM    6  C10 UNL     1       4.188   8.772  14.231  1.00  0.00     0.011 C 
HETATM    7  C11 UNL     1       2.611   8.737  14.212  1.00  0.00    -0.032 C 
HETATM    8  C12 UNL     1       2.229   7.285  14.649  1.00  0.00     0.016 C 
HETATM    9  C13 UNL     1       2.126   8.997  12.739  1.00  0.00     0.000 C 
HETATM   10  C14 UNL     1       0.607   8.843  12.629  1.00  0.00     0.006 C 
HETATM   11  C15 UNL     1      -0.168   9.458  13.788  1.00  0.00     0.006 C 
HETATM   12  C16 UNL     1       0.624  10.542  14.558  1.00  0.00     0.003 C 
HETATM   13  C17 UNL     1      -0.304  11.420  15.544  1.00  0.00    -0.035 C 
HETATM   14  C18 UNL     1       0.363  12.800  15.802  1.00  0.00     0.016 C 
HETATM   15  C19 UNL     1      -1.692  11.685  14.908  1.00  0.00     0.017 C 
HETATM   16  C20 UNL     1      -2.617  12.557  15.736  1.00  0.00     0.080 C 
HETATM   17  C21 UNL     1      -2.577  12.314  17.225  1.00  0.00     0.137 C 
HETATM   18  O3  UNL     1      -3.389  12.915  17.939  1.00  0.00    -0.297 OA
HETATM   19  C22 UNL     1      -1.576  11.342  17.864  1.00  0.00     0.042 C 
HETATM   20  C23 UNL     1      -0.845  12.120  18.978  1.00  0.00     0.026 C 
HETATM   21  C25 UNL     1      -0.591  10.640  16.856  1.00  0.00     0.012 C 
HETATM   22  C26 UNL     1       0.711  10.146  17.515  1.00  0.00     0.007 C 
HETATM   23  C27 UNL     1       1.524   9.248  16.583  1.00  0.00     0.011 C 
HETATM   24  C28 UNL     1       1.924   9.874  15.216  1.00  0.00    -0.032 C 
HETATM   25  C29 UNL     1       2.969  10.986  15.501  1.00  0.00     0.016 C 
HETATM   26  C30 UNL     1       2.872   8.115  11.712  1.00  0.00     0.017 C 
ENDROOT
BRANCH   4  27
HETATM   27  C8  UNL     1       4.987   9.687  11.405  1.00  0.00     0.149 C 
HETATM   28  O1  UNL     1       5.712   9.918  10.451  1.00  0.00    -0.649 OA
BRANCH  27  29
HETATM   29  O2  UNL     1       4.609  10.709  12.190  1.00  0.00    -0.776 OA
HETATM   30  H11 UNL     1       5.044  11.486  11.780  1.00  0.00     0.167 HD
ENDBRANCH  27  29
ENDBRANCH   4  27
BRANCH   1  31
HETATM   31  C2  UNL     1       1.295   7.412   9.738  1.00  0.00    -0.088 C 
HETATM   32  C1  UNL     1       0.944   6.202  10.211  1.00  0.00     0.014 C 
HETATM   33  C3  UNL     1       0.471   8.088   8.672  1.00  0.00     0.043 C 
ENDBRANCH   1  31
BRANCH  19  34
HETATM   34  C24 UNL     1      -2.475  10.239  18.496  1.00  0.00     0.181 C 
BRANCH  34  35
HETATM   35  O4  UNL     1      -2.788   9.165  17.612  1.00  0.00    -0.400 OA
HETATM   36  H37 UNL     1      -2.002   8.977  17.058  1.00  0.00     0.209 HD
ENDBRANCH  34  35
ENDBRANCH  19  34
TORSDOF 5
ENDMDL
MODEL 4
REMARK minimizedAffinity -9.06195927
REMARK CNNscore 0.376524955
REMARK CNNaffinity 6.74160051
REMARK  5 active torsions:
REMARK  status: ('A' for Active; 'I' for Inactive)
REMARK    1  A    between atoms: C2_2  and  C4_4 
REMARK    2  A    between atoms: C7_7  and  C8_8 
REMARK    3  A    between atoms: C8_8  and  O2_10 
REMARK    4  A    between atoms: C22_25  and  C24_27 
REMARK    5  A    between atoms: C24_27  and  O4_28 
ROOT
HETATM    1  C4  UNL     1      -5.631   4.909  12.506  1.00  0.00     0.019 C 
HETATM    2  C5  UNL     1      -4.093   4.733  12.624  1.00  0.00     0.011 C 
HETATM    3  C6  UNL     1      -3.671   5.434  13.929  1.00  0.00     0.021 C 
HETATM    4  C7  UNL     1      -4.763   6.488  14.146  1.00  0.00     0.050 C 
HETATM    5  C9  UNL     1      -4.897   6.997  15.586  1.00  0.00     0.022 C 
HETATM    6  C10 UNL     1      -6.182   7.833  15.744  1.00  0.00     0.011 C 
HETATM    7  C11 UNL     1      -7.524   7.124  15.316  1.00  0.00    -0.032 C 
HETATM    8  C12 UNL     1      -7.748   5.998  16.377  1.00  0.00     0.016 C 
HETATM    9  C13 UNL     1      -7.318   6.485  13.894  1.00  0.00     0.000 C 
HETATM   10  C14 UNL     1      -8.543   5.668  13.480  1.00  0.00     0.006 C 
HETATM   11  C15 UNL     1      -9.876   6.328  13.814  1.00  0.00     0.006 C 
HETATM   12  C16 UNL     1      -9.778   7.860  14.010  1.00  0.00     0.003 C 
HETATM   13  C17 UNL     1     -11.218   8.588  14.018  1.00  0.00    -0.035 C 
HETATM   14  C18 UNL     1     -11.054  10.080  13.614  1.00  0.00     0.016 C 
HETATM   15  C19 UNL     1     -12.177   7.930  12.993  1.00  0.00     0.017 C 
HETATM   16  C20 UNL     1     -13.540   8.587  12.883  1.00  0.00     0.080 C 
HETATM   17  C21 UNL     1     -14.141   9.057  14.185  1.00  0.00     0.137 C 
HETATM   18  O3  UNL     1     -15.297   9.496  14.173  1.00  0.00    -0.297 OA
HETATM   19  C22 UNL     1     -13.368   8.988  15.510  1.00  0.00     0.042 C 
HETATM   20  C23 UNL     1     -13.416  10.401  16.129  1.00  0.00     0.026 C 
HETATM   21  C25 UNL     1     -11.906   8.415  15.400  1.00  0.00     0.012 C 
HETATM   22  C26 UNL     1     -10.983   8.863  16.549  1.00  0.00     0.007 C 
HETATM   23  C27 UNL     1      -9.663   8.094  16.562  1.00  0.00     0.011 C 
HETATM   24  C28 UNL     1      -8.820   8.169  15.257  1.00  0.00    -0.032 C 
HETATM   25  C29 UNL     1      -8.286   9.621  15.131  1.00  0.00     0.016 C 
HETATM   26  C30 UNL     1      -6.015   5.659  13.806  1.00  0.00     0.017 C 
ENDROOT
BRANCH   4  27
HETATM   27  C8  UNL     1      -4.383   7.677  13.253  1.00  0.00     0.149 C 
HETATM   28  O1  UNL     1      -5.173   8.463  12.756  1.00  0.00    -0.649 OA
BRANCH  27  29
HETATM   29  O2  UNL     1      -3.069   7.880  13.071  1.00  0.00    -0.776 OA
HETATM   30  H11 UNL     1      -3.036   8.694  12.526  1.00  0.00     0.167 HD
ENDBRANCH  27  29
ENDBRANCH   4  27
BRANCH   1  31
HETATM   31  C2  UNL     1      -6.315   3.573  12.245  1.00  0.00    -0.088 C 
HETATM   32  C1  UNL     1      -7.304   3.076  13.011  1.00  0.00     0.014 C 
HETATM   33  C3  UNL     1      -5.799   2.799  11.059  1.00  0.00     0.043 C 
ENDBRANCH   1  31
BRANCH  19  34
HETATM   34  C24 UNL     1     -14.201   8.002  16.380  1.00  0.00     0.181 C 
BRANCH  34  35
HETATM   35  O4  UNL     1     -14.200   6.659  15.903  1.00  0.00    -0.400 OA
HETATM   36  H37 UNL     1     -13.311   6.455  15.547  1.00  0.00     0.209 HD
ENDBRANCH  34  35
ENDBRANCH  19  34
TORSDOF 5
ENDMDL
MODEL 5
REMARK minimizedAffinity -6.19453478
REMARK CNNscore 0.285322309
REMARK CNNaffinity 5.78071451
REMARK  5 active torsions:
REMARK  status: ('A' for Active; 'I' for Inactive)
REMARK    1  A    between atoms: C2_2  and  C4_4 
REMARK    2  A    between atoms: C7_7  and  C8_8 
REMARK    3  A    between atoms: C8_8  and  O2_10 
REMARK    4  A    between atoms: C22_25  and  C24_27 
REMARK    5  A    between atoms: C24_27  and  O4_28 
ROOT
HETATM    1  C4  UNL     1     -21.956   4.185   9.635  1.00  0.00     0.019 C 
HETATM    2  C5  UNL     1     -23.076   4.096   8.563  1.00  0.00     0.011 C 
HETATM    3  C6  UNL     1     -23.615   2.654   8.611  1.00  0.00     0.021 C 
HETATM    4  C7  UNL     1     -22.437   1.843   9.165  1.00  0.00     0.050 C 
HETATM    5  C9  UNL     1     -22.814   0.493   9.786  1.00  0.00     0.022 C 
HETATM    6  C10 UNL     1     -21.612  -0.104  10.544  1.00  0.00     0.011 C 
HETATM    7  C11 UNL     1     -20.967   0.816  11.651  1.00  0.00    -0.032 C 
HETATM    8  C12 UNL     1     -22.041   0.909  12.784  1.00  0.00     0.016 C 
HETATM    9  C13 UNL     1     -20.720   2.241  11.031  1.00  0.00     0.000 C 
HETATM   10  C14 UNL     1     -20.218   3.219  12.095  1.00  0.00     0.006 C 
HETATM   11  C15 UNL     1     -19.182   2.630  13.046  1.00  0.00     0.006 C 
HETATM   12  C16 UNL     1     -18.454   1.389  12.477  1.00  0.00     0.003 C 
HETATM   13  C17 UNL     1     -17.140   0.986  13.324  1.00  0.00    -0.035 C 
HETATM   14  C18 UNL     1     -16.161   0.182  12.423  1.00  0.00     0.016 C 
HETATM   15  C19 UNL     1     -16.390   2.250  13.816  1.00  0.00     0.017 C 
HETATM   16  C20 UNL     1     -15.104   1.973  14.572  1.00  0.00     0.080 C 
HETATM   17  C21 UNL     1     -15.141   0.788  15.504  1.00  0.00     0.137 C 
HETATM   18  O3  UNL     1     -14.161   0.581  16.230  1.00  0.00    -0.297 OA
HETATM   19  C22 UNL     1     -16.356  -0.147  15.584  1.00  0.00     0.042 C 
HETATM   20  C23 UNL     1     -15.829  -1.583  15.386  1.00  0.00     0.026 C 
HETATM   21  C25 UNL     1     -17.539   0.213  14.611  1.00  0.00     0.012 C 
HETATM   22  C26 UNL     1     -18.455  -0.983  14.288  1.00  0.00     0.007 C 
HETATM   23  C27 UNL     1     -19.729  -0.556  13.562  1.00  0.00     0.011 C 
HETATM   24  C28 UNL     1     -19.523   0.221  12.230  1.00  0.00    -0.032 C 
HETATM   25  C29 UNL     1     -18.943  -0.778  11.194  1.00  0.00     0.016 C 
HETATM   26  C30 UNL     1     -21.964   2.781  10.290  1.00  0.00     0.017 C 
ENDROOT
BRANCH   4  27
HETATM   27  C8  UNL     1     -21.512   1.576   7.970  1.00  0.00     0.149 C 
HETATM   28  O1  UNL     1     -20.352   1.946   7.883  1.00  0.00    -0.649 OA
BRANCH  27  29
HETATM   29  O2  UNL     1     -22.025   0.823   6.984  1.00  0.00    -0.776 OA
HETATM   30  H11 UNL     1     -21.280   0.731   6.354  1.00  0.00     0.167 HD
ENDBRANCH  27  29
ENDBRANCH   4  27
BRANCH   1  31
HETATM   31  C2  UNL     1     -22.173   5.382  10.552  1.00  0.00    -0.088 C 
HETATM   32  C1  UNL     1     -22.903   5.337  11.682  1.00  0.00     0.014 C 
HETATM   33  C3  UNL     1     -21.525   6.667  10.108  1.00  0.00     0.043 C 
ENDBRANCH   1  31
BRANCH  19  34
HETATM   34  C24 UNL     1     -16.870   0.029  17.044  1.00  0.00     0.181 C 
BRANCH  34  35
HETATM   35  O4  UNL     1     -16.188  -0.775  18.003  1.00  0.00    -0.400 OA
HETATM   36  H37 UNL     1     -15.240  -0.815  17.759  1.00  0.00     0.209 HD
ENDBRANCH  34  35
ENDBRANCH  19  34
TORSDOF 5
ENDMDL
MODEL 6
REMARK minimizedAffinity -7.67623997
REMARK CNNscore 0.28141436
REMARK CNNaffinity 5.93822622
REMARK  5 active torsions:
REMARK  status: ('A' for Active; 'I' for Inactive)
REMARK    1  A    between atoms: C2_2  and  C4_4 
REMARK    2  A    between atoms: C7_7  and  C8_8 
REMARK    3  A    between atoms: C8_8  and  O2_10 
REMARK    4  A    between atoms: C22_25  and  C24_27 
REMARK    5  A    between atoms: C24_27  and  O4_28 
ROOT
HETATM    1  C4  UNL     1       4.036  10.266  22.328  1.00  0.00     0.019 C 
HETATM    2  C5  UNL     1       5.331  10.702  23.067  1.00  0.00     0.011 C 
HETATM    3  C6  UNL     1       5.592  12.166  22.668  1.00  0.00     0.021 C 
HETATM    4  C7  UNL     1       4.904  12.301  21.304  1.00  0.00     0.050 C 
HETATM    5  C9  UNL     1       4.563  13.736  20.888  1.00  0.00     0.022 C 
HETATM    6  C10 UNL     1       3.644  13.734  19.651  1.00  0.00     0.011 C 
HETATM    7  C11 UNL     1       2.312  12.900  19.782  1.00  0.00    -0.032 C 
HETATM    8  C12 UNL     1       1.441  13.679  20.821  1.00  0.00     0.016 C 
HETATM    9  C13 UNL     1       2.669  11.476  20.347  1.00  0.00     0.000 C 
HETATM   10  C14 UNL     1       1.402  10.664  20.622  1.00  0.00     0.006 C 
HETATM   11  C15 UNL     1       0.333  10.790  19.544  1.00  0.00     0.006 C 
HETATM   12  C16 UNL     1       0.884  11.255  18.175  1.00  0.00     0.003 C 
HETATM   13  C17 UNL     1      -0.170  11.055  16.969  1.00  0.00    -0.035 C 
HETATM   14  C18 UNL     1       0.590  10.953  15.618  1.00  0.00     0.016 C 
HETATM   15  C19 UNL     1      -0.977   9.744  17.151  1.00  0.00     0.017 C 
HETATM   16  C20 UNL     1      -1.954   9.438  16.032  1.00  0.00     0.080 C 
HETATM   17  C21 UNL     1      -2.692  10.628  15.470  1.00  0.00     0.137 C 
HETATM   18  O3  UNL     1      -3.583  10.426  14.636  1.00  0.00    -0.297 OA
HETATM   19  C22 UNL     1      -2.380  12.063  15.915  1.00  0.00     0.042 C 
HETATM   20  C23 UNL     1      -2.115  12.881  14.633  1.00  0.00     0.026 C 
HETATM   21  C25 UNL     1      -1.225  12.196  16.977  1.00  0.00     0.012 C 
HETATM   22  C26 UNL     1      -0.555  13.583  16.986  1.00  0.00     0.007 C 
HETATM   23  C27 UNL     1       0.371  13.769  18.186  1.00  0.00     0.011 C 
HETATM   24  C28 UNL     1       1.512  12.721  18.331  1.00  0.00    -0.032 C 
HETATM   25  C29 UNL     1       2.517  12.963  17.173  1.00  0.00     0.016 C 
HETATM   26  C30 UNL     1       3.589  11.551  21.586  1.00  0.00     0.017 C 
ENDROOT
BRANCH   4  27
HETATM   27  C8  UNL     1       5.890  11.728  20.277  1.00  0.00     0.149 C 
HETATM   28  O1  UNL     1       5.606  10.928  19.401  1.00  0.00    -0.649 OA
BRANCH  27  29
HETATM   29  O2  UNL     1       7.143  12.208  20.332  1.00  0.00    -0.776 OA
HETATM   30  H11 UNL     1       7.591  11.764  19.583  1.00  0.00     0.167 HD
ENDBRANCH  27  29
ENDBRANCH   4  27
BRANCH   1  31
HETATM   31  C2  UNL     1       3.041   9.639  23.295  1.00  0.00    -0.088 C 
HETATM   32  C1  UNL     1       2.667  10.206  24.457  1.00  0.00     0.014 C 
HETATM   33  C3  UNL     1       2.490   8.299  22.883  1.00  0.00     0.043 C 
ENDBRANCH   1  31
BRANCH  19  34
HETATM   34  C24 UNL     1      -3.700  12.545  16.585  1.00  0.00     0.181 C 
BRANCH  34  35
HETATM   35  O4  UNL     1      -4.764  12.788  15.668  1.00  0.00    -0.400 OA
HETATM   36  H37 UNL     1      -4.726  12.112  14.960  1.00  0.00     0.209 HD
ENDBRANCH  34  35
ENDBRANCH  19  34
TORSDOF 5
ENDMDL
MODEL 7
REMARK minimizedAffinity -8.5484972
REMARK CNNscore 0.263557464
REMARK CNNaffinity 6.61462164
REMARK  5 active torsions:
REMARK  status: ('A' for Active; 'I' for Inactive)
REMARK    1  A    between atoms: C2_2  and  C4_4 
REMARK    2  A    between atoms: C7_7  and  C8_8 
REMARK    3  A    between atoms: C8_8  and  O2_10 
REMARK    4  A    between atoms: C22_25  and  C24_27 
REMARK    5  A    between atoms: C24_27  and  O4_28 
ROOT
HETATM    1  C4  UNL     1      -6.515   4.098  12.201  1.00  0.00     0.019 C 
HETATM    2  C5  UNL     1      -6.937   2.756  11.544  1.00  0.00     0.011 C 
HETATM    3  C6  UNL     1      -5.671   1.881  11.482  1.00  0.00     0.021 C 
HETATM    4  C7  UNL     1      -4.524   2.899  11.465  1.00  0.00     0.050 C 
HETATM    5  C9  UNL     1      -3.162   2.350  11.902  1.00  0.00     0.022 C 
HETATM    6  C10 UNL     1      -2.158   3.501  12.110  1.00  0.00     0.011 C 
HETATM    7  C11 UNL     1      -2.606   4.636  13.110  1.00  0.00    -0.032 C 
HETATM    8  C12 UNL     1      -2.609   3.961  14.520  1.00  0.00     0.016 C 
HETATM    9  C13 UNL     1      -4.065   5.085  12.731  1.00  0.00     0.000 C 
HETATM   10  C14 UNL     1      -4.607   6.092  13.747  1.00  0.00     0.006 C 
HETATM   11  C15 UNL     1      -3.594   7.142  14.188  1.00  0.00     0.006 C 
HETATM   12  C16 UNL     1      -2.428   7.335  13.190  1.00  0.00     0.003 C 
HETATM   13  C17 UNL     1      -1.562   8.666  13.481  1.00  0.00    -0.035 C 
HETATM   14  C18 UNL     1      -0.846   9.122  12.179  1.00  0.00     0.016 C 
HETATM   15  C19 UNL     1      -2.476   9.830  13.944  1.00  0.00     0.017 C 
HETATM   16  C20 UNL     1      -1.758  11.145  14.184  1.00  0.00     0.080 C 
HETATM   17  C21 UNL     1      -0.401  11.036  14.833  1.00  0.00     0.137 C 
HETATM   18  O3  UNL     1       0.181  12.078  15.156  1.00  0.00    -0.297 OA
HETATM   19  C22 UNL     1       0.260   9.679  15.113  1.00  0.00     0.042 C 
HETATM   20  C23 UNL     1       1.668   9.730  14.485  1.00  0.00     0.026 C 
HETATM   21  C25 UNL     1      -0.573   8.424  14.654  1.00  0.00     0.012 C 
HETATM   22  C26 UNL     1       0.289   7.170  14.415  1.00  0.00     0.007 C 
HETATM   23  C27 UNL     1      -0.560   5.913  14.227  1.00  0.00     0.011 C 
HETATM   24  C28 UNL     1      -1.604   5.966  13.074  1.00  0.00    -0.032 C 
HETATM   25  C29 UNL     1      -0.818   5.964  11.736  1.00  0.00     0.016 C 
HETATM   26  C30 UNL     1      -5.018   3.884  12.541  1.00  0.00     0.017 C 
ENDROOT
BRANCH   4  27
HETATM   27  C8  UNL     1      -4.403   3.374  10.011  1.00  0.00     0.149 C 
HETATM   28  O1  UNL     1      -3.465   4.006   9.553  1.00  0.00    -0.649 OA
BRANCH  27  29
HETATM   29  O2  UNL     1      -5.392   2.997   9.184  1.00  0.00    -0.776 OA
HETATM   30  H11 UNL     1      -5.111   3.349   8.315  1.00  0.00     0.167 HD
ENDBRANCH  27  29
ENDBRANCH   4  27
BRANCH   1  31
HETATM   31  C2  UNL     1      -7.445   4.458  13.352  1.00  0.00    -0.088 C 
HETATM   32  C1  UNL     1      -7.488   3.788  14.518  1.00  0.00     0.014 C 
HETATM   33  C3  UNL     1      -8.360   5.630  13.105  1.00  0.00     0.043 C 
ENDBRANCH   1  31
BRANCH  19  34
HETATM   34  C24 UNL     1       0.376   9.631  16.665  1.00  0.00     0.181 C 
BRANCH  34  35
HETATM   35  O4  UNL     1       1.632   9.152  17.141  1.00  0.00    -0.400 OA
HETATM   36  H37 UNL     1       2.338   9.487  16.550  1.00  0.00     0.209 HD
ENDBRANCH  34  35
ENDBRANCH  19  34
TORSDOF 5
ENDMDL
MODEL 8
REMARK minimizedAffinity -5.67592907
REMARK CNNscore 0.262168199
REMARK CNNaffinity 5.46261454
REMARK  5 active torsions:
REMARK  status: ('A' for Active; 'I' for Inactive)
REMARK    1  A    between atoms: C2_2  and  C4_4 
REMARK    2  A    between atoms: C7_7  and  C8_8 
REMARK    3  A    between atoms: C8_8  and  O2_10 
REMARK    4  A    between atoms: C22_25  and  C24_27 
REMARK    5  A    between atoms: C24_27  and  O4_28 
ROOT
HETATM    1  C4  UNL     1     -16.292   6.821  13.985  1.00  0.00     0.019 C 
HETATM    2  C5  UNL     1     -16.975   8.191  14.245  1.00  0.00     0.011 C 
HETATM    3  C6  UNL     1     -18.158   7.918  15.192  1.00  0.00     0.021 C 
HETATM    4  C7  UNL     1     -18.512   6.451  14.920  1.00  0.00     0.050 C 
HETATM    5  C9  UNL     1     -19.299   5.756  16.036  1.00  0.00     0.022 C 
HETATM    6  C10 UNL     1     -19.361   4.236  15.785  1.00  0.00     0.011 C 
HETATM    7  C11 UNL     1     -17.973   3.510  15.598  1.00  0.00    -0.032 C 
HETATM    8  C12 UNL     1     -17.287   3.571  17.001  1.00  0.00     0.016 C 
HETATM    9  C13 UNL     1     -17.124   4.323  14.553  1.00  0.00     0.000 C 
HETATM   10  C14 UNL     1     -15.714   3.743  14.426  1.00  0.00     0.006 C 
HETATM   11  C15 UNL     1     -15.665   2.220  14.404  1.00  0.00     0.006 C 
HETATM   12  C16 UNL     1     -17.002   1.562  13.989  1.00  0.00     0.003 C 
HETATM   13  C17 UNL     1     -16.852  -0.005  13.634  1.00  0.00    -0.035 C 
HETATM   14  C18 UNL     1     -18.005  -0.442  12.688  1.00  0.00     0.016 C 
HETATM   15  C19 UNL     1     -15.515  -0.280  12.898  1.00  0.00     0.017 C 
HETATM   16  C20 UNL     1     -15.310  -1.720  12.468  1.00  0.00     0.080 C 
HETATM   17  C21 UNL     1     -15.784  -2.765  13.448  1.00  0.00     0.137 C 
HETATM   18  O3  UNL     1     -15.541  -3.952  13.203  1.00  0.00    -0.297 OA
HETATM   19  C22 UNL     1     -16.537  -2.393  14.733  1.00  0.00     0.042 C 
HETATM   20  C23 UNL     1     -17.836  -3.225  14.746  1.00  0.00     0.026 C 
HETATM   21  C25 UNL     1     -16.791  -0.853  14.934  1.00  0.00     0.012 C 
HETATM   22  C26 UNL     1     -17.980  -0.544  15.864  1.00  0.00     0.007 C 
HETATM   23  C27 UNL     1     -18.044   0.934  16.248  1.00  0.00     0.011 C 
HETATM   24  C28 UNL     1     -18.129   1.940  15.065  1.00  0.00    -0.032 C 
HETATM   25  C29 UNL     1     -19.525   1.770  14.409  1.00  0.00     0.016 C 
HETATM   26  C30 UNL     1     -17.101   5.836  14.865  1.00  0.00     0.017 C 
ENDROOT
BRANCH   4  27
HETATM   27  C8  UNL     1     -19.380   6.455  13.655  1.00  0.00     0.149 C 
HETATM   28  O1  UNL     1     -20.369   7.149  13.483  1.00  0.00    -0.649 OA
BRANCH  27  29
HETATM   29  O2  UNL     1     -18.960   5.669  12.650  1.00  0.00    -0.776 OA
HETATM   30  H11 UNL     1     -19.606   5.847  11.935  1.00  0.00     0.167 HD
ENDBRANCH  27  29
ENDBRANCH   4  27
BRANCH   1  31
HETATM   31  C2  UNL     1     -14.791   6.904  14.232  1.00  0.00    -0.088 C 
HETATM   32  C1  UNL     1     -14.238   7.000  15.455  1.00  0.00     0.014 C 
HETATM   33  C3  UNL     1     -13.927   6.891  12.997  1.00  0.00     0.043 C 
ENDBRANCH   1  31
BRANCH  19  34
HETATM   34  C24 UNL     1     -15.592  -2.872  15.874  1.00  0.00     0.181 C 
BRANCH  34  35
HETATM   35  O4  UNL     1     -14.208  -2.648  15.618  1.00  0.00    -0.400 OA
HETATM   36  H37 UNL     1     -14.112  -1.791  15.153  1.00  0.00     0.209 HD
ENDBRANCH  34  35
ENDBRANCH  19  34
TORSDOF 5
ENDMDL
MODEL 9
REMARK minimizedAffinity -5.99312496
REMARK CNNscore 0.254971951
REMARK CNNaffinity 5.56196356
REMARK  5 active torsions:
REMARK  status: ('A' for Active; 'I' for Inactive)
REMARK    1  A    between atoms: C2_2  and  C4_4 
REMARK    2  A    between atoms: C7_7  and  C8_8 
REMARK    3  A    between atoms: C8_8  and  O2_10 
REMARK    4  A    between atoms: C22_25  and  C24_27 
REMARK    5  A    between atoms: C24_27  and  O4_28 
ROOT
HETATM    1  C4  UNL     1       0.105  13.881  18.918  1.00  0.00     0.019 C 
HETATM    2  C5  UNL     1      -1.125  13.008  18.547  1.00  0.00     0.011 C 
HETATM    3  C6  UNL     1      -0.939  11.660  19.268  1.00  0.00     0.021 C 
HETATM    4  C7  UNL     1       0.579  11.551  19.452  1.00  0.00     0.050 C 
HETATM    5  C9  UNL     1       1.031  10.587  20.554  1.00  0.00     0.022 C 
HETATM    6  C10 UNL     1       2.538  10.758  20.834  1.00  0.00     0.011 C 
HETATM    7  C11 UNL     1       3.011  12.219  21.194  1.00  0.00    -0.032 C 
HETATM    8  C12 UNL     1       2.393  12.515  22.600  1.00  0.00     0.016 C 
HETATM    9  C13 UNL     1       2.416  13.211  20.129  1.00  0.00     0.000 C 
HETATM   10  C14 UNL     1       2.730  14.662  20.499  1.00  0.00     0.006 C 
HETATM   11  C15 UNL     1       4.149  14.882  21.013  1.00  0.00     0.006 C 
HETATM   12  C16 UNL     1       5.141  13.774  20.587  1.00  0.00     0.003 C 
HETATM   13  C17 UNL     1       6.684  14.181  20.831  1.00  0.00    -0.035 C 
HETATM   14  C18 UNL     1       7.600  13.362  19.880  1.00  0.00     0.016 C 
HETATM   15  C19 UNL     1       6.915  15.683  20.524  1.00  0.00     0.017 C 
HETATM   16  C20 UNL     1       8.352  16.148  20.666  1.00  0.00     0.080 C 
HETATM   17  C21 UNL     1       9.114  15.558  21.827  1.00  0.00     0.137 C 
HETATM   18  O3  UNL     1      10.251  15.984  22.061  1.00  0.00    -0.297 OA
HETATM   19  C22 UNL     1       8.512  14.467  22.724  1.00  0.00     0.042 C 
HETATM   20  C23 UNL     1       9.529  13.306  22.758  1.00  0.00     0.026 C 
HETATM   21  C25 UNL     1       7.062  14.002  22.327  1.00  0.00     0.012 C 
HETATM   22  C26 UNL     1       6.711  12.589  22.831  1.00  0.00     0.007 C 
HETATM   23  C27 UNL     1       5.227  12.268  22.663  1.00  0.00     0.011 C 
HETATM   24  C28 UNL     1       4.669  12.377  21.214  1.00  0.00    -0.032 C 
HETATM   25  C29 UNL     1       5.292  11.221  20.388  1.00  0.00     0.016 C 
HETATM   26  C30 UNL     1       0.904  12.988  19.900  1.00  0.00     0.017 C 
ENDROOT
BRANCH   4  27
HETATM   27  C8  UNL     1       1.129  11.038  18.114  1.00  0.00     0.149 C 
HETATM   28  O1  UNL     1       2.055  11.538  17.497  1.00  0.00    -0.649 OA
BRANCH  27  29
HETATM   29  O2  UNL     1       0.568   9.914  17.638  1.00  0.00    -0.776 OA
HETATM   30  H11 UNL     1       1.078   9.731  16.823  1.00  0.00     0.167 HD
ENDBRANCH  27  29
ENDBRANCH   4  27
BRANCH   1  31
HETATM   31  C2  UNL     1      -0.331  15.251  19.422  1.00  0.00    -0.088 C 
HETATM   32  C1  UNL     1       0.310  16.396  19.124  1.00  0.00     0.014 C 
HETATM   33  C3  UNL     1      -1.545  15.259  20.315  1.00  0.00     0.043 C 
ENDBRANCH   1  31
BRANCH  19  34
HETATM   34  C24 UNL     1       8.430  15.137  24.127  1.00  0.00     0.181 C 
BRANCH  34  35
HETATM   35  O4  UNL     1       8.097  16.522  24.093  1.00  0.00    -0.400 OA
HETATM   36  H37 UNL     1       7.442  16.668  23.380  1.00  0.00     0.209 HD
ENDBRANCH  34  35
ENDBRANCH  19  34
TORSDOF 5
ENDMDL
