MODEL 1
REMARK minimizedAffinity -10.0130453
REMARK CNNscore 0.419361949
REMARK CNNaffinity 6.63944674
REMARK  11 active torsions:
REMARK  status: ('A' for Active; 'I' for Inactive)
REMARK    1  A    between atoms: C3_3  and  O1_4 
REMARK    2  A    between atoms: N1_14  and  O2_16 
REMARK    3  A    between atoms: O2_16  and  C13_17 
REMARK    4  A    between atoms: C13_17  and  C14_18 
REMARK       I    between atoms: C14_18  and  N2_20 
REMARK    5  A    between atoms: N2_20  and  C15_21 
REMARK    6  A    between atoms: C15_21  and  C16_22 
REMARK    7  A    between atoms: C15_21  and  C17_25 
REMARK    8  A    between atoms: C16_22  and  O5_24 
REMARK    9  A    between atoms: C17_25  and  O6_26 
REMARK   10  A    between atoms: C17_25  and  C18_27 
REMARK   11  A    between atoms: C22_31  and  N3_32 
ROOT
HETATM    1  C1  UNL     1      -6.428  47.668 -21.897  1.00  0.00     0.015 C 
HETATM    2  C2  UNL     1      -6.070  48.500 -22.687  1.00  0.00    -0.078 C 
HETATM    3  C3  UNL     1      -5.653  49.514 -23.682  1.00  0.00     0.128 C 
HETATM    4  C4  UNL     1      -4.994  48.819 -24.881  1.00  0.00     0.052 C 
HETATM    5  C5  UNL     1      -3.562  48.602 -24.413  1.00  0.00     0.010 C 
HETATM    6  C6  UNL     1      -3.202  49.932 -23.742  1.00  0.00     0.002 C 
HETATM    7  C7  UNL     1      -1.991  49.914 -22.780  1.00  0.00    -0.004 C 
HETATM    8  C8  UNL     1      -1.860  48.689 -21.858  1.00  0.00     0.010 C 
HETATM    9  C9  UNL     1      -0.612  48.767 -20.975  1.00  0.00     0.035 C 
HETATM   10  C10 UNL     1      -0.450  50.081 -20.250  1.00  0.00    -0.069 C 
HETATM   11  C11 UNL     1      -0.115  50.092 -18.947  1.00  0.00     0.030 C 
HETATM   12  C12 UNL     1       0.228  51.354 -18.236  1.00  0.00     0.032 C 
HETATM   13  N1  UNL     1       0.476  51.286 -16.958  1.00  0.00    -0.271 N 
ATOM     14  H1  UNL     1       0.415  50.431 -16.406  1.00  0.00     0.194 HD
HETATM   15  C24 UNL     1       0.339  52.620 -19.065  1.00  0.00     0.060 C 
HETATM   16  C25 UNL     1      -0.700  52.613 -20.177  1.00  0.00     0.020 C 
HETATM   17  C26 UNL     1      -0.631  51.346 -21.085  1.00  0.00    -0.016 C 
HETATM   18  C27 UNL     1       0.604  51.505 -22.010  1.00  0.00     0.020 C 
HETATM   19  C28 UNL     1      -1.942  51.228 -21.958  1.00  0.00     0.002 C 
HETATM   20  C29 UNL     1      -3.248  51.423 -21.141  1.00  0.00     0.007 C 
HETATM   21  C30 UNL     1      -4.488  50.690 -21.656  1.00  0.00     0.014 C 
HETATM   22  C31 UNL     1      -4.542  50.517 -23.184  1.00  0.00     0.003 C 
HETATM   23  C32 UNL     1      -4.774  51.921 -23.810  1.00  0.00     0.020 C 
ENDROOT
BRANCH   3  24
HETATM   24  O1  UNL     1      -6.826  50.190 -24.122  1.00  0.00    -0.377 OA
HETATM   25  H2  UNL     1      -7.487  49.507 -24.328  1.00  0.00     0.211 HD
ENDBRANCH   3  24
BRANCH  13  26
HETATM   26  O2  UNL     1       0.838  52.536 -16.440  1.00  0.00    -0.271 OA
BRANCH  26  27
HETATM   27  C13 UNL     1       2.197  52.809 -16.769  1.00  0.00     0.303 C 
BRANCH  27  28
HETATM   28  C14 UNL     1       3.118  52.342 -15.646  1.00  0.00     0.244 C 
HETATM   29  O3  UNL     1       4.337  52.253 -15.781  1.00  0.00    -0.271 OA
HETATM   30  N2  UNL     1       2.481  52.044 -14.465  1.00  0.00    -0.342 N 
HETATM   31  H16 UNL     1       1.466  52.002 -14.483  1.00  0.00     0.163 HD
BRANCH  30  32
HETATM   32  C15 UNL     1       3.178  51.426 -13.334  1.00  0.00     0.216 C 
BRANCH  32  33
HETATM   33  C16 UNL     1       3.624  49.996 -13.661  1.00  0.00     0.166 C 
HETATM   34  O4  UNL     1       4.781  49.604 -13.711  1.00  0.00    -0.648 OA
BRANCH  33  35
HETATM   35  O5  UNL     1       2.616  49.116 -13.848  1.00  0.00    -0.775 OA
HETATM   36  H18 UNL     1       3.059  48.281 -14.102  1.00  0.00     0.167 HD
ENDBRANCH  33  35
ENDBRANCH  32  33
BRANCH  32  37
HETATM   37  C17 UNL     1       2.272  51.347 -12.076  1.00  0.00     0.184 C 
BRANCH  37  38
HETATM   38  O6  UNL     1       1.011  50.725 -12.377  1.00  0.00    -0.388 OA
HETATM   39  H20 UNL     1       0.366  51.022 -11.712  1.00  0.00     0.210 HD
ENDBRANCH  37  38
BRANCH  37  40
HETATM   40  C18 UNL     1       2.008  52.700 -11.439  1.00  0.00    -0.025 A 
HETATM   41  C19 UNL     1       0.700  53.215 -11.400  1.00  0.00     0.010 A 
HETATM   42  C20 UNL     1       0.439  54.460 -10.819  1.00  0.00     0.003 A 
HETATM   43  C21 UNL     1       1.480  55.211 -10.269  1.00  0.00     0.036 A 
HETATM   44  C22 UNL     1       2.787  54.706 -10.303  1.00  0.00     0.103 A 
HETATM   45  C23 UNL     1       3.057  53.459 -10.886  1.00  0.00     0.045 A 
BRANCH  44  46
HETATM   46  N3  UNL     1       3.884  55.495  -9.726  1.00  0.00    -0.116 N 
HETATM   47  O7  UNL     1       3.738  56.724  -9.659  1.00  0.00    -0.532 OA
HETATM   48  O8  UNL     1       4.890  54.885  -9.334  1.00  0.00    -0.532 OA
ENDBRANCH  44  46
ENDBRANCH  37  40
ENDBRANCH  32  37
ENDBRANCH  30  32
ENDBRANCH  27  28
ENDBRANCH  26  27
ENDBRANCH  13  26
TORSDOF 11
ENDMDL
MODEL 2
REMARK minimizedAffinity -8.26819706
REMARK CNNscore 0.387105256
REMARK CNNaffinity 6.21051216
REMARK  11 active torsions:
REMARK  status: ('A' for Active; 'I' for Inactive)
REMARK    1  A    between atoms: C3_3  and  O1_4 
REMARK    2  A    between atoms: N1_14  and  O2_16 
REMARK    3  A    between atoms: O2_16  and  C13_17 
REMARK    4  A    between atoms: C13_17  and  C14_18 
REMARK       I    between atoms: C14_18  and  N2_20 
REMARK    5  A    between atoms: N2_20  and  C15_21 
REMARK    6  A    between atoms: C15_21  and  C16_22 
REMARK    7  A    between atoms: C15_21  and  C17_25 
REMARK    8  A    between atoms: C16_22  and  O5_24 
REMARK    9  A    between atoms: C17_25  and  O6_26 
REMARK   10  A    between atoms: C17_25  and  C18_27 
REMARK   11  A    between atoms: C22_31  and  N3_32 
ROOT
HETATM    1  C1  UNL     1      -4.434  48.459 -26.192  1.00  0.00     0.015 C 
HETATM    2  C2  UNL     1      -4.074  49.209 -25.325  1.00  0.00    -0.078 C 
HETATM    3  C3  UNL     1      -3.603  50.145 -24.278  1.00  0.00     0.128 C 
HETATM    4  C4  UNL     1      -2.277  49.639 -23.693  1.00  0.00     0.052 C 
HETATM    5  C5  UNL     1      -2.721  48.611 -22.663  1.00  0.00     0.010 C 
HETATM    6  C6  UNL     1      -3.894  49.299 -21.956  1.00  0.00     0.002 C 
HETATM    7  C7  UNL     1      -4.853  48.384 -21.159  1.00  0.00    -0.004 C 
HETATM    8  C8  UNL     1      -5.210  47.032 -21.802  1.00  0.00     0.010 C 
HETATM    9  C9  UNL     1      -6.138  46.202 -20.912  1.00  0.00     0.035 C 
HETATM   10  C10 UNL     1      -7.340  46.956 -20.398  1.00  0.00    -0.069 C 
HETATM   11  C11 UNL     1      -8.558  46.386 -20.436  1.00  0.00     0.030 C 
HETATM   12  C12 UNL     1      -9.739  47.015 -19.784  1.00  0.00     0.032 C 
HETATM   13  N1  UNL     1     -10.896  46.431 -19.925  1.00  0.00    -0.271 N 
ATOM     14  H1  UNL     1     -11.052  45.592 -20.483  1.00  0.00     0.194 HD
HETATM   15  C24 UNL     1      -9.500  48.251 -18.938  1.00  0.00     0.060 C 
HETATM   16  C25 UNL     1      -8.406  49.110 -19.558  1.00  0.00     0.020 C 
HETATM   17  C26 UNL     1      -7.074  48.338 -19.804  1.00  0.00    -0.016 C 
HETATM   18  C27 UNL     1      -6.382  48.154 -18.427  1.00  0.00     0.020 C 
HETATM   19  C28 UNL     1      -6.135  49.164 -20.769  1.00  0.00     0.002 C 
HETATM   20  C29 UNL     1      -6.865  49.703 -22.029  1.00  0.00     0.007 C 
HETATM   21  C30 UNL     1      -6.009  49.881 -23.285  1.00  0.00     0.014 C 
HETATM   22  C31 UNL     1      -4.542  50.254 -23.014  1.00  0.00     0.003 C 
HETATM   23  C32 UNL     1      -4.518  51.705 -22.459  1.00  0.00     0.020 C 
ENDROOT
BRANCH   3  24
HETATM   24  O1  UNL     1      -3.388  51.408 -24.896  1.00  0.00    -0.377 OA
HETATM   25  H2  UNL     1      -2.878  51.245 -25.707  1.00  0.00     0.211 HD
ENDBRANCH   3  24
BRANCH  13  26
HETATM   26  O2  UNL     1     -11.898  47.102 -19.212  1.00  0.00    -0.271 OA
BRANCH  26  27
HETATM   27  C13 UNL     1     -12.976  46.206 -18.955  1.00  0.00     0.303 C 
BRANCH  27  28
HETATM   28  C14 UNL     1     -14.209  46.618 -19.754  1.00  0.00     0.244 C 
HETATM   29  O3  UNL     1     -14.138  47.263 -20.798  1.00  0.00    -0.271 OA
HETATM   30  N2  UNL     1     -15.405  46.198 -19.223  1.00  0.00    -0.342 N 
HETATM   31  H16 UNL     1     -15.385  45.802 -18.288  1.00  0.00     0.163 HD
BRANCH  30  32
HETATM   32  C15 UNL     1     -16.696  46.636 -19.760  1.00  0.00     0.216 C 
BRANCH  32  33
HETATM   33  C16 UNL     1     -17.252  47.833 -18.980  1.00  0.00     0.166 C 
HETATM   34  O4  UNL     1     -16.588  48.640 -18.344  1.00  0.00    -0.648 OA
BRANCH  33  35
HETATM   35  O5  UNL     1     -18.588  48.005 -19.078  1.00  0.00    -0.775 OA
HETATM   36  H18 UNL     1     -18.786  48.760 -18.486  1.00  0.00     0.167 HD
ENDBRANCH  33  35
ENDBRANCH  32  33
BRANCH  32  37
HETATM   37  C17 UNL     1     -17.760  45.508 -19.686  1.00  0.00     0.184 C 
BRANCH  37  38
HETATM   38  O6  UNL     1     -17.179  44.267 -19.252  1.00  0.00    -0.388 OA
HETATM   39  H20 UNL     1     -17.749  43.544 -19.569  1.00  0.00     0.210 HD
ENDBRANCH  37  38
BRANCH  37  40
HETATM   40  C18 UNL     1     -18.481  45.275 -21.003  1.00  0.00    -0.025 A 
HETATM   41  C19 UNL     1     -19.393  44.212 -21.125  1.00  0.00     0.010 A 
HETATM   42  C20 UNL     1     -20.065  43.982 -22.330  1.00  0.00     0.003 A 
HETATM   43  C21 UNL     1     -19.836  44.809 -23.431  1.00  0.00     0.036 A 
HETATM   44  C22 UNL     1     -18.928  45.871 -23.319  1.00  0.00     0.103 A 
HETATM   45  C23 UNL     1     -18.250  46.108 -22.114  1.00  0.00     0.045 A 
BRANCH  44  46
HETATM   46  N3  UNL     1     -18.684  46.742 -24.478  1.00  0.00    -0.116 N 
HETATM   47  O7  UNL     1     -19.669  47.158 -25.104  1.00  0.00    -0.532 OA
HETATM   48  O8  UNL     1     -17.507  47.015 -24.756  1.00  0.00    -0.532 OA
ENDBRANCH  44  46
ENDBRANCH  37  40
ENDBRANCH  32  37
ENDBRANCH  30  32
ENDBRANCH  27  28
ENDBRANCH  26  27
ENDBRANCH  13  26
TORSDOF 11
ENDMDL
MODEL 3
REMARK minimizedAffinity -8.21953011
REMARK CNNscore 0.269627988
REMARK CNNaffinity 6.37291002
REMARK  11 active torsions:
REMARK  status: ('A' for Active; 'I' for Inactive)
REMARK    1  A    between atoms: C3_3  and  O1_4 
REMARK    2  A    between atoms: N1_14  and  O2_16 
REMARK    3  A    between atoms: O2_16  and  C13_17 
REMARK    4  A    between atoms: C13_17  and  C14_18 
REMARK       I    between atoms: C14_18  and  N2_20 
REMARK    5  A    between atoms: N2_20  and  C15_21 
REMARK    6  A    between atoms: C15_21  and  C16_22 
REMARK    7  A    between atoms: C15_21  and  C17_25 
REMARK    8  A    between atoms: C16_22  and  O5_24 
REMARK    9  A    between atoms: C17_25  and  O6_26 
REMARK   10  A    between atoms: C17_25  and  C18_27 
REMARK   11  A    between atoms: C22_31  and  N3_32 
ROOT
HETATM    1  C1  UNL     1      -3.893  49.585 -24.980  1.00  0.00     0.015 C 
HETATM    2  C2  UNL     1      -3.482  49.870 -23.887  1.00  0.00    -0.078 C 
HETATM    3  C3  UNL     1      -2.944  50.231 -22.555  1.00  0.00     0.128 C 
HETATM    4  C4  UNL     1      -1.850  49.233 -22.153  1.00  0.00     0.052 C 
HETATM    5  C5  UNL     1      -2.639  48.062 -21.585  1.00  0.00     0.010 C 
HETATM    6  C6  UNL     1      -3.704  48.740 -20.715  1.00  0.00     0.002 C 
HETATM    7  C7  UNL     1      -4.936  47.883 -20.340  1.00  0.00    -0.004 C 
HETATM    8  C8  UNL     1      -5.509  46.977 -21.445  1.00  0.00     0.010 C 
HETATM    9  C9  UNL     1      -6.702  46.157 -20.951  1.00  0.00     0.035 C 
HETATM   10  C10 UNL     1      -7.757  46.968 -20.237  1.00  0.00    -0.069 C 
HETATM   11  C11 UNL     1      -9.058  46.778 -20.521  1.00  0.00     0.030 C 
HETATM   12  C12 UNL     1     -10.137  47.423 -19.724  1.00  0.00     0.032 C 
HETATM   13  N1  UNL     1     -11.369  47.240 -20.106  1.00  0.00    -0.271 N 
ATOM     14  H1  UNL     1     -11.641  46.716 -20.938  1.00  0.00     0.194 HD
HETATM   15  C24 UNL     1      -9.730  48.184 -18.477  1.00  0.00     0.060 C 
HETATM   16  C25 UNL     1      -8.402  48.894 -18.703  1.00  0.00     0.020 C 
HETATM   17  C26 UNL     1      -7.260  47.941 -19.170  1.00  0.00    -0.016 C 
HETATM   18  C27 UNL     1      -6.803  47.122 -17.934  1.00  0.00     0.020 C 
HETATM   19  C28 UNL     1      -6.046  48.780 -19.734  1.00  0.00     0.002 C 
HETATM   20  C29 UNL     1      -6.473  49.889 -20.733  1.00  0.00     0.007 C 
HETATM   21  C30 UNL     1      -5.452  50.266 -21.808  1.00  0.00     0.014 C 
HETATM   22  C31 UNL     1      -3.983  50.133 -21.371  1.00  0.00     0.003 C 
HETATM   23  C32 UNL     1      -3.699  51.245 -20.323  1.00  0.00     0.020 C 
ENDROOT
BRANCH   3  24
HETATM   24  O1  UNL     1      -2.374  51.531 -22.661  1.00  0.00    -0.377 OA
HETATM   25  H2  UNL     1      -1.818  51.533 -23.458  1.00  0.00     0.211 HD
ENDBRANCH   3  24
BRANCH  13  26
HETATM   26  O2  UNL     1     -12.274  47.856 -19.231  1.00  0.00    -0.271 OA
BRANCH  26  27
HETATM   27  C13 UNL     1     -13.507  47.143 -19.247  1.00  0.00     0.303 C 
BRANCH  27  28
HETATM   28  C14 UNL     1     -14.196  47.307 -20.598  1.00  0.00     0.244 C 
HETATM   29  O3  UNL     1     -14.189  48.366 -21.223  1.00  0.00    -0.271 OA
HETATM   30  N2  UNL     1     -14.811  46.173 -21.073  1.00  0.00    -0.342 N 
HETATM   31  H16 UNL     1     -14.895  45.388 -20.433  1.00  0.00     0.163 HD
BRANCH  30  32
HETATM   32  C15 UNL     1     -15.657  46.183 -22.269  1.00  0.00     0.216 C 
BRANCH  32  33
HETATM   33  C16 UNL     1     -14.992  46.945 -23.421  1.00  0.00     0.166 C 
HETATM   34  O4  UNL     1     -15.455  47.923 -23.991  1.00  0.00    -0.648 OA
BRANCH  33  35
HETATM   35  O5  UNL     1     -13.765  46.498 -23.765  1.00  0.00    -0.775 OA
HETATM   36  H18 UNL     1     -13.509  47.041 -24.538  1.00  0.00     0.167 HD
ENDBRANCH  33  35
ENDBRANCH  32  33
BRANCH  32  37
HETATM   37  C17 UNL     1     -17.024  46.867 -21.997  1.00  0.00     0.184 C 
BRANCH  37  38
HETATM   38  O6  UNL     1     -17.343  46.863 -20.595  1.00  0.00    -0.388 OA
HETATM   39  H20 UNL     1     -18.309  46.941 -20.508  1.00  0.00     0.210 HD
ENDBRANCH  37  38
BRANCH  37  40
HETATM   40  C18 UNL     1     -18.175  46.235 -22.760  1.00  0.00    -0.025 A 
HETATM   41  C19 UNL     1     -18.531  46.726 -24.029  1.00  0.00     0.010 A 
HETATM   42  C20 UNL     1     -19.589  46.157 -24.744  1.00  0.00     0.003 A 
HETATM   43  C21 UNL     1     -20.308  45.088 -24.205  1.00  0.00     0.036 A 
HETATM   44  C22 UNL     1     -19.961  44.592 -22.941  1.00  0.00     0.103 A 
HETATM   45  C23 UNL     1     -18.902  45.158 -22.216  1.00  0.00     0.045 A 
BRANCH  44  46
HETATM   46  N3  UNL     1     -20.718  43.469 -22.370  1.00  0.00    -0.116 N 
HETATM   47  O7  UNL     1     -21.941  43.438 -22.567  1.00  0.00    -0.532 OA
HETATM   48  O8  UNL     1     -20.087  42.613 -21.731  1.00  0.00    -0.532 OA
ENDBRANCH  44  46
ENDBRANCH  37  40
ENDBRANCH  32  37
ENDBRANCH  30  32
ENDBRANCH  27  28
ENDBRANCH  26  27
ENDBRANCH  13  26
TORSDOF 11
ENDMDL
MODEL 4
REMARK minimizedAffinity -10.0756521
REMARK CNNscore 0.221331969
REMARK CNNaffinity 6.95220566
REMARK  11 active torsions:
REMARK  status: ('A' for Active; 'I' for Inactive)
REMARK    1  A    between atoms: C3_3  and  O1_4 
REMARK    2  A    between atoms: N1_14  and  O2_16 
REMARK    3  A    between atoms: O2_16  and  C13_17 
REMARK    4  A    between atoms: C13_17  and  C14_18 
REMARK       I    between atoms: C14_18  and  N2_20 
REMARK    5  A    between atoms: N2_20  and  C15_21 
REMARK    6  A    between atoms: C15_21  and  C16_22 
REMARK    7  A    between atoms: C15_21  and  C17_25 
REMARK    8  A    between atoms: C16_22  and  O5_24 
REMARK    9  A    between atoms: C17_25  and  O6_26 
REMARK   10  A    between atoms: C17_25  and  C18_27 
REMARK   11  A    between atoms: C22_31  and  N3_32 
ROOT
HETATM    1  C1  UNL     1       0.192  54.965 -24.793  1.00  0.00     0.015 C 
HETATM    2  C2  UNL     1       0.278  54.031 -25.545  1.00  0.00    -0.078 C 
HETATM    3  C3  UNL     1       0.405  52.899 -26.493  1.00  0.00     0.128 C 
HETATM    4  C4  UNL     1      -0.324  53.237 -27.800  1.00  0.00     0.052 C 
HETATM    5  C5  UNL     1      -1.774  52.893 -27.488  1.00  0.00     0.010 C 
HETATM    6  C6  UNL     1      -1.671  51.553 -26.751  1.00  0.00     0.002 C 
HETATM    7  C7  UNL     1      -2.900  51.131 -25.912  1.00  0.00    -0.004 C 
HETATM    8  C8  UNL     1      -3.600  52.240 -25.107  1.00  0.00     0.010 C 
HETATM    9  C9  UNL     1      -4.817  51.712 -24.344  1.00  0.00     0.035 C 
HETATM   10  C10 UNL     1      -4.546  50.466 -23.535  1.00  0.00    -0.069 C 
HETATM   11  C11 UNL     1      -5.002  50.371 -22.273  1.00  0.00     0.030 C 
HETATM   12  C12 UNL     1      -4.914  49.103 -21.500  1.00  0.00     0.032 C 
HETATM   13  N1  UNL     1      -5.319  49.115 -20.261  1.00  0.00    -0.271 N 
ATOM     14  H1  UNL     1      -5.657  49.945 -19.774  1.00  0.00     0.194 HD
HETATM   15  C24 UNL     1      -4.431  47.866 -22.232  1.00  0.00     0.060 C 
HETATM   16  C25 UNL     1      -3.351  48.238 -23.238  1.00  0.00     0.020 C 
HETATM   17  C26 UNL     1      -3.794  49.343 -24.246  1.00  0.00    -0.016 C 
HETATM   18  C27 UNL     1      -4.755  48.681 -25.268  1.00  0.00     0.020 C 
HETATM   19  C28 UNL     1      -2.536  49.933 -24.997  1.00  0.00     0.002 C 
HETATM   20  C29 UNL     1      -1.362  50.294 -24.047  1.00  0.00     0.007 C 
HETATM   21  C30 UNL     1      -0.448  51.435 -24.499  1.00  0.00     0.014 C 
HETATM   22  C31 UNL     1      -0.285  51.560 -26.024  1.00  0.00     0.003 C 
HETATM   23  C32 UNL     1       0.542  50.337 -26.512  1.00  0.00     0.020 C 
ENDROOT
BRANCH   3  24
HETATM   24  O1  UNL     1       1.790  52.721 -26.764  1.00  0.00    -0.377 OA
HETATM   25  H2  UNL     1       2.157  53.599 -26.960  1.00  0.00     0.211 HD
ENDBRANCH   3  24
BRANCH  13  26
HETATM   26  O2  UNL     1      -5.231  47.842 -19.681  1.00  0.00    -0.271 OA
BRANCH  26  27
HETATM   27  C13 UNL     1      -5.181  47.971 -18.264  1.00  0.00     0.303 C 
BRANCH  27  28
HETATM   28  C14 UNL     1      -3.879  48.644 -17.838  1.00  0.00     0.244 C 
HETATM   29  O3  UNL     1      -3.060  49.076 -18.647  1.00  0.00    -0.271 OA
HETATM   30  N2  UNL     1      -3.701  48.745 -16.479  1.00  0.00    -0.342 N 
HETATM   31  H16 UNL     1      -4.349  48.235 -15.886  1.00  0.00     0.163 HD
BRANCH  30  32
HETATM   32  C15 UNL     1      -2.443  49.211 -15.887  1.00  0.00     0.216 C 
BRANCH  32  33
HETATM   33  C16 UNL     1      -2.464  50.724 -15.643  1.00  0.00     0.166 C 
HETATM   34  O4  UNL     1      -3.011  51.554 -16.356  1.00  0.00    -0.648 OA
BRANCH  33  35
HETATM   35  O5  UNL     1      -1.864  51.125 -14.501  1.00  0.00    -0.775 OA
HETATM   36  H18 UNL     1      -1.911  52.102 -14.524  1.00  0.00     0.167 HD
ENDBRANCH  33  35
ENDBRANCH  32  33
BRANCH  32  37
HETATM   37  C17 UNL     1      -1.231  48.913 -16.810  1.00  0.00     0.184 C 
BRANCH  37  38
HETATM   38  O6  UNL     1      -0.375  47.907 -16.244  1.00  0.00    -0.388 OA
HETATM   39  H20 UNL     1       0.511  48.017 -16.630  1.00  0.00     0.210 HD
ENDBRANCH  37  38
BRANCH  37  40
HETATM   40  C18 UNL     1      -0.397  50.143 -17.122  1.00  0.00    -0.025 A 
HETATM   41  C19 UNL     1       0.608  50.556 -16.229  1.00  0.00     0.010 A 
HETATM   42  C20 UNL     1       1.384  51.687 -16.500  1.00  0.00     0.003 A 
HETATM   43  C21 UNL     1       1.170  52.424 -17.666  1.00  0.00     0.036 A 
HETATM   44  C22 UNL     1       0.170  52.021 -18.563  1.00  0.00     0.103 A 
HETATM   45  C23 UNL     1      -0.614  50.888 -18.298  1.00  0.00     0.045 A 
BRANCH  44  46
HETATM   46  N3  UNL     1      -0.058  52.796 -19.790  1.00  0.00    -0.116 N 
HETATM   47  O7  UNL     1       0.381  53.954 -19.831  1.00  0.00    -0.532 OA
HETATM   48  O8  UNL     1      -0.671  52.244 -20.716  1.00  0.00    -0.532 OA
ENDBRANCH  44  46
ENDBRANCH  37  40
ENDBRANCH  32  37
ENDBRANCH  30  32
ENDBRANCH  27  28
ENDBRANCH  26  27
ENDBRANCH  13  26
TORSDOF 11
ENDMDL
MODEL 5
REMARK minimizedAffinity -8.70659447
REMARK CNNscore 0.216629386
REMARK CNNaffinity 6.5467453
REMARK  11 active torsions:
REMARK  status: ('A' for Active; 'I' for Inactive)
REMARK    1  A    between atoms: C3_3  and  O1_4 
REMARK    2  A    between atoms: N1_14  and  O2_16 
REMARK    3  A    between atoms: O2_16  and  C13_17 
REMARK    4  A    between atoms: C13_17  and  C14_18 
REMARK       I    between atoms: C14_18  and  N2_20 
REMARK    5  A    between atoms: N2_20  and  C15_21 
REMARK    6  A    between atoms: C15_21  and  C16_22 
REMARK    7  A    between atoms: C15_21  and  C17_25 
REMARK    8  A    between atoms: C16_22  and  O5_24 
REMARK    9  A    between atoms: C17_25  and  O6_26 
REMARK   10  A    between atoms: C17_25  and  C18_27 
REMARK   11  A    between atoms: C22_31  and  N3_32 
ROOT
HETATM    1  C1  UNL     1       6.018  52.697  -7.694  1.00  0.00     0.015 C 
HETATM    2  C2  UNL     1       5.787  53.718  -8.286  1.00  0.00    -0.078 C 
HETATM    3  C3  UNL     1       5.533  54.987  -9.006  1.00  0.00     0.128 C 
HETATM    4  C4  UNL     1       5.358  56.128  -7.994  1.00  0.00     0.052 C 
HETATM    5  C5  UNL     1       3.901  56.001  -7.576  1.00  0.00     0.010 C 
HETATM    6  C6  UNL     1       3.171  55.759  -8.901  1.00  0.00     0.002 C 
HETATM    7  C7  UNL     1       1.749  55.156  -8.806  1.00  0.00    -0.004 C 
HETATM    8  C8  UNL     1       1.538  54.049  -7.759  1.00  0.00     0.010 C 
HETATM    9  C9  UNL     1       0.090  53.552  -7.734  1.00  0.00     0.035 C 
HETATM   10  C10 UNL     1      -0.466  53.204  -9.094  1.00  0.00    -0.069 C 
HETATM   11  C11 UNL     1      -1.163  52.066  -9.264  1.00  0.00     0.030 C 
HETATM   12  C12 UNL     1      -1.878  51.765 -10.534  1.00  0.00     0.032 C 
HETATM   13  N1  UNL     1      -2.473  50.610 -10.640  1.00  0.00    -0.271 N 
ATOM     14  H1  UNL     1      -2.450  49.884  -9.925  1.00  0.00     0.194 HD
HETATM   15  C24 UNL     1      -1.928  52.856 -11.587  1.00  0.00     0.060 C 
HETATM   16  C25 UNL     1      -0.622  53.637 -11.597  1.00  0.00     0.020 C 
HETATM   17  C26 UNL     1      -0.238  54.226 -10.205  1.00  0.00    -0.016 C 
HETATM   18  C27 UNL     1      -1.162  55.446  -9.946  1.00  0.00     0.020 C 
HETATM   19  C28 UNL     1       1.272  54.688 -10.205  1.00  0.00     0.002 C 
HETATM   20  C29 UNL     1       2.242  53.632 -10.800  1.00  0.00     0.007 C 
HETATM   21  C30 UNL     1       3.671  53.638 -10.255  1.00  0.00     0.014 C 
HETATM   22  C31 UNL     1       4.190  55.024  -9.834  1.00  0.00     0.003 C 
HETATM   23  C32 UNL     1       4.386  55.868 -11.125  1.00  0.00     0.020 C 
ENDROOT
BRANCH   3  24
HETATM   24  O1  UNL     1       6.670  55.254  -9.818  1.00  0.00    -0.377 OA
HETATM   25  H2  UNL     1       7.455  55.128  -9.258  1.00  0.00     0.211 HD
ENDBRANCH   3  24
BRANCH  13  26
HETATM   26  O2  UNL     1      -3.149  50.493 -11.862  1.00  0.00    -0.271 OA
BRANCH  26  27
HETATM   27  C13 UNL     1      -2.409  49.642 -12.732  1.00  0.00     0.303 C 
BRANCH  27  28
HETATM   28  C14 UNL     1      -2.488  50.155 -14.167  1.00  0.00     0.244 C 
HETATM   29  O3  UNL     1      -3.220  51.084 -14.501  1.00  0.00    -0.271 OA
HETATM   30  N2  UNL     1      -1.662  49.507 -15.055  1.00  0.00    -0.342 N 
HETATM   31  H16 UNL     1      -1.203  48.661 -14.731  1.00  0.00     0.163 HD
BRANCH  30  32
HETATM   32  C15 UNL     1      -1.722  49.751 -16.499  1.00  0.00     0.216 C 
BRANCH  32  33
HETATM   33  C16 UNL     1      -2.604  48.716 -17.207  1.00  0.00     0.166 C 
HETATM   34  O4  UNL     1      -3.799  48.835 -17.437  1.00  0.00    -0.648 OA
BRANCH  33  35
HETATM   35  O5  UNL     1      -1.950  47.619 -17.648  1.00  0.00    -0.775 OA
HETATM   36  H18 UNL     1      -2.651  47.042 -18.016  1.00  0.00     0.167 HD
ENDBRANCH  33  35
ENDBRANCH  32  33
BRANCH  32  37
HETATM   37  C17 UNL     1      -0.315  49.677 -17.151  1.00  0.00     0.184 C 
BRANCH  37  38
HETATM   38  O6  UNL     1       0.725  49.865 -16.177  1.00  0.00    -0.388 OA
HETATM   39  H20 UNL     1       1.519  50.180 -16.645  1.00  0.00     0.210 HD
ENDBRANCH  37  38
BRANCH  37  40
HETATM   40  C18 UNL     1      -0.119  50.681 -18.274  1.00  0.00    -0.025 A 
HETATM   41  C19 UNL     1       0.395  51.959 -17.991  1.00  0.00     0.010 A 
HETATM   42  C20 UNL     1       0.581  52.897 -19.012  1.00  0.00     0.003 A 
HETATM   43  C21 UNL     1       0.254  52.574 -20.331  1.00  0.00     0.036 A 
HETATM   44  C22 UNL     1      -0.260  51.302 -20.622  1.00  0.00     0.103 A 
HETATM   45  C23 UNL     1      -0.449  50.357 -19.604  1.00  0.00     0.045 A 
BRANCH  44  46
HETATM   46  N3  UNL     1      -0.605  50.961 -22.009  1.00  0.00    -0.116 N 
HETATM   47  O7  UNL     1      -0.252  51.744 -22.902  1.00  0.00    -0.532 OA
HETATM   48  O8  UNL     1      -1.225  49.904 -22.206  1.00  0.00    -0.532 OA
ENDBRANCH  44  46
ENDBRANCH  37  40
ENDBRANCH  32  37
ENDBRANCH  30  32
ENDBRANCH  27  28
ENDBRANCH  26  27
ENDBRANCH  13  26
TORSDOF 11
ENDMDL
MODEL 6
REMARK minimizedAffinity -8.38001442
REMARK CNNscore 0.213383213
REMARK CNNaffinity 4.39180422
REMARK  11 active torsions:
REMARK  status: ('A' for Active; 'I' for Inactive)
REMARK    1  A    between atoms: C3_3  and  O1_4 
REMARK    2  A    between atoms: N1_14  and  O2_16 
REMARK    3  A    between atoms: O2_16  and  C13_17 
REMARK    4  A    between atoms: C13_17  and  C14_18 
REMARK       I    between atoms: C14_18  and  N2_20 
REMARK    5  A    between atoms: N2_20  and  C15_21 
REMARK    6  A    between atoms: C15_21  and  C16_22 
REMARK    7  A    between atoms: C15_21  and  C17_25 
REMARK    8  A    between atoms: C16_22  and  O5_24 
REMARK    9  A    between atoms: C17_25  and  O6_26 
REMARK   10  A    between atoms: C17_25  and  C18_27 
REMARK   11  A    between atoms: C22_31  and  N3_32 
ROOT
HETATM    1  C1  UNL     1     -19.033  39.202 -21.890  1.00  0.00     0.015 C 
HETATM    2  C2  UNL     1     -19.602  40.112 -21.350  1.00  0.00    -0.078 C 
HETATM    3  C3  UNL     1     -20.323  41.210 -20.666  1.00  0.00     0.128 C 
HETATM    4  C4  UNL     1     -21.780  41.250 -21.147  1.00  0.00     0.052 C 
HETATM    5  C5  UNL     1     -21.695  42.034 -22.449  1.00  0.00     0.010 C 
HETATM    6  C6  UNL     1     -20.754  43.194 -22.104  1.00  0.00     0.002 C 
HETATM    7  C7  UNL     1     -20.104  43.933 -23.298  1.00  0.00    -0.004 C 
HETATM    8  C8  UNL     1     -19.625  43.061 -24.471  1.00  0.00     0.010 C 
HETATM    9  C9  UNL     1     -19.030  43.902 -25.603  1.00  0.00     0.035 C 
HETATM   10  C10 UNL     1     -18.002  44.911 -25.149  1.00  0.00    -0.069 C 
HETATM   11  C11 UNL     1     -16.848  45.047 -25.828  1.00  0.00     0.030 C 
HETATM   12  C12 UNL     1     -15.886  46.141 -25.527  1.00  0.00     0.032 C 
HETATM   13  N1  UNL     1     -14.762  46.162 -26.185  1.00  0.00    -0.271 N 
ATOM     14  H1  UNL     1     -14.481  45.457 -26.866  1.00  0.00     0.194 HD
HETATM   15  C24 UNL     1     -16.316  47.200 -24.530  1.00  0.00     0.060 C 
HETATM   16  C25 UNL     1     -17.148  46.572 -23.421  1.00  0.00     0.020 C 
HETATM   17  C26 UNL     1     -18.378  45.770 -23.944  1.00  0.00    -0.016 C 
HETATM   18  C27 UNL     1     -19.448  46.801 -24.393  1.00  0.00     0.020 C 
HETATM   19  C28 UNL     1     -18.963  44.857 -22.797  1.00  0.00     0.002 C 
HETATM   20  C29 UNL     1     -17.878  44.042 -22.042  1.00  0.00     0.007 C 
HETATM   21  C30 UNL     1     -18.323  42.703 -21.450  1.00  0.00     0.014 C 
HETATM   22  C31 UNL     1     -19.790  42.659 -20.992  1.00  0.00     0.003 C 
HETATM   23  C32 UNL     1     -19.921  43.568 -19.738  1.00  0.00     0.020 C 
ENDROOT
BRANCH   3  24
HETATM   24  O1  UNL     1     -20.301  40.934 -19.270  1.00  0.00    -0.377 OA
HETATM   25  H2  UNL     1     -20.558  40.003 -19.161  1.00  0.00     0.211 HD
ENDBRANCH   3  24
BRANCH  13  26
HETATM   26  O2  UNL     1     -13.986  47.277 -25.839  1.00  0.00    -0.271 OA
BRANCH  26  27
HETATM   27  C13 UNL     1     -12.957  47.456 -26.807  1.00  0.00     0.303 C 
BRANCH  27  28
HETATM   28  C14 UNL     1     -11.586  47.397 -26.139  1.00  0.00     0.244 C 
HETATM   29  O3  UNL     1     -11.431  47.038 -24.973  1.00  0.00    -0.271 OA
HETATM   30  N2  UNL     1     -10.535  47.760 -26.948  1.00  0.00    -0.342 N 
HETATM   31  H16 UNL     1     -10.763  48.181 -27.844  1.00  0.00     0.163 HD
BRANCH  30  32
HETATM   32  C15 UNL     1      -9.172  47.922 -26.435  1.00  0.00     0.216 C 
BRANCH  32  33
HETATM   33  C16 UNL     1      -9.065  49.132 -25.499  1.00  0.00     0.166 C 
HETATM   34  O4  UNL     1      -8.401  49.183 -24.473  1.00  0.00    -0.648 OA
BRANCH  33  35
HETATM   35  O5  UNL     1      -9.732  50.231 -25.912  1.00  0.00    -0.775 OA
HETATM   36  H18 UNL     1      -9.614  50.881 -25.190  1.00  0.00     0.167 HD
ENDBRANCH  33  35
ENDBRANCH  32  33
BRANCH  32  37
HETATM   37  C17 UNL     1      -8.150  48.139 -27.582  1.00  0.00     0.184 C 
BRANCH  37  38
HETATM   38  O6  UNL     1      -8.618  49.119 -28.524  1.00  0.00    -0.388 OA
HETATM   39  H20 UNL     1      -8.168  48.956 -29.372  1.00  0.00     0.210 HD
ENDBRANCH  37  38
BRANCH  37  40
HETATM   40  C18 UNL     1      -7.812  46.863 -28.334  1.00  0.00    -0.025 A 
HETATM   41  C19 UNL     1      -7.927  45.617 -27.692  1.00  0.00     0.010 A 
HETATM   42  C20 UNL     1      -7.618  44.433 -28.369  1.00  0.00     0.003 A 
HETATM   43  C21 UNL     1      -7.189  44.474 -29.697  1.00  0.00     0.036 A 
HETATM   44  C22 UNL     1      -7.070  45.711 -30.345  1.00  0.00     0.103 A 
HETATM   45  C23 UNL     1      -7.377  46.903 -29.673  1.00  0.00     0.045 A 
BRANCH  44  46
HETATM   46  N3  UNL     1      -6.617  45.757 -31.742  1.00  0.00    -0.116 N 
HETATM   47  O7  UNL     1      -5.471  46.176 -31.964  1.00  0.00    -0.532 OA
HETATM   48  O8  UNL     1      -7.403  45.366 -32.618  1.00  0.00    -0.532 OA
ENDBRANCH  44  46
ENDBRANCH  37  40
ENDBRANCH  32  37
ENDBRANCH  30  32
ENDBRANCH  27  28
ENDBRANCH  26  27
ENDBRANCH  13  26
TORSDOF 11
ENDMDL
MODEL 7
REMARK minimizedAffinity -8.8010025
REMARK CNNscore 0.20868355
REMARK CNNaffinity 6.66552162
REMARK  11 active torsions:
REMARK  status: ('A' for Active; 'I' for Inactive)
REMARK    1  A    between atoms: C3_3  and  O1_4 
REMARK    2  A    between atoms: N1_14  and  O2_16 
REMARK    3  A    between atoms: O2_16  and  C13_17 
REMARK    4  A    between atoms: C13_17  and  C14_18 
REMARK       I    between atoms: C14_18  and  N2_20 
REMARK    5  A    between atoms: N2_20  and  C15_21 
REMARK    6  A    between atoms: C15_21  and  C16_22 
REMARK    7  A    between atoms: C15_21  and  C17_25 
REMARK    8  A    between atoms: C16_22  and  O5_24 
REMARK    9  A    between atoms: C17_25  and  O6_26 
REMARK   10  A    between atoms: C17_25  and  C18_27 
REMARK   11  A    between atoms: C22_31  and  N3_32 
ROOT
HETATM    1  C1  UNL     1       2.395  51.235 -26.582  1.00  0.00     0.015 C 
HETATM    2  C2  UNL     1       1.370  51.833 -26.777  1.00  0.00    -0.078 C 
HETATM    3  C3  UNL     1       0.125  52.590 -27.040  1.00  0.00     0.128 C 
HETATM    4  C4  UNL     1       0.254  54.009 -26.472  1.00  0.00     0.052 C 
HETATM    5  C5  UNL     1      -0.093  53.829 -25.001  1.00  0.00     0.010 C 
HETATM    6  C6  UNL     1      -1.315  52.905 -25.036  1.00  0.00     0.002 C 
HETATM    7  C7  UNL     1      -1.660  52.168 -23.719  1.00  0.00    -0.004 C 
HETATM    8  C8  UNL     1      -0.476  51.617 -22.906  1.00  0.00     0.010 C 
HETATM    9  C9  UNL     1      -0.936  50.939 -21.613  1.00  0.00     0.035 C 
HETATM   10  C10 UNL     1      -2.049  49.936 -21.803  1.00  0.00    -0.069 C 
HETATM   11  C11 UNL     1      -1.986  48.738 -21.196  1.00  0.00     0.030 C 
HETATM   12  C12 UNL     1      -3.133  47.790 -21.210  1.00  0.00     0.032 C 
HETATM   13  N1  UNL     1      -2.965  46.623 -20.654  1.00  0.00    -0.271 N 
ATOM     14  H1  UNL     1      -2.088  46.302 -20.244  1.00  0.00     0.194 HD
HETATM   15  C24 UNL     1      -4.441  48.278 -21.802  1.00  0.00     0.060 C 
HETATM   16  C25 UNL     1      -4.173  49.189 -22.991  1.00  0.00     0.020 C 
HETATM   17  C26 UNL     1      -3.233  50.388 -22.657  1.00  0.00    -0.016 C 
HETATM   18  C27 UNL     1      -4.061  51.415 -21.842  1.00  0.00     0.020 C 
HETATM   19  C28 UNL     1      -2.708  51.057 -23.988  1.00  0.00     0.002 C 
HETATM   20  C29 UNL     1      -2.180  50.033 -25.028  1.00  0.00     0.007 C 
HETATM   21  C30 UNL     1      -1.081  50.528 -25.971  1.00  0.00     0.014 C 
HETATM   22  C31 UNL     1      -1.161  52.024 -26.320  1.00  0.00     0.003 C 
HETATM   23  C32 UNL     1      -2.409  52.233 -27.222  1.00  0.00     0.020 C 
ENDROOT
BRANCH   3  24
HETATM   24  O1  UNL     1      -0.041  52.665 -28.451  1.00  0.00    -0.377 OA
HETATM   25  H2  UNL     1       0.814  52.936 -28.824  1.00  0.00     0.211 HD
ENDBRANCH   3  24
BRANCH  13  26
HETATM   26  O2  UNL     1      -4.143  45.864 -20.693  1.00  0.00    -0.271 OA
BRANCH  26  27
HETATM   27  C13 UNL     1      -4.002  44.731 -19.841  1.00  0.00     0.303 C 
BRANCH  27  28
HETATM   28  C14 UNL     1      -4.561  45.038 -18.455  1.00  0.00     0.244 C 
HETATM   29  O3  UNL     1      -3.849  45.123 -17.456  1.00  0.00    -0.271 OA
HETATM   30  N2  UNL     1      -5.922  45.230 -18.412  1.00  0.00    -0.342 N 
HETATM   31  H16 UNL     1      -6.450  44.999 -19.248  1.00  0.00     0.163 HD
BRANCH  30  32
HETATM   32  C15 UNL     1      -6.653  45.372 -17.150  1.00  0.00     0.216 C 
BRANCH  32  33
HETATM   33  C16 UNL     1      -7.885  44.460 -17.109  1.00  0.00     0.166 C 
HETATM   34  O4  UNL     1      -8.395  43.908 -18.073  1.00  0.00    -0.648 OA
BRANCH  33  35
HETATM   35  O5  UNL     1      -8.381  44.230 -15.874  1.00  0.00    -0.775 OA
HETATM   36  H18 UNL     1      -9.183  43.690 -16.025  1.00  0.00     0.167 HD
ENDBRANCH  33  35
ENDBRANCH  32  33
BRANCH  32  37
HETATM   37  C17 UNL     1      -7.152  46.826 -16.937  1.00  0.00     0.184 C 
BRANCH  37  38
HETATM   38  O6  UNL     1      -7.595  47.037 -15.586  1.00  0.00    -0.388 OA
HETATM   39  H20 UNL     1      -8.218  47.785 -15.589  1.00  0.00     0.210 HD
ENDBRANCH  37  38
BRANCH  37  40
HETATM   40  C18 UNL     1      -8.273  47.221 -17.883  1.00  0.00    -0.025 A 
HETATM   41  C19 UNL     1      -7.976  47.610 -19.202  1.00  0.00     0.010 A 
HETATM   42  C20 UNL     1      -8.995  47.978 -20.085  1.00  0.00     0.003 A 
HETATM   43  C21 UNL     1     -10.327  47.963 -19.667  1.00  0.00     0.036 A 
HETATM   44  C22 UNL     1     -10.634  47.577 -18.355  1.00  0.00     0.103 A 
HETATM   45  C23 UNL     1      -9.617  47.208 -17.462  1.00  0.00     0.045 A 
BRANCH  44  46
HETATM   46  N3  UNL     1     -12.035  47.562 -17.912  1.00  0.00    -0.116 N 
HETATM   47  O7  UNL     1     -12.255  47.445 -16.698  1.00  0.00    -0.532 OA
HETATM   48  O8  UNL     1     -12.915  47.676 -18.779  1.00  0.00    -0.532 OA
ENDBRANCH  44  46
ENDBRANCH  37  40
ENDBRANCH  32  37
ENDBRANCH  30  32
ENDBRANCH  27  28
ENDBRANCH  26  27
ENDBRANCH  13  26
TORSDOF 11
ENDMDL
MODEL 8
REMARK minimizedAffinity -8.35044003
REMARK CNNscore 0.200002819
REMARK CNNaffinity 6.5718255
REMARK  11 active torsions:
REMARK  status: ('A' for Active; 'I' for Inactive)
REMARK    1  A    between atoms: C3_3  and  O1_4 
REMARK    2  A    between atoms: N1_14  and  O2_16 
REMARK    3  A    between atoms: O2_16  and  C13_17 
REMARK    4  A    between atoms: C13_17  and  C14_18 
REMARK       I    between atoms: C14_18  and  N2_20 
REMARK    5  A    between atoms: N2_20  and  C15_21 
REMARK    6  A    between atoms: C15_21  and  C16_22 
REMARK    7  A    between atoms: C15_21  and  C17_25 
REMARK    8  A    between atoms: C16_22  and  O5_24 
REMARK    9  A    between atoms: C17_25  and  O6_26 
REMARK   10  A    between atoms: C17_25  and  C18_27 
REMARK   11  A    between atoms: C22_31  and  N3_32 
ROOT
HETATM    1  C1  UNL     1       5.874  52.887  -7.399  1.00  0.00     0.015 C 
HETATM    2  C2  UNL     1       5.665  53.846  -8.093  1.00  0.00    -0.078 C 
HETATM    3  C3  UNL     1       5.438  55.040  -8.939  1.00  0.00     0.128 C 
HETATM    4  C4  UNL     1       5.260  56.277  -8.049  1.00  0.00     0.052 C 
HETATM    5  C5  UNL     1       3.794  56.207  -7.647  1.00  0.00     0.010 C 
HETATM    6  C6  UNL     1       3.084  55.842  -8.955  1.00  0.00     0.002 C 
HETATM    7  C7  UNL     1       1.653  55.266  -8.827  1.00  0.00    -0.004 C 
HETATM    8  C8  UNL     1       1.412  54.270  -7.679  1.00  0.00     0.010 C 
HETATM    9  C9  UNL     1      -0.042  53.793  -7.632  1.00  0.00     0.035 C 
HETATM   10  C10 UNL     1      -0.579  53.317  -8.961  1.00  0.00    -0.069 C 
HETATM   11  C11 UNL     1      -1.286  52.175  -9.030  1.00  0.00     0.030 C 
HETATM   12  C12 UNL     1      -1.982  51.757 -10.277  1.00  0.00     0.032 C 
HETATM   13  N1  UNL     1      -2.590  50.604 -10.279  1.00  0.00    -0.271 N 
ATOM     14  H1  UNL     1      -2.587  49.951  -9.495  1.00  0.00     0.194 HD
HETATM   15  C24 UNL     1      -2.002  52.738 -11.433  1.00  0.00     0.060 C 
HETATM   16  C25 UNL     1      -0.687  53.502 -11.497  1.00  0.00     0.020 C 
HETATM   17  C26 UNL     1      -0.320  54.222 -10.163  1.00  0.00    -0.016 C 
HETATM   18  C27 UNL     1      -1.233  55.471 -10.043  1.00  0.00     0.020 C 
HETATM   19  C28 UNL     1       1.195  54.667 -10.181  1.00  0.00     0.002 C 
HETATM   20  C29 UNL     1       2.162  53.546 -10.651  1.00  0.00     0.007 C 
HETATM   21  C30 UNL     1       3.583  53.593 -10.083  1.00  0.00     0.014 C 
HETATM   22  C31 UNL     1       4.111  55.008  -9.791  1.00  0.00     0.003 C 
HETATM   23  C32 UNL     1       4.338  55.718 -11.156  1.00  0.00     0.020 C 
ENDROOT
BRANCH   3  24
HETATM   24  O1  UNL     1       6.592  55.214  -9.753  1.00  0.00    -0.377 OA
HETATM   25  H2  UNL     1       7.366  55.135  -9.170  1.00  0.00     0.211 HD
ENDBRANCH   3  24
BRANCH  13  26
HETATM   26  O2  UNL     1      -3.246  50.373 -11.495  1.00  0.00    -0.271 OA
BRANCH  26  27
HETATM   27  C13 UNL     1      -3.140  48.994 -11.835  1.00  0.00     0.303 C 
BRANCH  27  28
HETATM   28  C14 UNL     1      -2.082  48.794 -12.916  1.00  0.00     0.244 C 
HETATM   29  O3  UNL     1      -1.156  47.995 -12.800  1.00  0.00    -0.271 OA
HETATM   30  N2  UNL     1      -2.255  49.567 -14.041  1.00  0.00    -0.342 N 
HETATM   31  H16 UNL     1      -2.955  50.302 -13.995  1.00  0.00     0.163 HD
BRANCH  30  32
HETATM   32  C15 UNL     1      -1.253  49.631 -15.108  1.00  0.00     0.216 C 
BRANCH  32  33
HETATM   33  C16 UNL     1      -1.175  48.311 -15.884  1.00  0.00     0.166 C 
HETATM   34  O4  UNL     1      -1.437  47.204 -15.436  1.00  0.00    -0.648 OA
BRANCH  33  35
HETATM   35  O5  UNL     1      -0.838  48.437 -17.186  1.00  0.00    -0.775 OA
HETATM   36  H18 UNL     1      -0.774  47.518 -17.517  1.00  0.00     0.167 HD
ENDBRANCH  33  35
ENDBRANCH  32  33
BRANCH  32  37
HETATM   37  C17 UNL     1       0.165  49.916 -14.545  1.00  0.00     0.184 C 
BRANCH  37  38
HETATM   38  O6  UNL     1       0.105  50.415 -13.198  1.00  0.00    -0.388 OA
HETATM   39  H20 UNL     1       0.923  50.915 -13.028  1.00  0.00     0.210 HD
ENDBRANCH  37  38
BRANCH  37  40
HETATM   40  C18 UNL     1       0.962  50.894 -15.392  1.00  0.00    -0.025 A 
HETATM   41  C19 UNL     1       2.220  51.342 -14.951  1.00  0.00     0.010 A 
HETATM   42  C20 UNL     1       2.966  52.244 -15.717  1.00  0.00     0.003 A 
HETATM   43  C21 UNL     1       2.468  52.712 -16.934  1.00  0.00     0.036 A 
HETATM   44  C22 UNL     1       1.214  52.272 -17.381  1.00  0.00     0.103 A 
HETATM   45  C23 UNL     1       0.459  51.369 -16.618  1.00  0.00     0.045 A 
BRANCH  44  46
HETATM   46  N3  UNL     1       0.687  52.765 -18.661  1.00  0.00    -0.116 N 
HETATM   47  O7  UNL     1      -0.543  52.770 -18.816  1.00  0.00    -0.532 OA
HETATM   48  O8  UNL     1       1.503  53.156 -19.510  1.00  0.00    -0.532 OA
ENDBRANCH  44  46
ENDBRANCH  37  40
ENDBRANCH  32  37
ENDBRANCH  30  32
ENDBRANCH  27  28
ENDBRANCH  26  27
ENDBRANCH  13  26
TORSDOF 11
ENDMDL
MODEL 9
REMARK minimizedAffinity -10.1831684
REMARK CNNscore 0.185847655
REMARK CNNaffinity 6.3733716
REMARK  11 active torsions:
REMARK  status: ('A' for Active; 'I' for Inactive)
REMARK    1  A    between atoms: C3_3  and  O1_4 
REMARK    2  A    between atoms: N1_14  and  O2_16 
REMARK    3  A    between atoms: O2_16  and  C13_17 
REMARK    4  A    between atoms: C13_17  and  C14_18 
REMARK       I    between atoms: C14_18  and  N2_20 
REMARK    5  A    between atoms: N2_20  and  C15_21 
REMARK    6  A    between atoms: C15_21  and  C16_22 
REMARK    7  A    between atoms: C15_21  and  C17_25 
REMARK    8  A    between atoms: C16_22  and  O5_24 
REMARK    9  A    between atoms: C17_25  and  O6_26 
REMARK   10  A    between atoms: C17_25  and  C18_27 
REMARK   11  A    between atoms: C22_31  and  N3_32 
ROOT
HETATM    1  C1  UNL     1      -6.315  47.820 -22.041  1.00  0.00     0.015 C 
HETATM    2  C2  UNL     1      -5.871  48.657 -22.781  1.00  0.00    -0.078 C 
HETATM    3  C3  UNL     1      -5.347  49.679 -23.716  1.00  0.00     0.128 C 
HETATM    4  C4  UNL     1      -4.611  48.990 -24.873  1.00  0.00     0.052 C 
HETATM    5  C5  UNL     1      -3.228  48.721 -24.295  1.00  0.00     0.010 C 
HETATM    6  C6  UNL     1      -2.888  50.027 -23.568  1.00  0.00     0.002 C 
HETATM    7  C7  UNL     1      -1.761  49.954 -22.510  1.00  0.00    -0.004 C 
HETATM    8  C8  UNL     1      -1.739  48.707 -21.609  1.00  0.00     0.010 C 
HETATM    9  C9  UNL     1      -0.566  48.730 -20.627  1.00  0.00     0.035 C 
HETATM   10  C10 UNL     1      -0.427  50.024 -19.861  1.00  0.00    -0.069 C 
HETATM   11  C11 UNL     1      -0.199  49.999 -18.535  1.00  0.00     0.030 C 
HETATM   12  C12 UNL     1       0.118  51.235 -17.771  1.00  0.00     0.032 C 
HETATM   13  N1  UNL     1       0.260  51.134 -16.479  1.00  0.00    -0.271 N 
ATOM     14  H1  UNL     1       0.130  50.270 -15.953  1.00  0.00     0.194 HD
HETATM   15  C24 UNL     1       0.331  52.514 -18.559  1.00  0.00     0.060 C 
HETATM   16  C25 UNL     1      -0.613  52.560 -19.752  1.00  0.00     0.020 C 
HETATM   17  C26 UNL     1      -0.505  51.311 -20.679  1.00  0.00    -0.016 C 
HETATM   18  C27 UNL     1       0.805  51.452 -21.497  1.00  0.00     0.020 C 
HETATM   19  C28 UNL     1      -1.743  51.249 -21.658  1.00  0.00     0.002 C 
HETATM   20  C29 UNL     1      -3.106  51.465 -20.945  1.00  0.00     0.007 C 
HETATM   21  C30 UNL     1      -4.319  50.779 -21.576  1.00  0.00     0.014 C 
HETATM   22  C31 UNL     1      -4.253  50.639 -23.106  1.00  0.00     0.003 C 
HETATM   23  C32 UNL     1      -4.395  52.061 -23.717  1.00  0.00     0.020 C 
ENDROOT
BRANCH   3  24
HETATM   24  O1  UNL     1      -6.460  50.397 -24.234  1.00  0.00    -0.377 OA
HETATM   25  H2  UNL     1      -7.121  49.739 -24.508  1.00  0.00     0.211 HD
ENDBRANCH   3  24
BRANCH  13  26
HETATM   26  O2  UNL     1       0.612  52.362 -15.904  1.00  0.00    -0.271 OA
BRANCH  26  27
HETATM   27  C13 UNL     1       1.804  52.202 -15.141  1.00  0.00     0.303 C 
BRANCH  27  28
HETATM   28  C14 UNL     1       1.468  51.748 -13.724  1.00  0.00     0.244 C 
HETATM   29  O3  UNL     1       1.428  50.562 -13.399  1.00  0.00    -0.271 OA
HETATM   30  N2  UNL     1       1.231  52.768 -12.833  1.00  0.00    -0.342 N 
HETATM   31  H16 UNL     1       1.140  53.705 -13.214  1.00  0.00     0.163 HD
BRANCH  30  32
HETATM   32  C15 UNL     1       0.736  52.522 -11.476  1.00  0.00     0.216 C 
BRANCH  32  33
HETATM   33  C16 UNL     1      -0.729  52.071 -11.486  1.00  0.00     0.166 C 
HETATM   34  O4  UNL     1      -1.219  51.220 -10.757  1.00  0.00    -0.648 OA
BRANCH  33  35
HETATM   35  O5  UNL     1      -1.523  52.739 -12.351  1.00  0.00    -0.775 OA
HETATM   36  H18 UNL     1      -2.395  52.300 -12.279  1.00  0.00     0.167 HD
ENDBRANCH  33  35
ENDBRANCH  32  33
BRANCH  32  37
HETATM   37  C17 UNL     1       0.817  53.798 -10.597  1.00  0.00     0.184 C 
BRANCH  37  38
HETATM   38  O6  UNL     1      -0.070  54.823 -11.077  1.00  0.00    -0.388 OA
HETATM   39  H20 UNL     1       0.267  55.681 -10.763  1.00  0.00     0.210 HD
ENDBRANCH  37  38
BRANCH  37  40
HETATM   40  C18 UNL     1       2.219  54.374 -10.500  1.00  0.00    -0.025 A 
HETATM   41  C19 UNL     1       2.462  55.703 -10.890  1.00  0.00     0.010 A 
HETATM   42  C20 UNL     1       3.747  56.249 -10.809  1.00  0.00     0.003 A 
HETATM   43  C21 UNL     1       4.810  55.475 -10.339  1.00  0.00     0.036 A 
HETATM   44  C22 UNL     1       4.579  54.149  -9.949  1.00  0.00     0.103 A 
HETATM   45  C23 UNL     1       3.293  53.594 -10.028  1.00  0.00     0.045 A 
BRANCH  44  46
HETATM   46  N3  UNL     1       5.697  53.333  -9.455  1.00  0.00    -0.116 N 
HETATM   47  O7  UNL     1       5.447  52.177  -9.084  1.00  0.00    -0.532 OA
HETATM   48  O8  UNL     1       6.826  53.846  -9.447  1.00  0.00    -0.532 OA
ENDBRANCH  44  46
ENDBRANCH  37  40
ENDBRANCH  32  37
ENDBRANCH  30  32
ENDBRANCH  27  28
ENDBRANCH  26  27
ENDBRANCH  13  26
TORSDOF 11
ENDMDL
