MODEL 1
REMARK minimizedAffinity -7.23778963
REMARK  10 active torsions:
REMARK  status: ('A' for Active; 'I' for Inactive)
REMARK    1  A    between atoms: C5_5  and  C6_6 
REMARK    2  A    between atoms: C6_6  and  C8_8 
REMARK    3  A    between atoms: C8_8  and  O1_9 
REMARK    4  A    between atoms: O1_9  and  C9_10 
REMARK    5  A    between atoms: C14_17  and  O4_18 
REMARK    6  A    between atoms: C17_21  and  O5_22 
REMARK    7  A    between atoms: C20_25  and  O6_27 
REMARK    8  A    between atoms: O6_27  and  C22_28 
REMARK    9  A    between atoms: C22_28  and  C23_30 
REMARK   10  A    between atoms: C23_30  and  C24_31 
ROOT
HETATM    1  C1  UNL     1       2.718   7.327  15.800  1.00  0.00     0.015 C 
HETATM    2  C2  UNL     1       2.217   8.038  14.775  1.00  0.00    -0.082 C 
HETATM    3  C3  UNL     1       3.055   8.239  13.534  1.00  0.00     0.034 C 
HETATM    4  C4  UNL     1       2.201   8.488  12.288  1.00  0.00     0.010 C 
HETATM    5  C5  UNL     1       0.911   7.639  12.278  1.00  0.00    -0.001 C 
HETATM    6  C11 UNL     1       0.049   7.958  13.542  1.00  0.00     0.033 C 
HETATM    7  C12 UNL     1      -0.575   6.751  14.289  1.00  0.00     0.162 C 
HETATM    8  O3  UNL     1      -0.820   7.192  15.648  1.00  0.00    -0.373 OA
HETATM    9  C13 UNL     1      -0.119   8.433  15.880  1.00  0.00     0.163 C 
HETATM   10  C14 UNL     1      -1.156   9.577  16.097  1.00  0.00     0.178 C 
HETATM   11  C15 UNL     1      -2.383   9.567  15.199  1.00  0.00    -0.030 C 
HETATM   12  C16 UNL     1      -2.581  10.527  14.276  1.00  0.00     0.019 C 
HETATM   13  C17 UNL     1      -3.400   8.472  15.458  1.00  0.00     0.149 C 
HETATM   14  C18 UNL     1      -3.947   7.709  14.250  1.00  0.00     0.039 C 
HETATM   15  C19 UNL     1      -2.967   7.090  13.246  1.00  0.00     0.044 C 
HETATM   16  C20 UNL     1      -1.861   6.083  13.698  1.00  0.00     0.093 C 
HETATM   17  C21 UNL     1      -2.474   5.065  14.683  1.00  0.00     0.049 C 
HETATM   18  C26 UNL     1       0.819   8.641  14.684  1.00  0.00     0.052 C 
ENDROOT
BRANCH   5  19
HETATM   19  C6  UNL     1       0.097   7.801  10.949  1.00  0.00     0.010 C 
HETATM   20  C7  UNL     1      -0.870   8.992  10.951  1.00  0.00     0.012 C 
BRANCH  19  21
HETATM   21  C8  UNL     1       1.000   7.819   9.694  1.00  0.00     0.183 C 
BRANCH  21  22
HETATM   22  O1  UNL     1       1.460   6.515   9.311  1.00  0.00    -0.321 OA
BRANCH  22  23
HETATM   23  C9  UNL     1       2.395   6.458   8.326  1.00  0.00     0.254 C 
HETATM   24  C10 UNL     1       2.152   7.546   7.327  1.00  0.00     0.126 C 
HETATM   25  O2  UNL     1       3.310   5.650   8.248  1.00  0.00    -0.266 OA
ENDBRANCH  22  23
ENDBRANCH  21  22
ENDBRANCH  19  21
ENDBRANCH   5  19
BRANCH  16  26
HETATM   26  O6  UNL     1      -1.559   5.370  12.446  1.00  0.00    -0.308 OA
BRANCH  26  27
HETATM   27  C22 UNL     1      -2.220   4.239  12.077  1.00  0.00     0.259 C 
HETATM   28  O7  UNL     1      -3.429   4.080  12.099  1.00  0.00    -0.265 OA
BRANCH  27  29
HETATM   29  C23 UNL     1      -1.209   3.204  11.632  1.00  0.00     0.111 C 
BRANCH  29  30
HETATM   30  C24 UNL     1      -1.849   1.944  11.052  1.00  0.00     0.005 C 
HETATM   31  C25 UNL     1      -0.829   0.858  10.732  1.00  0.00     0.005 C 
ENDBRANCH  29  30
ENDBRANCH  27  29
ENDBRANCH  26  27
ENDBRANCH  16  26
BRANCH  10  32
HETATM   32  O4  UNL     1      -1.633   9.542  17.453  1.00  0.00    -0.389 OA
HETATM   33  H21 UNL     1      -1.780   8.605  17.676  1.00  0.00     0.210 HD
ENDBRANCH  10  32
BRANCH  13  34
HETATM   34  O5  UNL     1      -4.521   9.069  16.123  1.00  0.00    -0.391 OA
HETATM   35  H25 UNL     1      -4.169   9.783  16.686  1.00  0.00     0.210 HD
ENDBRANCH  13  34
TORSDOF 10
ENDMDL
MODEL 2
REMARK minimizedAffinity -7.03770876
REMARK  10 active torsions:
REMARK  status: ('A' for Active; 'I' for Inactive)
REMARK    1  A    between atoms: C5_5  and  C6_6 
REMARK    2  A    between atoms: C6_6  and  C8_8 
REMARK    3  A    between atoms: C8_8  and  O1_9 
REMARK    4  A    between atoms: O1_9  and  C9_10 
REMARK    5  A    between atoms: C14_17  and  O4_18 
REMARK    6  A    between atoms: C17_21  and  O5_22 
REMARK    7  A    between atoms: C20_25  and  O6_27 
REMARK    8  A    between atoms: O6_27  and  C22_28 
REMARK    9  A    between atoms: C22_28  and  C23_30 
REMARK   10  A    between atoms: C23_30  and  C24_31 
ROOT
HETATM    1  C1  UNL     1      -0.879   2.497  11.729  1.00  0.00     0.015 C 
HETATM    2  C2  UNL     1      -1.625   3.601  11.560  1.00  0.00    -0.082 C 
HETATM    3  C3  UNL     1      -3.115   3.532  11.797  1.00  0.00     0.034 C 
HETATM    4  C4  UNL     1      -3.710   4.890  12.176  1.00  0.00     0.010 C 
HETATM    5  C5  UNL     1      -2.772   5.711  13.089  1.00  0.00    -0.001 C 
HETATM    6  C11 UNL     1      -1.403   5.950  12.374  1.00  0.00     0.033 C 
HETATM    7  C12 UNL     1      -0.123   5.758  13.228  1.00  0.00     0.162 C 
HETATM    8  O3  UNL     1       0.952   5.477  12.296  1.00  0.00    -0.373 OA
HETATM    9  C13 UNL     1       0.393   5.167  11.002  1.00  0.00     0.163 C 
HETATM   10  C14 UNL     1       0.789   6.285   9.989  1.00  0.00     0.178 C 
HETATM   11  C15 UNL     1       0.747   7.716  10.500  1.00  0.00    -0.030 C 
HETATM   12  C16 UNL     1      -0.156   8.599  10.031  1.00  0.00     0.019 C 
HETATM   13  C17 UNL     1       1.821   8.110  11.496  1.00  0.00     0.149 C 
HETATM   14  C18 UNL     1       1.387   8.884  12.741  1.00  0.00     0.039 C 
HETATM   15  C19 UNL     1       0.248   8.336  13.608  1.00  0.00     0.044 C 
HETATM   16  C20 UNL     1       0.302   6.897  14.215  1.00  0.00     0.093 C 
HETATM   17  C21 UNL     1       1.708   6.645  14.797  1.00  0.00     0.049 C 
HETATM   18  C26 UNL     1      -1.118   4.995  11.204  1.00  0.00     0.052 C 
ENDROOT
BRANCH   5  19
HETATM   19  C6  UNL     1      -3.428   7.048  13.575  1.00  0.00     0.010 C 
HETATM   20  C7  UNL     1      -3.031   8.276  12.746  1.00  0.00     0.012 C 
BRANCH  19  21
HETATM   21  C8  UNL     1      -4.965   6.943  13.715  1.00  0.00     0.183 C 
BRANCH  21  22
HETATM   22  O1  UNL     1      -5.378   6.290  14.925  1.00  0.00    -0.321 OA
BRANCH  22  23
HETATM   23  C9  UNL     1      -6.617   5.731  14.928  1.00  0.00     0.254 C 
HETATM   24  C10 UNL     1      -7.159   5.679  13.534  1.00  0.00     0.126 C 
HETATM   25  O2  UNL     1      -7.219   5.323  15.912  1.00  0.00    -0.266 OA
ENDBRANCH  22  23
ENDBRANCH  21  22
ENDBRANCH  19  21
ENDBRANCH   5  19
BRANCH  16  26
HETATM   26  O6  UNL     1      -0.640   6.998  15.341  1.00  0.00    -0.308 OA
BRANCH  26  27
HETATM   27  C22 UNL     1      -0.654   8.068  16.181  1.00  0.00     0.259 C 
HETATM   28  O7  UNL     1       0.326   8.665  16.594  1.00  0.00    -0.265 OA
BRANCH  27  29
HETATM   29  C23 UNL     1      -2.090   8.403  16.524  1.00  0.00     0.111 C 
BRANCH  29  30
HETATM   30  C24 UNL     1      -2.317   9.889  16.794  1.00  0.00     0.005 C 
HETATM   31  C25 UNL     1      -2.702  10.174  18.240  1.00  0.00     0.005 C 
ENDBRANCH  29  30
ENDBRANCH  27  29
ENDBRANCH  26  27
ENDBRANCH  16  26
BRANCH  10  32
HETATM   32  O4  UNL     1       2.126   6.052   9.516  1.00  0.00    -0.389 OA
HETATM   33  H21 UNL     1       2.656   5.785  10.289  1.00  0.00     0.210 HD
ENDBRANCH  10  32
BRANCH  13  34
HETATM   34  O5  UNL     1       2.777   8.925  10.803  1.00  0.00    -0.391 OA
HETATM   35  H25 UNL     1       2.821   8.593   9.887  1.00  0.00     0.210 HD
ENDBRANCH  13  34
TORSDOF 10
ENDMDL
MODEL 3
REMARK minimizedAffinity -6.34261703
REMARK  10 active torsions:
REMARK  status: ('A' for Active; 'I' for Inactive)
REMARK    1  A    between atoms: C5_5  and  C6_6 
REMARK    2  A    between atoms: C6_6  and  C8_8 
REMARK    3  A    between atoms: C8_8  and  O1_9 
REMARK    4  A    between atoms: O1_9  and  C9_10 
REMARK    5  A    between atoms: C14_17  and  O4_18 
REMARK    6  A    between atoms: C17_21  and  O5_22 
REMARK    7  A    between atoms: C20_25  and  O6_27 
REMARK    8  A    between atoms: O6_27  and  C22_28 
REMARK    9  A    between atoms: C22_28  and  C23_30 
REMARK   10  A    between atoms: C23_30  and  C24_31 
ROOT
HETATM    1  C1  UNL     1      -0.363   9.012   8.747  1.00  0.00     0.015 C 
HETATM    2  C2  UNL     1       0.404   7.948   9.042  1.00  0.00    -0.082 C 
HETATM    3  C3  UNL     1       1.431   7.476   8.042  1.00  0.00     0.034 C 
HETATM    4  C4  UNL     1       2.590   6.725   8.705  1.00  0.00     0.010 C 
HETATM    5  C5  UNL     1       2.991   7.341  10.064  1.00  0.00    -0.001 C 
HETATM    6  C11 UNL     1       1.769   7.331  11.038  1.00  0.00     0.033 C 
HETATM    7  C12 UNL     1       1.524   8.617  11.869  1.00  0.00     0.162 C 
HETATM    8  O3  UNL     1       0.120   8.607  12.234  1.00  0.00    -0.373 OA
HETATM    9  C13 UNL     1      -0.571   7.614  11.446  1.00  0.00     0.163 C 
HETATM   10  C14 UNL     1      -1.071   6.471  12.380  1.00  0.00     0.178 C 
HETATM   11  C15 UNL     1      -0.122   6.024  13.481  1.00  0.00    -0.030 C 
HETATM   12  C16 UNL     1       0.441   4.801  13.466  1.00  0.00     0.019 C 
HETATM   13  C17 UNL     1       0.086   6.995  14.628  1.00  0.00     0.149 C 
HETATM   14  C18 UNL     1       1.521   7.247  15.096  1.00  0.00     0.039 C 
HETATM   15  C19 UNL     1       2.589   7.638  14.067  1.00  0.00     0.044 C 
HETATM   16  C20 UNL     1       2.409   8.878  13.133  1.00  0.00     0.093 C 
HETATM   17  C21 UNL     1       1.875  10.064  13.963  1.00  0.00     0.049 C 
HETATM   18  C26 UNL     1       0.404   7.164  10.350  1.00  0.00     0.052 C 
ENDROOT
BRANCH   5  19
HETATM   19  C6  UNL     1       4.252   6.651  10.686  1.00  0.00     0.010 C 
HETATM   20  C7  UNL     1       4.528   5.245  10.138  1.00  0.00     0.012 C 
BRANCH  19  21
HETATM   21  C8  UNL     1       5.517   7.537  10.609  1.00  0.00     0.183 C 
BRANCH  21  22
HETATM   22  O1  UNL     1       6.622   7.009  11.355  1.00  0.00    -0.321 OA
BRANCH  22  23
HETATM   23  C9  UNL     1       7.096   7.772  12.375  1.00  0.00     0.254 C 
HETATM   24  C10 UNL     1       6.752   7.142  13.688  1.00  0.00     0.126 C 
HETATM   25  O2  UNL     1       7.715   8.821  12.261  1.00  0.00    -0.266 OA
ENDBRANCH  22  23
ENDBRANCH  21  22
ENDBRANCH  19  21
ENDBRANCH   5  19
BRANCH  16  26
HETATM   26  O6  UNL     1       3.796   9.185  12.752  1.00  0.00    -0.308 OA
BRANCH  26  27
HETATM   27  C22 UNL     1       4.537  10.125  13.401  1.00  0.00     0.259 C 
HETATM   28  O7  UNL     1       4.865  10.089  14.575  1.00  0.00    -0.265 OA
BRANCH  27  29
HETATM   29  C23 UNL     1       4.891  11.228  12.427  1.00  0.00     0.111 C 
BRANCH  29  30
HETATM   30  C24 UNL     1       5.883  12.241  12.995  1.00  0.00     0.005 C 
HETATM   31  C25 UNL     1       6.163  13.393  12.038  1.00  0.00     0.005 C 
ENDBRANCH  29  30
ENDBRANCH  27  29
ENDBRANCH  26  27
ENDBRANCH  16  26
BRANCH  10  32
HETATM   32  O4  UNL     1      -2.292   6.874  13.022  1.00  0.00    -0.389 OA
HETATM   33  H21 UNL     1      -2.176   7.803  13.290  1.00  0.00     0.210 HD
ENDBRANCH  10  32
BRANCH  13  34
HETATM   34  O5  UNL     1      -0.644   6.496  15.757  1.00  0.00    -0.391 OA
HETATM   35  H25 UNL     1      -1.441   6.056  15.406  1.00  0.00     0.210 HD
ENDBRANCH  13  34
TORSDOF 10
ENDMDL
MODEL 4
REMARK minimizedAffinity -6.33342886
REMARK  10 active torsions:
REMARK  status: ('A' for Active; 'I' for Inactive)
REMARK    1  A    between atoms: C5_5  and  C6_6 
REMARK    2  A    between atoms: C6_6  and  C8_8 
REMARK    3  A    between atoms: C8_8  and  O1_9 
REMARK    4  A    between atoms: O1_9  and  C9_10 
REMARK    5  A    between atoms: C14_17  and  O4_18 
REMARK    6  A    between atoms: C17_21  and  O5_22 
REMARK    7  A    between atoms: C20_25  and  O6_27 
REMARK    8  A    between atoms: O6_27  and  C22_28 
REMARK    9  A    between atoms: C22_28  and  C23_30 
REMARK   10  A    between atoms: C23_30  and  C24_31 
ROOT
HETATM    1  C1  UNL     1       3.986  16.090  22.724  1.00  0.00     0.015 C 
HETATM    2  C2  UNL     1       4.155  14.805  23.077  1.00  0.00    -0.082 C 
HETATM    3  C3  UNL     1       2.960  13.999  23.529  1.00  0.00     0.034 C 
HETATM    4  C4  UNL     1       3.149  12.497  23.299  1.00  0.00     0.010 C 
HETATM    5  C5  UNL     1       3.892  12.191  21.980  1.00  0.00    -0.001 C 
HETATM    6  C11 UNL     1       5.298  12.873  21.987  1.00  0.00     0.033 C 
HETATM    7  C12 UNL     1       5.735  13.593  20.685  1.00  0.00     0.162 C 
HETATM    8  O3  UNL     1       6.731  14.574  21.073  1.00  0.00    -0.373 OA
HETATM    9  C13 UNL     1       6.706  14.736  22.508  1.00  0.00     0.163 C 
HETATM   10  C14 UNL     1       8.046  14.213  23.108  1.00  0.00     0.178 C 
HETATM   11  C15 UNL     1       8.611  12.935  22.509  1.00  0.00    -0.030 C 
HETATM   12  C16 UNL     1       8.670  11.795  23.223  1.00  0.00     0.019 C 
HETATM   13  C17 UNL     1       9.175  13.039  21.104  1.00  0.00     0.149 C 
HETATM   14  C18 UNL     1       8.780  11.957  20.097  1.00  0.00     0.039 C 
HETATM   15  C19 UNL     1       7.297  11.629  19.889  1.00  0.00     0.044 C 
HETATM   16  C20 UNL     1       6.265  12.732  19.489  1.00  0.00     0.093 C 
HETATM   17  C21 UNL     1       6.872  13.616  18.380  1.00  0.00     0.049 C 
HETATM   18  C26 UNL     1       5.453  14.008  23.013  1.00  0.00     0.052 C 
ENDROOT
BRANCH   5  19
HETATM   19  C6  UNL     1       3.979  10.656  21.683  1.00  0.00     0.010 C 
HETATM   20  C7  UNL     1       4.542   9.826  22.844  1.00  0.00     0.012 C 
BRANCH  19  21
HETATM   21  C8  UNL     1       2.641  10.069  21.176  1.00  0.00     0.183 C 
BRANCH  21  22
HETATM   22  O1  UNL     1       2.534  10.061  19.745  1.00  0.00    -0.321 OA
BRANCH  22  23
HETATM   23  C9  UNL     1       1.389  10.565  19.213  1.00  0.00     0.254 C 
HETATM   24  C10 UNL     1       0.785  11.564  20.150  1.00  0.00     0.126 C 
HETATM   25  O2  UNL     1       0.905  10.263  18.130  1.00  0.00    -0.266 OA
ENDBRANCH  22  23
ENDBRANCH  21  22
ENDBRANCH  19  21
ENDBRANCH   5  19
BRANCH  16  26
HETATM   26  O6  UNL     1       5.180  11.939  18.888  1.00  0.00    -0.308 OA
BRANCH  26  27
HETATM   27  C22 UNL     1       5.174  11.597  17.571  1.00  0.00     0.259 C 
HETATM   28  O7  UNL     1       5.834  10.706  17.063  1.00  0.00    -0.265 OA
BRANCH  27  29
HETATM   29  C23 UNL     1       4.212  12.504  16.834  1.00  0.00     0.111 C 
BRANCH  29  30
HETATM   30  C24 UNL     1       3.248  11.748  15.921  1.00  0.00     0.005 C 
HETATM   31  C25 UNL     1       3.476  10.242  15.940  1.00  0.00     0.005 C 
ENDBRANCH  29  30
ENDBRANCH  27  29
ENDBRANCH  26  27
ENDBRANCH  16  26
BRANCH  10  32
HETATM   32  O4  UNL     1       9.061  15.222  22.968  1.00  0.00    -0.389 OA
HETATM   33  H21 UNL     1       8.959  15.602  22.077  1.00  0.00     0.210 HD
ENDBRANCH  10  32
BRANCH  13  34
HETATM   34  O5  UNL     1      10.605  13.019  21.208  1.00  0.00    -0.391 OA
HETATM   35  H25 UNL     1      10.835  13.469  22.042  1.00  0.00     0.210 HD
ENDBRANCH  13  34
TORSDOF 10
ENDMDL
MODEL 5
REMARK minimizedAffinity -6.25371075
REMARK  10 active torsions:
REMARK  status: ('A' for Active; 'I' for Inactive)
REMARK    1  A    between atoms: C5_5  and  C6_6 
REMARK    2  A    between atoms: C6_6  and  C8_8 
REMARK    3  A    between atoms: C8_8  and  O1_9 
REMARK    4  A    between atoms: O1_9  and  C9_10 
REMARK    5  A    between atoms: C14_17  and  O4_18 
REMARK    6  A    between atoms: C17_21  and  O5_22 
REMARK    7  A    between atoms: C20_25  and  O6_27 
REMARK    8  A    between atoms: O6_27  and  C22_28 
REMARK    9  A    between atoms: C22_28  and  C23_30 
REMARK   10  A    between atoms: C23_30  and  C24_31 
ROOT
HETATM    1  C1  UNL     1       4.017  12.845  12.914  1.00  0.00     0.015 C 
HETATM    2  C2  UNL     1       3.829  11.797  13.735  1.00  0.00    -0.082 C 
HETATM    3  C3  UNL     1       2.694  11.830  14.730  1.00  0.00     0.034 C 
HETATM    4  C4  UNL     1       2.223  10.428  15.125  1.00  0.00     0.010 C 
HETATM    5  C5  UNL     1       2.242   9.443  13.936  1.00  0.00    -0.001 C 
HETATM    6  C11 UNL     1       3.688   9.335  13.352  1.00  0.00     0.033 C 
HETATM    7  C12 UNL     1       3.824   9.353  11.807  1.00  0.00     0.162 C 
HETATM    8  O3  UNL     1       5.174   9.799  11.520  1.00  0.00    -0.373 OA
HETATM    9  C13 UNL     1       5.758  10.353  12.719  1.00  0.00     0.163 C 
HETATM   10  C14 UNL     1       6.938   9.446  13.182  1.00  0.00     0.178 C 
HETATM   11  C15 UNL     1       6.728   7.943  13.078  1.00  0.00    -0.030 C 
HETATM   12  C16 UNL     1       6.637   7.172  14.177  1.00  0.00     0.019 C 
HETATM   13  C17 UNL     1       6.709   7.361  11.677  1.00  0.00     0.149 C 
HETATM   14  C18 UNL     1       5.598   6.366  11.335  1.00  0.00     0.039 C 
HETATM   15  C19 UNL     1       4.138   6.747  11.608  1.00  0.00     0.044 C 
HETATM   16  C20 UNL     1       3.506   8.044  11.008  1.00  0.00     0.093 C 
HETATM   17  C21 UNL     1       3.920   8.172   9.527  1.00  0.00     0.049 C 
HETATM   18  C26 UNL     1       4.621  10.494  13.740  1.00  0.00     0.052 C 
ENDROOT
BRANCH   5  19
HETATM   19  C6  UNL     1       1.647   8.042  14.308  1.00  0.00     0.010 C 
HETATM   20  C7  UNL     1       1.792   7.677  15.791  1.00  0.00     0.012 C 
BRANCH  19  21
HETATM   21  C8  UNL     1       0.186   7.868  13.831  1.00  0.00     0.183 C 
BRANCH  21  22
HETATM   22  O1  UNL     1      -0.750   8.652  14.583  1.00  0.00    -0.321 OA
BRANCH  22  23
HETATM   23  C9  UNL     1      -1.693   7.973  15.289  1.00  0.00     0.254 C 
HETATM   24  C10 UNL     1      -2.507   7.120  14.366  1.00  0.00     0.126 C 
HETATM   25  O2  UNL     1      -1.867   8.031  16.498  1.00  0.00    -0.266 OA
ENDBRANCH  22  23
ENDBRANCH  21  22
ENDBRANCH  19  21
ENDBRANCH   5  19
BRANCH  16  26
HETATM   26  O6  UNL     1       2.068   7.737  11.048  1.00  0.00    -0.308 OA
BRANCH  26  27
HETATM   27  C22 UNL     1       1.489   6.858  10.186  1.00  0.00     0.259 C 
HETATM   28  O7  UNL     1       1.850   5.709   9.990  1.00  0.00    -0.265 OA
BRANCH  27  29
HETATM   29  C23 UNL     1       0.318   7.535   9.507  1.00  0.00     0.111 C 
BRANCH  29  30
HETATM   30  C24 UNL     1       0.724   8.371   8.295  1.00  0.00     0.005 C 
HETATM   31  C25 UNL     1       1.314   7.531   7.169  1.00  0.00     0.005 C 
ENDBRANCH  29  30
ENDBRANCH  27  29
ENDBRANCH  26  27
ENDBRANCH  16  26
BRANCH  10  32
HETATM   32  O4  UNL     1       8.112   9.756  12.414  1.00  0.00    -0.389 OA
HETATM   33  H21 UNL     1       7.824   9.867  11.491  1.00  0.00     0.210 HD
ENDBRANCH  10  32
BRANCH  13  34
HETATM   34  O5  UNL     1       7.958   6.686  11.472  1.00  0.00    -0.391 OA
HETATM   35  H25 UNL     1       8.634   7.186  11.965  1.00  0.00     0.210 HD
ENDBRANCH  13  34
TORSDOF 10
ENDMDL
MODEL 6
REMARK minimizedAffinity -6.16749859
REMARK  10 active torsions:
REMARK  status: ('A' for Active; 'I' for Inactive)
REMARK    1  A    between atoms: C5_5  and  C6_6 
REMARK    2  A    between atoms: C6_6  and  C8_8 
REMARK    3  A    between atoms: C8_8  and  O1_9 
REMARK    4  A    between atoms: O1_9  and  C9_10 
REMARK    5  A    between atoms: C14_17  and  O4_18 
REMARK    6  A    between atoms: C17_21  and  O5_22 
REMARK    7  A    between atoms: C20_25  and  O6_27 
REMARK    8  A    between atoms: O6_27  and  C22_28 
REMARK    9  A    between atoms: C22_28  and  C23_30 
REMARK   10  A    between atoms: C23_30  and  C24_31 
ROOT
HETATM    1  C1  UNL     1       3.451  13.419  13.735  1.00  0.00     0.015 C 
HETATM    2  C2  UNL     1       3.229  12.265  14.386  1.00  0.00    -0.082 C 
HETATM    3  C3  UNL     1       1.854  11.982  14.943  1.00  0.00     0.034 C 
HETATM    4  C4  UNL     1       1.577  10.482  15.079  1.00  0.00     0.010 C 
HETATM    5  C5  UNL     1       2.175   9.664  13.913  1.00  0.00    -0.001 C 
HETATM    6  C11 UNL     1       3.721   9.880  13.844  1.00  0.00     0.033 C 
HETATM    7  C12 UNL     1       4.335  10.104  12.438  1.00  0.00     0.162 C 
HETATM    8  O3  UNL     1       5.586  10.810  12.645  1.00  0.00    -0.373 OA
HETATM    9  C13 UNL     1       5.632  11.309  13.999  1.00  0.00     0.163 C 
HETATM   10  C14 UNL     1       6.761  10.573  14.782  1.00  0.00     0.178 C 
HETATM   11  C15 UNL     1       6.906   9.080  14.530  1.00  0.00    -0.030 C 
HETATM   12  C16 UNL     1       6.628   8.179  15.491  1.00  0.00     0.019 C 
HETATM   13  C17 UNL     1       7.454   8.674  13.175  1.00  0.00     0.149 C 
HETATM   14  C18 UNL     1       6.736   7.550  12.426  1.00  0.00     0.039 C 
HETATM   15  C19 UNL     1       5.220   7.636  12.213  1.00  0.00     0.044 C 
HETATM   16  C20 UNL     1       4.562   8.865  11.508  1.00  0.00     0.093 C 
HETATM   17  C21 UNL     1       5.391   9.238  10.261  1.00  0.00     0.049 C 
HETATM   18  C26 UNL     1       4.226  11.128  14.585  1.00  0.00     0.052 C 
ENDROOT
BRANCH   5  19
HETATM   19  C6  UNL     1       1.790   8.147  13.986  1.00  0.00     0.010 C 
HETATM   20  C7  UNL     1       2.598   7.347  15.017  1.00  0.00     0.012 C 
BRANCH  19  21
HETATM   21  C8  UNL     1       0.271   7.924  14.175  1.00  0.00     0.183 C 
BRANCH  21  22
HETATM   22  O1  UNL     1      -0.413   7.631  12.948  1.00  0.00    -0.321 OA
BRANCH  22  23
HETATM   23  C9  UNL     1      -0.824   8.693  12.206  1.00  0.00     0.254 C 
HETATM   24  C10 UNL     1      -0.297   8.576  10.810  1.00  0.00     0.126 C 
HETATM   25  O2  UNL     1      -1.523   9.617  12.598  1.00  0.00    -0.266 OA
ENDBRANCH  22  23
ENDBRANCH  21  22
ENDBRANCH  19  21
ENDBRANCH   5  19
BRANCH  16  26
HETATM   26  O6  UNL     1       3.280   8.310  11.045  1.00  0.00    -0.308 OA
BRANCH  26  27
HETATM   27  C22 UNL     1       3.212   7.227  10.225  1.00  0.00     0.259 C 
HETATM   28  O7  UNL     1       3.327   6.062  10.569  1.00  0.00    -0.265 OA
BRANCH  27  29
HETATM   29  C23 UNL     1       2.968   7.701   8.808  1.00  0.00     0.111 C 
BRANCH  29  30
HETATM   30  C24 UNL     1       2.447   6.601   7.884  1.00  0.00     0.005 C 
HETATM   31  C25 UNL     1       1.791   7.152   6.624  1.00  0.00     0.005 C 
ENDBRANCH  29  30
ENDBRANCH  27  29
ENDBRANCH  26  27
ENDBRANCH  16  26
BRANCH  10  32
HETATM   32  O4  UNL     1       8.030  11.171  14.470  1.00  0.00    -0.389 OA
HETATM   33  H21 UNL     1       8.035  11.340  13.511  1.00  0.00     0.210 HD
ENDBRANCH  10  32
BRANCH  13  34
HETATM   34  O5  UNL     1       8.812   8.256  13.364  1.00  0.00    -0.391 OA
HETATM   35  H25 UNL     1       9.179   8.804  14.083  1.00  0.00     0.210 HD
ENDBRANCH  13  34
TORSDOF 10
ENDMDL
MODEL 7
REMARK minimizedAffinity -6.1181736
REMARK  10 active torsions:
REMARK  status: ('A' for Active; 'I' for Inactive)
REMARK    1  A    between atoms: C5_5  and  C6_6 
REMARK    2  A    between atoms: C6_6  and  C8_8 
REMARK    3  A    between atoms: C8_8  and  O1_9 
REMARK    4  A    between atoms: O1_9  and  C9_10 
REMARK    5  A    between atoms: C14_17  and  O4_18 
REMARK    6  A    between atoms: C17_21  and  O5_22 
REMARK    7  A    between atoms: C20_25  and  O6_27 
REMARK    8  A    between atoms: O6_27  and  C22_28 
REMARK    9  A    between atoms: C22_28  and  C23_30 
REMARK   10  A    between atoms: C23_30  and  C24_31 
ROOT
HETATM    1  C1  UNL     1       7.731   7.937  15.442  1.00  0.00     0.015 C 
HETATM    2  C2  UNL     1       7.245   8.389  14.274  1.00  0.00    -0.082 C 
HETATM    3  C3  UNL     1       7.740   7.782  12.983  1.00  0.00     0.034 C 
HETATM    4  C4  UNL     1       6.721   7.914  11.848  1.00  0.00     0.010 C 
HETATM    5  C5  UNL     1       5.267   7.729  12.336  1.00  0.00    -0.001 C 
HETATM    6  C11 UNL     1       4.931   8.792  13.432  1.00  0.00     0.033 C 
HETATM    7  C12 UNL     1       4.160   8.291  14.681  1.00  0.00     0.162 C 
HETATM    8  O3  UNL     1       4.448   9.235  15.744  1.00  0.00    -0.373 OA
HETATM    9  C13 UNL     1       5.558  10.070  15.353  1.00  0.00     0.163 C 
HETATM   10  C14 UNL     1       5.062  11.537  15.177  1.00  0.00     0.178 C 
HETATM   11  C15 UNL     1       3.711  11.726  14.505  1.00  0.00    -0.030 C 
HETATM   12  C16 UNL     1       3.608  12.297  13.290  1.00  0.00     0.019 C 
HETATM   13  C17 UNL     1       2.493  11.314  15.311  1.00  0.00     0.149 C 
HETATM   14  C18 UNL     1       1.423  10.480  14.605  1.00  0.00     0.039 C 
HETATM   15  C19 UNL     1       1.834   9.206  13.857  1.00  0.00     0.044 C 
HETATM   16  C20 UNL     1       2.617   8.056  14.570  1.00  0.00     0.093 C 
HETATM   17  C21 UNL     1       1.984   7.794  15.952  1.00  0.00     0.049 C 
HETATM   18  C26 UNL     1       6.159   9.443  14.088  1.00  0.00     0.052 C 
ENDROOT
BRANCH   5  19
HETATM   19  C6  UNL     1       4.233   7.743  11.159  1.00  0.00     0.010 C 
HETATM   20  C7  UNL     1       4.570   8.742  10.044  1.00  0.00     0.012 C 
BRANCH  19  21
HETATM   21  C8  UNL     1       3.966   6.333  10.583  1.00  0.00     0.183 C 
BRANCH  21  22
HETATM   22  O1  UNL     1       2.783   6.270   9.773  1.00  0.00    -0.321 OA
BRANCH  22  23
HETATM   23  C9  UNL     1       2.927   5.776   8.514  1.00  0.00     0.254 C 
HETATM   24  C10 UNL     1       2.298   6.707   7.525  1.00  0.00     0.126 C 
HETATM   25  O2  UNL     1       3.484   4.730   8.211  1.00  0.00    -0.266 OA
ENDBRANCH  22  23
ENDBRANCH  21  22
ENDBRANCH  19  21
ENDBRANCH   5  19
BRANCH  16  26
HETATM   26  O6  UNL     1       2.319   6.898  13.712  1.00  0.00    -0.308 OA
BRANCH  26  27
HETATM   27  C22 UNL     1       1.138   6.771  13.048  1.00  0.00     0.259 C 
HETATM   28  O7  UNL     1       0.783   7.438  12.090  1.00  0.00    -0.265 OA
BRANCH  27  29
HETATM   29  C23 UNL     1       0.331   5.663  13.690  1.00  0.00     0.111 C 
BRANCH  29  30
HETATM   30  C24 UNL     1      -0.969   6.152  14.324  1.00  0.00     0.005 C 
HETATM   31  C25 UNL     1      -2.208   5.656  13.589  1.00  0.00     0.005 C 
ENDBRANCH  29  30
ENDBRANCH  27  29
ENDBRANCH  26  27
ENDBRANCH  16  26
BRANCH  10  32
HETATM   32  O4  UNL     1       4.979  12.174  16.463  1.00  0.00    -0.389 OA
HETATM   33  H21 UNL     1       4.591  11.523  17.075  1.00  0.00     0.210 HD
ENDBRANCH  10  32
BRANCH  13  34
HETATM   34  O5  UNL     1       1.856  12.510  15.778  1.00  0.00    -0.391 OA
HETATM   35  H25 UNL     1       2.564  13.161  15.945  1.00  0.00     0.210 HD
ENDBRANCH  13  34
TORSDOF 10
ENDMDL
MODEL 8
REMARK minimizedAffinity -6.11402273
REMARK  10 active torsions:
REMARK  status: ('A' for Active; 'I' for Inactive)
REMARK    1  A    between atoms: C5_5  and  C6_6 
REMARK    2  A    between atoms: C6_6  and  C8_8 
REMARK    3  A    between atoms: C8_8  and  O1_9 
REMARK    4  A    between atoms: O1_9  and  C9_10 
REMARK    5  A    between atoms: C14_17  and  O4_18 
REMARK    6  A    between atoms: C17_21  and  O5_22 
REMARK    7  A    between atoms: C20_25  and  O6_27 
REMARK    8  A    between atoms: O6_27  and  C22_28 
REMARK    9  A    between atoms: C22_28  and  C23_30 
REMARK   10  A    between atoms: C23_30  and  C24_31 
ROOT
HETATM    1  C1  UNL     1       1.710   6.462   8.867  1.00  0.00     0.015 C 
HETATM    2  C2  UNL     1       1.237   7.569   9.464  1.00  0.00    -0.082 C 
HETATM    3  C3  UNL     1       0.152   8.370   8.784  1.00  0.00     0.034 C 
HETATM    4  C4  UNL     1      -0.691   9.173   9.779  1.00  0.00     0.010 C 
HETATM    5  C5  UNL     1      -0.941   8.405  11.095  1.00  0.00    -0.001 C 
HETATM    6  C11 UNL     1       0.420   8.045  11.773  1.00  0.00     0.033 C 
HETATM    7  C12 UNL     1       0.560   6.612  12.348  1.00  0.00     0.162 C 
HETATM    8  O3  UNL     1       1.982   6.328  12.398  1.00  0.00    -0.373 OA
HETATM    9  C13 UNL     1       2.693   7.316  11.621  1.00  0.00     0.163 C 
HETATM   10  C14 UNL     1       3.574   8.182  12.572  1.00  0.00     0.178 C 
HETATM   11  C15 UNL     1       2.956   8.581  13.903  1.00  0.00    -0.030 C 
HETATM   12  C16 UNL     1       2.652   9.863  14.176  1.00  0.00     0.019 C 
HETATM   13  C17 UNL     1       2.782   7.472  14.924  1.00  0.00     0.149 C 
HETATM   14  C18 UNL     1       1.440   7.382  15.653  1.00  0.00     0.039 C 
HETATM   15  C19 UNL     1       0.142   7.356  14.837  1.00  0.00     0.044 C 
HETATM   16  C20 UNL     1      -0.104   6.284  13.727  1.00  0.00     0.093 C 
HETATM   17  C21 UNL     1       0.333   4.901  14.251  1.00  0.00     0.049 C 
HETATM   18  C26 UNL     1       1.636   8.104  10.835  1.00  0.00     0.052 C 
ENDROOT
BRANCH   5  19
HETATM   19  C6  UNL     1      -1.902   9.174  12.064  1.00  0.00     0.010 C 
HETATM   20  C7  UNL     1      -3.139   8.369  12.485  1.00  0.00     0.012 C 
BRANCH  19  21
HETATM   21  C8  UNL     1      -1.169   9.754  13.296  1.00  0.00     0.183 C 
BRANCH  21  22
HETATM   22  O1  UNL     1      -2.053  10.076  14.379  1.00  0.00    -0.321 OA
BRANCH  22  23
HETATM   23  C9  UNL     1      -2.324  11.393  14.579  1.00  0.00     0.254 C 
HETATM   24  C10 UNL     1      -3.501  11.540  15.493  1.00  0.00     0.126 C 
HETATM   25  O2  UNL     1      -1.711  12.335  14.097  1.00  0.00    -0.266 OA
ENDBRANCH  22  23
ENDBRANCH  21  22
ENDBRANCH  19  21
ENDBRANCH   5  19
BRANCH  16  26
HETATM   26  O6  UNL     1      -1.572   6.280  13.618  1.00  0.00    -0.308 OA
BRANCH  26  27
HETATM   27  C22 UNL     1      -2.242   5.353  12.881  1.00  0.00     0.259 C 
HETATM   28  O7  UNL     1      -1.919   4.950  11.776  1.00  0.00    -0.265 OA
BRANCH  27  29
HETATM   29  C23 UNL     1      -3.460   4.898  13.656  1.00  0.00     0.111 C 
BRANCH  29  30
HETATM   30  C24 UNL     1      -4.390   3.996  12.846  1.00  0.00     0.005 C 
HETATM   31  C25 UNL     1      -5.863   4.264  13.127  1.00  0.00     0.005 C 
ENDBRANCH  29  30
ENDBRANCH  27  29
ENDBRANCH  26  27
ENDBRANCH  16  26
BRANCH  10  32
HETATM   32  O4  UNL     1       4.791   7.479  12.872  1.00  0.00    -0.389 OA
HETATM   33  H21 UNL     1       4.547   6.549  13.029  1.00  0.00     0.210 HD
ENDBRANCH  10  32
BRANCH  13  34
HETATM   34  O5  UNL     1       3.795   7.641  15.924  1.00  0.00    -0.391 OA
HETATM   35  H25 UNL     1       4.582   7.999  15.472  1.00  0.00     0.210 HD
ENDBRANCH  13  34
TORSDOF 10
ENDMDL
MODEL 9
REMARK minimizedAffinity -6.09547615
REMARK  10 active torsions:
REMARK  status: ('A' for Active; 'I' for Inactive)
REMARK    1  A    between atoms: C5_5  and  C6_6 
REMARK    2  A    between atoms: C6_6  and  C8_8 
REMARK    3  A    between atoms: C8_8  and  O1_9 
REMARK    4  A    between atoms: O1_9  and  C9_10 
REMARK    5  A    between atoms: C14_17  and  O4_18 
REMARK    6  A    between atoms: C17_21  and  O5_22 
REMARK    7  A    between atoms: C20_25  and  O6_27 
REMARK    8  A    between atoms: O6_27  and  C22_28 
REMARK    9  A    between atoms: C22_28  and  C23_30 
REMARK   10  A    between atoms: C23_30  and  C24_31 
ROOT
HETATM    1  C1  UNL     1      -0.607   8.862   9.819  1.00  0.00     0.015 C 
HETATM    2  C2  UNL     1       0.130   8.203  10.729  1.00  0.00    -0.082 C 
HETATM    3  C3  UNL     1       1.632   8.173  10.584  1.00  0.00     0.034 C 
HETATM    4  C4  UNL     1       2.344   7.965  11.923  1.00  0.00     0.010 C 
HETATM    5  C5  UNL     1       1.648   8.709  13.083  1.00  0.00    -0.001 C 
HETATM    6  C11 UNL     1       0.170   8.220  13.224  1.00  0.00     0.033 C 
HETATM    7  C12 UNL     1      -0.911   9.309  13.447  1.00  0.00     0.162 C 
HETATM    8  O3  UNL     1      -2.166   8.737  12.998  1.00  0.00    -0.373 OA
HETATM    9  C13 UNL     1      -1.900   7.538  12.239  1.00  0.00     0.163 C 
HETATM   10  C14 UNL     1      -2.454   6.304  13.013  1.00  0.00     0.178 C 
HETATM   11  C15 UNL     1      -2.252   6.295  14.520  1.00  0.00    -0.030 C 
HETATM   12  C16 UNL     1      -1.433   5.403  15.110  1.00  0.00     0.019 C 
HETATM   13  C17 UNL     1      -3.081   7.283  15.318  1.00  0.00     0.149 C 
HETATM   14  C18 UNL     1      -2.369   8.100  16.397  1.00  0.00     0.039 C 
HETATM   15  C19 UNL     1      -1.096   8.875  16.036  1.00  0.00     0.044 C 
HETATM   16  C20 UNL     1      -1.078   9.923  14.877  1.00  0.00     0.093 C 
HETATM   17  C21 UNL     1      -2.342  10.803  14.970  1.00  0.00     0.049 C 
HETATM   18  C26 UNL     1      -0.387   7.505  11.983  1.00  0.00     0.052 C 
ENDROOT
BRANCH   5  19
HETATM   19  C6  UNL     1       2.441   8.597  14.429  1.00  0.00     0.010 C 
HETATM   20  C7  UNL     1       2.080   7.362  15.266  1.00  0.00     0.012 C 
BRANCH  19  21
HETATM   21  C8  UNL     1       3.971   8.708  14.232  1.00  0.00     0.183 C 
BRANCH  21  22
HETATM   22  O1  UNL     1       4.711   7.757  15.011  1.00  0.00    -0.321 OA
BRANCH  22  23
HETATM   23  C9  UNL     1       6.036   8.005  15.185  1.00  0.00     0.254 C 
HETATM   24  C10 UNL     1       6.825   7.363  14.087  1.00  0.00     0.126 C 
HETATM   25  O2  UNL     1       6.533   8.654  16.095  1.00  0.00    -0.266 OA
ENDBRANCH  22  23
ENDBRANCH  21  22
ENDBRANCH  19  21
ENDBRANCH   5  19
BRANCH  16  26
HETATM   26  O6  UNL     1       0.079  10.759  15.231  1.00  0.00    -0.308 OA
BRANCH  26  27
HETATM   27  C22 UNL     1       0.055  11.626  16.280  1.00  0.00     0.259 C 
HETATM   28  O7  UNL     1      -0.360  12.773  16.249  1.00  0.00    -0.265 OA
BRANCH  27  29
HETATM   29  C23 UNL     1       0.627  10.936  17.500  1.00  0.00     0.111 C 
BRANCH  29  30
HETATM   30  C24 UNL     1      -0.255  11.067  18.739  1.00  0.00     0.005 C 
HETATM   31  C25 UNL     1       0.540  11.024  20.037  1.00  0.00     0.005 C 
ENDBRANCH  29  30
ENDBRANCH  27  29
ENDBRANCH  26  27
ENDBRANCH  16  26
BRANCH  10  32
HETATM   32  O4  UNL     1      -3.868   6.188  12.782  1.00  0.00    -0.389 OA
HETATM   33  H21 UNL     1      -4.236   7.089  12.830  1.00  0.00     0.210 HD
ENDBRANCH  10  32
BRANCH  13  34
HETATM   34  O5  UNL     1      -4.128   6.548  15.966  1.00  0.00    -0.391 OA
HETATM   35  H25 UNL     1      -4.374   5.818  15.367  1.00  0.00     0.210 HD
ENDBRANCH  13  34
TORSDOF 10
ENDMDL
