MODEL 1
REMARK minimizedAffinity -7.5479846
REMARK CNNscore 0.391460419
REMARK CNNaffinity 6.44134712
REMARK  10 active torsions:
REMARK  status: ('A' for Active; 'I' for Inactive)
REMARK    1  A    between atoms: C12_14  and  C13_15 
REMARK    2  A    between atoms: C13_15  and  C15_17 
REMARK    3  A    between atoms: C15_17  and  C16_18 
REMARK    4  A    between atoms: C16_18  and  C17_19 
REMARK    5  A    between atoms: C18_20  and  C20_22 
REMARK    6  A    between atoms: C20_22  and  O3_23 
REMARK    7  A    between atoms: C26_29  and  C27_30 
REMARK    8  A    between atoms: C27_30  and  C28_31 
REMARK    9  A    between atoms: C28_31  and  C29_32 
REMARK   10  A    between atoms: C29_32  and  O5_34 
ROOT
HETATM    1  C1  UNL     1       0.301  50.266 -17.213  1.00  0.00     0.025 C 
HETATM    2  C2  UNL     1      -0.920  50.683 -17.570  1.00  0.00     0.015 C 
HETATM    3  C3  UNL     1      -1.926  51.070 -16.557  1.00  0.00     0.289 C 
HETATM    4  O1  UNL     1      -1.743  51.179 -15.359  1.00  0.00    -0.260 OA
HETATM    5  O2  UNL     1      -3.099  51.304 -17.202  1.00  0.00    -0.311 OA
HETATM    6  C4  UNL     1      -3.009  50.898 -18.581  1.00  0.00     0.142 C 
HETATM    7  C5  UNL     1      -3.775  49.592 -18.738  1.00  0.00     0.039 C 
HETATM    8  C6  UNL     1      -3.630  48.895 -20.098  1.00  0.00     0.006 C 
HETATM    9  C7  UNL     1      -2.175  48.869 -20.622  1.00  0.00    -0.027 A 
HETATM   10  C8  UNL     1      -2.011  48.246 -22.022  1.00  0.00     0.011 C 
HETATM   11  C9  UNL     1      -3.088  48.623 -23.052  1.00  0.00     0.011 C 
HETATM   12  C10 UNL     1      -4.501  48.438 -22.479  1.00  0.00    -0.032 C 
HETATM   13  C11 UNL     1      -4.730  46.927 -22.162  1.00  0.00     0.016 C 
HETATM   14  C12 UNL     1      -5.700  48.941 -23.352  1.00  0.00    -0.002 C 
HETATM   15  C21 UNL     1      -6.789  49.245 -22.275  1.00  0.00     0.006 C 
HETATM   16  C22 UNL     1      -6.099  49.282 -20.899  1.00  0.00     0.011 C 
HETATM   17  C23 UNL     1      -4.603  49.390 -21.216  1.00  0.00    -0.032 C 
HETATM   18  C24 UNL     1      -4.318  50.891 -21.542  1.00  0.00     0.016 C 
HETATM   19  C25 UNL     1      -1.114  48.390 -19.662  1.00  0.00     0.022 A 
HETATM   20  C26 UNL     1      -1.126  49.864 -20.031  1.00  0.00    -0.021 A 
HETATM   21  C31 UNL     1      -1.528  50.851 -18.924  1.00  0.00     0.063 C 
ENDROOT
BRANCH  14  22
HETATM   22  C13 UNL     1      -6.260  48.057 -24.511  1.00  0.00    -0.014 C 
HETATM   23  C14 UNL     1      -5.481  48.255 -25.817  1.00  0.00     0.010 C 
BRANCH  22  24
HETATM   24  C15 UNL     1      -7.767  48.366 -24.741  1.00  0.00     0.008 C 
BRANCH  24  25
HETATM   25  C16 UNL     1      -8.485  47.339 -25.624  1.00  0.00     0.028 C 
BRANCH  25  26
HETATM   26  C17 UNL     1      -9.887  47.787 -25.941  1.00  0.00    -0.022 C 
HETATM   27  C18 UNL     1     -10.976  47.014 -26.131  1.00  0.00    -0.064 C 
HETATM   28  C19 UNL     1     -10.993  45.514 -25.997  1.00  0.00     0.045 C 
BRANCH  27  29
HETATM   29  C20 UNL     1     -12.307  47.629 -26.473  1.00  0.00     0.197 C 
BRANCH  29  30
HETATM   30  O3  UNL     1     -12.084  48.888 -27.089  1.00  0.00    -0.397 OA
HETATM   31  H29 UNL     1     -12.960  49.262 -27.281  1.00  0.00     0.209 HD
ENDBRANCH  29  30
ENDBRANCH  27  29
ENDBRANCH  25  26
ENDBRANCH  24  25
ENDBRANCH  22  24
ENDBRANCH  14  22
BRANCH  20  32
HETATM   32  C27 UNL     1      -0.071  50.449 -20.986  1.00  0.00     0.021 C 
BRANCH  32  33
HETATM   33  C28 UNL     1       0.320  51.903 -20.723  1.00  0.00     0.112 C 
BRANCH  33  34
HETATM   34  C29 UNL     1       0.478  52.669 -22.014  1.00  0.00     0.258 C 
HETATM   35  O4  UNL     1       1.052  53.742 -22.135  1.00  0.00    -0.265 OA
BRANCH  34  36
HETATM   36  O5  UNL     1      -0.141  51.992 -23.024  1.00  0.00    -0.326 OA
HETATM   37  C30 UNL     1       0.374  52.286 -24.322  1.00  0.00     0.213 C 
ENDBRANCH  34  36
ENDBRANCH  33  34
ENDBRANCH  32  33
ENDBRANCH  20  32
TORSDOF 10
ENDMDL
MODEL 2
REMARK minimizedAffinity -8.71781921
REMARK CNNscore 0.292226195
REMARK CNNaffinity 6.45044756
REMARK  10 active torsions:
REMARK  status: ('A' for Active; 'I' for Inactive)
REMARK    1  A    between atoms: C12_14  and  C13_15 
REMARK    2  A    between atoms: C13_15  and  C15_17 
REMARK    3  A    between atoms: C15_17  and  C16_18 
REMARK    4  A    between atoms: C16_18  and  C17_19 
REMARK    5  A    between atoms: C18_20  and  C20_22 
REMARK    6  A    between atoms: C20_22  and  O3_23 
REMARK    7  A    between atoms: C26_29  and  C27_30 
REMARK    8  A    between atoms: C27_30  and  C28_31 
REMARK    9  A    between atoms: C28_31  and  C29_32 
REMARK   10  A    between atoms: C29_32  and  O5_34 
ROOT
HETATM    1  C1  UNL     1       0.338  53.871 -25.636  1.00  0.00     0.025 C 
HETATM    2  C2  UNL     1      -0.167  52.675 -25.966  1.00  0.00     0.015 C 
HETATM    3  C3  UNL     1      -0.337  52.276 -27.380  1.00  0.00     0.289 C 
HETATM    4  O1  UNL     1       0.056  52.887 -28.356  1.00  0.00    -0.260 OA
HETATM    5  O2  UNL     1      -0.997  51.090 -27.402  1.00  0.00    -0.311 OA
HETATM    6  C4  UNL     1      -1.475  50.750 -26.086  1.00  0.00     0.142 C 
HETATM    7  C5  UNL     1      -2.976  51.000 -26.051  1.00  0.00     0.039 C 
HETATM    8  C6  UNL     1      -3.638  50.884 -24.670  1.00  0.00     0.006 C 
HETATM    9  C7  UNL     1      -2.832  51.572 -23.545  1.00  0.00    -0.027 A 
HETATM   10  C8  UNL     1      -3.432  51.404 -22.135  1.00  0.00     0.011 C 
HETATM   11  C9  UNL     1      -3.986  50.009 -21.806  1.00  0.00     0.011 C 
HETATM   12  C10 UNL     1      -4.918  49.500 -22.916  1.00  0.00    -0.032 C 
HETATM   13  C11 UNL     1      -6.163  50.438 -23.007  1.00  0.00     0.016 C 
HETATM   14  C12 UNL     1      -5.427  48.023 -22.803  1.00  0.00    -0.002 C 
HETATM   15  C21 UNL     1      -5.702  47.653 -24.295  1.00  0.00     0.006 C 
HETATM   16  C22 UNL     1      -5.018  48.711 -25.181  1.00  0.00     0.011 C 
HETATM   17  C23 UNL     1      -4.051  49.440 -24.240  1.00  0.00    -0.032 C 
HETATM   18  C24 UNL     1      -2.780  48.539 -24.114  1.00  0.00     0.016 C 
HETATM   19  C25 UNL     1      -2.377  52.988 -23.800  1.00  0.00     0.022 A 
HETATM   20  C26 UNL     1      -1.320  51.896 -23.767  1.00  0.00    -0.021 A 
HETATM   21  C31 UNL     1      -0.639  51.553 -25.100  1.00  0.00     0.063 C 
ENDROOT
BRANCH  14  22
HETATM   22  C13 UNL     1      -6.640  47.672 -21.885  1.00  0.00    -0.014 C 
HETATM   23  C14 UNL     1      -6.195  47.104 -20.532  1.00  0.00     0.010 C 
BRANCH  22  24
HETATM   24  C15 UNL     1      -7.580  46.661 -22.601  1.00  0.00     0.008 C 
BRANCH  24  25
HETATM   25  C16 UNL     1      -8.986  47.207 -22.878  1.00  0.00     0.028 C 
BRANCH  25  26
HETATM   26  C17 UNL     1      -8.989  48.097 -24.092  1.00  0.00    -0.022 C 
HETATM   27  C18 UNL     1      -9.489  47.822 -25.314  1.00  0.00    -0.064 C 
HETATM   28  C19 UNL     1     -10.209  46.550 -25.676  1.00  0.00     0.045 C 
BRANCH  27  29
HETATM   29  C20 UNL     1      -9.380  48.822 -26.435  1.00  0.00     0.197 C 
BRANCH  29  30
HETATM   30  O3  UNL     1      -9.703  50.109 -25.931  1.00  0.00    -0.397 OA
HETATM   31  H29 UNL     1      -9.639  50.724 -26.680  1.00  0.00     0.209 HD
ENDBRANCH  29  30
ENDBRANCH  27  29
ENDBRANCH  25  26
ENDBRANCH  24  25
ENDBRANCH  22  24
ENDBRANCH  14  22
BRANCH  20  32
HETATM   32  C27 UNL     1      -0.368  51.753 -22.566  1.00  0.00     0.021 C 
BRANCH  32  33
HETATM   33  C28 UNL     1       0.662  52.870 -22.407  1.00  0.00     0.112 C 
BRANCH  33  34
HETATM   34  C29 UNL     1       0.818  53.270 -20.960  1.00  0.00     0.258 C 
HETATM   35  O4  UNL     1       1.364  54.289 -20.561  1.00  0.00    -0.265 OA
BRANCH  34  36
HETATM   36  O5  UNL     1       0.276  52.306 -20.161  1.00  0.00    -0.326 OA
HETATM   37  C30 UNL     1       0.109  52.705 -18.801  1.00  0.00     0.213 C 
ENDBRANCH  34  36
ENDBRANCH  33  34
ENDBRANCH  32  33
ENDBRANCH  20  32
TORSDOF 10
ENDMDL
MODEL 3
REMARK minimizedAffinity -8.7886591
REMARK CNNscore 0.263285518
REMARK CNNaffinity 6.48027992
REMARK  10 active torsions:
REMARK  status: ('A' for Active; 'I' for Inactive)
REMARK    1  A    between atoms: C12_14  and  C13_15 
REMARK    2  A    between atoms: C13_15  and  C15_17 
REMARK    3  A    between atoms: C15_17  and  C16_18 
REMARK    4  A    between atoms: C16_18  and  C17_19 
REMARK    5  A    between atoms: C18_20  and  C20_22 
REMARK    6  A    between atoms: C20_22  and  O3_23 
REMARK    7  A    between atoms: C26_29  and  C27_30 
REMARK    8  A    between atoms: C27_30  and  C28_31 
REMARK    9  A    between atoms: C28_31  and  C29_32 
REMARK   10  A    between atoms: C29_32  and  O5_34 
ROOT
HETATM    1  C1  UNL     1       0.273  53.551 -25.530  1.00  0.00     0.025 C 
HETATM    2  C2  UNL     1      -0.249  52.338 -25.755  1.00  0.00     0.015 C 
HETATM    3  C3  UNL     1      -0.428  51.821 -27.129  1.00  0.00     0.289 C 
HETATM    4  O1  UNL     1      -0.030  52.339 -28.155  1.00  0.00    -0.260 OA
HETATM    5  O2  UNL     1      -1.105  50.646 -27.047  1.00  0.00    -0.311 OA
HETATM    6  C4  UNL     1      -1.584  50.428 -25.706  1.00  0.00     0.142 C 
HETATM    7  C5  UNL     1      -3.081  50.701 -25.691  1.00  0.00     0.039 C 
HETATM    8  C6  UNL     1      -3.741  50.714 -24.305  1.00  0.00     0.006 C 
HETATM    9  C7  UNL     1      -2.923  51.486 -23.244  1.00  0.00    -0.027 A 
HETATM   10  C8  UNL     1      -3.521  51.448 -21.824  1.00  0.00     0.011 C 
HETATM   11  C9  UNL     1      -4.094  50.094 -21.375  1.00  0.00     0.011 C 
HETATM   12  C10 UNL     1      -5.036  49.504 -22.435  1.00  0.00    -0.032 C 
HETATM   13  C11 UNL     1      -6.268  50.448 -22.605  1.00  0.00     0.016 C 
HETATM   14  C12 UNL     1      -5.564  48.050 -22.194  1.00  0.00    -0.002 C 
HETATM   15  C21 UNL     1      -5.848  47.556 -23.648  1.00  0.00     0.006 C 
HETATM   16  C22 UNL     1      -5.152  48.524 -24.623  1.00  0.00     0.011 C 
HETATM   17  C23 UNL     1      -4.172  49.318 -23.750  1.00  0.00    -0.032 C 
HETATM   18  C24 UNL     1      -2.914  48.414 -23.548  1.00  0.00     0.016 C 
HETATM   19  C25 UNL     1      -2.449  52.868 -23.621  1.00  0.00     0.022 A 
HETATM   20  C26 UNL     1      -1.407  51.769 -23.495  1.00  0.00    -0.021 A 
HETATM   21  C31 UNL     1      -0.734  51.302 -24.795  1.00  0.00     0.063 C 
ENDROOT
BRANCH  14  22
HETATM   22  C13 UNL     1      -6.780  47.796 -21.247  1.00  0.00    -0.014 C 
HETATM   23  C14 UNL     1      -8.097  48.299 -21.850  1.00  0.00     0.010 C 
BRANCH  22  24
HETATM   24  C15 UNL     1      -6.535  48.472 -19.868  1.00  0.00     0.008 C 
BRANCH  24  25
HETATM   25  C16 UNL     1      -7.729  49.287 -19.354  1.00  0.00     0.028 C 
BRANCH  25  26
HETATM   26  C17 UNL     1      -8.410  48.583 -18.212  1.00  0.00    -0.022 C 
HETATM   27  C18 UNL     1      -9.688  48.154 -18.153  1.00  0.00    -0.064 C 
HETATM   28  C19 UNL     1     -10.677  48.258 -19.283  1.00  0.00     0.045 C 
BRANCH  27  29
HETATM   29  C20 UNL     1     -10.221  47.490 -16.911  1.00  0.00     0.197 C 
BRANCH  29  30
HETATM   30  O3  UNL     1     -10.215  48.432 -15.850  1.00  0.00    -0.397 OA
HETATM   31  H29 UNL     1     -10.549  47.968 -15.065  1.00  0.00     0.209 HD
ENDBRANCH  29  30
ENDBRANCH  27  29
ENDBRANCH  25  26
ENDBRANCH  24  25
ENDBRANCH  22  24
ENDBRANCH  14  22
BRANCH  20  32
HETATM   32  C27 UNL     1      -0.454  51.717 -22.288  1.00  0.00     0.021 C 
BRANCH  32  33
HETATM   33  C28 UNL     1       0.791  52.595 -22.395  1.00  0.00     0.112 C 
BRANCH  33  34
HETATM   34  C29 UNL     1       0.868  53.579 -21.253  1.00  0.00     0.258 C 
HETATM   35  O4  UNL     1       1.602  54.556 -21.207  1.00  0.00    -0.265 OA
BRANCH  34  36
HETATM   36  O5  UNL     1       0.008  53.197 -20.265  1.00  0.00    -0.326 OA
HETATM   37  C30 UNL     1       0.649  52.848 -19.038  1.00  0.00     0.213 C 
ENDBRANCH  34  36
ENDBRANCH  33  34
ENDBRANCH  32  33
ENDBRANCH  20  32
TORSDOF 10
ENDMDL
MODEL 4
REMARK minimizedAffinity -8.37450027
REMARK CNNscore 0.254508168
REMARK CNNaffinity 6.5108242
REMARK  10 active torsions:
REMARK  status: ('A' for Active; 'I' for Inactive)
REMARK    1  A    between atoms: C12_14  and  C13_15 
REMARK    2  A    between atoms: C13_15  and  C15_17 
REMARK    3  A    between atoms: C15_17  and  C16_18 
REMARK    4  A    between atoms: C16_18  and  C17_19 
REMARK    5  A    between atoms: C18_20  and  C20_22 
REMARK    6  A    between atoms: C20_22  and  O3_23 
REMARK    7  A    between atoms: C26_29  and  C27_30 
REMARK    8  A    between atoms: C27_30  and  C28_31 
REMARK    9  A    between atoms: C28_31  and  C29_32 
REMARK   10  A    between atoms: C29_32  and  O5_34 
ROOT
HETATM    1  C1  UNL     1       0.296  53.530 -25.648  1.00  0.00     0.025 C 
HETATM    2  C2  UNL     1      -0.263  52.340 -25.904  1.00  0.00     0.015 C 
HETATM    3  C3  UNL     1      -0.459  51.865 -27.291  1.00  0.00     0.289 C 
HETATM    4  O1  UNL     1      -0.044  52.397 -28.303  1.00  0.00    -0.260 OA
HETATM    5  O2  UNL     1      -1.171  50.710 -27.239  1.00  0.00    -0.311 OA
HETATM    6  C4  UNL     1      -1.657  50.472 -25.904  1.00  0.00     0.142 C 
HETATM    7  C5  UNL     1      -3.145  50.791 -25.880  1.00  0.00     0.039 C 
HETATM    8  C6  UNL     1      -3.804  50.787 -24.493  1.00  0.00     0.006 C 
HETATM    9  C7  UNL     1      -2.962  51.506 -23.413  1.00  0.00    -0.027 A 
HETATM   10  C8  UNL     1      -3.561  51.450 -21.995  1.00  0.00     0.011 C 
HETATM   11  C9  UNL     1      -4.175  50.103 -21.581  1.00  0.00     0.011 C 
HETATM   12  C10 UNL     1      -5.135  49.570 -22.655  1.00  0.00    -0.032 C 
HETATM   13  C11 UNL     1      -6.337  50.556 -22.800  1.00  0.00     0.016 C 
HETATM   14  C12 UNL     1      -5.708  48.127 -22.452  1.00  0.00    -0.002 C 
HETATM   15  C21 UNL     1      -6.007  47.680 -23.918  1.00  0.00     0.006 C 
HETATM   16  C22 UNL     1      -5.282  48.651 -24.868  1.00  0.00     0.011 C 
HETATM   17  C23 UNL     1      -4.278  49.392 -23.975  1.00  0.00    -0.032 C 
HETATM   18  C24 UNL     1      -3.048  48.444 -23.798  1.00  0.00     0.016 C 
HETATM   19  C25 UNL     1      -2.446  52.882 -23.755  1.00  0.00     0.022 A 
HETATM   20  C26 UNL     1      -1.439  51.748 -23.658  1.00  0.00    -0.021 A 
HETATM   21  C31 UNL     1      -0.780  51.294 -24.971  1.00  0.00     0.063 C 
ENDROOT
BRANCH  14  22
HETATM   22  C13 UNL     1      -6.931  47.886 -21.511  1.00  0.00    -0.014 C 
HETATM   23  C14 UNL     1      -6.767  48.590 -20.158  1.00  0.00     0.010 C 
BRANCH  22  24
HETATM   24  C15 UNL     1      -7.148  46.362 -21.293  1.00  0.00     0.008 C 
BRANCH  24  25
HETATM   25  C16 UNL     1      -6.007  45.488 -21.829  1.00  0.00     0.028 C 
BRANCH  25  26
HETATM   26  C17 UNL     1      -5.347  44.721 -20.715  1.00  0.00    -0.022 C 
HETATM   27  C18 UNL     1      -4.244  45.065 -20.018  1.00  0.00    -0.064 C 
HETATM   28  C19 UNL     1      -3.483  46.351 -20.203  1.00  0.00     0.045 C 
BRANCH  27  29
HETATM   29  C20 UNL     1      -3.695  44.159 -18.947  1.00  0.00     0.197 C 
BRANCH  29  30
HETATM   30  O3  UNL     1      -3.508  42.864 -19.495  1.00  0.00    -0.397 OA
HETATM   31  H29 UNL     1      -3.171  42.304 -18.777  1.00  0.00     0.209 HD
ENDBRANCH  29  30
ENDBRANCH  27  29
ENDBRANCH  25  26
ENDBRANCH  24  25
ENDBRANCH  22  24
ENDBRANCH  14  22
BRANCH  20  32
HETATM   32  C27 UNL     1      -0.488  51.635 -22.454  1.00  0.00     0.021 C 
BRANCH  32  33
HETATM   33  C28 UNL     1       0.655  52.649 -22.421  1.00  0.00     0.112 C 
BRANCH  33  34
HETATM   34  C29 UNL     1       0.681  53.403 -21.114  1.00  0.00     0.258 C 
HETATM   35  O4  UNL     1       1.325  54.419 -20.894  1.00  0.00    -0.265 OA
BRANCH  34  36
HETATM   36  O5  UNL     1      -0.109  52.763 -20.204  1.00  0.00    -0.326 OA
HETATM   37  C30 UNL     1       0.348  52.875 -18.856  1.00  0.00     0.213 C 
ENDBRANCH  34  36
ENDBRANCH  33  34
ENDBRANCH  32  33
ENDBRANCH  20  32
TORSDOF 10
ENDMDL
MODEL 5
REMARK minimizedAffinity -8.02571201
REMARK CNNscore 0.24675028
REMARK CNNaffinity 6.05622864
REMARK  10 active torsions:
REMARK  status: ('A' for Active; 'I' for Inactive)
REMARK    1  A    between atoms: C12_14  and  C13_15 
REMARK    2  A    between atoms: C13_15  and  C15_17 
REMARK    3  A    between atoms: C15_17  and  C16_18 
REMARK    4  A    between atoms: C16_18  and  C17_19 
REMARK    5  A    between atoms: C18_20  and  C20_22 
REMARK    6  A    between atoms: C20_22  and  O3_23 
REMARK    7  A    between atoms: C26_29  and  C27_30 
REMARK    8  A    between atoms: C27_30  and  C28_31 
REMARK    9  A    between atoms: C28_31  and  C29_32 
REMARK   10  A    between atoms: C29_32  and  O5_34 
ROOT
HETATM    1  C1  UNL     1       0.844  53.195 -19.459  1.00  0.00     0.025 C 
HETATM    2  C2  UNL     1       0.539  52.612 -20.624  1.00  0.00     0.015 C 
HETATM    3  C3  UNL     1       0.861  53.257 -21.915  1.00  0.00     0.289 C 
HETATM    4  O1  UNL     1       1.519  54.269 -22.075  1.00  0.00    -0.260 OA
HETATM    5  O2  UNL     1       0.308  52.509 -22.905  1.00  0.00    -0.311 OA
HETATM    6  C4  UNL     1      -0.554  51.496 -22.354  1.00  0.00     0.142 C 
HETATM    7  C5  UNL     1      -1.995  51.931 -22.578  1.00  0.00     0.039 C 
HETATM    8  C6  UNL     1      -3.065  51.075 -21.885  1.00  0.00     0.006 C 
HETATM    9  C7  UNL     1      -2.708  50.715 -20.423  1.00  0.00    -0.027 A 
HETATM   10  C8  UNL     1      -3.725  49.791 -19.727  1.00  0.00     0.011 C 
HETATM   11  C9  UNL     1      -4.282  48.643 -20.584  1.00  0.00     0.011 C 
HETATM   12  C10 UNL     1      -4.773  49.149 -21.949  1.00  0.00    -0.032 C 
HETATM   13  C11 UNL     1      -5.967  50.130 -21.730  1.00  0.00     0.016 C 
HETATM   14  C12 UNL     1      -5.211  48.071 -22.997  1.00  0.00    -0.002 C 
HETATM   15  C21 UNL     1      -4.964  48.807 -24.352  1.00  0.00     0.006 C 
HETATM   16  C22 UNL     1      -4.086  50.040 -24.069  1.00  0.00     0.011 C 
HETATM   17  C23 UNL     1      -3.518  49.800 -22.664  1.00  0.00    -0.032 C 
HETATM   18  C24 UNL     1      -2.313  48.819 -22.827  1.00  0.00     0.016 C 
HETATM   19  C25 UNL     1      -2.270  51.849 -19.529  1.00  0.00     0.022 A 
HETATM   20  C26 UNL     1      -1.226  50.825 -19.942  1.00  0.00    -0.021 A 
HETATM   21  C31 UNL     1      -0.130  51.306 -20.905  1.00  0.00     0.063 C 
ENDROOT
BRANCH  14  22
HETATM   22  C13 UNL     1      -6.638  47.438 -22.932  1.00  0.00    -0.014 C 
HETATM   23  C14 UNL     1      -6.610  46.007 -22.382  1.00  0.00     0.010 C 
BRANCH  22  24
HETATM   24  C15 UNL     1      -7.295  47.452 -24.341  1.00  0.00     0.008 C 
BRANCH  24  25
HETATM   25  C16 UNL     1      -8.198  48.666 -24.595  1.00  0.00     0.028 C 
BRANCH  25  26
HETATM   26  C17 UNL     1      -9.526  48.241 -25.161  1.00  0.00    -0.022 C 
HETATM   27  C18 UNL     1      -9.866  48.116 -26.460  1.00  0.00    -0.064 C 
HETATM   28  C19 UNL     1      -8.924  48.334 -27.614  1.00  0.00     0.045 C 
BRANCH  27  29
HETATM   29  C20 UNL     1     -11.259  47.705 -26.856  1.00  0.00     0.197 C 
BRANCH  29  30
HETATM   30  O3  UNL     1     -12.038  48.873 -27.067  1.00  0.00    -0.397 OA
HETATM   31  H29 UNL     1     -12.930  48.572 -27.304  1.00  0.00     0.209 HD
ENDBRANCH  29  30
ENDBRANCH  27  29
ENDBRANCH  25  26
ENDBRANCH  24  25
ENDBRANCH  22  24
ENDBRANCH  14  22
BRANCH  20  32
HETATM   32  C27 UNL     1      -0.712  49.773 -18.944  1.00  0.00     0.021 C 
BRANCH  32  33
HETATM   33  C28 UNL     1      -0.064  50.329 -17.678  1.00  0.00     0.112 C 
BRANCH  33  34
HETATM   34  C29 UNL     1      -0.198  49.364 -16.525  1.00  0.00     0.258 C 
HETATM   35  O4  UNL     1      -1.048  48.490 -16.427  1.00  0.00    -0.265 OA
BRANCH  34  36
HETATM   36  O5  UNL     1       0.762  49.632 -15.594  1.00  0.00    -0.326 OA
HETATM   37  C30 UNL     1       1.099  51.015 -15.487  1.00  0.00     0.213 C 
ENDBRANCH  34  36
ENDBRANCH  33  34
ENDBRANCH  32  33
ENDBRANCH  20  32
TORSDOF 10
ENDMDL
MODEL 6
REMARK minimizedAffinity -7.26999426
REMARK CNNscore 0.240499973
REMARK CNNaffinity 6.36427879
REMARK  10 active torsions:
REMARK  status: ('A' for Active; 'I' for Inactive)
REMARK    1  A    between atoms: C12_14  and  C13_15 
REMARK    2  A    between atoms: C13_15  and  C15_17 
REMARK    3  A    between atoms: C15_17  and  C16_18 
REMARK    4  A    between atoms: C16_18  and  C17_19 
REMARK    5  A    between atoms: C18_20  and  C20_22 
REMARK    6  A    between atoms: C20_22  and  O3_23 
REMARK    7  A    between atoms: C26_29  and  C27_30 
REMARK    8  A    between atoms: C27_30  and  C28_31 
REMARK    9  A    between atoms: C28_31  and  C29_32 
REMARK   10  A    between atoms: C29_32  and  O5_34 
ROOT
HETATM    1  C1  UNL     1       0.106  50.042 -18.088  1.00  0.00     0.025 C 
HETATM    2  C2  UNL     1      -1.085  50.603 -18.331  1.00  0.00     0.015 C 
HETATM    3  C3  UNL     1      -1.944  51.089 -17.229  1.00  0.00     0.289 C 
HETATM    4  O1  UNL     1      -1.642  51.159 -16.052  1.00  0.00    -0.260 OA
HETATM    5  O2  UNL     1      -3.134  51.467 -17.764  1.00  0.00    -0.311 OA
HETATM    6  C4  UNL     1      -3.217  51.073 -19.148  1.00  0.00     0.142 C 
HETATM    7  C5  UNL     1      -4.141  49.867 -19.239  1.00  0.00     0.039 C 
HETATM    8  C6  UNL     1      -4.202  49.178 -20.609  1.00  0.00     0.006 C 
HETATM    9  C7  UNL     1      -2.812  48.991 -21.263  1.00  0.00    -0.027 A 
HETATM   10  C8  UNL     1      -2.849  48.373 -22.674  1.00  0.00     0.011 C 
HETATM   11  C9  UNL     1      -3.962  48.887 -23.601  1.00  0.00     0.011 C 
HETATM   12  C10 UNL     1      -5.330  48.860 -22.902  1.00  0.00    -0.032 C 
HETATM   13  C11 UNL     1      -5.705  47.380 -22.572  1.00  0.00     0.016 C 
HETATM   14  C12 UNL     1      -6.535  49.510 -23.661  1.00  0.00    -0.002 C 
HETATM   15  C21 UNL     1      -7.481  49.924 -22.489  1.00  0.00     0.006 C 
HETATM   16  C22 UNL     1      -6.670  49.860 -21.181  1.00  0.00     0.011 C 
HETATM   17  C23 UNL     1      -5.206  49.798 -21.633  1.00  0.00    -0.032 C 
HETATM   18  C24 UNL     1      -4.778  51.261 -21.977  1.00  0.00     0.016 C 
HETATM   19  C25 UNL     1      -1.733  48.378 -20.405  1.00  0.00     0.022 A 
HETATM   20  C26 UNL     1      -1.606  49.849 -20.767  1.00  0.00    -0.021 A 
HETATM   21  C31 UNL     1      -1.788  50.860 -19.624  1.00  0.00     0.063 C 
ENDROOT
BRANCH  14  22
HETATM   22  C13 UNL     1      -7.297  48.714 -24.768  1.00  0.00    -0.014 C 
HETATM   23  C14 UNL     1      -8.562  48.038 -24.227  1.00  0.00     0.010 C 
BRANCH  22  24
HETATM   24  C15 UNL     1      -6.359  47.651 -25.406  1.00  0.00     0.008 C 
BRANCH  24  25
HETATM   25  C16 UNL     1      -6.145  47.834 -26.914  1.00  0.00     0.028 C 
BRANCH  25  26
HETATM   26  C17 UNL     1      -7.450  47.740 -27.658  1.00  0.00    -0.022 C 
HETATM   27  C18 UNL     1      -7.790  46.852 -28.615  1.00  0.00    -0.064 C 
HETATM   28  C19 UNL     1      -6.911  45.723 -29.085  1.00  0.00     0.045 C 
BRANCH  27  29
HETATM   29  C20 UNL     1      -9.138  46.918 -29.284  1.00  0.00     0.197 C 
BRANCH  29  30
HETATM   30  O3  UNL     1      -9.721  45.625 -29.264  1.00  0.00    -0.397 OA
HETATM   31  H29 UNL     1     -10.578  45.700 -29.715  1.00  0.00     0.209 HD
ENDBRANCH  29  30
ENDBRANCH  27  29
ENDBRANCH  25  26
ENDBRANCH  24  25
ENDBRANCH  22  24
ENDBRANCH  14  22
BRANCH  20  32
HETATM   32  C27 UNL     1      -0.579  50.321 -21.811  1.00  0.00     0.021 C 
BRANCH  32  33
HETATM   33  C28 UNL     1       0.322  51.474 -21.372  1.00  0.00     0.112 C 
BRANCH  33  34
HETATM   34  C29 UNL     1       0.501  52.482 -22.482  1.00  0.00     0.258 C 
HETATM   35  O4  UNL     1       0.472  52.231 -23.679  1.00  0.00    -0.265 OA
BRANCH  34  36
HETATM   36  O5  UNL     1       0.726  53.715 -21.944  1.00  0.00    -0.326 OA
HETATM   37  C30 UNL     1       1.432  53.689 -20.703  1.00  0.00     0.213 C 
ENDBRANCH  34  36
ENDBRANCH  33  34
ENDBRANCH  32  33
ENDBRANCH  20  32
TORSDOF 10
ENDMDL
MODEL 7
REMARK minimizedAffinity -7.98883057
REMARK CNNscore 0.226732969
REMARK CNNaffinity 6.51868439
REMARK  10 active torsions:
REMARK  status: ('A' for Active; 'I' for Inactive)
REMARK    1  A    between atoms: C12_14  and  C13_15 
REMARK    2  A    between atoms: C13_15  and  C15_17 
REMARK    3  A    between atoms: C15_17  and  C16_18 
REMARK    4  A    between atoms: C16_18  and  C17_19 
REMARK    5  A    between atoms: C18_20  and  C20_22 
REMARK    6  A    between atoms: C20_22  and  O3_23 
REMARK    7  A    between atoms: C26_29  and  C27_30 
REMARK    8  A    between atoms: C27_30  and  C28_31 
REMARK    9  A    between atoms: C28_31  and  C29_32 
REMARK   10  A    between atoms: C29_32  and  O5_34 
ROOT
HETATM    1  C1  UNL     1       0.539  52.775 -19.680  1.00  0.00     0.025 C 
HETATM    2  C2  UNL     1       0.597  52.677 -21.014  1.00  0.00     0.015 C 
HETATM    3  C3  UNL     1       1.023  53.819 -21.851  1.00  0.00     0.289 C 
HETATM    4  O1  UNL     1       1.472  54.879 -21.456  1.00  0.00    -0.260 OA
HETATM    5  O2  UNL     1       0.844  53.472 -23.152  1.00  0.00    -0.311 OA
HETATM    6  C4  UNL     1       0.122  52.229 -23.251  1.00  0.00     0.142 C 
HETATM    7  C5  UNL     1      -1.306  52.546 -23.672  1.00  0.00     0.039 C 
HETATM    8  C6  UNL     1      -2.287  51.365 -23.640  1.00  0.00     0.006 C 
HETATM    9  C7  UNL     1      -2.155  50.493 -22.370  1.00  0.00    -0.027 A 
HETATM   10  C8  UNL     1      -3.072  49.255 -22.347  1.00  0.00     0.011 C 
HETATM   11  C9  UNL     1      -3.197  48.491 -23.675  1.00  0.00     0.011 C 
HETATM   12  C10 UNL     1      -3.506  49.440 -24.842  1.00  0.00    -0.032 C 
HETATM   13  C11 UNL     1      -4.899  50.104 -24.604  1.00  0.00     0.016 C 
HETATM   14  C12 UNL     1      -3.495  48.831 -26.284  1.00  0.00    -0.002 C 
HETATM   15  C21 UNL     1      -3.148  50.072 -27.166  1.00  0.00     0.006 C 
HETATM   16  C22 UNL     1      -2.620  51.181 -26.237  1.00  0.00     0.011 C 
HETATM   17  C23 UNL     1      -2.301  50.466 -24.918  1.00  0.00    -0.032 C 
HETATM   18  C24 UNL     1      -0.909  49.781 -25.102  1.00  0.00     0.016 C 
HETATM   19  C25 UNL     1      -2.148  51.216 -21.045  1.00  0.00     0.022 A 
HETATM   20  C26 UNL     1      -0.852  50.573 -21.512  1.00  0.00    -0.021 A 
HETATM   21  C31 UNL     1       0.286  51.525 -21.912  1.00  0.00     0.063 C 
ENDROOT
BRANCH  14  22
HETATM   22  C13 UNL     1      -4.741  48.063 -26.828  1.00  0.00    -0.014 C 
HETATM   23  C14 UNL     1      -5.051  48.423 -28.286  1.00  0.00     0.010 C 
BRANCH  22  24
HETATM   24  C15 UNL     1      -5.982  48.353 -25.936  1.00  0.00     0.008 C 
BRANCH  24  25
HETATM   25  C16 UNL     1      -7.039  47.241 -25.960  1.00  0.00     0.028 C 
BRANCH  25  26
HETATM   26  C17 UNL     1      -8.167  47.592 -26.892  1.00  0.00    -0.022 C 
HETATM   27  C18 UNL     1      -8.753  46.797 -27.812  1.00  0.00    -0.064 C 
HETATM   28  C19 UNL     1      -8.405  45.349 -28.035  1.00  0.00     0.045 C 
BRANCH  27  29
HETATM   29  C20 UNL     1      -9.859  47.320 -28.690  1.00  0.00     0.197 C 
BRANCH  29  30
HETATM   30  O3  UNL     1      -9.657  48.709 -28.900  1.00  0.00    -0.397 OA
HETATM   31  H29 UNL     1     -10.393  49.015 -29.455  1.00  0.00     0.209 HD
ENDBRANCH  29  30
ENDBRANCH  27  29
ENDBRANCH  25  26
ENDBRANCH  24  25
ENDBRANCH  22  24
ENDBRANCH  14  22
BRANCH  20  32
HETATM   32  C27 UNL     1      -0.334  49.277 -20.864  1.00  0.00     0.021 C 
BRANCH  32  33
HETATM   33  C28 UNL     1      -1.205  48.707 -19.746  1.00  0.00     0.112 C 
BRANCH  33  34
HETATM   34  C29 UNL     1      -1.019  49.477 -18.460  1.00  0.00     0.258 C 
HETATM   35  O4  UNL     1       0.042  49.930 -18.053  1.00  0.00    -0.265 OA
BRANCH  34  36
HETATM   36  O5  UNL     1      -2.213  49.570 -17.809  1.00  0.00    -0.326 OA
HETATM   37  C30 UNL     1      -2.404  50.803 -17.115  1.00  0.00     0.213 C 
ENDBRANCH  34  36
ENDBRANCH  33  34
ENDBRANCH  32  33
ENDBRANCH  20  32
TORSDOF 10
ENDMDL
MODEL 8
REMARK minimizedAffinity -8.16800594
REMARK CNNscore 0.218360558
REMARK CNNaffinity 6.03196859
REMARK  10 active torsions:
REMARK  status: ('A' for Active; 'I' for Inactive)
REMARK    1  A    between atoms: C12_14  and  C13_15 
REMARK    2  A    between atoms: C13_15  and  C15_17 
REMARK    3  A    between atoms: C15_17  and  C16_18 
REMARK    4  A    between atoms: C16_18  and  C17_19 
REMARK    5  A    between atoms: C18_20  and  C20_22 
REMARK    6  A    between atoms: C20_22  and  O3_23 
REMARK    7  A    between atoms: C26_29  and  C27_30 
REMARK    8  A    between atoms: C27_30  and  C28_31 
REMARK    9  A    between atoms: C28_31  and  C29_32 
REMARK   10  A    between atoms: C29_32  and  O5_34 
ROOT
HETATM    1  C1  UNL     1       0.907  53.011 -18.949  1.00  0.00     0.025 C 
HETATM    2  C2  UNL     1       0.602  52.530 -20.161  1.00  0.00     0.015 C 
HETATM    3  C3  UNL     1       0.958  53.266 -21.393  1.00  0.00     0.289 C 
HETATM    4  O1  UNL     1       1.645  54.268 -21.464  1.00  0.00    -0.260 OA
HETATM    5  O2  UNL     1       0.399  52.614 -22.445  1.00  0.00    -0.311 OA
HETATM    6  C4  UNL     1      -0.498  51.584 -21.986  1.00  0.00     0.142 C 
HETATM    7  C5  UNL     1      -1.924  52.076 -22.191  1.00  0.00     0.039 C 
HETATM    8  C6  UNL     1      -3.025  51.198 -21.580  1.00  0.00     0.006 C 
HETATM    9  C7  UNL     1      -2.697  50.714 -20.148  1.00  0.00    -0.027 A 
HETATM   10  C8  UNL     1      -3.749  49.766 -19.539  1.00  0.00     0.011 C 
HETATM   11  C9  UNL     1      -4.324  48.705 -20.490  1.00  0.00     0.011 C 
HETATM   12  C10 UNL     1      -4.783  49.331 -21.816  1.00  0.00    -0.032 C 
HETATM   13  C11 UNL     1      -5.953  50.325 -21.534  1.00  0.00     0.016 C 
HETATM   14  C12 UNL     1      -5.236  48.352 -22.951  1.00  0.00    -0.002 C 
HETATM   15  C21 UNL     1      -4.951  49.186 -24.241  1.00  0.00     0.006 C 
HETATM   16  C22 UNL     1      -4.044  50.367 -23.851  1.00  0.00     0.011 C 
HETATM   17  C23 UNL     1      -3.502  50.001 -22.463  1.00  0.00    -0.032 C 
HETATM   18  C24 UNL     1      -2.321  49.004 -22.689  1.00  0.00     0.016 C 
HETATM   19  C25 UNL     1      -2.242  51.762 -19.162  1.00  0.00     0.022 A 
HETATM   20  C26 UNL     1      -1.220  50.745 -19.643  1.00  0.00    -0.021 A 
HETATM   21  C31 UNL     1      -0.098  51.269 -20.552  1.00  0.00     0.063 C 
ENDROOT
BRANCH  14  22
HETATM   22  C13 UNL     1      -6.679  47.756 -22.953  1.00  0.00    -0.014 C 
HETATM   23  C14 UNL     1      -6.675  46.231 -22.793  1.00  0.00     0.010 C 
BRANCH  22  24
HETATM   24  C15 UNL     1      -7.421  48.150 -24.261  1.00  0.00     0.008 C 
BRANCH  24  25
HETATM   25  C16 UNL     1      -7.175  47.186 -25.430  1.00  0.00     0.028 C 
BRANCH  25  26
HETATM   26  C17 UNL     1      -8.015  47.560 -26.621  1.00  0.00    -0.022 C 
HETATM   27  C18 UNL     1      -7.622  47.660 -27.908  1.00  0.00    -0.064 C 
HETATM   28  C19 UNL     1      -6.235  47.349 -28.403  1.00  0.00     0.045 C 
BRANCH  27  29
HETATM   29  C20 UNL     1      -8.593  48.078 -28.980  1.00  0.00     0.197 C 
BRANCH  29  30
HETATM   30  O3  UNL     1      -8.628  49.496 -29.037  1.00  0.00    -0.397 OA
HETATM   31  H29 UNL     1      -9.273  49.730 -29.725  1.00  0.00     0.209 HD
ENDBRANCH  29  30
ENDBRANCH  27  29
ENDBRANCH  25  26
ENDBRANCH  24  25
ENDBRANCH  22  24
ENDBRANCH  14  22
BRANCH  20  32
HETATM   32  C27 UNL     1      -0.748  49.603 -18.726  1.00  0.00     0.021 C 
BRANCH  32  33
HETATM   33  C28 UNL     1      -0.956  49.833 -17.230  1.00  0.00     0.112 C 
BRANCH  33  34
HETATM   34  C29 UNL     1       0.321  49.604 -16.457  1.00  0.00     0.258 C 
HETATM   35  O4  UNL     1       0.646  48.555 -15.920  1.00  0.00    -0.265 OA
BRANCH  34  36
HETATM   36  O5  UNL     1       1.048  50.758 -16.429  1.00  0.00    -0.326 OA
HETATM   37  C30 UNL     1       1.169  51.338 -15.130  1.00  0.00     0.213 C 
ENDBRANCH  34  36
ENDBRANCH  33  34
ENDBRANCH  32  33
ENDBRANCH  20  32
TORSDOF 10
ENDMDL
MODEL 9
REMARK minimizedAffinity -7.85731936
REMARK CNNscore 0.208278239
REMARK CNNaffinity 6.21261597
REMARK  10 active torsions:
REMARK  status: ('A' for Active; 'I' for Inactive)
REMARK    1  A    between atoms: C12_14  and  C13_15 
REMARK    2  A    between atoms: C13_15  and  C15_17 
REMARK    3  A    between atoms: C15_17  and  C16_18 
REMARK    4  A    between atoms: C16_18  and  C17_19 
REMARK    5  A    between atoms: C18_20  and  C20_22 
REMARK    6  A    between atoms: C20_22  and  O3_23 
REMARK    7  A    between atoms: C26_29  and  C27_30 
REMARK    8  A    between atoms: C27_30  and  C28_31 
REMARK    9  A    between atoms: C28_31  and  C29_32 
REMARK   10  A    between atoms: C29_32  and  O5_34 
ROOT
HETATM    1  C1  UNL     1      -9.017  47.658 -20.403  1.00  0.00     0.025 C 
HETATM    2  C2  UNL     1      -7.775  47.185 -20.574  1.00  0.00     0.015 C 
HETATM    3  C3  UNL     1      -7.317  45.960 -19.884  1.00  0.00     0.289 C 
HETATM    4  O1  UNL     1      -8.003  45.202 -19.223  1.00  0.00    -0.260 OA
HETATM    5  O2  UNL     1      -5.990  45.813 -20.132  1.00  0.00    -0.311 OA
HETATM    6  C4  UNL     1      -5.463  46.984 -20.786  1.00  0.00     0.142 C 
HETATM    7  C5  UNL     1      -4.661  47.774 -19.761  1.00  0.00     0.039 C 
HETATM    8  C6  UNL     1      -4.182  49.160 -20.216  1.00  0.00     0.006 C 
HETATM    9  C7  UNL     1      -5.268  49.968 -20.965  1.00  0.00    -0.027 A 
HETATM   10  C8  UNL     1      -4.792  51.331 -21.503  1.00  0.00     0.011 C 
HETATM   11  C9  UNL     1      -3.390  51.349 -22.132  1.00  0.00     0.011 C 
HETATM   12  C10 UNL     1      -2.356  50.675 -21.217  1.00  0.00    -0.032 C 
HETATM   13  C11 UNL     1      -2.236  51.493 -19.893  1.00  0.00     0.016 C 
HETATM   14  C12 UNL     1      -0.916  50.467 -21.795  1.00  0.00    -0.002 C 
HETATM   15  C21 UNL     1      -0.407  49.235 -20.982  1.00  0.00     0.006 C 
HETATM   16  C22 UNL     1      -1.624  48.582 -20.299  1.00  0.00     0.011 C 
HETATM   17  C23 UNL     1      -2.840  49.180 -21.016  1.00  0.00    -0.032 C 
HETATM   18  C24 UNL     1      -3.007  48.392 -22.355  1.00  0.00     0.016 C 
HETATM   19  C25 UNL     1      -6.623  50.061 -20.306  1.00  0.00     0.022 A 
HETATM   20  C26 UNL     1      -6.502  49.225 -21.569  1.00  0.00    -0.021 A 
HETATM   21  C31 UNL     1      -6.650  47.704 -21.408  1.00  0.00     0.063 C 
ENDROOT
BRANCH  14  22
HETATM   22  C13 UNL     1       0.118  51.637 -21.784  1.00  0.00    -0.014 C 
HETATM   23  C14 UNL     1       0.056  52.452 -20.487  1.00  0.00     0.010 C 
BRANCH  22  24
HETATM   24  C15 UNL     1      -0.113  52.569 -23.007  1.00  0.00     0.008 C 
BRANCH  24  25
HETATM   25  C16 UNL     1      -0.162  51.831 -24.351  1.00  0.00     0.028 C 
BRANCH  25  26
HETATM   26  C17 UNL     1      -0.455  52.784 -25.479  1.00  0.00    -0.022 C 
HETATM   27  C18 UNL     1      -0.123  52.649 -26.779  1.00  0.00    -0.064 C 
HETATM   28  C19 UNL     1       0.576  51.450 -27.362  1.00  0.00     0.045 C 
BRANCH  27  29
HETATM   29  C20 UNL     1      -0.470  53.721 -27.779  1.00  0.00     0.197 C 
BRANCH  29  30
HETATM   30  O3  UNL     1      -1.866  53.677 -28.029  1.00  0.00    -0.397 OA
HETATM   31  H29 UNL     1      -2.052  54.368 -28.686  1.00  0.00     0.209 HD
ENDBRANCH  29  30
ENDBRANCH  27  29
ENDBRANCH  25  26
ENDBRANCH  24  25
ENDBRANCH  22  24
ENDBRANCH  14  22
BRANCH  20  32
HETATM   32  C27 UNL     1      -7.062  49.731 -22.910  1.00  0.00     0.021 C 
BRANCH  32  33
HETATM   33  C28 UNL     1      -6.620  48.949 -24.145  1.00  0.00     0.112 C 
BRANCH  33  34
HETATM   34  C29 UNL     1      -7.771  48.182 -24.749  1.00  0.00     0.258 C 
HETATM   35  O4  UNL     1      -7.772  46.984 -24.996  1.00  0.00    -0.265 OA
BRANCH  34  36
HETATM   36  O5  UNL     1      -8.804  49.036 -25.001  1.00  0.00    -0.326 OA
HETATM   37  C30 UNL     1      -9.476  48.788 -26.237  1.00  0.00     0.213 C 
ENDBRANCH  34  36
ENDBRANCH  33  34
ENDBRANCH  32  33
ENDBRANCH  20  32
TORSDOF 10
ENDMDL
