MODEL 1
REMARK minimizedAffinity -9.72856045
REMARK  4 active torsions:
REMARK  status: ('A' for Active; 'I' for Inactive)
REMARK    1  A    between atoms: C4_4  and  C5_5 
REMARK    2  A    between atoms: C5_5  and  C6_7 
REMARK    3  A    between atoms: C6_7  and  C7_8 
REMARK    4  A    between atoms: C7_8  and  C9_10 
ROOT
HETATM    1  C9  UNL     1      -3.715  50.519 -24.861  1.00  0.00    -0.002 C 
HETATM    2  C10 UNL     1      -5.163  50.362 -24.303  1.00  0.00     0.006 C 
HETATM    3  C11 UNL     1      -5.074  50.454 -22.765  1.00  0.00     0.011 C 
HETATM    4  C12 UNL     1      -3.671  51.021 -22.485  1.00  0.00    -0.032 C 
HETATM    5  C13 UNL     1      -3.792  52.574 -22.705  1.00  0.00     0.016 C 
HETATM    6  C14 UNL     1      -3.065  50.844 -21.051  1.00  0.00     0.004 C 
HETATM    7  C15 UNL     1      -3.784  49.852 -20.128  1.00  0.00     0.007 C 
HETATM    8  C16 UNL     1      -3.165  49.758 -18.719  1.00  0.00     0.007 C 
HETATM    9  C17 UNL     1      -1.916  50.645 -18.484  1.00  0.00     0.010 C 
HETATM   10  C18 UNL     1      -1.198  50.388 -17.119  1.00  0.00     0.018 C 
HETATM   11  C19 UNL     1      -2.171  50.615 -15.946  1.00  0.00     0.023 C 
HETATM   12  C20 UNL     1      -0.602  48.976 -17.005  1.00  0.00     0.023 C 
HETATM   13  C21 UNL     1      -0.044  51.391 -16.963  1.00  0.00     0.135 C 
HETATM   14  O2  UNL     1       0.532  51.558 -15.886  1.00  0.00    -0.297 OA
HETATM   15  C22 UNL     1       0.356  52.202 -18.172  1.00  0.00     0.080 C 
HETATM   16  C23 UNL     1       0.407  51.306 -19.397  1.00  0.00     0.018 C 
HETATM   17  C24 UNL     1      -0.918  50.606 -19.662  1.00  0.00    -0.026 A 
HETATM   18  C25 UNL     1      -0.865  49.369 -20.520  1.00  0.00     0.021 A 
HETATM   19  C26 UNL     1      -1.536  50.616 -21.076  1.00  0.00    -0.027 A 
HETATM   20  C27 UNL     1      -0.824  51.265 -22.255  1.00  0.00     0.011 C 
HETATM   21  C28 UNL     1      -1.417  50.914 -23.636  1.00  0.00     0.011 C 
HETATM   22  C29 UNL     1      -2.824  50.288 -23.593  1.00  0.00    -0.032 C 
HETATM   23  C30 UNL     1      -2.687  48.763 -23.343  1.00  0.00     0.016 C 
ENDROOT
BRANCH   1  24
HETATM   24  C7  UNL     1      -3.494  49.797 -26.228  1.00  0.00    -0.007 C 
HETATM   25  C8  UNL     1      -2.734  48.466 -26.213  1.00  0.00     0.011 C 
BRANCH  24  26
HETATM   26  C6  UNL     1      -3.056  50.772 -27.350  1.00  0.00     0.087 C 
BRANCH  26  27
HETATM   27  C5  UNL     1      -2.101  51.884 -26.959  1.00  0.00     0.149 C 
HETATM   28  O1  UNL     1      -2.394  53.070 -27.115  1.00  0.00    -0.293 OA
BRANCH  27  29
HETATM   29  C4  UNL     1      -0.716  51.573 -26.498  1.00  0.00     0.052 C 
HETATM   30  C2  UNL     1       0.464  51.608 -27.148  1.00  0.00    -0.084 C 
HETATM   31  C1  UNL     1       0.687  51.914 -28.603  1.00  0.00     0.043 C 
HETATM   32  C3  UNL     1       1.734  51.268 -26.405  1.00  0.00     0.043 C 
ENDBRANCH  27  29
ENDBRANCH  26  27
ENDBRANCH  24  26
ENDBRANCH   1  24
TORSDOF 4
ENDMDL
MODEL 2
REMARK minimizedAffinity -9.52079105
REMARK  4 active torsions:
REMARK  status: ('A' for Active; 'I' for Inactive)
REMARK    1  A    between atoms: C4_4  and  C5_5 
REMARK    2  A    between atoms: C5_5  and  C6_7 
REMARK    3  A    between atoms: C6_7  and  C7_8 
REMARK    4  A    between atoms: C7_8  and  C9_10 
ROOT
HETATM    1  C9  UNL     1      -1.359  49.574 -18.356  1.00  0.00    -0.002 C 
HETATM    2  C10 UNL     1      -2.446  48.468 -18.517  1.00  0.00     0.006 C 
HETATM    3  C11 UNL     1      -2.749  48.339 -20.025  1.00  0.00     0.011 C 
HETATM    4  C12 UNL     1      -1.597  49.084 -20.723  1.00  0.00    -0.032 C 
HETATM    5  C13 UNL     1      -0.392  48.075 -20.742  1.00  0.00     0.016 C 
HETATM    6  C14 UNL     1      -1.791  49.538 -22.209  1.00  0.00     0.004 C 
HETATM    7  C15 UNL     1      -3.224  49.478 -22.755  1.00  0.00     0.007 C 
HETATM    8  C16 UNL     1      -3.339  49.895 -24.236  1.00  0.00     0.007 C 
HETATM    9  C17 UNL     1      -2.012  50.330 -24.907  1.00  0.00     0.010 C 
HETATM   10  C18 UNL     1      -2.188  50.927 -26.341  1.00  0.00     0.018 C 
HETATM   11  C19 UNL     1      -2.879  49.909 -27.268  1.00  0.00     0.023 C 
HETATM   12  C20 UNL     1      -2.988  52.238 -26.357  1.00  0.00     0.023 C 
HETATM   13  C21 UNL     1      -0.801  51.224 -26.933  1.00  0.00     0.135 C 
HETATM   14  O2  UNL     1      -0.644  51.480 -28.129  1.00  0.00    -0.297 OA
HETATM   15  C22 UNL     1       0.390  51.166 -26.008  1.00  0.00     0.080 C 
HETATM   16  C23 UNL     1       0.058  51.860 -24.699  1.00  0.00     0.018 C 
HETATM   17  C24 UNL     1      -1.158  51.255 -24.012  1.00  0.00    -0.026 A 
HETATM   18  C25 UNL     1      -1.858  52.121 -22.997  1.00  0.00     0.021 A 
HETATM   19  C26 UNL     1      -1.107  50.891 -22.513  1.00  0.00    -0.027 A 
HETATM   20  C27 UNL     1       0.125  51.175 -21.664  1.00  0.00     0.011 C 
HETATM   21  C28 UNL     1      -0.100  51.044 -20.143  1.00  0.00     0.011 C 
HETATM   22  C29 UNL     1      -1.389  50.301 -19.743  1.00  0.00    -0.032 C 
HETATM   23  C30 UNL     1      -2.572  51.305 -19.760  1.00  0.00     0.016 C 
ENDROOT
BRANCH   1  24
HETATM   24  C7  UNL     1      -1.421  50.311 -16.981  1.00  0.00    -0.007 C 
HETATM   25  C8  UNL     1      -2.798  50.496 -16.336  1.00  0.00     0.011 C 
BRANCH  24  26
HETATM   26  C6  UNL     1      -0.522  51.574 -16.942  1.00  0.00     0.087 C 
BRANCH  26  27
HETATM   27  C5  UNL     1       0.511  51.646 -15.832  1.00  0.00     0.149 C 
HETATM   28  O1  UNL     1       0.213  51.423 -14.659  1.00  0.00    -0.293 OA
BRANCH  27  29
HETATM   29  C4  UNL     1       1.896  52.126 -16.110  1.00  0.00     0.052 C 
HETATM   30  C2  UNL     1       3.073  51.825 -15.527  1.00  0.00    -0.084 C 
HETATM   31  C1  UNL     1       3.291  50.935 -14.334  1.00  0.00     0.043 C 
HETATM   32  C3  UNL     1       4.345  52.449 -16.050  1.00  0.00     0.043 C 
ENDBRANCH  27  29
ENDBRANCH  26  27
ENDBRANCH  24  26
ENDBRANCH   1  24
TORSDOF 4
ENDMDL
MODEL 3
REMARK minimizedAffinity -9.45676422
REMARK  4 active torsions:
REMARK  status: ('A' for Active; 'I' for Inactive)
REMARK    1  A    between atoms: C4_4  and  C5_5 
REMARK    2  A    between atoms: C5_5  and  C6_7 
REMARK    3  A    between atoms: C6_7  and  C7_8 
REMARK    4  A    between atoms: C7_8  and  C9_10 
ROOT
HETATM    1  C9  UNL     1      -0.247  50.856 -21.553  1.00  0.00    -0.002 C 
HETATM    2  C10 UNL     1      -0.020  50.819 -20.011  1.00  0.00     0.006 C 
HETATM    3  C11 UNL     1      -1.188  50.022 -19.395  1.00  0.00     0.011 C 
HETATM    4  C12 UNL     1      -1.851  49.310 -20.588  1.00  0.00    -0.032 C 
HETATM    5  C13 UNL     1      -0.961  48.045 -20.872  1.00  0.00     0.016 C 
HETATM    6  C14 UNL     1      -3.311  48.769 -20.418  1.00  0.00     0.004 C 
HETATM    7  C15 UNL     1      -4.079  49.260 -19.184  1.00  0.00     0.007 C 
HETATM    8  C16 UNL     1      -5.492  48.656 -19.053  1.00  0.00     0.007 C 
HETATM    9  C17 UNL     1      -5.908  47.692 -20.192  1.00  0.00     0.010 C 
HETATM   10  C18 UNL     1      -7.406  47.248 -20.136  1.00  0.00     0.018 C 
HETATM   11  C19 UNL     1      -7.715  46.559 -18.793  1.00  0.00     0.023 C 
HETATM   12  C20 UNL     1      -8.390  48.410 -20.338  1.00  0.00     0.023 C 
HETATM   13  C21 UNL     1      -7.666  46.222 -21.251  1.00  0.00     0.135 C 
HETATM   14  O2  UNL     1      -8.694  45.543 -21.285  1.00  0.00    -0.297 OA
HETATM   15  C22 UNL     1      -6.602  46.041 -22.307  1.00  0.00     0.080 C 
HETATM   16  C23 UNL     1      -6.083  47.397 -22.751  1.00  0.00     0.018 C 
HETATM   17  C24 UNL     1      -5.527  48.215 -21.594  1.00  0.00    -0.026 A 
HETATM   18  C25 UNL     1      -5.432  49.703 -21.807  1.00  0.00     0.021 A 
HETATM   19  C26 UNL     1      -4.147  48.895 -21.713  1.00  0.00    -0.027 A 
HETATM   20  C27 UNL     1      -3.330  48.826 -22.996  1.00  0.00     0.011 C 
HETATM   21  C28 UNL     1      -2.141  49.809 -23.054  1.00  0.00     0.011 C 
HETATM   22  C29 UNL     1      -1.745  50.423 -21.698  1.00  0.00    -0.032 C 
HETATM   23  C30 UNL     1      -2.654  51.649 -21.419  1.00  0.00     0.016 C 
ENDROOT
BRANCH   1  24
HETATM   24  C7  UNL     1       0.370  52.115 -22.243  1.00  0.00    -0.007 C 
HETATM   25  C8  UNL     1       0.718  53.313 -21.354  1.00  0.00     0.011 C 
BRANCH  24  26
HETATM   26  C6  UNL     1      -0.357  52.486 -23.561  1.00  0.00     0.087 C 
BRANCH  26  27
HETATM   27  C5  UNL     1       0.471  53.177 -24.629  1.00  0.00     0.149 C 
HETATM   28  O1  UNL     1       1.153  54.170 -24.373  1.00  0.00    -0.293 OA
BRANCH  27  29
HETATM   29  C4  UNL     1       0.377  52.757 -26.058  1.00  0.00     0.052 C 
HETATM   30  C2  UNL     1       1.174  51.968 -26.804  1.00  0.00    -0.084 C 
HETATM   31  C1  UNL     1       2.473  51.336 -26.385  1.00  0.00     0.043 C 
HETATM   32  C3  UNL     1       0.806  51.685 -28.241  1.00  0.00     0.043 C 
ENDBRANCH  27  29
ENDBRANCH  26  27
ENDBRANCH  24  26
ENDBRANCH   1  24
TORSDOF 4
ENDMDL
MODEL 4
REMARK minimizedAffinity -9.16926193
REMARK  4 active torsions:
REMARK  status: ('A' for Active; 'I' for Inactive)
REMARK    1  A    between atoms: C4_4  and  C5_5 
REMARK    2  A    between atoms: C5_5  and  C6_7 
REMARK    3  A    between atoms: C6_7  and  C7_8 
REMARK    4  A    between atoms: C7_8  and  C9_10 
ROOT
HETATM    1  C9  UNL     1      -1.971  51.390 -24.237  1.00  0.00    -0.002 C 
HETATM    2  C10 UNL     1      -2.812  52.685 -24.026  1.00  0.00     0.006 C 
HETATM    3  C11 UNL     1      -4.073  52.288 -23.231  1.00  0.00     0.011 C 
HETATM    4  C12 UNL     1      -3.768  50.882 -22.685  1.00  0.00    -0.032 C 
HETATM    5  C13 UNL     1      -2.873  51.108 -21.412  1.00  0.00     0.016 C 
HETATM    6  C14 UNL     1      -4.963  49.989 -22.207  1.00  0.00     0.004 C 
HETATM    7  C15 UNL     1      -6.367  50.464 -22.606  1.00  0.00     0.007 C 
HETATM    8  C16 UNL     1      -7.500  49.566 -22.067  1.00  0.00     0.007 C 
HETATM    9  C17 UNL     1      -7.036  48.333 -21.252  1.00  0.00     0.010 C 
HETATM   10  C18 UNL     1      -8.188  47.342 -20.884  1.00  0.00     0.018 C 
HETATM   11  C19 UNL     1      -9.283  48.063 -20.075  1.00  0.00     0.023 C 
HETATM   12  C20 UNL     1      -8.831  46.678 -22.111  1.00  0.00     0.023 C 
HETATM   13  C21 UNL     1      -7.621  46.222 -19.996  1.00  0.00     0.135 C 
HETATM   14  O2  UNL     1      -8.353  45.445 -19.380  1.00  0.00    -0.297 OA
HETATM   15  C22 UNL     1      -6.120  46.110 -19.871  1.00  0.00     0.080 C 
HETATM   16  C23 UNL     1      -5.478  46.274 -21.237  1.00  0.00     0.018 C 
HETATM   17  C24 UNL     1      -5.843  47.596 -21.898  1.00  0.00    -0.026 A 
HETATM   18  C25 UNL     1      -5.676  47.669 -23.393  1.00  0.00     0.021 A 
HETATM   19  C26 UNL     1      -4.745  48.489 -22.513  1.00  0.00    -0.027 A 
HETATM   20  C27 UNL     1      -3.285  48.060 -22.536  1.00  0.00     0.011 C 
HETATM   21  C28 UNL     1      -2.380  48.908 -23.455  1.00  0.00     0.011 C 
HETATM   22  C29 UNL     1      -2.991  50.250 -23.902  1.00  0.00    -0.032 C 
HETATM   23  C30 UNL     1      -3.896  50.002 -25.138  1.00  0.00     0.016 C 
ENDROOT
BRANCH   1  24
HETATM   24  C7  UNL     1      -1.090  51.422 -25.526  1.00  0.00    -0.007 C 
HETATM   25  C8  UNL     1      -1.294  50.304 -26.554  1.00  0.00     0.011 C 
BRANCH  24  26
HETATM   26  C6  UNL     1       0.394  51.752 -25.225  1.00  0.00     0.087 C 
BRANCH  26  27
HETATM   27  C5  UNL     1       0.661  52.790 -24.151  1.00  0.00     0.149 C 
HETATM   28  O1  UNL     1       1.105  53.905 -24.429  1.00  0.00    -0.293 OA
BRANCH  27  29
HETATM   29  C4  UNL     1       0.525  52.445 -22.705  1.00  0.00     0.052 C 
HETATM   30  C2  UNL     1       0.876  53.124 -21.595  1.00  0.00    -0.084 C 
HETATM   31  C1  UNL     1       1.603  54.439 -21.528  1.00  0.00     0.043 C 
HETATM   32  C3  UNL     1       0.579  52.533 -20.237  1.00  0.00     0.043 C 
ENDBRANCH  27  29
ENDBRANCH  26  27
ENDBRANCH  24  26
ENDBRANCH   1  24
TORSDOF 4
ENDMDL
MODEL 5
REMARK minimizedAffinity -9.03288651
REMARK  4 active torsions:
REMARK  status: ('A' for Active; 'I' for Inactive)
REMARK    1  A    between atoms: C4_4  and  C5_5 
REMARK    2  A    between atoms: C5_5  and  C6_7 
REMARK    3  A    between atoms: C6_7  and  C7_8 
REMARK    4  A    between atoms: C7_8  and  C9_10 
ROOT
HETATM    1  C9  UNL     1      -1.715  52.081 -22.714  1.00  0.00    -0.002 C 
HETATM    2  C10 UNL     1      -1.946  52.268 -24.244  1.00  0.00     0.006 C 
HETATM    3  C11 UNL     1      -3.240  51.509 -24.609  1.00  0.00     0.011 C 
HETATM    4  C12 UNL     1      -3.919  51.219 -23.259  1.00  0.00    -0.032 C 
HETATM    5  C13 UNL     1      -4.654  52.551 -22.861  1.00  0.00     0.016 C 
HETATM    6  C14 UNL     1      -5.014  50.100 -23.197  1.00  0.00     0.004 C 
HETATM    7  C15 UNL     1      -5.104  49.171 -24.415  1.00  0.00     0.007 C 
HETATM    8  C16 UNL     1      -6.229  48.121 -24.311  1.00  0.00     0.007 C 
HETATM    9  C17 UNL     1      -7.048  48.157 -22.996  1.00  0.00     0.010 C 
HETATM   10  C18 UNL     1      -8.049  46.968 -22.835  1.00  0.00     0.018 C 
HETATM   11  C19 UNL     1      -9.041  46.933 -24.014  1.00  0.00     0.023 C 
HETATM   12  C20 UNL     1      -7.354  45.602 -22.730  1.00  0.00     0.023 C 
HETATM   13  C21 UNL     1      -8.867  47.171 -21.550  1.00  0.00     0.135 C 
HETATM   14  O2  UNL     1      -9.877  46.508 -21.308  1.00  0.00    -0.297 OA
HETATM   15  C22 UNL     1      -8.414  48.241 -20.586  1.00  0.00     0.080 C 
HETATM   16  C23 UNL     1      -6.906  48.176 -20.418  1.00  0.00     0.018 C 
HETATM   17  C24 UNL     1      -6.167  48.327 -21.740  1.00  0.00    -0.026 A 
HETATM   18  C25 UNL     1      -4.750  47.815 -21.780  1.00  0.00     0.021 A 
HETATM   19  C26 UNL     1      -4.988  49.315 -21.865  1.00  0.00    -0.027 A 
HETATM   20  C27 UNL     1      -4.489  50.119 -20.673  1.00  0.00     0.011 C 
HETATM   21  C28 UNL     1      -3.125  50.809 -20.889  1.00  0.00     0.011 C 
HETATM   22  C29 UNL     1      -2.669  50.891 -22.358  1.00  0.00    -0.032 C 
HETATM   23  C30 UNL     1      -1.976  49.556 -22.742  1.00  0.00     0.016 C 
ENDROOT
BRANCH   1  24
HETATM   24  C7  UNL     1      -0.211  52.150 -22.298  1.00  0.00    -0.007 C 
HETATM   25  C8  UNL     1       0.208  53.264 -21.334  1.00  0.00     0.011 C 
BRANCH  24  26
HETATM   26  C6  UNL     1       0.747  51.949 -23.500  1.00  0.00     0.087 C 
BRANCH  26  27
HETATM   27  C5  UNL     1       0.842  53.088 -24.499  1.00  0.00     0.149 C 
HETATM   28  O1  UNL     1       1.032  54.249 -24.137  1.00  0.00    -0.293 OA
BRANCH  27  29
HETATM   29  C4  UNL     1       0.569  52.855 -25.948  1.00  0.00     0.052 C 
HETATM   30  C2  UNL     1       1.235  52.133 -26.870  1.00  0.00    -0.084 C 
HETATM   31  C1  UNL     1       2.533  51.398 -26.682  1.00  0.00     0.043 C 
HETATM   32  C3  UNL     1       0.696  52.048 -28.279  1.00  0.00     0.043 C 
ENDBRANCH  27  29
ENDBRANCH  26  27
ENDBRANCH  24  26
ENDBRANCH   1  24
TORSDOF 4
ENDMDL
MODEL 6
REMARK minimizedAffinity -9.03179646
REMARK  4 active torsions:
REMARK  status: ('A' for Active; 'I' for Inactive)
REMARK    1  A    between atoms: C4_4  and  C5_5 
REMARK    2  A    between atoms: C5_5  and  C6_7 
REMARK    3  A    between atoms: C6_7  and  C7_8 
REMARK    4  A    between atoms: C7_8  and  C9_10 
ROOT
HETATM    1  C9  UNL     1      -2.866  50.233 -21.366  1.00  0.00    -0.002 C 
HETATM    2  C10 UNL     1      -1.954  51.318 -22.015  1.00  0.00     0.006 C 
HETATM    3  C11 UNL     1      -0.802  51.600 -21.027  1.00  0.00     0.011 C 
HETATM    4  C12 UNL     1      -0.855  50.438 -20.019  1.00  0.00    -0.032 C 
HETATM    5  C13 UNL     1      -0.133  49.233 -20.725  1.00  0.00     0.016 C 
HETATM    6  C14 UNL     1      -0.134  50.611 -18.639  1.00  0.00     0.004 C 
HETATM    7  C15 UNL     1       0.305  52.036 -18.277  1.00  0.00     0.007 C 
HETATM    8  C16 UNL     1       1.047  52.130 -16.928  1.00  0.00     0.007 C 
HETATM    9  C17 UNL     1       1.194  50.793 -16.158  1.00  0.00     0.010 C 
HETATM   10  C18 UNL     1       1.776  50.948 -14.716  1.00  0.00     0.018 C 
HETATM   11  C19 UNL     1       3.159  51.627 -14.761  1.00  0.00     0.023 C 
HETATM   12  C20 UNL     1       0.860  51.748 -13.776  1.00  0.00     0.023 C 
HETATM   13  C21 UNL     1       1.966  49.553 -14.099  1.00  0.00     0.135 C 
HETATM   14  O2  UNL     1       2.620  49.379 -13.069  1.00  0.00    -0.297 OA
HETATM   15  C22 UNL     1       1.347  48.375 -14.812  1.00  0.00     0.080 C 
HETATM   16  C23 UNL     1      -0.062  48.726 -15.255  1.00  0.00     0.018 C 
HETATM   17  C24 UNL     1      -0.101  49.952 -16.157  1.00  0.00    -0.026 A 
HETATM   18  C25 UNL     1      -1.423  50.666 -16.265  1.00  0.00     0.021 A 
HETATM   19  C26 UNL     1      -0.892  49.922 -17.481  1.00  0.00    -0.027 A 
HETATM   20  C27 UNL     1      -1.703  48.702 -17.900  1.00  0.00     0.011 C 
HETATM   21  C28 UNL     1      -2.674  48.949 -19.074  1.00  0.00     0.011 C 
HETATM   22  C29 UNL     1      -2.412  50.244 -19.867  1.00  0.00    -0.032 C 
HETATM   23  C30 UNL     1      -3.103  51.426 -19.138  1.00  0.00     0.016 C 
ENDROOT
BRANCH   1  24
HETATM   24  C7  UNL     1      -4.355  50.314 -21.828  1.00  0.00    -0.007 C 
HETATM   25  C8  UNL     1      -5.377  50.877 -20.835  1.00  0.00     0.011 C 
BRANCH  24  26
HETATM   26  C6  UNL     1      -4.819  49.033 -22.567  1.00  0.00     0.087 C 
BRANCH  26  27
HETATM   27  C5  UNL     1      -4.017  48.616 -23.786  1.00  0.00     0.149 C 
HETATM   28  O1  UNL     1      -2.788  48.546 -23.756  1.00  0.00    -0.293 OA
BRANCH  27  29
HETATM   29  C4  UNL     1      -4.685  48.411 -25.104  1.00  0.00     0.052 C 
HETATM   30  C2  UNL     1      -4.187  48.383 -26.356  1.00  0.00    -0.084 C 
HETATM   31  C1  UNL     1      -2.765  48.641 -26.771  1.00  0.00     0.043 C 
HETATM   32  C3  UNL     1      -5.112  48.116 -27.520  1.00  0.00     0.043 C 
ENDBRANCH  27  29
ENDBRANCH  26  27
ENDBRANCH  24  26
ENDBRANCH   1  24
TORSDOF 4
ENDMDL
MODEL 7
REMARK minimizedAffinity -9.00210381
REMARK  4 active torsions:
REMARK  status: ('A' for Active; 'I' for Inactive)
REMARK    1  A    between atoms: C4_4  and  C5_5 
REMARK    2  A    between atoms: C5_5  and  C6_7 
REMARK    3  A    between atoms: C6_7  and  C7_8 
REMARK    4  A    between atoms: C7_8  and  C9_10 
ROOT
HETATM    1  C9  UNL     1      -1.345  49.841 -18.264  1.00  0.00    -0.002 C 
HETATM    2  C10 UNL     1      -2.420  48.719 -18.385  1.00  0.00     0.006 C 
HETATM    3  C11 UNL     1      -2.720  48.530 -19.887  1.00  0.00     0.011 C 
HETATM    4  C12 UNL     1      -1.575  49.261 -20.612  1.00  0.00    -0.032 C 
HETATM    5  C13 UNL     1      -0.359  48.264 -20.592  1.00  0.00     0.016 C 
HETATM    6  C14 UNL     1      -1.773  49.656 -22.114  1.00  0.00     0.004 C 
HETATM    7  C15 UNL     1      -3.204  49.561 -22.659  1.00  0.00     0.007 C 
HETATM    8  C16 UNL     1      -3.322  49.920 -24.154  1.00  0.00     0.007 C 
HETATM    9  C17 UNL     1      -1.998  50.344 -24.840  1.00  0.00     0.010 C 
HETATM   10  C18 UNL     1      -2.178  50.884 -26.295  1.00  0.00     0.018 C 
HETATM   11  C19 UNL     1      -2.858  49.825 -27.185  1.00  0.00     0.023 C 
HETATM   12  C20 UNL     1      -2.993  52.186 -26.362  1.00  0.00     0.023 C 
HETATM   13  C21 UNL     1      -0.794  51.174 -26.897  1.00  0.00     0.135 C 
HETATM   14  O2  UNL     1      -0.639  51.387 -28.102  1.00  0.00    -0.297 OA
HETATM   15  C22 UNL     1       0.396  51.164 -25.969  1.00  0.00     0.080 C 
HETATM   16  C23 UNL     1       0.055  51.902 -24.687  1.00  0.00     0.018 C 
HETATM   17  C24 UNL     1      -1.156  51.311 -23.979  1.00  0.00    -0.026 A 
HETATM   18  C25 UNL     1      -1.866  52.207 -22.999  1.00  0.00     0.021 A 
HETATM   19  C26 UNL     1      -1.102  51.004 -22.468  1.00  0.00    -0.027 A 
HETATM   20  C27 UNL     1       0.125  51.333 -21.629  1.00  0.00     0.011 C 
HETATM   21  C28 UNL     1      -0.101  51.257 -20.104  1.00  0.00     0.011 C 
HETATM   22  C29 UNL     1      -1.382  50.516 -19.678  1.00  0.00    -0.032 C 
HETATM   23  C30 UNL     1      -2.576  51.505 -19.734  1.00  0.00     0.016 C 
ENDROOT
BRANCH   1  24
HETATM   24  C7  UNL     1      -1.417  50.629 -16.918  1.00  0.00    -0.007 C 
HETATM   25  C8  UNL     1      -0.163  50.647 -16.038  1.00  0.00     0.011 C 
BRANCH  24  26
HETATM   26  C6  UNL     1      -2.737  50.370 -16.147  1.00  0.00     0.087 C 
BRANCH  26  27
HETATM   27  C5  UNL     1      -2.647  50.317 -14.633  1.00  0.00     0.149 C 
HETATM   28  O1  UNL     1      -2.350  49.279 -14.041  1.00  0.00    -0.293 OA
BRANCH  27  29
HETATM   29  C4  UNL     1      -3.051  51.490 -13.804  1.00  0.00     0.052 C 
HETATM   30  C2  UNL     1      -3.380  51.583 -12.500  1.00  0.00    -0.084 C 
HETATM   31  C1  UNL     1      -3.503  50.455 -11.514  1.00  0.00     0.043 C 
HETATM   32  C3  UNL     1      -3.719  52.933 -11.913  1.00  0.00     0.043 C 
ENDBRANCH  27  29
ENDBRANCH  26  27
ENDBRANCH  24  26
ENDBRANCH   1  24
TORSDOF 4
ENDMDL
MODEL 8
REMARK minimizedAffinity -8.81754684
REMARK  4 active torsions:
REMARK  status: ('A' for Active; 'I' for Inactive)
REMARK    1  A    between atoms: C4_4  and  C5_5 
REMARK    2  A    between atoms: C5_5  and  C6_7 
REMARK    3  A    between atoms: C6_7  and  C7_8 
REMARK    4  A    between atoms: C7_8  and  C9_10 
ROOT
HETATM    1  C9  UNL     1      -6.280  48.504 -20.520  1.00  0.00    -0.002 C 
HETATM    2  C10 UNL     1      -6.308  47.241 -21.434  1.00  0.00     0.006 C 
HETATM    3  C11 UNL     1      -5.192  47.413 -22.486  1.00  0.00     0.011 C 
HETATM    4  C12 UNL     1      -4.318  48.560 -21.950  1.00  0.00    -0.032 C 
HETATM    5  C13 UNL     1      -3.382  47.907 -20.868  1.00  0.00     0.016 C 
HETATM    6  C14 UNL     1      -3.360  49.299 -22.945  1.00  0.00     0.004 C 
HETATM    7  C15 UNL     1      -3.593  49.030 -24.437  1.00  0.00     0.007 C 
HETATM    8  C16 UNL     1      -2.590  49.752 -25.360  1.00  0.00     0.007 C 
HETATM    9  C17 UNL     1      -1.549  50.645 -24.637  1.00  0.00     0.010 C 
HETATM   10  C18 UNL     1      -0.673  51.510 -25.600  1.00  0.00     0.018 C 
HETATM   11  C19 UNL     1       0.082  50.611 -26.598  1.00  0.00     0.023 C 
HETATM   12  C20 UNL     1      -1.485  52.553 -26.384  1.00  0.00     0.023 C 
HETATM   13  C21 UNL     1       0.379  52.268 -24.774  1.00  0.00     0.135 C 
HETATM   14  O2  UNL     1       1.336  52.836 -25.303  1.00  0.00    -0.297 OA
HETATM   15  C22 UNL     1       0.226  52.277 -23.272  1.00  0.00     0.080 C 
HETATM   16  C23 UNL     1      -1.225  52.531 -22.905  1.00  0.00     0.018 C 
HETATM   17  C24 UNL     1      -2.168  51.502 -23.512  1.00  0.00    -0.026 A 
HETATM   18  C25 UNL     1      -3.616  51.902 -23.625  1.00  0.00     0.021 A 
HETATM   19  C26 UNL     1      -3.234  50.810 -22.638  1.00  0.00    -0.027 A 
HETATM   20  C27 UNL     1      -3.420  51.168 -21.170  1.00  0.00     0.011 C 
HETATM   21  C28 UNL     1      -4.715  50.622 -20.534  1.00  0.00     0.011 C 
HETATM   22  C29 UNL     1      -5.416  49.516 -21.345  1.00  0.00    -0.032 C 
HETATM   23  C30 UNL     1      -6.309  50.177 -22.428  1.00  0.00     0.016 C 
ENDROOT
BRANCH   1  24
HETATM   24  C7  UNL     1      -7.668  48.848 -19.893  1.00  0.00    -0.007 C 
HETATM   25  C8  UNL     1      -7.781  48.833 -18.365  1.00  0.00     0.011 C 
BRANCH  24  26
HETATM   26  C6  UNL     1      -8.842  48.153 -20.629  1.00  0.00     0.087 C 
BRANCH  26  27
HETATM   27  C5  UNL     1      -9.885  47.470 -19.763  1.00  0.00     0.149 C 
HETATM   28  O1  UNL     1      -9.719  46.328 -19.334  1.00  0.00    -0.293 OA
BRANCH  27  29
HETATM   29  C4  UNL     1     -11.211  48.111 -19.519  1.00  0.00     0.052 C 
HETATM   30  C2  UNL     1     -12.411  47.914 -20.099  1.00  0.00    -0.084 C 
HETATM   31  C1  UNL     1     -12.721  47.003 -21.254  1.00  0.00     0.043 C 
HETATM   32  C3  UNL     1     -13.609  48.697 -19.615  1.00  0.00     0.043 C 
ENDBRANCH  27  29
ENDBRANCH  26  27
ENDBRANCH  24  26
ENDBRANCH   1  24
TORSDOF 4
ENDMDL
MODEL 9
REMARK minimizedAffinity -8.80038929
REMARK  4 active torsions:
REMARK  status: ('A' for Active; 'I' for Inactive)
REMARK    1  A    between atoms: C4_4  and  C5_5 
REMARK    2  A    between atoms: C5_5  and  C6_7 
REMARK    3  A    between atoms: C6_7  and  C7_8 
REMARK    4  A    between atoms: C7_8  and  C9_10 
ROOT
HETATM    1  C9  UNL     1      -1.725  52.436 -24.099  1.00  0.00    -0.002 C 
HETATM    2  C10 UNL     1      -2.029  52.259 -25.618  1.00  0.00     0.006 C 
HETATM    3  C11 UNL     1      -3.260  51.335 -25.734  1.00  0.00     0.011 C 
HETATM    4  C12 UNL     1      -3.859  51.297 -24.317  1.00  0.00    -0.032 C 
HETATM    5  C13 UNL     1      -4.697  52.620 -24.177  1.00  0.00     0.016 C 
HETATM    6  C14 UNL     1      -4.842  50.134 -23.951  1.00  0.00     0.004 C 
HETATM    7  C15 UNL     1      -4.892  48.954 -24.930  1.00  0.00     0.007 C 
HETATM    8  C16 UNL     1      -5.910  47.865 -24.535  1.00  0.00     0.007 C 
HETATM    9  C17 UNL     1      -6.680  48.125 -23.216  1.00  0.00     0.010 C 
HETATM   10  C18 UNL     1      -7.560  46.923 -22.743  1.00  0.00     0.018 C 
HETATM   11  C19 UNL     1      -8.588  46.547 -23.827  1.00  0.00     0.023 C 
HETATM   12  C20 UNL     1      -6.738  45.676 -22.382  1.00  0.00     0.023 C 
HETATM   13  C21 UNL     1      -8.344  47.340 -21.488  1.00  0.00     0.135 C 
HETATM   14  O2  UNL     1      -9.279  46.666 -21.051  1.00  0.00    -0.297 OA
HETATM   15  C22 UNL     1      -7.956  48.630 -20.807  1.00  0.00     0.080 C 
HETATM   16  C23 UNL     1      -6.443  48.727 -20.716  1.00  0.00     0.018 C 
HETATM   17  C24 UNL     1      -5.771  48.641 -22.079  1.00  0.00    -0.026 A 
HETATM   18  C25 UNL     1      -4.316  48.250 -22.087  1.00  0.00     0.021 A 
HETATM   19  C26 UNL     1      -4.694  49.669 -22.483  1.00  0.00    -0.027 A 
HETATM   20  C27 UNL     1      -4.227  50.756 -21.525  1.00  0.00     0.011 C 
HETATM   21  C28 UNL     1      -2.942  51.490 -21.963  1.00  0.00     0.011 C 
HETATM   22  C29 UNL     1      -2.550  51.280 -23.438  1.00  0.00    -0.032 C 
HETATM   23  C30 UNL     1      -1.752  49.955 -23.562  1.00  0.00     0.016 C 
ENDROOT
BRANCH   1  24
HETATM   24  C7  UNL     1      -0.219  52.718 -23.795  1.00  0.00    -0.007 C 
HETATM   25  C8  UNL     1       0.809  52.302 -24.852  1.00  0.00     0.011 C 
BRANCH  24  26
HETATM   26  C6  UNL     1       0.173  52.350 -22.341  1.00  0.00     0.087 C 
BRANCH  26  27
HETATM   27  C5  UNL     1       0.940  53.395 -21.552  1.00  0.00     0.149 C 
HETATM   28  O1  UNL     1       1.382  54.412 -22.089  1.00  0.00    -0.293 OA
BRANCH  27  29
HETATM   29  C4  UNL     1       1.305  53.157 -20.125  1.00  0.00     0.052 C 
HETATM   30  C2  UNL     1       0.569  52.726 -19.082  1.00  0.00    -0.084 C 
HETATM   31  C1  UNL     1      -0.905  52.432 -19.073  1.00  0.00     0.043 C 
HETATM   32  C3  UNL     1       1.225  52.543 -17.734  1.00  0.00     0.043 C 
ENDBRANCH  27  29
ENDBRANCH  26  27
ENDBRANCH  24  26
ENDBRANCH   1  24
TORSDOF 4
ENDMDL
