MODEL 1
REMARK minimizedAffinity -8.11581612
REMARK CNNscore 0.651852012
REMARK CNNaffinity 6.65949392
REMARK  6 active torsions:
REMARK  status: ('A' for Active; 'I' for Inactive)
REMARK    1  A    between atoms: C4_4  and  C5_5 
REMARK    2  A    between atoms: C5_5  and  C6_6 
REMARK    3  A    between atoms: C6_6  and  C7_7 
REMARK    4  A    between atoms: C7_7  and  C9_9 
REMARK    5  A    between atoms: C12_12  and  C13_13 
REMARK    6  A    between atoms: C13_13  and  O2_15 
ROOT
HETATM    1  C9  UNL     1      -1.790   9.628  16.029  1.00  0.00    -0.001 C 
HETATM    2  C10 UNL     1      -0.574   9.246  16.918  1.00  0.00     0.007 C 
HETATM    3  C11 UNL     1       0.527   8.734  15.967  1.00  0.00     0.026 C 
HETATM    4  C12 UNL     1       0.077   9.208  14.569  1.00  0.00     0.076 C 
HETATM    5  C14 UNL     1       0.665   8.552  13.324  1.00  0.00    -0.057 C 
HETATM    6  C15 UNL     1      -0.061   8.488  12.178  1.00  0.00    -0.067 C 
HETATM    7  C16 UNL     1      -1.507   8.997  12.115  1.00  0.00     0.036 C 
HETATM    8  C17 UNL     1      -2.167   9.486  13.422  1.00  0.00     0.015 C 
HETATM    9  C18 UNL     1      -1.473   8.932  14.671  1.00  0.00    -0.018 C 
HETATM   10  C19 UNL     1      -1.807   7.409  14.738  1.00  0.00     0.017 C 
HETATM   11  C20 UNL     1       0.522   7.862  10.881  1.00  0.00    -0.015 C 
HETATM   12  C21 UNL     1       0.004   6.404  10.856  1.00  0.00     0.020 C 
HETATM   13  C22 UNL     1       0.030   8.607   9.613  1.00  0.00     0.021 C 
HETATM   14  C23 UNL     1       0.655   8.089   8.329  1.00  0.00     0.080 C 
HETATM   15  C24 UNL     1       2.160   8.167   8.376  1.00  0.00     0.135 C 
HETATM   16  O3  UNL     1       2.778   8.569   7.387  1.00  0.00    -0.297 OA
HETATM   17  C25 UNL     1       2.877   7.611   9.617  1.00  0.00     0.018 C 
HETATM   18  C26 UNL     1       3.093   6.107   9.411  1.00  0.00     0.023 C 
HETATM   19  C27 UNL     1       4.281   8.269   9.667  1.00  0.00     0.023 C 
HETATM   20  C28 UNL     1       2.089   8.002  10.914  1.00  0.00     0.013 C 
HETATM   21  C29 UNL     1       2.641   7.358  12.196  1.00  0.00     0.011 C 
HETATM   22  C30 UNL     1       2.087   8.053  13.439  1.00  0.00     0.036 C 
ENDROOT
BRANCH   1  23
HETATM   23  C7  UNL     1      -3.166   9.505  16.749  1.00  0.00    -0.014 C 
HETATM   24  C8  UNL     1      -4.373  10.080  16.002  1.00  0.00     0.010 C 
BRANCH  23  25
HETATM   25  C6  UNL     1      -3.085  10.044  18.200  1.00  0.00     0.008 C 
BRANCH  25  26
HETATM   26  C5  UNL     1      -3.119  11.574  18.333  1.00  0.00     0.028 C 
BRANCH  26  27
HETATM   27  C4  UNL     1      -4.208  12.092  19.228  1.00  0.00    -0.025 C 
HETATM   28  C2  UNL     1      -4.432  13.362  19.621  1.00  0.00    -0.091 C 
HETATM   29  C1  UNL     1      -3.588  14.551  19.253  1.00  0.00     0.042 C 
HETATM   30  C3  UNL     1      -5.607  13.694  20.505  1.00  0.00     0.042 C 
ENDBRANCH  26  27
ENDBRANCH  25  26
ENDBRANCH  23  25
ENDBRANCH   1  23
BRANCH   4  31
HETATM   31  C13 UNL     1       0.469  10.711  14.409  1.00  0.00     0.153 C 
HETATM   32  O1  UNL     1       1.559  11.228  14.593  1.00  0.00    -0.649 OA
BRANCH  31  33
HETATM   33  O2  UNL     1      -0.569  11.517  14.094  1.00  0.00    -0.776 OA
HETATM   34  H21 UNL     1      -0.165  12.412  14.089  1.00  0.00     0.167 HD
ENDBRANCH  31  33
ENDBRANCH   4  31
TORSDOF 6
ENDMDL
MODEL 2
REMARK minimizedAffinity -6.54185152
REMARK CNNscore 0.61158669
REMARK CNNaffinity 6.10968399
REMARK  6 active torsions:
REMARK  status: ('A' for Active; 'I' for Inactive)
REMARK    1  A    between atoms: C4_4  and  C5_5 
REMARK    2  A    between atoms: C5_5  and  C6_6 
REMARK    3  A    between atoms: C6_6  and  C7_7 
REMARK    4  A    between atoms: C7_7  and  C9_9 
REMARK    5  A    between atoms: C12_12  and  C13_13 
REMARK    6  A    between atoms: C13_13  and  O2_15 
ROOT
HETATM    1  C9  UNL     1      -1.191  10.954  16.557  1.00  0.00    -0.001 C 
HETATM    2  C10 UNL     1      -0.420  11.611  15.378  1.00  0.00     0.007 C 
HETATM    3  C11 UNL     1       0.902  12.151  15.959  1.00  0.00     0.026 C 
HETATM    4  C12 UNL     1       1.037  11.447  17.326  1.00  0.00     0.076 C 
HETATM    5  C14 UNL     1       1.980  12.019  18.380  1.00  0.00    -0.057 C 
HETATM    6  C15 UNL     1       1.719  11.836  19.701  1.00  0.00    -0.067 C 
HETATM    7  C16 UNL     1       0.445  11.125  20.176  1.00  0.00     0.036 C 
HETATM    8  C17 UNL     1      -0.601  10.715  19.118  1.00  0.00     0.015 C 
HETATM    9  C18 UNL     1      -0.461  11.513  17.816  1.00  0.00    -0.018 C 
HETATM   10  C19 UNL     1      -0.927  12.970  18.125  1.00  0.00     0.017 C 
HETATM   11  C20 UNL     1       2.678  12.370  20.799  1.00  0.00    -0.015 C 
HETATM   12  C21 UNL     1       2.082  13.727  21.246  1.00  0.00     0.020 C 
HETATM   13  C22 UNL     1       2.749  11.412  22.016  1.00  0.00     0.021 C 
HETATM   14  C23 UNL     1       3.752  11.848  23.070  1.00  0.00     0.080 C 
HETATM   15  C24 UNL     1       5.137  11.989  22.490  1.00  0.00     0.135 C 
HETATM   16  O3  UNL     1       6.106  11.558  23.121  1.00  0.00    -0.297 OA
HETATM   17  C25 UNL     1       5.301  12.790  21.189  1.00  0.00     0.018 C 
HETATM   18  C26 UNL     1       5.446  14.273  21.555  1.00  0.00     0.023 C 
HETATM   19  C27 UNL     1       6.641  12.348  20.544  1.00  0.00     0.023 C 
HETATM   20  C28 UNL     1       4.131  12.458  20.201  1.00  0.00     0.013 C 
HETATM   21  C29 UNL     1       4.119  13.328  18.934  1.00  0.00     0.011 C 
HETATM   22  C30 UNL     1       3.213  12.722  17.863  1.00  0.00     0.036 C 
ENDROOT
BRANCH   1  23
HETATM   23  C7  UNL     1      -2.740  10.972  16.391  1.00  0.00    -0.014 C 
HETATM   24  C8  UNL     1      -3.556  10.633  17.642  1.00  0.00     0.010 C 
BRANCH  23  25
HETATM   25  C6  UNL     1      -3.178  10.117  15.176  1.00  0.00     0.008 C 
BRANCH  25  26
HETATM   26  C5  UNL     1      -3.402   8.625  15.470  1.00  0.00     0.028 C 
BRANCH  26  27
HETATM   27  C4  UNL     1      -4.681   8.071  14.913  1.00  0.00    -0.025 C 
HETATM   28  C2  UNL     1      -4.839   7.180  13.913  1.00  0.00    -0.091 C 
HETATM   29  C1  UNL     1      -3.726   6.565  13.109  1.00  0.00     0.042 C 
HETATM   30  C3  UNL     1      -6.215   6.715  13.512  1.00  0.00     0.042 C 
ENDBRANCH  26  27
ENDBRANCH  25  26
ENDBRANCH  23  25
ENDBRANCH   1  23
BRANCH   4  31
HETATM   31  C13 UNL     1       1.588  10.006  17.087  1.00  0.00     0.153 C 
HETATM   32  O1  UNL     1       2.748   9.660  16.936  1.00  0.00    -0.649 OA
BRANCH  31  33
HETATM   33  O2  UNL     1       0.627   9.064  16.968  1.00  0.00    -0.776 OA
HETATM   34  H21 UNL     1       1.134   8.248  16.769  1.00  0.00     0.167 HD
ENDBRANCH  31  33
ENDBRANCH   4  31
TORSDOF 6
ENDMDL
MODEL 3
REMARK minimizedAffinity -6.47633553
REMARK CNNscore 0.465102524
REMARK CNNaffinity 5.91388464
REMARK  6 active torsions:
REMARK  status: ('A' for Active; 'I' for Inactive)
REMARK    1  A    between atoms: C4_4  and  C5_5 
REMARK    2  A    between atoms: C5_5  and  C6_6 
REMARK    3  A    between atoms: C6_6  and  C7_7 
REMARK    4  A    between atoms: C7_7  and  C9_9 
REMARK    5  A    between atoms: C12_12  and  C13_13 
REMARK    6  A    between atoms: C13_13  and  O2_15 
ROOT
HETATM    1  C9  UNL     1      -3.711  12.988  18.028  1.00  0.00    -0.001 C 
HETATM    2  C10 UNL     1      -2.485  13.222  18.955  1.00  0.00     0.007 C 
HETATM    3  C11 UNL     1      -1.303  12.456  18.329  1.00  0.00     0.026 C 
HETATM    4  C12 UNL     1      -1.762  12.152  16.887  1.00  0.00     0.076 C 
HETATM    5  C14 UNL     1      -1.063  11.060  16.085  1.00  0.00    -0.057 C 
HETATM    6  C15 UNL     1      -1.741  10.375  15.128  1.00  0.00    -0.067 C 
HETATM    7  C16 UNL     1      -3.234  10.616  14.875  1.00  0.00     0.036 C 
HETATM    8  C17 UNL     1      -3.988  11.583  15.812  1.00  0.00     0.015 C 
HETATM    9  C18 UNL     1      -3.271  11.775  17.154  1.00  0.00    -0.018 C 
HETATM   10  C19 UNL     1      -3.423  10.438  17.945  1.00  0.00     0.017 C 
HETATM   11  C20 UNL     1      -1.048   9.284  14.266  1.00  0.00    -0.015 C 
HETATM   12  C21 UNL     1      -1.386   7.938  14.951  1.00  0.00     0.020 C 
HETATM   13  C22 UNL     1      -1.586   9.273  12.812  1.00  0.00     0.021 C 
HETATM   14  C23 UNL     1      -0.865   8.287  11.909  1.00  0.00     0.080 C 
HETATM   15  C24 UNL     1       0.618   8.558  11.869  1.00  0.00     0.135 C 
HETATM   16  O3  UNL     1       1.214   8.514  10.789  1.00  0.00    -0.297 OA
HETATM   17  C25 UNL     1       1.358   8.748  13.203  1.00  0.00     0.018 C 
HETATM   18  C26 UNL     1       1.759   7.363  13.728  1.00  0.00     0.023 C 
HETATM   19  C27 UNL     1       2.672   9.514  12.893  1.00  0.00     0.023 C 
HETATM   20  C28 UNL     1       0.490   9.609  14.182  1.00  0.00     0.013 C 
HETATM   21  C29 UNL     1       1.075   9.721  15.599  1.00  0.00     0.011 C 
HETATM   22  C30 UNL     1       0.404  10.851  16.380  1.00  0.00     0.036 C 
ENDROOT
BRANCH   1  23
HETATM   23  C7  UNL     1      -5.084  13.057  18.762  1.00  0.00    -0.014 C 
HETATM   24  C8  UNL     1      -5.993  14.230  18.382  1.00  0.00     0.010 C 
BRANCH  23  25
HETATM   25  C6  UNL     1      -4.900  12.952  20.297  1.00  0.00     0.008 C 
BRANCH  25  26
HETATM   26  C5  UNL     1      -5.550  14.080  21.113  1.00  0.00     0.028 C 
BRANCH  26  27
HETATM   27  C4  UNL     1      -6.437  13.603  22.228  1.00  0.00    -0.025 C 
HETATM   28  C2  UNL     1      -7.724  13.208  22.160  1.00  0.00    -0.091 C 
HETATM   29  C1  UNL     1      -8.567  13.195  20.915  1.00  0.00     0.042 C 
HETATM   30  C3  UNL     1      -8.444  12.728  23.394  1.00  0.00     0.042 C 
ENDBRANCH  26  27
ENDBRANCH  25  26
ENDBRANCH  23  25
ENDBRANCH   1  23
BRANCH   4  31
HETATM   31  C13 UNL     1      -1.549  13.434  16.022  1.00  0.00     0.153 C 
HETATM   32  O1  UNL     1      -2.187  13.800  15.048  1.00  0.00    -0.649 OA
BRANCH  31  33
HETATM   33  O2  UNL     1      -0.473  14.168  16.384  1.00  0.00    -0.776 OA
HETATM   34  H21 UNL     1      -0.456  14.888  15.717  1.00  0.00     0.167 HD
ENDBRANCH  31  33
ENDBRANCH   4  31
TORSDOF 6
ENDMDL
MODEL 4
REMARK minimizedAffinity -6.66423225
REMARK CNNscore 0.309767753
REMARK CNNaffinity 5.38479567
REMARK  6 active torsions:
REMARK  status: ('A' for Active; 'I' for Inactive)
REMARK    1  A    between atoms: C4_4  and  C5_5 
REMARK    2  A    between atoms: C5_5  and  C6_6 
REMARK    3  A    between atoms: C6_6  and  C7_7 
REMARK    4  A    between atoms: C7_7  and  C9_9 
REMARK    5  A    between atoms: C12_12  and  C13_13 
REMARK    6  A    between atoms: C13_13  and  O2_15 
ROOT
HETATM    1  C9  UNL     1       2.821  10.256  20.629  1.00  0.00    -0.001 C 
HETATM    2  C10 UNL     1       1.282  10.338  20.834  1.00  0.00     0.007 C 
HETATM    3  C11 UNL     1       0.754  11.376  19.824  1.00  0.00     0.026 C 
HETATM    4  C12 UNL     1       1.910  11.554  18.817  1.00  0.00     0.076 C 
HETATM    5  C14 UNL     1       1.948  12.786  17.919  1.00  0.00    -0.057 C 
HETATM    6  C15 UNL     1       3.137  13.279  17.485  1.00  0.00    -0.067 C 
HETATM    7  C16 UNL     1       4.470  12.672  17.937  1.00  0.00     0.036 C 
HETATM    8  C17 UNL     1       4.440  11.546  18.993  1.00  0.00     0.015 C 
HETATM    9  C18 UNL     1       3.140  11.541  19.806  1.00  0.00    -0.018 C 
HETATM   10  C19 UNL     1       3.177  12.797  20.731  1.00  0.00     0.017 C 
HETATM   11  C20 UNL     1       3.208  14.509  16.539  1.00  0.00    -0.015 C 
HETATM   12  C21 UNL     1       3.457  15.727  17.460  1.00  0.00     0.020 C 
HETATM   13  C22 UNL     1       4.372  14.384  15.523  1.00  0.00     0.021 C 
HETATM   14  C23 UNL     1       4.417  15.519  14.514  1.00  0.00     0.080 C 
HETATM   15  C24 UNL     1       3.123  15.629  13.748  1.00  0.00     0.135 C 
HETATM   16  O3  UNL     1       3.153  15.821  12.530  1.00  0.00    -0.297 OA
HETATM   17  C25 UNL     1       1.807  15.631  14.543  1.00  0.00     0.018 C 
HETATM   18  C26 UNL     1       1.517  17.072  14.983  1.00  0.00     0.023 C 
HETATM   19  C27 UNL     1       0.678  15.220  13.561  1.00  0.00     0.023 C 
HETATM   20  C28 UNL     1       1.877  14.580  15.703  1.00  0.00     0.013 C 
HETATM   21  C29 UNL     1       0.669  14.619  16.652  1.00  0.00     0.011 C 
HETATM   22  C30 UNL     1       0.609  13.358  17.513  1.00  0.00     0.036 C 
ENDROOT
BRANCH   1  23
HETATM   23  C7  UNL     1       3.611   9.845  21.907  1.00  0.00    -0.014 C 
HETATM   24  C8  UNL     1       2.942   8.801  22.807  1.00  0.00     0.010 C 
BRANCH  23  25
HETATM   25  C6  UNL     1       4.053  11.092  22.713  1.00  0.00     0.008 C 
BRANCH  25  26
HETATM   26  C5  UNL     1       5.546  11.141  23.078  1.00  0.00     0.028 C 
BRANCH  26  27
HETATM   27  C4  UNL     1       6.127  12.525  23.118  1.00  0.00    -0.025 C 
HETATM   28  C2  UNL     1       7.426  12.884  23.145  1.00  0.00    -0.091 C 
HETATM   29  C1  UNL     1       8.593  11.935  23.170  1.00  0.00     0.042 C 
HETATM   30  C3  UNL     1       7.818  14.339  23.151  1.00  0.00     0.042 C 
ENDBRANCH  26  27
ENDBRANCH  25  26
ENDBRANCH  23  25
ENDBRANCH   1  23
BRANCH   4  31
HETATM   31  C13 UNL     1       1.868  10.366  17.804  1.00  0.00     0.153 C 
HETATM   32  O1  UNL     1       0.893   9.750  17.407  1.00  0.00    -0.649 OA
BRANCH  31  33
HETATM   33  O2  UNL     1       3.088   9.953  17.392  1.00  0.00    -0.776 OA
HETATM   34  H21 UNL     1       2.882   9.183  16.819  1.00  0.00     0.167 HD
ENDBRANCH  31  33
ENDBRANCH   4  31
TORSDOF 6
ENDMDL
MODEL 5
REMARK minimizedAffinity -8.39492702
REMARK CNNscore 0.307637095
REMARK CNNaffinity 6.53352356
REMARK  6 active torsions:
REMARK  status: ('A' for Active; 'I' for Inactive)
REMARK    1  A    between atoms: C4_4  and  C5_5 
REMARK    2  A    between atoms: C5_5  and  C6_6 
REMARK    3  A    between atoms: C6_6  and  C7_7 
REMARK    4  A    between atoms: C7_7  and  C9_9 
REMARK    5  A    between atoms: C12_12  and  C13_13 
REMARK    6  A    between atoms: C13_13  and  O2_15 
ROOT
HETATM    1  C9  UNL     1       0.743   7.567  12.844  1.00  0.00    -0.001 C 
HETATM    2  C10 UNL     1       0.363   8.633  11.778  1.00  0.00     0.007 C 
HETATM    3  C11 UNL     1      -1.167   8.807  11.851  1.00  0.00     0.026 C 
HETATM    4  C12 UNL     1      -1.563   8.161  13.196  1.00  0.00     0.076 C 
HETATM    5  C14 UNL     1      -3.013   7.757  13.442  1.00  0.00    -0.057 C 
HETATM    6  C15 UNL     1      -3.302   6.721  14.271  1.00  0.00    -0.067 C 
HETATM    7  C16 UNL     1      -2.196   5.880  14.921  1.00  0.00     0.036 C 
HETATM    8  C17 UNL     1      -0.732   6.167  14.524  1.00  0.00     0.015 C 
HETATM    9  C18 UNL     1      -0.622   6.895  13.179  1.00  0.00    -0.018 C 
HETATM   10  C19 UNL     1      -1.020   5.867  12.073  1.00  0.00     0.017 C 
HETATM   11  C20 UNL     1      -4.770   6.308  14.574  1.00  0.00    -0.015 C 
HETATM   12  C21 UNL     1      -5.080   5.142  13.606  1.00  0.00     0.020 C 
HETATM   13  C22 UNL     1      -4.939   5.825  16.037  1.00  0.00     0.021 C 
HETATM   14  C23 UNL     1      -6.378   5.506  16.404  1.00  0.00     0.080 C 
HETATM   15  C24 UNL     1      -7.281   6.694  16.184  1.00  0.00     0.135 C 
HETATM   16  O3  UNL     1      -8.133   6.974  17.032  1.00  0.00    -0.297 OA
HETATM   17  C25 UNL     1      -7.191   7.435  14.841  1.00  0.00     0.018 C 
HETATM   18  C26 UNL     1      -8.107   6.721  13.839  1.00  0.00     0.023 C 
HETATM   19  C27 UNL     1      -7.778   8.855  15.061  1.00  0.00     0.023 C 
HETATM   20  C28 UNL     1      -5.694   7.570  14.399  1.00  0.00     0.013 C 
HETATM   21  C29 UNL     1      -5.510   8.157  12.990  1.00  0.00     0.011 C 
HETATM   22  C30 UNL     1      -4.067   8.606  12.769  1.00  0.00     0.036 C 
ENDROOT
BRANCH   1  23
HETATM   23  C7  UNL     1       2.031   6.759  12.502  1.00  0.00    -0.014 C 
HETATM   24  C8  UNL     1       3.345   7.545  12.521  1.00  0.00     0.010 C 
BRANCH  23  25
HETATM   25  C6  UNL     1       1.857   5.970  11.180  1.00  0.00     0.008 C 
BRANCH  25  26
HETATM   26  C5  UNL     1       2.242   6.736   9.905  1.00  0.00     0.028 C 
BRANCH  26  27
HETATM   27  C4  UNL     1       2.672   5.859   8.763  1.00  0.00    -0.025 C 
HETATM   28  C2  UNL     1       2.536   6.084   7.441  1.00  0.00    -0.091 C 
HETATM   29  C1  UNL     1       1.876   7.287   6.824  1.00  0.00     0.042 C 
HETATM   30  C3  UNL     1       3.064   5.092   6.438  1.00  0.00     0.042 C 
ENDBRANCH  26  27
ENDBRANCH  25  26
ENDBRANCH  23  25
ENDBRANCH   1  23
BRANCH   4  31
HETATM   31  C13 UNL     1      -1.270   9.183  14.339  1.00  0.00     0.153 C 
HETATM   32  O1  UNL     1      -1.773  10.281  14.514  1.00  0.00    -0.649 OA
BRANCH  31  33
HETATM   33  O2  UNL     1      -0.283   8.799  15.179  1.00  0.00    -0.776 OA
HETATM   34  H21 UNL     1      -0.194   9.564  15.786  1.00  0.00     0.167 HD
ENDBRANCH  31  33
ENDBRANCH   4  31
TORSDOF 6
ENDMDL
MODEL 6
REMARK minimizedAffinity -6.75792599
REMARK CNNscore 0.302274466
REMARK CNNaffinity 5.90221453
REMARK  6 active torsions:
REMARK  status: ('A' for Active; 'I' for Inactive)
REMARK    1  A    between atoms: C4_4  and  C5_5 
REMARK    2  A    between atoms: C5_5  and  C6_6 
REMARK    3  A    between atoms: C6_6  and  C7_7 
REMARK    4  A    between atoms: C7_7  and  C9_9 
REMARK    5  A    between atoms: C12_12  and  C13_13 
REMARK    6  A    between atoms: C13_13  and  O2_15 
ROOT
HETATM    1  C9  UNL     1      -2.417   7.542  14.331  1.00  0.00    -0.001 C 
HETATM    2  C10 UNL     1      -2.365   8.202  12.924  1.00  0.00     0.007 C 
HETATM    3  C11 UNL     1      -2.107   9.705  13.149  1.00  0.00     0.026 C 
HETATM    4  C12 UNL     1      -1.621   9.797  14.612  1.00  0.00     0.076 C 
HETATM    5  C14 UNL     1      -1.663  11.136  15.340  1.00  0.00    -0.057 C 
HETATM    6  C15 UNL     1      -1.821  11.176  16.688  1.00  0.00    -0.067 C 
HETATM    7  C16 UNL     1      -2.037   9.898  17.509  1.00  0.00     0.036 C 
HETATM    8  C17 UNL     1      -2.184   8.561  16.753  1.00  0.00     0.015 C 
HETATM    9  C18 UNL     1      -2.596   8.758  15.289  1.00  0.00    -0.018 C 
HETATM   10  C19 UNL     1      -4.079   9.244  15.296  1.00  0.00     0.017 C 
HETATM   11  C20 UNL     1      -1.829  12.522  17.465  1.00  0.00    -0.015 C 
HETATM   12  C21 UNL     1      -3.322  12.885  17.648  1.00  0.00     0.020 C 
HETATM   13  C22 UNL     1      -1.157  12.385  18.855  1.00  0.00     0.021 C 
HETATM   14  C23 UNL     1      -1.055  13.702  19.607  1.00  0.00     0.080 C 
HETATM   15  C24 UNL     1      -0.302  14.737  18.810  1.00  0.00     0.135 C 
HETATM   16  O3  UNL     1       0.531  15.450  19.375  1.00  0.00    -0.297 OA
HETATM   17  C25 UNL     1      -0.702  14.954  17.342  1.00  0.00     0.018 C 
HETATM   18  C26 UNL     1      -1.860  15.960  17.306  1.00  0.00     0.023 C 
HETATM   19  C27 UNL     1       0.504  15.625  16.633  1.00  0.00     0.023 C 
HETATM   20  C28 UNL     1      -0.992  13.578  16.653  1.00  0.00     0.013 C 
HETATM   21  C29 UNL     1      -1.553  13.700  15.227  1.00  0.00     0.011 C 
HETATM   22  C30 UNL     1      -1.461  12.367  14.486  1.00  0.00     0.036 C 
ENDROOT
BRANCH   1  23
HETATM   23  C7  UNL     1      -3.305   6.263  14.399  1.00  0.00    -0.014 C 
HETATM   24  C8  UNL     1      -2.563   4.936  14.588  1.00  0.00     0.010 C 
BRANCH  23  25
HETATM   25  C6  UNL     1      -4.286   6.203  13.202  1.00  0.00     0.008 C 
BRANCH  25  26
HETATM   26  C5  UNL     1      -5.447   5.207  13.356  1.00  0.00     0.028 C 
BRANCH  26  27
HETATM   27  C4  UNL     1      -5.353   4.006  12.459  1.00  0.00    -0.025 C 
HETATM   28  C2  UNL     1      -6.226   2.986  12.337  1.00  0.00    -0.091 C 
HETATM   29  C1  UNL     1      -7.498   2.828  13.123  1.00  0.00     0.042 C 
HETATM   30  C3  UNL     1      -5.973   1.876  11.350  1.00  0.00     0.042 C 
ENDBRANCH  26  27
ENDBRANCH  25  26
ENDBRANCH  23  25
ENDBRANCH   1  23
BRANCH   4  31
HETATM   31  C13 UNL     1      -0.110   9.406  14.655  1.00  0.00     0.153 C 
HETATM   32  O1  UNL     1       0.499   8.856  15.557  1.00  0.00    -0.649 OA
BRANCH  31  33
HETATM   33  O2  UNL     1       0.591   9.803  13.569  1.00  0.00    -0.776 OA
HETATM   34  H21 UNL     1       1.509   9.533  13.783  1.00  0.00     0.167 HD
ENDBRANCH  31  33
ENDBRANCH   4  31
TORSDOF 6
ENDMDL
MODEL 7
REMARK minimizedAffinity -6.79722071
REMARK CNNscore 0.293542981
REMARK CNNaffinity 5.74356222
REMARK  6 active torsions:
REMARK  status: ('A' for Active; 'I' for Inactive)
REMARK    1  A    between atoms: C4_4  and  C5_5 
REMARK    2  A    between atoms: C5_5  and  C6_6 
REMARK    3  A    between atoms: C6_6  and  C7_7 
REMARK    4  A    between atoms: C7_7  and  C9_9 
REMARK    5  A    between atoms: C12_12  and  C13_13 
REMARK    6  A    between atoms: C13_13  and  O2_15 
ROOT
HETATM    1  C9  UNL     1       3.127   7.861  12.148  1.00  0.00    -0.001 C 
HETATM    2  C10 UNL     1       2.627   9.322  12.323  1.00  0.00     0.007 C 
HETATM    3  C11 UNL     1       3.835  10.151  12.802  1.00  0.00     0.026 C 
HETATM    4  C12 UNL     1       5.057   9.257  12.503  1.00  0.00     0.076 C 
HETATM    5  C14 UNL     1       6.384   9.531  13.203  1.00  0.00    -0.057 C 
HETATM    6  C15 UNL     1       7.253   8.515  13.443  1.00  0.00    -0.067 C 
HETATM    7  C16 UNL     1       6.905   7.062  13.093  1.00  0.00     0.036 C 
HETATM    8  C17 UNL     1       5.489   6.758  12.559  1.00  0.00     0.015 C 
HETATM    9  C18 UNL     1       4.478   7.852  12.926  1.00  0.00    -0.018 C 
HETATM   10  C19 UNL     1       4.231   7.744  14.464  1.00  0.00     0.017 C 
HETATM   11  C20 UNL     1       8.630   8.766  14.118  1.00  0.00    -0.015 C 
HETATM   12  C21 UNL     1       8.418   8.450  15.618  1.00  0.00     0.020 C 
HETATM   13  C22 UNL     1       9.728   7.836  13.544  1.00  0.00     0.021 C 
HETATM   14  C23 UNL     1      11.111   8.117  14.107  1.00  0.00     0.080 C 
HETATM   15  C24 UNL     1      11.524   9.548  13.871  1.00  0.00     0.135 C 
HETATM   16  O3  UNL     1      12.674   9.794  13.497  1.00  0.00    -0.297 OA
HETATM   17  C25 UNL     1      10.528  10.660  14.237  1.00  0.00     0.018 C 
HETATM   18  C26 UNL     1      10.707  10.992  15.724  1.00  0.00     0.023 C 
HETATM   19  C27 UNL     1      10.938  11.924  13.437  1.00  0.00     0.023 C 
HETATM   20  C28 UNL     1       9.077  10.244  13.816  1.00  0.00     0.013 C 
HETATM   21  C29 UNL     1       7.988  11.222  14.283  1.00  0.00     0.011 C 
HETATM   22  C30 UNL     1       6.675  10.975  13.541  1.00  0.00     0.036 C 
ENDROOT
BRANCH   1  23
HETATM   23  C7  UNL     1       2.021   6.783  12.348  1.00  0.00    -0.014 C 
HETATM   24  C8  UNL     1       1.919   5.712  11.258  1.00  0.00     0.010 C 
BRANCH  23  25
HETATM   25  C6  UNL     1       0.647   7.442  12.630  1.00  0.00     0.008 C 
BRANCH  25  26
HETATM   26  C5  UNL     1      -0.512   6.943  11.752  1.00  0.00     0.028 C 
BRANCH  26  27
HETATM   27  C4  UNL     1      -1.515   6.093  12.478  1.00  0.00    -0.025 C 
HETATM   28  C2  UNL     1      -2.691   6.468  13.019  1.00  0.00    -0.091 C 
HETATM   29  C1  UNL     1      -3.238   7.870  13.030  1.00  0.00     0.042 C 
HETATM   30  C3  UNL     1      -3.585   5.455  13.686  1.00  0.00     0.042 C 
ENDBRANCH  26  27
ENDBRANCH  25  26
ENDBRANCH  23  25
ENDBRANCH   1  23
BRANCH   4  31
HETATM   31  C13 UNL     1       5.409   9.394  10.988  1.00  0.00     0.153 C 
HETATM   32  O1  UNL     1       5.815  10.381  10.396  1.00  0.00    -0.649 OA
BRANCH  31  33
HETATM   33  O2  UNL     1       5.154   8.282  10.263  1.00  0.00    -0.776 OA
HETATM   34  H21 UNL     1       5.373   8.556   9.346  1.00  0.00     0.167 HD
ENDBRANCH  31  33
ENDBRANCH   4  31
TORSDOF 6
ENDMDL
MODEL 8
REMARK minimizedAffinity -6.98145771
REMARK CNNscore 0.269628674
REMARK CNNaffinity 5.95955133
REMARK  6 active torsions:
REMARK  status: ('A' for Active; 'I' for Inactive)
REMARK    1  A    between atoms: C4_4  and  C5_5 
REMARK    2  A    between atoms: C5_5  and  C6_6 
REMARK    3  A    between atoms: C6_6  and  C7_7 
REMARK    4  A    between atoms: C7_7  and  C9_9 
REMARK    5  A    between atoms: C12_12  and  C13_13 
REMARK    6  A    between atoms: C13_13  and  O2_15 
ROOT
HETATM    1  C9  UNL     1       6.945  10.633  14.961  1.00  0.00    -0.001 C 
HETATM    2  C10 UNL     1       8.139  10.267  14.035  1.00  0.00     0.007 C 
HETATM    3  C11 UNL     1       7.540   9.587  12.788  1.00  0.00     0.026 C 
HETATM    4  C12 UNL     1       6.039   9.941  12.840  1.00  0.00     0.076 C 
HETATM    5  C14 UNL     1       5.040   9.122  12.029  1.00  0.00    -0.057 C 
HETATM    6  C15 UNL     1       3.759   8.988  12.459  1.00  0.00    -0.067 C 
HETATM    7  C16 UNL     1       3.294   9.581  13.795  1.00  0.00     0.036 C 
HETATM    8  C17 UNL     1       4.348  10.246  14.706  1.00  0.00     0.015 C 
HETATM    9  C18 UNL     1       5.774   9.780  14.387  1.00  0.00    -0.018 C 
HETATM   10  C19 UNL     1       5.884   8.298  14.863  1.00  0.00     0.017 C 
HETATM   11  C20 UNL     1       2.706   8.193  11.638  1.00  0.00    -0.015 C 
HETATM   12  C21 UNL     1       2.677   6.777  12.261  1.00  0.00     0.020 C 
HETATM   13  C22 UNL     1       1.298   8.832  11.739  1.00  0.00     0.021 C 
HETATM   14  C23 UNL     1       0.259   8.143  10.871  1.00  0.00     0.080 C 
HETATM   15  C24 UNL     1       0.674   8.127   9.421  1.00  0.00     0.135 C 
HETATM   16  O3  UNL     1      -0.160   8.382   8.548  1.00  0.00    -0.297 OA
HETATM   17  C25 UNL     1       2.097   7.658   9.079  1.00  0.00     0.018 C 
HETATM   18  C26 UNL     1       2.080   6.129   8.954  1.00  0.00     0.023 C 
HETATM   19  C27 UNL     1       2.441   8.224   7.675  1.00  0.00     0.023 C 
HETATM   20  C28 UNL     1       3.118   8.232  10.119  1.00  0.00     0.013 C 
HETATM   21  C29 UNL     1       4.547   7.691   9.954  1.00  0.00     0.011 C 
HETATM   22  C30 UNL     1       5.549   8.547  10.728  1.00  0.00     0.036 C 
ENDROOT
BRANCH   1  23
HETATM   23  C7  UNL     1       7.307  10.676  16.476  1.00  0.00    -0.014 C 
HETATM   24  C8  UNL     1       6.511  11.667  17.331  1.00  0.00     0.010 C 
BRANCH  23  25
HETATM   25  C6  UNL     1       8.834  10.846  16.678  1.00  0.00     0.008 C 
BRANCH  25  26
HETATM   26  C5  UNL     1       9.448   9.975  17.785  1.00  0.00     0.028 C 
BRANCH  26  27
HETATM   27  C4  UNL     1      10.564  10.635  18.543  1.00  0.00    -0.025 C 
HETATM   28  C2  UNL     1      10.479  11.454  19.610  1.00  0.00    -0.091 C 
HETATM   29  C1  UNL     1       9.200  11.909  20.260  1.00  0.00     0.042 C 
HETATM   30  C3  UNL     1      11.724  11.998  20.260  1.00  0.00     0.042 C 
ENDBRANCH  26  27
ENDBRANCH  25  26
ENDBRANCH  23  25
ENDBRANCH   1  23
BRANCH   4  31
HETATM   31  C13 UNL     1       5.855  11.391  12.289  1.00  0.00     0.153 C 
HETATM   32  O1  UNL     1       4.835  12.059  12.256  1.00  0.00    -0.649 OA
BRANCH  31  33
HETATM   33  O2  UNL     1       6.969  11.909  11.725  1.00  0.00    -0.776 OA
HETATM   34  H21 UNL     1       6.666  12.780  11.389  1.00  0.00     0.167 HD
ENDBRANCH  31  33
ENDBRANCH   4  31
TORSDOF 6
ENDMDL
MODEL 9
REMARK minimizedAffinity -6.87176991
REMARK CNNscore 0.266600728
REMARK CNNaffinity 5.67010307
REMARK  6 active torsions:
REMARK  status: ('A' for Active; 'I' for Inactive)
REMARK    1  A    between atoms: C4_4  and  C5_5 
REMARK    2  A    between atoms: C5_5  and  C6_6 
REMARK    3  A    between atoms: C6_6  and  C7_7 
REMARK    4  A    between atoms: C7_7  and  C9_9 
REMARK    5  A    between atoms: C12_12  and  C13_13 
REMARK    6  A    between atoms: C13_13  and  O2_15 
ROOT
HETATM    1  C9  UNL     1     -11.111  11.367  23.653  1.00  0.00    -0.001 C 
HETATM    2  C10 UNL     1     -12.284  12.323  23.300  1.00  0.00     0.007 C 
HETATM    3  C11 UNL     1     -13.531  11.438  23.096  1.00  0.00     0.026 C 
HETATM    4  C12 UNL     1     -13.145  10.081  23.722  1.00  0.00     0.076 C 
HETATM    5  C14 UNL     1     -13.935   8.828  23.357  1.00  0.00    -0.057 C 
HETATM    6  C15 UNL     1     -13.333   7.611  23.380  1.00  0.00    -0.067 C 
HETATM    7  C16 UNL     1     -11.840   7.459  23.696  1.00  0.00     0.036 C 
HETATM    8  C17 UNL     1     -10.999   8.740  23.879  1.00  0.00     0.015 C 
HETATM    9  C18 UNL     1     -11.651   9.967  23.230  1.00  0.00    -0.018 C 
HETATM   10  C19 UNL     1     -11.541   9.775  21.685  1.00  0.00     0.017 C 
HETATM   11  C20 UNL     1     -14.119   6.311  23.052  1.00  0.00    -0.015 C 
HETATM   12  C21 UNL     1     -13.828   6.017  21.561  1.00  0.00     0.020 C 
HETATM   13  C22 UNL     1     -13.639   5.117  23.916  1.00  0.00     0.021 C 
HETATM   14  C23 UNL     1     -14.449   3.850  23.697  1.00  0.00     0.080 C 
HETATM   15  C24 UNL     1     -15.915   4.078  23.966  1.00  0.00     0.135 C 
HETATM   16  O3  UNL     1     -16.554   3.233  24.598  1.00  0.00    -0.297 OA
HETATM   17  C25 UNL     1     -16.590   5.298  23.320  1.00  0.00     0.018 C 
HETATM   18  C26 UNL     1     -17.045   4.903  21.909  1.00  0.00     0.023 C 
HETATM   19  C27 UNL     1     -17.871   5.601  24.142  1.00  0.00     0.023 C 
HETATM   20  C28 UNL     1     -15.638   6.540  23.391  1.00  0.00     0.013 C 
HETATM   21  C29 UNL     1     -16.160   7.770  22.631  1.00  0.00     0.011 C 
HETATM   22  C30 UNL     1     -15.399   9.030  23.040  1.00  0.00     0.036 C 
ENDROOT
BRANCH   1  23
HETATM   23  C7  UNL     1      -9.708  11.902  23.236  1.00  0.00    -0.014 C 
HETATM   24  C8  UNL     1      -9.063  12.916  24.185  1.00  0.00     0.010 C 
BRANCH  23  25
HETATM   25  C6  UNL     1      -9.723  12.417  21.774  1.00  0.00     0.008 C 
BRANCH  25  26
HETATM   26  C5  UNL     1      -8.929  13.710  21.528  1.00  0.00     0.028 C 
BRANCH  26  27
HETATM   27  C4  UNL     1      -7.709  13.532  20.670  1.00  0.00    -0.025 C 
HETATM   28  C2  UNL     1      -6.424  13.417  21.061  1.00  0.00    -0.091 C 
HETATM   29  C1  UNL     1      -5.936  13.477  22.483  1.00  0.00     0.042 C 
HETATM   30  C3  UNL     1      -5.331  13.210  20.045  1.00  0.00     0.042 C 
ENDBRANCH  26  27
ENDBRANCH  25  26
ENDBRANCH  23  25
ENDBRANCH   1  23
BRANCH   4  31
HETATM   31  C13 UNL     1     -13.322  10.185  25.270  1.00  0.00     0.153 C 
HETATM   32  O1  UNL     1     -13.036  11.121  25.999  1.00  0.00    -0.649 OA
BRANCH  31  33
HETATM   33  O2  UNL     1     -13.787   9.054  25.847  1.00  0.00    -0.776 OA
HETATM   34  H21 UNL     1     -13.783   9.272  26.804  1.00  0.00     0.167 HD
ENDBRANCH  31  33
ENDBRANCH   4  31
TORSDOF 6
ENDMDL
