MODEL 1
REMARK minimizedAffinity -10.5309048
REMARK  8 active torsions:
REMARK  status: ('A' for Active; 'I' for Inactive)
REMARK    1  A    between atoms: C2_2  and  C3_3 
REMARK    2  A    between atoms: C2_2  and  C27_30 
REMARK    3  A    between atoms: C3_3  and  C4_4 
REMARK    4  A    between atoms: C4_4  and  C5_5 
REMARK    5  A    between atoms: C5_5  and  C7_7 
REMARK    6  A    between atoms: C26_28  and  O3_29 
REMARK    7  A    between atoms: C27_30  and  C29_32 
REMARK    8  A    between atoms: C29_32  and  O5_34 
ROOT
HETATM    1  C7  UNL     1       1.404   6.817  13.162  1.00  0.00    -0.002 C 
HETATM    2  C8  UNL     1       0.590   7.945  13.858  1.00  0.00     0.006 C 
HETATM    3  C9  UNL     1      -0.884   7.518  13.807  1.00  0.00     0.010 C 
HETATM    4  C10 UNL     1      -0.834   6.056  13.363  1.00  0.00     0.027 C 
HETATM    5  C11 UNL     1      -2.077   5.348  12.870  1.00  0.00    -0.036 C 
HETATM    6  C12 UNL     1      -1.987   4.264  12.059  1.00  0.00     0.002 C 
HETATM    7  C13 UNL     1      -0.611   3.826  11.588  1.00  0.00     0.157 C 
HETATM    8  O1  UNL     1      -0.479   2.851  10.850  1.00  0.00    -0.293 OA
HETATM    9  C14 UNL     1       0.628   4.576  12.058  1.00  0.00     0.093 C 
HETATM   10  C15 UNL     1       0.327   6.048  12.337  1.00  0.00    -0.026 C 
HETATM   11  C16 UNL     1      -0.033   6.762  11.013  1.00  0.00     0.016 C 
HETATM   12  C17 UNL     1      -3.218   3.468  11.572  1.00  0.00    -0.008 C 
HETATM   13  C18 UNL     1      -3.445   3.876  10.092  1.00  0.00     0.021 C 
HETATM   14  C19 UNL     1      -2.999   1.921  11.648  1.00  0.00     0.022 C 
HETATM   15  C20 UNL     1      -4.246   1.080  11.928  1.00  0.00     0.080 C 
HETATM   16  C21 UNL     1      -5.502   1.739  11.422  1.00  0.00     0.131 C 
HETATM   17  O2  UNL     1      -6.306   1.134  10.715  1.00  0.00    -0.298 OA
HETATM   18  C22 UNL     1      -5.771   3.159  11.898  1.00  0.00     0.056 C 
HETATM   19  C23 UNL     1      -6.902   3.117  12.924  1.00  0.00     0.018 C 
HETATM   20  C24 UNL     1      -4.473   3.792  12.461  1.00  0.00     0.012 C 
HETATM   21  C25 UNL     1      -4.626   5.302  12.683  1.00  0.00     0.042 C 
HETATM   22  C26 UNL     1      -3.392   5.887  13.369  1.00  0.00     0.148 C 
ENDROOT
BRANCH   1  23
HETATM   23  C5  UNL     1       2.745   7.320  12.559  1.00  0.00    -0.014 C 
HETATM   24  C6  UNL     1       3.676   8.082  13.512  1.00  0.00     0.010 C 
BRANCH  23  25
HETATM   25  C4  UNL     1       2.599   8.152  11.261  1.00  0.00     0.009 C 
BRANCH  25  26
HETATM   26  C3  UNL     1       3.560   7.796  10.114  1.00  0.00     0.034 C 
BRANCH  26  27
HETATM   27  C2  UNL     1       3.031   7.863   8.688  1.00  0.00    -0.075 C 
HETATM   28  C1  UNL     1       3.195   8.939   7.895  1.00  0.00     0.015 C 
BRANCH  27  29
HETATM   29  C27 UNL     1       2.253   6.650   8.169  1.00  0.00     0.107 C 
HETATM   30  C28 UNL     1       1.982   6.756   6.667  1.00  0.00     0.026 C 
BRANCH  29  31
HETATM   31  C29 UNL     1       2.930   5.324   8.521  1.00  0.00     0.147 C 
HETATM   32  O4  UNL     1       2.998   4.778   9.611  1.00  0.00    -0.650 OA
BRANCH  31  33
HETATM   33  O5  UNL     1       3.458   4.708   7.441  1.00  0.00    -0.776 OA
HETATM   34  H42 UNL     1       3.817   3.871   7.806  1.00  0.00     0.167 HD
ENDBRANCH  31  33
ENDBRANCH  29  31
ENDBRANCH  27  29
ENDBRANCH  26  27
ENDBRANCH  25  26
ENDBRANCH  23  25
ENDBRANCH   1  23
BRANCH  22  35
HETATM   35  O3  UNL     1      -3.469   5.633  14.768  1.00  0.00    -0.391 OA
HETATM   36  H37 UNL     1      -3.208   4.710  14.922  1.00  0.00     0.210 HD
ENDBRANCH  22  35
TORSDOF 8
ENDMDL
MODEL 2
REMARK minimizedAffinity -10.3237381
REMARK  8 active torsions:
REMARK  status: ('A' for Active; 'I' for Inactive)
REMARK    1  A    between atoms: C2_2  and  C3_3 
REMARK    2  A    between atoms: C2_2  and  C27_30 
REMARK    3  A    between atoms: C3_3  and  C4_4 
REMARK    4  A    between atoms: C4_4  and  C5_5 
REMARK    5  A    between atoms: C5_5  and  C7_7 
REMARK    6  A    between atoms: C26_28  and  O3_29 
REMARK    7  A    between atoms: C27_30  and  C29_32 
REMARK    8  A    between atoms: C29_32  and  O5_34 
ROOT
HETATM    1  C7  UNL     1       1.227   6.502  11.648  1.00  0.00    -0.002 C 
HETATM    2  C8  UNL     1       1.364   5.007  11.243  1.00  0.00     0.006 C 
HETATM    3  C9  UNL     1       0.003   4.351  11.520  1.00  0.00     0.010 C 
HETATM    4  C10 UNL     1      -0.933   5.531  11.784  1.00  0.00     0.027 C 
HETATM    5  C11 UNL     1      -2.290   5.322  12.419  1.00  0.00    -0.036 C 
HETATM    6  C12 UNL     1      -2.915   6.331  13.077  1.00  0.00     0.002 C 
HETATM    7  C13 UNL     1      -2.185   7.654  13.233  1.00  0.00     0.157 C 
HETATM    8  O1  UNL     1      -2.710   8.597  13.823  1.00  0.00    -0.293 OA
HETATM    9  C14 UNL     1      -0.800   7.834  12.626  1.00  0.00     0.093 C 
HETATM   10  C15 UNL     1      -0.030   6.516  12.570  1.00  0.00    -0.026 C 
HETATM   11  C16 UNL     1       0.279   6.036  14.008  1.00  0.00     0.016 C 
HETATM   12  C17 UNL     1      -4.324   6.193  13.694  1.00  0.00    -0.008 C 
HETATM   13  C18 UNL     1      -4.119   6.053  15.226  1.00  0.00     0.021 C 
HETATM   14  C19 UNL     1      -5.228   7.438  13.410  1.00  0.00     0.022 C 
HETATM   15  C20 UNL     1      -6.727   7.163  13.277  1.00  0.00     0.080 C 
HETATM   16  C21 UNL     1      -7.158   5.962  14.076  1.00  0.00     0.131 C 
HETATM   17  O2  UNL     1      -8.112   6.012  14.850  1.00  0.00    -0.298 OA
HETATM   18  C22 UNL     1      -6.412   4.661  13.816  1.00  0.00     0.056 C 
HETATM   19  C23 UNL     1      -7.327   3.732  13.020  1.00  0.00     0.018 C 
HETATM   20  C24 UNL     1      -5.071   4.946  13.095  1.00  0.00     0.012 C 
HETATM   21  C25 UNL     1      -4.164   3.709  13.070  1.00  0.00     0.042 C 
HETATM   22  C26 UNL     1      -2.909   3.961  12.235  1.00  0.00     0.148 C 
ENDROOT
BRANCH   1  23
HETATM   23  C5  UNL     1       2.584   7.150  12.043  1.00  0.00    -0.014 C 
HETATM   24  C6  UNL     1       2.556   8.654  12.347  1.00  0.00     0.010 C 
BRANCH  23  25
HETATM   25  C4  UNL     1       3.742   6.881  11.052  1.00  0.00     0.009 C 
BRANCH  25  26
HETATM   26  C3  UNL     1       3.672   7.625   9.706  1.00  0.00     0.034 C 
BRANCH  26  27
HETATM   27  C2  UNL     1       2.890   6.980   8.570  1.00  0.00    -0.075 C 
HETATM   28  C1  UNL     1       2.951   5.663   8.294  1.00  0.00     0.015 C 
BRANCH  27  29
HETATM   29  C27 UNL     1       2.028   7.899   7.699  1.00  0.00     0.107 C 
HETATM   30  C28 UNL     1       1.721   7.262   6.342  1.00  0.00     0.026 C 
BRANCH  29  31
HETATM   31  C29 UNL     1       0.748   8.348   8.407  1.00  0.00     0.147 C 
HETATM   32  O4  UNL     1       0.634   8.837   9.520  1.00  0.00    -0.650 OA
BRANCH  31  33
HETATM   33  O5  UNL     1      -0.350   8.204   7.634  1.00  0.00    -0.776 OA
HETATM   34  H42 UNL     1      -1.073   8.559   8.193  1.00  0.00     0.167 HD
ENDBRANCH  31  33
ENDBRANCH  29  31
ENDBRANCH  27  29
ENDBRANCH  26  27
ENDBRANCH  25  26
ENDBRANCH  23  25
ENDBRANCH   1  23
BRANCH  22  35
HETATM   35  O3  UNL     1      -3.225   3.805  10.856  1.00  0.00    -0.391 OA
HETATM   36  H37 UNL     1      -3.676   4.612  10.556  1.00  0.00     0.210 HD
ENDBRANCH  22  35
TORSDOF 8
ENDMDL
MODEL 3
REMARK minimizedAffinity -9.32829094
REMARK  8 active torsions:
REMARK  status: ('A' for Active; 'I' for Inactive)
REMARK    1  A    between atoms: C2_2  and  C3_3 
REMARK    2  A    between atoms: C2_2  and  C27_30 
REMARK    3  A    between atoms: C3_3  and  C4_4 
REMARK    4  A    between atoms: C4_4  and  C5_5 
REMARK    5  A    between atoms: C5_5  and  C7_7 
REMARK    6  A    between atoms: C26_28  and  O3_29 
REMARK    7  A    between atoms: C27_30  and  C29_32 
REMARK    8  A    between atoms: C29_32  and  O5_34 
ROOT
HETATM    1  C7  UNL     1      -6.153   6.702  13.621  1.00  0.00    -0.002 C 
HETATM    2  C8  UNL     1      -6.102   8.120  14.259  1.00  0.00     0.006 C 
HETATM    3  C9  UNL     1      -4.650   8.602  14.140  1.00  0.00     0.010 C 
HETATM    4  C10 UNL     1      -3.999   7.596  13.192  1.00  0.00     0.027 C 
HETATM    5  C11 UNL     1      -2.494   7.508  13.062  1.00  0.00    -0.036 C 
HETATM    6  C12 UNL     1      -1.896   6.372  12.623  1.00  0.00     0.002 C 
HETATM    7  C13 UNL     1      -2.766   5.159  12.344  1.00  0.00     0.157 C 
HETATM    8  O1  UNL     1      -2.270   4.106  11.948  1.00  0.00    -0.293 OA
HETATM    9  C14 UNL     1      -4.276   5.250  12.522  1.00  0.00     0.093 C 
HETATM   10  C15 UNL     1      -4.659   6.256  13.605  1.00  0.00    -0.026 C 
HETATM   11  C16 UNL     1      -4.175   5.744  14.983  1.00  0.00     0.016 C 
HETATM   12  C17 UNL     1      -0.370   6.244  12.416  1.00  0.00    -0.008 C 
HETATM   13  C18 UNL     1       0.165   5.415  13.613  1.00  0.00     0.021 C 
HETATM   14  C19 UNL     1      -0.006   5.512  11.083  1.00  0.00     0.022 C 
HETATM   15  C20 UNL     1       1.295   5.953  10.409  1.00  0.00     0.080 C 
HETATM   16  C21 UNL     1       2.304   6.467  11.402  1.00  0.00     0.131 C 
HETATM   17  O2  UNL     1       3.461   6.052  11.417  1.00  0.00    -0.298 OA
HETATM   18  C22 UNL     1       1.846   7.585  12.328  1.00  0.00     0.056 C 
HETATM   19  C23 UNL     1       2.500   8.887  11.870  1.00  0.00     0.018 C 
HETATM   20  C24 UNL     1       0.299   7.665  12.350  1.00  0.00     0.012 C 
HETATM   21  C25 UNL     1      -0.207   8.575  13.476  1.00  0.00     0.042 C 
HETATM   22  C26 UNL     1      -1.723   8.758  13.399  1.00  0.00     0.148 C 
ENDROOT
BRANCH   1  23
HETATM   23  C5  UNL     1      -7.302   5.822  14.189  1.00  0.00    -0.014 C 
HETATM   24  C6  UNL     1      -7.173   4.309  13.966  1.00  0.00     0.010 C 
BRANCH  23  25
HETATM   25  C4  UNL     1      -8.723   6.253  13.752  1.00  0.00     0.009 C 
BRANCH  25  26
HETATM   26  C3  UNL     1      -9.539   7.051  14.785  1.00  0.00     0.034 C 
BRANCH  26  27
HETATM   27  C2  UNL     1     -10.439   8.169  14.278  1.00  0.00    -0.075 C 
HETATM   28  C1  UNL     1     -10.349   9.439  14.718  1.00  0.00     0.015 C 
BRANCH  27  29
HETATM   29  C27 UNL     1     -11.506   7.799  13.244  1.00  0.00     0.107 C 
HETATM   30  C28 UNL     1     -12.545   6.838  13.827  1.00  0.00     0.026 C 
BRANCH  29  31
HETATM   31  C29 UNL     1     -12.171   9.027  12.619  1.00  0.00     0.147 C 
HETATM   32  O4  UNL     1     -13.102   9.685  13.058  1.00  0.00    -0.650 OA
BRANCH  31  33
HETATM   33  O5  UNL     1     -11.579   9.408  11.466  1.00  0.00    -0.776 OA
HETATM   34  H42 UNL     1     -12.077  10.211  11.207  1.00  0.00     0.167 HD
ENDBRANCH  31  33
ENDBRANCH  29  31
ENDBRANCH  27  29
ENDBRANCH  26  27
ENDBRANCH  25  26
ENDBRANCH  23  25
ENDBRANCH   1  23
BRANCH  22  35
HETATM   35  O3  UNL     1      -2.026   9.741  12.414  1.00  0.00    -0.391 OA
HETATM   36  H37 UNL     1      -1.958   9.323  11.539  1.00  0.00     0.210 HD
ENDBRANCH  22  35
TORSDOF 8
ENDMDL
MODEL 4
REMARK minimizedAffinity -9.28680325
REMARK  8 active torsions:
REMARK  status: ('A' for Active; 'I' for Inactive)
REMARK    1  A    between atoms: C2_2  and  C3_3 
REMARK    2  A    between atoms: C2_2  and  C27_30 
REMARK    3  A    between atoms: C3_3  and  C4_4 
REMARK    4  A    between atoms: C4_4  and  C5_5 
REMARK    5  A    between atoms: C5_5  and  C7_7 
REMARK    6  A    between atoms: C26_28  and  O3_29 
REMARK    7  A    between atoms: C27_30  and  C29_32 
REMARK    8  A    between atoms: C29_32  and  O5_34 
ROOT
HETATM    1  C7  UNL     1       1.610   6.872  11.663  1.00  0.00    -0.002 C 
HETATM    2  C8  UNL     1       1.842   5.417  11.163  1.00  0.00     0.006 C 
HETATM    3  C9  UNL     1       0.521   4.664  11.379  1.00  0.00     0.010 C 
HETATM    4  C10 UNL     1      -0.488   5.765  11.707  1.00  0.00     0.027 C 
HETATM    5  C11 UNL     1      -1.836   5.433  12.308  1.00  0.00    -0.036 C 
HETATM    6  C12 UNL     1      -2.528   6.356  13.022  1.00  0.00     0.002 C 
HETATM    7  C13 UNL     1      -1.882   7.707  13.274  1.00  0.00     0.157 C 
HETATM    8  O1  UNL     1      -2.469   8.575  13.918  1.00  0.00    -0.293 OA
HETATM    9  C14 UNL     1      -0.505   8.011  12.699  1.00  0.00     0.093 C 
HETATM   10  C15 UNL     1       0.345   6.749  12.567  1.00  0.00    -0.026 C 
HETATM   11  C16 UNL     1       0.669   6.194  13.975  1.00  0.00     0.016 C 
HETATM   12  C17 UNL     1      -3.932   6.092  13.610  1.00  0.00    -0.008 C 
HETATM   13  C18 UNL     1      -3.733   5.864  15.132  1.00  0.00     0.021 C 
HETATM   14  C19 UNL     1      -4.907   7.296  13.395  1.00  0.00     0.022 C 
HETATM   15  C20 UNL     1      -6.385   6.940  13.224  1.00  0.00     0.080 C 
HETATM   16  C21 UNL     1      -6.749   5.665  13.937  1.00  0.00     0.131 C 
HETATM   17  O2  UNL     1      -7.713   5.606  14.700  1.00  0.00    -0.298 OA
HETATM   18  C22 UNL     1      -5.922   4.432  13.603  1.00  0.00     0.056 C 
HETATM   19  C23 UNL     1      -6.771   3.503  12.736  1.00  0.00     0.018 C 
HETATM   20  C24 UNL     1      -4.594   4.844  12.920  1.00  0.00     0.012 C 
HETATM   21  C25 UNL     1      -3.613   3.669  12.827  1.00  0.00     0.042 C 
HETATM   22  C26 UNL     1      -2.368   4.051  12.027  1.00  0.00     0.148 C 
ENDROOT
BRANCH   1  23
HETATM   23  C5  UNL     1       2.920   7.573  12.118  1.00  0.00    -0.014 C 
HETATM   24  C6  UNL     1       2.821   9.077  12.409  1.00  0.00     0.010 C 
BRANCH  23  25
HETATM   25  C4  UNL     1       4.134   7.343  11.186  1.00  0.00     0.009 C 
BRANCH  25  26
HETATM   26  C3  UNL     1       5.418   6.823  11.858  1.00  0.00     0.034 C 
BRANCH  26  27
HETATM   27  C2  UNL     1       6.241   7.801  12.685  1.00  0.00    -0.075 C 
HETATM   28  C1  UNL     1       6.588   9.024  12.241  1.00  0.00     0.015 C 
BRANCH  27  29
HETATM   29  C27 UNL     1       6.709   7.334  14.066  1.00  0.00     0.107 C 
HETATM   30  C28 UNL     1       8.170   7.708  14.321  1.00  0.00     0.026 C 
BRANCH  29  31
HETATM   31  C29 UNL     1       5.801   7.832  15.193  1.00  0.00     0.147 C 
HETATM   32  O4  UNL     1       5.784   8.935  15.716  1.00  0.00    -0.650 OA
BRANCH  31  33
HETATM   33  O5  UNL     1       4.898   6.905  15.580  1.00  0.00    -0.776 OA
HETATM   34  H42 UNL     1       4.373   7.368  16.266  1.00  0.00     0.167 HD
ENDBRANCH  31  33
ENDBRANCH  29  31
ENDBRANCH  27  29
ENDBRANCH  26  27
ENDBRANCH  25  26
ENDBRANCH  23  25
ENDBRANCH   1  23
BRANCH  22  35
HETATM   35  O3  UNL     1      -2.661   3.968  10.637  1.00  0.00    -0.391 OA
HETATM   36  H37 UNL     1      -3.158   4.764  10.384  1.00  0.00     0.210 HD
ENDBRANCH  22  35
TORSDOF 8
ENDMDL
MODEL 5
REMARK minimizedAffinity -9.27007198
REMARK  8 active torsions:
REMARK  status: ('A' for Active; 'I' for Inactive)
REMARK    1  A    between atoms: C2_2  and  C3_3 
REMARK    2  A    between atoms: C2_2  and  C27_30 
REMARK    3  A    between atoms: C3_3  and  C4_4 
REMARK    4  A    between atoms: C4_4  and  C5_5 
REMARK    5  A    between atoms: C5_5  and  C7_7 
REMARK    6  A    between atoms: C26_28  and  O3_29 
REMARK    7  A    between atoms: C27_30  and  C29_32 
REMARK    8  A    between atoms: C29_32  and  O5_34 
ROOT
HETATM    1  C7  UNL     1      -2.363   5.911  12.815  1.00  0.00    -0.002 C 
HETATM    2  C8  UNL     1      -2.872   4.571  12.211  1.00  0.00     0.006 C 
HETATM    3  C9  UNL     1      -4.379   4.505  12.498  1.00  0.00     0.010 C 
HETATM    4  C10 UNL     1      -4.730   5.913  12.979  1.00  0.00     0.027 C 
HETATM    5  C11 UNL     1      -6.042   6.195  13.678  1.00  0.00    -0.036 C 
HETATM    6  C12 UNL     1      -6.179   7.263  14.503  1.00  0.00     0.002 C 
HETATM    7  C13 UNL     1      -4.958   8.125  14.776  1.00  0.00     0.157 C 
HETATM    8  O1  UNL     1      -5.032   9.103  15.520  1.00  0.00    -0.293 OA
HETATM    9  C14 UNL     1      -3.633   7.803  14.100  1.00  0.00     0.093 C 
HETATM   10  C15 UNL     1      -3.488   6.309  13.819  1.00  0.00    -0.026 C 
HETATM   11  C16 UNL     1      -3.394   5.538  15.157  1.00  0.00     0.016 C 
HETATM   12  C17 UNL     1      -7.508   7.631  15.197  1.00  0.00    -0.008 C 
HETATM   13  C18 UNL     1      -7.363   7.195  16.679  1.00  0.00     0.021 C 
HETATM   14  C19 UNL     1      -7.808   9.165  15.142  1.00  0.00     0.022 C 
HETATM   15  C20 UNL     1      -9.285   9.559  15.082  1.00  0.00     0.080 C 
HETATM   16  C21 UNL     1     -10.172   8.541  15.748  1.00  0.00     0.131 C 
HETATM   17  O2  UNL     1     -11.009   8.867  16.589  1.00  0.00    -0.298 OA
HETATM   18  C22 UNL     1     -10.045   7.102  15.270  1.00  0.00     0.056 C 
HETATM   19  C23 UNL     1     -11.274   6.764  14.428  1.00  0.00     0.018 C 
HETATM   20  C24 UNL     1      -8.716   6.909  14.497  1.00  0.00     0.012 C 
HETATM   21  C25 UNL     1      -8.413   5.426  14.248  1.00  0.00     0.042 C 
HETATM   22  C26 UNL     1      -7.177   5.255  13.365  1.00  0.00     0.148 C 
ENDROOT
BRANCH   1  23
HETATM   23  C5  UNL     1      -0.856   5.873  13.192  1.00  0.00    -0.014 C 
HETATM   24  C6  UNL     1      -0.285   7.141  13.843  1.00  0.00     0.010 C 
BRANCH  23  25
HETATM   25  C4  UNL     1       0.089   5.457  12.038  1.00  0.00     0.009 C 
BRANCH  25  26
HETATM   26  C3  UNL     1       0.226   6.459  10.878  1.00  0.00     0.034 C 
BRANCH  26  27
HETATM   27  C2  UNL     1       1.626   6.798  10.385  1.00  0.00    -0.075 C 
HETATM   28  C1  UNL     1       2.344   7.829  10.870  1.00  0.00     0.015 C 
BRANCH  27  29
HETATM   29  C27 UNL     1       2.207   5.929   9.266  1.00  0.00     0.107 C 
HETATM   30  C28 UNL     1       2.590   6.767   8.044  1.00  0.00     0.026 C 
BRANCH  29  31
HETATM   31  C29 UNL     1       3.378   5.066   9.739  1.00  0.00     0.147 C 
HETATM   32  O4  UNL     1       4.531   5.409   9.949  1.00  0.00    -0.650 OA
BRANCH  31  33
HETATM   33  O5  UNL     1       3.016   3.787   9.982  1.00  0.00    -0.776 OA
HETATM   34  H42 UNL     1       3.843   3.372  10.307  1.00  0.00     0.167 HD
ENDBRANCH  31  33
ENDBRANCH  29  31
ENDBRANCH  27  29
ENDBRANCH  26  27
ENDBRANCH  25  26
ENDBRANCH  23  25
ENDBRANCH   1  23
BRANCH  22  35
HETATM   35  O3  UNL     1      -7.545   5.449  12.003  1.00  0.00    -0.391 OA
HETATM   36  H37 UNL     1      -7.618   6.405  11.843  1.00  0.00     0.210 HD
ENDBRANCH  22  35
TORSDOF 8
ENDMDL
MODEL 6
REMARK minimizedAffinity -9.22257423
REMARK  8 active torsions:
REMARK  status: ('A' for Active; 'I' for Inactive)
REMARK    1  A    between atoms: C2_2  and  C3_3 
REMARK    2  A    between atoms: C2_2  and  C27_30 
REMARK    3  A    between atoms: C3_3  and  C4_4 
REMARK    4  A    between atoms: C4_4  and  C5_5 
REMARK    5  A    between atoms: C5_5  and  C7_7 
REMARK    6  A    between atoms: C26_28  and  O3_29 
REMARK    7  A    between atoms: C27_30  and  C29_32 
REMARK    8  A    between atoms: C29_32  and  O5_34 
ROOT
HETATM    1  C7  UNL     1      -4.997   4.101  13.233  1.00  0.00    -0.002 C 
HETATM    2  C8  UNL     1      -4.827   3.596  11.772  1.00  0.00     0.006 C 
HETATM    3  C9  UNL     1      -3.455   4.090  11.294  1.00  0.00     0.010 C 
HETATM    4  C10 UNL     1      -2.774   4.593  12.567  1.00  0.00     0.027 C 
HETATM    5  C11 UNL     1      -1.538   5.462  12.499  1.00  0.00    -0.036 C 
HETATM    6  C12 UNL     1      -1.203   6.281  13.528  1.00  0.00     0.002 C 
HETATM    7  C13 UNL     1      -2.144   6.368  14.717  1.00  0.00     0.157 C 
HETATM    8  O1  UNL     1      -1.885   7.099  15.673  1.00  0.00    -0.293 OA
HETATM    9  C14 UNL     1      -3.408   5.519  14.751  1.00  0.00     0.093 C 
HETATM   10  C15 UNL     1      -3.944   5.245  13.347  1.00  0.00    -0.026 C 
HETATM   11  C16 UNL     1      -4.429   6.569  12.711  1.00  0.00     0.016 C 
HETATM   12  C17 UNL     1       0.076   7.147  13.539  1.00  0.00    -0.008 C 
HETATM   13  C18 UNL     1      -0.379   8.602  13.245  1.00  0.00     0.021 C 
HETATM   14  C19 UNL     1       0.813   7.110  14.917  1.00  0.00     0.022 C 
HETATM   15  C20 UNL     1       2.336   7.249  14.868  1.00  0.00     0.080 C 
HETATM   16  C21 UNL     1       2.795   8.049  13.677  1.00  0.00     0.131 C 
HETATM   17  O2  UNL     1       3.575   8.992  13.797  1.00  0.00    -0.298 OA
HETATM   18  C22 UNL     1       2.317   7.580  12.311  1.00  0.00     0.056 C 
HETATM   19  C23 UNL     1       3.492   6.923  11.588  1.00  0.00     0.018 C 
HETATM   20  C24 UNL     1       1.100   6.633  12.463  1.00  0.00     0.012 C 
HETATM   21  C25 UNL     1       0.413   6.368  11.117  1.00  0.00     0.042 C 
HETATM   22  C26 UNL     1      -0.695   5.325  11.258  1.00  0.00     0.148 C 
ENDROOT
BRANCH   1  23
HETATM   23  C5  UNL     1      -6.486   4.266  13.649  1.00  0.00    -0.014 C 
HETATM   24  C6  UNL     1      -7.423   3.102  13.296  1.00  0.00     0.010 C 
BRANCH  23  25
HETATM   25  C4  UNL     1      -7.149   5.580  13.171  1.00  0.00     0.009 C 
BRANCH  25  26
HETATM   26  C3  UNL     1      -8.461   5.974  13.873  1.00  0.00     0.034 C 
BRANCH  26  27
HETATM   27  C2  UNL     1      -8.373   6.852  15.114  1.00  0.00    -0.075 C 
HETATM   28  C1  UNL     1      -7.349   6.788  15.986  1.00  0.00     0.015 C 
BRANCH  27  29
HETATM   29  C27 UNL     1      -9.532   7.820  15.374  1.00  0.00     0.107 C 
HETATM   30  C28 UNL     1      -9.079   9.278  15.275  1.00  0.00     0.026 C 
BRANCH  29  31
HETATM   31  C29 UNL     1     -10.737   7.548  14.472  1.00  0.00     0.147 C 
HETATM   32  O4  UNL     1     -10.984   8.031  13.378  1.00  0.00    -0.650 OA
BRANCH  31  33
HETATM   33  O5  UNL     1     -11.569   6.615  14.984  1.00  0.00    -0.776 OA
HETATM   34  H42 UNL     1     -12.260   6.521  14.295  1.00  0.00     0.167 HD
ENDBRANCH  31  33
ENDBRANCH  29  31
ENDBRANCH  27  29
ENDBRANCH  26  27
ENDBRANCH  25  26
ENDBRANCH  23  25
ENDBRANCH   1  23
BRANCH  22  35
HETATM   35  O3  UNL     1      -0.115   4.024  11.263  1.00  0.00    -0.391 OA
HETATM   36  H37 UNL     1       0.253   3.861  12.147  1.00  0.00     0.210 HD
ENDBRANCH  22  35
TORSDOF 8
ENDMDL
MODEL 7
REMARK minimizedAffinity -9.18331242
REMARK  8 active torsions:
REMARK  status: ('A' for Active; 'I' for Inactive)
REMARK    1  A    between atoms: C2_2  and  C3_3 
REMARK    2  A    between atoms: C2_2  and  C27_30 
REMARK    3  A    between atoms: C3_3  and  C4_4 
REMARK    4  A    between atoms: C4_4  and  C5_5 
REMARK    5  A    between atoms: C5_5  and  C7_7 
REMARK    6  A    between atoms: C26_28  and  O3_29 
REMARK    7  A    between atoms: C27_30  and  C29_32 
REMARK    8  A    between atoms: C29_32  and  O5_34 
ROOT
HETATM    1  C7  UNL     1       0.927   6.905  13.779  1.00  0.00    -0.002 C 
HETATM    2  C8  UNL     1       0.025   7.972  14.462  1.00  0.00     0.006 C 
HETATM    3  C9  UNL     1      -1.425   7.495  14.290  1.00  0.00     0.010 C 
HETATM    4  C10 UNL     1      -1.288   6.056  13.790  1.00  0.00     0.027 C 
HETATM    5  C11 UNL     1      -2.465   5.327  13.182  1.00  0.00    -0.036 C 
HETATM    6  C12 UNL     1      -2.279   4.284  12.334  1.00  0.00     0.002 C 
HETATM    7  C13 UNL     1      -0.858   3.917  11.944  1.00  0.00     0.157 C 
HETATM    8  O1  UNL     1      -0.638   2.981  11.176  1.00  0.00    -0.293 OA
HETATM    9  C14 UNL     1       0.316   4.689  12.530  1.00  0.00     0.093 C 
HETATM   10  C15 UNL     1      -0.059   6.135  12.849  1.00  0.00    -0.026 C 
HETATM   11  C16 UNL     1      -0.355   6.894  11.533  1.00  0.00     0.016 C 
HETATM   12  C17 UNL     1      -3.441   3.467  11.729  1.00  0.00    -0.008 C 
HETATM   13  C18 UNL     1      -3.582   3.932  10.256  1.00  0.00     0.021 C 
HETATM   14  C19 UNL     1      -3.169   1.927  11.756  1.00  0.00     0.022 C 
HETATM   15  C20 UNL     1      -4.398   1.030  11.913  1.00  0.00     0.080 C 
HETATM   16  C21 UNL     1      -5.641   1.666  11.347  1.00  0.00     0.131 C 
HETATM   17  O2  UNL     1      -6.371   1.065  10.561  1.00  0.00    -0.298 OA
HETATM   18  C22 UNL     1      -5.996   3.053  11.862  1.00  0.00     0.056 C 
HETATM   19  C23 UNL     1      -7.193   2.926  12.803  1.00  0.00     0.018 C 
HETATM   20  C24 UNL     1      -4.766   3.706  12.541  1.00  0.00     0.012 C 
HETATM   21  C25 UNL     1      -4.993   5.198  12.815  1.00  0.00     0.042 C 
HETATM   22  C26 UNL     1      -3.832   5.796  13.609  1.00  0.00     0.148 C 
ENDROOT
BRANCH   1  23
HETATM   23  C5  UNL     1       2.287   7.482  13.292  1.00  0.00    -0.014 C 
HETATM   24  C6  UNL     1       2.968   8.493  14.224  1.00  0.00     0.010 C 
BRANCH  23  25
HETATM   25  C4  UNL     1       2.261   8.083  11.866  1.00  0.00     0.009 C 
BRANCH  25  26
HETATM   26  C3  UNL     1       2.944   7.251  10.766  1.00  0.00     0.034 C 
BRANCH  26  27
HETATM   27  C2  UNL     1       3.983   7.938   9.889  1.00  0.00    -0.075 C 
HETATM   28  C1  UNL     1       3.685   8.494   8.699  1.00  0.00     0.015 C 
BRANCH  27  29
HETATM   29  C27 UNL     1       5.428   7.954  10.394  1.00  0.00     0.107 C 
HETATM   30  C28 UNL     1       5.790   9.302  11.021  1.00  0.00     0.026 C 
BRANCH  29  31
HETATM   31  C29 UNL     1       5.731   6.797  11.348  1.00  0.00     0.147 C 
HETATM   32  O4  UNL     1       5.841   6.831  12.564  1.00  0.00    -0.650 OA
BRANCH  31  33
HETATM   33  O5  UNL     1       5.828   5.610  10.710  1.00  0.00    -0.776 OA
HETATM   34  H42 UNL     1       5.983   4.971  11.437  1.00  0.00     0.167 HD
ENDBRANCH  31  33
ENDBRANCH  29  31
ENDBRANCH  27  29
ENDBRANCH  26  27
ENDBRANCH  25  26
ENDBRANCH  23  25
ENDBRANCH   1  23
BRANCH  22  35
HETATM   35  O3  UNL     1      -3.995   5.478  14.987  1.00  0.00    -0.391 OA
HETATM   36  H37 UNL     1      -3.709   4.559  15.121  1.00  0.00     0.210 HD
ENDBRANCH  22  35
TORSDOF 8
ENDMDL
MODEL 8
REMARK minimizedAffinity -9.16471577
REMARK  8 active torsions:
REMARK  status: ('A' for Active; 'I' for Inactive)
REMARK    1  A    between atoms: C2_2  and  C3_3 
REMARK    2  A    between atoms: C2_2  and  C27_30 
REMARK    3  A    between atoms: C3_3  and  C4_4 
REMARK    4  A    between atoms: C4_4  and  C5_5 
REMARK    5  A    between atoms: C5_5  and  C7_7 
REMARK    6  A    between atoms: C26_28  and  O3_29 
REMARK    7  A    between atoms: C27_30  and  C29_32 
REMARK    8  A    between atoms: C29_32  and  O5_34 
ROOT
HETATM    1  C7  UNL     1      -1.766   5.815  13.214  1.00  0.00    -0.002 C 
HETATM    2  C8  UNL     1      -1.848   5.163  11.804  1.00  0.00     0.006 C 
HETATM    3  C9  UNL     1      -0.463   5.330  11.162  1.00  0.00     0.010 C 
HETATM    4  C10 UNL     1       0.429   5.793  12.314  1.00  0.00     0.027 C 
HETATM    5  C11 UNL     1       1.794   6.389  12.052  1.00  0.00    -0.036 C 
HETATM    6  C12 UNL     1       2.384   7.210  12.958  1.00  0.00     0.002 C 
HETATM    7  C13 UNL     1       1.605   7.584  14.207  1.00  0.00     0.157 C 
HETATM    8  O1  UNL     1       2.096   8.327  15.056  1.00  0.00    -0.293 OA
HETATM    9  C14 UNL     1       0.213   7.011  14.436  1.00  0.00     0.093 C 
HETATM   10  C15 UNL     1      -0.508   6.731  13.119  1.00  0.00    -0.026 C 
HETATM   11  C16 UNL     1      -0.795   8.066  12.392  1.00  0.00     0.016 C 
HETATM   12  C17 UNL     1       3.799   7.800  12.770  1.00  0.00    -0.008 C 
HETATM   13  C18 UNL     1       3.602   9.286  12.366  1.00  0.00     0.021 C 
HETATM   14  C19 UNL     1       4.654   7.734  14.078  1.00  0.00     0.022 C 
HETATM   15  C20 UNL     1       6.162   7.561  13.885  1.00  0.00     0.080 C 
HETATM   16  C21 UNL     1       6.640   8.148  12.583  1.00  0.00     0.131 C 
HETATM   17  O2  UNL     1       7.594   8.923  12.538  1.00  0.00    -0.298 OA
HETATM   18  C22 UNL     1       5.942   7.670  11.318  1.00  0.00     0.056 C 
HETATM   19  C23 UNL     1       6.889   6.732  10.571  1.00  0.00     0.018 C 
HETATM   20  C24 UNL     1       4.589   7.002  11.671  1.00  0.00     0.012 C 
HETATM   21  C25 UNL     1       3.729   6.766  10.423  1.00  0.00     0.042 C 
HETATM   22  C26 UNL     1       2.463   5.981  10.765  1.00  0.00     0.148 C 
ENDROOT
BRANCH   1  23
HETATM   23  C5  UNL     1      -3.145   6.309  13.735  1.00  0.00    -0.014 C 
HETATM   24  C6  UNL     1      -3.455   6.025  15.211  1.00  0.00     0.010 C 
BRANCH  23  25
HETATM   25  C4  UNL     1      -4.358   5.848  12.891  1.00  0.00     0.009 C 
BRANCH  25  26
HETATM   26  C3  UNL     1      -4.939   4.465  13.235  1.00  0.00     0.034 C 
BRANCH  26  27
HETATM   27  C2  UNL     1      -6.450   4.335  13.368  1.00  0.00    -0.075 C 
HETATM   28  C1  UNL     1      -7.134   3.258  12.936  1.00  0.00     0.015 C 
BRANCH  27  29
HETATM   29  C27 UNL     1      -7.204   5.511  13.997  1.00  0.00     0.107 C 
HETATM   30  C28 UNL     1      -8.591   5.687  13.375  1.00  0.00     0.026 C 
BRANCH  29  31
HETATM   31  C29 UNL     1      -7.286   5.408  15.521  1.00  0.00     0.147 C 
HETATM   32  O4  UNL     1      -6.769   6.136  16.354  1.00  0.00    -0.650 OA
BRANCH  31  33
HETATM   33  O5  UNL     1      -8.081   4.397  15.931  1.00  0.00    -0.776 OA
HETATM   34  H42 UNL     1      -8.067   4.476  16.909  1.00  0.00     0.167 HD
ENDBRANCH  31  33
ENDBRANCH  29  31
ENDBRANCH  27  29
ENDBRANCH  26  27
ENDBRANCH  25  26
ENDBRANCH  23  25
ENDBRANCH   1  23
BRANCH  22  35
HETATM   35  O3  UNL     1       2.781   4.596  10.856  1.00  0.00    -0.391 OA
HETATM   36  H37 UNL     1       3.201   4.438  11.718  1.00  0.00     0.210 HD
ENDBRANCH  22  35
TORSDOF 8
ENDMDL
MODEL 9
REMARK minimizedAffinity -9.139431
REMARK  8 active torsions:
REMARK  status: ('A' for Active; 'I' for Inactive)
REMARK    1  A    between atoms: C2_2  and  C3_3 
REMARK    2  A    between atoms: C2_2  and  C27_30 
REMARK    3  A    between atoms: C3_3  and  C4_4 
REMARK    4  A    between atoms: C4_4  and  C5_5 
REMARK    5  A    between atoms: C5_5  and  C7_7 
REMARK    6  A    between atoms: C26_28  and  O3_29 
REMARK    7  A    between atoms: C27_30  and  C29_32 
REMARK    8  A    between atoms: C29_32  and  O5_34 
ROOT
HETATM    1  C7  UNL     1      -5.440   8.044  14.322  1.00  0.00    -0.002 C 
HETATM    2  C8  UNL     1      -5.379   9.306  15.229  1.00  0.00     0.006 C 
HETATM    3  C9  UNL     1      -3.919   9.781  15.221  1.00  0.00     0.010 C 
HETATM    4  C10 UNL     1      -3.269   8.973  14.099  1.00  0.00     0.027 C 
HETATM    5  C11 UNL     1      -1.764   8.891  13.968  1.00  0.00    -0.036 C 
HETATM    6  C12 UNL     1      -1.175   7.855  13.319  1.00  0.00     0.002 C 
HETATM    7  C13 UNL     1      -2.057   6.734  12.797  1.00  0.00     0.157 C 
HETATM    8  O1  UNL     1      -1.570   5.772  12.205  1.00  0.00    -0.293 OA
HETATM    9  C14 UNL     1      -3.568   6.809  12.976  1.00  0.00     0.093 C 
HETATM   10  C15 UNL     1      -3.952   7.588  14.233  1.00  0.00    -0.026 C 
HETATM   11  C16 UNL     1      -3.490   6.807  15.486  1.00  0.00     0.016 C 
HETATM   12  C17 UNL     1       0.351   7.748  13.105  1.00  0.00    -0.008 C 
HETATM   13  C18 UNL     1       0.862   6.691  14.120  1.00  0.00     0.021 C 
HETATM   14  C19 UNL     1       0.722   7.289  11.657  1.00  0.00     0.022 C 
HETATM   15  C20 UNL     1       2.036   7.835  11.096  1.00  0.00     0.080 C 
HETATM   16  C21 UNL     1       3.040   8.128  12.181  1.00  0.00     0.131 C 
HETATM   17  O2  UNL     1       4.192   7.701  12.124  1.00  0.00    -0.298 OA
HETATM   18  C22 UNL     1       2.585   9.047  13.305  1.00  0.00     0.056 C 
HETATM   19  C23 UNL     1       3.261  10.405  13.120  1.00  0.00     0.018 C 
HETATM   20  C24 UNL     1       1.039   9.144  13.328  1.00  0.00     0.012 C 
HETATM   21  C25 UNL     1       0.530   9.821  14.607  1.00  0.00     0.042 C 
HETATM   22  C26 UNL     1      -0.982  10.038  14.553  1.00  0.00     0.148 C 
ENDROOT
BRANCH   1  23
HETATM   23  C5  UNL     1      -6.606   7.085  14.694  1.00  0.00    -0.014 C 
HETATM   24  C6  UNL     1      -7.147   7.195  16.126  1.00  0.00     0.010 C 
BRANCH  23  25
HETATM   25  C4  UNL     1      -6.336   5.591  14.394  1.00  0.00     0.009 C 
BRANCH  25  26
HETATM   26  C3  UNL     1      -6.788   5.082  13.014  1.00  0.00     0.034 C 
BRANCH  26  27
HETATM   27  C2  UNL     1      -6.583   3.608  12.691  1.00  0.00    -0.075 C 
HETATM   28  C1  UNL     1      -7.420   2.642  13.117  1.00  0.00     0.015 C 
BRANCH  27  29
HETATM   29  C27 UNL     1      -5.346   3.233  11.871  1.00  0.00     0.107 C 
HETATM   30  C28 UNL     1      -4.058   3.423  12.676  1.00  0.00     0.026 C 
BRANCH  29  31
HETATM   31  C29 UNL     1      -5.434   1.822  11.286  1.00  0.00     0.147 C 
HETATM   32  O4  UNL     1      -6.359   1.319  10.669  1.00  0.00    -0.650 OA
BRANCH  31  33
HETATM   33  O5  UNL     1      -4.298   1.114  11.465  1.00  0.00    -0.776 OA
HETATM   34  H42 UNL     1      -4.484   0.263  11.015  1.00  0.00     0.167 HD
ENDBRANCH  31  33
ENDBRANCH  29  31
ENDBRANCH  27  29
ENDBRANCH  26  27
ENDBRANCH  25  26
ENDBRANCH  23  25
ENDBRANCH   1  23
BRANCH  22  35
HETATM   35  O3  UNL     1      -1.261  11.200  13.779  1.00  0.00    -0.391 OA
HETATM   36  H37 UNL     1      -1.187  10.962  12.840  1.00  0.00     0.210 HD
ENDBRANCH  22  35
TORSDOF 8
ENDMDL
