MODEL 1
REMARK minimizedAffinity -8.20908928
REMARK  5 active torsions:
REMARK  status: ('A' for Active; 'I' for Inactive)
REMARK    1  A    between atoms: C2_2  and  C11_13 
REMARK    2  A    between atoms: C3_3  and  C4_4 
REMARK    3  A    between atoms: C7_7  and  C8_8 
REMARK    4  A    between atoms: C8_8  and  O2_10 
REMARK    5  A    between atoms: C14_16  and  C15_17 
ROOT
HETATM    1  C1  UNL     1      -6.789   2.341  12.138  1.00  0.00     0.049 C 
HETATM    2  C2  UNL     1      -6.306   3.737  12.486  1.00  0.00    -0.044 C 
HETATM    3  C3  UNL     1      -5.004   4.089  12.368  1.00  0.00     0.019 C 
ENDROOT
BRANCH   3   4
HETATM    4  C4  UNL     1      -3.928   3.226  11.875  1.00  0.00    -0.036 A 
HETATM    5  C5  UNL     1      -4.000   1.843  12.071  1.00  0.00     0.012 A 
HETATM    6  C6  UNL     1      -2.977   1.011  11.607  1.00  0.00     0.019 A 
HETATM    7  C7  UNL     1      -1.871   1.560  10.945  1.00  0.00     0.037 A 
HETATM    8  C9  UNL     1      -1.798   2.945  10.752  1.00  0.00     0.019 A 
HETATM    9  C10 UNL     1      -2.822   3.775  11.217  1.00  0.00     0.012 A 
BRANCH   7  10
HETATM   10  C8  UNL     1      -0.762   0.719  10.434  1.00  0.00     0.176 C 
HETATM   11  O1  UNL     1      -0.009   0.043  11.111  1.00  0.00    -0.646 OA
BRANCH  10  12
HETATM   12  O2  UNL     1      -0.646   0.764   9.095  1.00  0.00    -0.773 OA
HETATM   13  H7  UNL     1       0.112   0.173   8.907  1.00  0.00     0.167 HD
ENDBRANCH  10  12
ENDBRANCH   7  10
ENDBRANCH   3   4
BRANCH   2  14
HETATM   14  C11 UNL     1      -7.200   4.761  12.974  1.00  0.00     0.011 A 
HETATM   15  C12 UNL     1      -8.481   5.094  12.563  1.00  0.00     0.020 A 
HETATM   16  C13 UNL     1      -9.044   6.177  13.299  1.00  0.00     0.016 A 
HETATM   17  C14 UNL     1      -8.183   6.662  14.262  1.00  0.00    -0.013 A 
HETATM   18  S1  UNL     1      -6.703   5.801  14.256  1.00  0.00    -0.094 SA
BRANCH  17  19
HETATM   19  C15 UNL     1      -8.395   7.791  15.243  1.00  0.00     0.017 C 
HETATM   20  C16 UNL     1      -8.189   7.313  16.681  1.00  0.00     0.015 C 
HETATM   21  C17 UNL     1      -9.784   8.411  15.071  1.00  0.00     0.015 C 
ENDBRANCH  17  19
ENDBRANCH   2  14
TORSDOF 5
ENDMDL
MODEL 2
REMARK minimizedAffinity -7.87152958
REMARK  5 active torsions:
REMARK  status: ('A' for Active; 'I' for Inactive)
REMARK    1  A    between atoms: C2_2  and  C11_13 
REMARK    2  A    between atoms: C3_3  and  C4_4 
REMARK    3  A    between atoms: C7_7  and  C8_8 
REMARK    4  A    between atoms: C8_8  and  O2_10 
REMARK    5  A    between atoms: C14_16  and  C15_17 
ROOT
HETATM    1  C1  UNL     1      -1.833   6.612  12.729  1.00  0.00     0.049 C 
HETATM    2  C2  UNL     1      -1.313   5.555  11.771  1.00  0.00    -0.044 C 
HETATM    3  C3  UNL     1      -2.058   4.479  11.427  1.00  0.00     0.019 C 
ENDROOT
BRANCH   3   4
HETATM    4  C4  UNL     1      -3.424   4.208  11.880  1.00  0.00    -0.036 A 
HETATM    5  C5  UNL     1      -4.165   3.183  11.281  1.00  0.00     0.012 A 
HETATM    6  C6  UNL     1      -5.471   2.918  11.704  1.00  0.00     0.019 A 
HETATM    7  C7  UNL     1      -6.046   3.680  12.729  1.00  0.00     0.037 A 
HETATM    8  C9  UNL     1      -5.305   4.708  13.325  1.00  0.00     0.019 A 
HETATM    9  C10 UNL     1      -4.000   4.971  12.902  1.00  0.00     0.012 A 
BRANCH   7  10
HETATM   10  C8  UNL     1      -7.427   3.436  13.212  1.00  0.00     0.176 C 
HETATM   11  O1  UNL     1      -8.191   2.587  12.791  1.00  0.00    -0.646 OA
BRANCH  10  12
HETATM   12  O2  UNL     1      -7.788   4.270  14.203  1.00  0.00    -0.773 OA
HETATM   13  H7  UNL     1      -8.704   3.996  14.416  1.00  0.00     0.167 HD
ENDBRANCH  10  12
ENDBRANCH   7  10
ENDBRANCH   3   4
BRANCH   2  14
HETATM   14  C11 UNL     1       0.005   5.631  11.185  1.00  0.00     0.011 A 
HETATM   15  C12 UNL     1       1.116   4.827  11.384  1.00  0.00     0.020 A 
HETATM   16  C13 UNL     1       2.246   5.227  10.613  1.00  0.00     0.016 A 
HETATM   17  C14 UNL     1       1.986   6.338   9.838  1.00  0.00    -0.013 A 
HETATM   18  S1  UNL     1       0.378   6.882  10.058  1.00  0.00    -0.094 SA
BRANCH  17  19
HETATM   19  C15 UNL     1       2.906   7.070   8.889  1.00  0.00     0.017 C 
HETATM   20  C16 UNL     1       3.742   8.113   9.633  1.00  0.00     0.015 C 
HETATM   21  C17 UNL     1       2.115   7.720   7.752  1.00  0.00     0.015 C 
ENDBRANCH  17  19
ENDBRANCH   2  14
TORSDOF 5
ENDMDL
MODEL 3
REMARK minimizedAffinity -7.83208036
REMARK  5 active torsions:
REMARK  status: ('A' for Active; 'I' for Inactive)
REMARK    1  A    between atoms: C2_2  and  C11_13 
REMARK    2  A    between atoms: C3_3  and  C4_4 
REMARK    3  A    between atoms: C7_7  and  C8_8 
REMARK    4  A    between atoms: C8_8  and  O2_10 
REMARK    5  A    between atoms: C14_16  and  C15_17 
ROOT
HETATM    1  C1  UNL     1      -1.820   6.587  12.706  1.00  0.00     0.049 C 
HETATM    2  C2  UNL     1      -1.286   5.546  11.738  1.00  0.00    -0.044 C 
HETATM    3  C3  UNL     1      -2.024   4.472  11.371  1.00  0.00     0.019 C 
ENDROOT
BRANCH   3   4
HETATM    4  C4  UNL     1      -3.394   4.189  11.806  1.00  0.00    -0.036 A 
HETATM    5  C5  UNL     1      -3.881   4.759  12.986  1.00  0.00     0.012 A 
HETATM    6  C6  UNL     1      -5.187   4.493  13.411  1.00  0.00     0.019 A 
HETATM    7  C7  UNL     1      -6.013   3.652  12.656  1.00  0.00     0.037 A 
HETATM    8  C9  UNL     1      -5.523   3.079  11.475  1.00  0.00     0.019 A 
HETATM    9  C10 UNL     1      -4.219   3.346  11.053  1.00  0.00     0.012 A 
BRANCH   7  10
HETATM   10  C8  UNL     1      -7.404   3.340  13.064  1.00  0.00     0.176 C 
HETATM   11  O1  UNL     1      -8.031   2.342  12.759  1.00  0.00    -0.646 OA
BRANCH  10  12
HETATM   12  O2  UNL     1      -7.948   4.296  13.839  1.00  0.00    -0.773 OA
HETATM   13  H7  UNL     1      -8.849   3.959  14.027  1.00  0.00     0.167 HD
ENDBRANCH  10  12
ENDBRANCH   7  10
ENDBRANCH   3   4
BRANCH   2  14
HETATM   14  C11 UNL     1       0.037   5.635  11.166  1.00  0.00     0.011 A 
HETATM   15  C12 UNL     1       1.160   4.856  11.394  1.00  0.00     0.020 A 
HETATM   16  C13 UNL     1       2.292   5.262  10.630  1.00  0.00     0.016 A 
HETATM   17  C14 UNL     1       2.021   6.352   9.830  1.00  0.00    -0.013 A 
HETATM   18  S1  UNL     1       0.401   6.870  10.020  1.00  0.00    -0.094 SA
BRANCH  17  19
HETATM   19  C15 UNL     1       2.940   7.083   8.878  1.00  0.00     0.017 C 
HETATM   20  C16 UNL     1       3.840   8.064   9.632  1.00  0.00     0.015 C 
HETATM   21  C17 UNL     1       2.140   7.806   7.793  1.00  0.00     0.015 C 
ENDBRANCH  17  19
ENDBRANCH   2  14
TORSDOF 5
ENDMDL
MODEL 4
REMARK minimizedAffinity -7.75704336
REMARK  5 active torsions:
REMARK  status: ('A' for Active; 'I' for Inactive)
REMARK    1  A    between atoms: C2_2  and  C11_13 
REMARK    2  A    between atoms: C3_3  and  C4_4 
REMARK    3  A    between atoms: C7_7  and  C8_8 
REMARK    4  A    between atoms: C8_8  and  O2_10 
REMARK    5  A    between atoms: C14_16  and  C15_17 
ROOT
HETATM    1  C1  UNL     1      -7.346   3.303  13.514  1.00  0.00     0.049 C 
HETATM    2  C2  UNL     1      -7.046   4.775  13.735  1.00  0.00    -0.044 C 
HETATM    3  C3  UNL     1      -5.840   5.308  13.430  1.00  0.00     0.019 C 
ENDROOT
BRANCH   3   4
HETATM    4  C4  UNL     1      -4.713   4.586  12.834  1.00  0.00    -0.036 A 
HETATM    5  C5  UNL     1      -3.406   5.029  13.058  1.00  0.00     0.012 A 
HETATM    6  C6  UNL     1      -2.324   4.348  12.492  1.00  0.00     0.019 A 
HETATM    7  C7  UNL     1      -2.545   3.218  11.694  1.00  0.00     0.037 A 
HETATM    8  C9  UNL     1      -3.855   2.777  11.467  1.00  0.00     0.019 A 
HETATM    9  C10 UNL     1      -4.935   3.459  12.035  1.00  0.00     0.012 A 
BRANCH   7  10
HETATM   10  C8  UNL     1      -1.431   2.462  11.073  1.00  0.00     0.176 C 
HETATM   11  O1  UNL     1      -0.378   2.172  11.611  1.00  0.00    -0.646 OA
BRANCH  10  12
HETATM   12  O2  UNL     1      -1.687   2.104   9.802  1.00  0.00    -0.773 OA
HETATM   13  H7  UNL     1      -0.879   1.622   9.528  1.00  0.00     0.167 HD
ENDBRANCH  10  12
ENDBRANCH   7  10
ENDBRANCH   3   4
BRANCH   2  14
HETATM   14  C11 UNL     1      -8.020   5.682  14.295  1.00  0.00     0.011 A 
HETATM   15  C12 UNL     1      -8.094   6.240  15.561  1.00  0.00     0.020 A 
HETATM   16  C13 UNL     1      -9.218   7.098  15.734  1.00  0.00     0.016 A 
HETATM   17  C14 UNL     1      -9.995   7.181  14.597  1.00  0.00    -0.013 A 
HETATM   18  S1  UNL     1      -9.352   6.215  13.339  1.00  0.00    -0.094 SA
BRANCH  17  19
HETATM   19  C15 UNL     1     -11.260   7.974  14.368  1.00  0.00     0.017 C 
HETATM   20  C16 UNL     1     -12.086   7.371  13.230  1.00  0.00     0.015 C 
HETATM   21  C17 UNL     1     -10.941   9.444  14.085  1.00  0.00     0.015 C 
ENDBRANCH  17  19
ENDBRANCH   2  14
TORSDOF 5
ENDMDL
MODEL 5
REMARK minimizedAffinity -7.23040724
REMARK  5 active torsions:
REMARK  status: ('A' for Active; 'I' for Inactive)
REMARK    1  A    between atoms: C2_2  and  C11_13 
REMARK    2  A    between atoms: C3_3  and  C4_4 
REMARK    3  A    between atoms: C7_7  and  C8_8 
REMARK    4  A    between atoms: C8_8  and  O2_10 
REMARK    5  A    between atoms: C14_16  and  C15_17 
ROOT
HETATM    1  C1  UNL     1      -7.425   4.974  15.640  1.00  0.00     0.049 C 
HETATM    2  C2  UNL     1      -7.881   5.867  14.501  1.00  0.00    -0.044 C 
HETATM    3  C3  UNL     1      -7.294   5.821  13.282  1.00  0.00     0.019 C 
ENDROOT
BRANCH   3   4
HETATM    4  C4  UNL     1      -6.207   4.920  12.892  1.00  0.00    -0.036 A 
HETATM    5  C5  UNL     1      -4.879   5.283  13.139  1.00  0.00     0.012 A 
HETATM    6  C6  UNL     1      -3.835   4.431  12.767  1.00  0.00     0.019 A 
HETATM    7  C7  UNL     1      -4.113   3.209  12.144  1.00  0.00     0.037 A 
HETATM    8  C9  UNL     1      -5.443   2.847  11.894  1.00  0.00     0.019 A 
HETATM    9  C10 UNL     1      -6.486   3.699  12.266  1.00  0.00     0.012 A 
BRANCH   7  10
HETATM   10  C8  UNL     1      -3.041   2.271  11.733  1.00  0.00     0.176 C 
HETATM   11  O1  UNL     1      -1.868   2.555  11.570  1.00  0.00    -0.646 OA
BRANCH  10  12
HETATM   12  O2  UNL     1      -3.487   1.017  11.543  1.00  0.00    -0.773 OA
HETATM   13  H7  UNL     1      -2.684   0.521  11.280  1.00  0.00     0.167 HD
ENDBRANCH  10  12
ENDBRANCH   7  10
ENDBRANCH   3   4
BRANCH   2  14
HETATM   14  C11 UNL     1      -8.954   6.821  14.655  1.00  0.00     0.011 A 
HETATM   15  C12 UNL     1      -9.118   7.835  15.585  1.00  0.00     0.020 A 
HETATM   16  C13 UNL     1     -10.325   8.572  15.408  1.00  0.00     0.016 A 
HETATM   17  C14 UNL     1     -11.072   8.109  14.345  1.00  0.00    -0.013 A 
HETATM   18  S1  UNL     1     -10.303   6.784  13.581  1.00  0.00    -0.094 SA
BRANCH  17  19
HETATM   19  C15 UNL     1     -12.401   8.610  13.829  1.00  0.00     0.017 C 
HETATM   20  C16 UNL     1     -13.378   7.451  13.618  1.00  0.00     0.015 C 
HETATM   21  C17 UNL     1     -12.219   9.408  12.536  1.00  0.00     0.015 C 
ENDBRANCH  17  19
ENDBRANCH   2  14
TORSDOF 5
ENDMDL
MODEL 6
REMARK minimizedAffinity -7.15499449
REMARK  5 active torsions:
REMARK  status: ('A' for Active; 'I' for Inactive)
REMARK    1  A    between atoms: C2_2  and  C11_13 
REMARK    2  A    between atoms: C3_3  and  C4_4 
REMARK    3  A    between atoms: C7_7  and  C8_8 
REMARK    4  A    between atoms: C8_8  and  O2_10 
REMARK    5  A    between atoms: C14_16  and  C15_17 
ROOT
HETATM    1  C1  UNL     1      -1.586   3.870  11.110  1.00  0.00     0.049 C 
HETATM    2  C2  UNL     1      -2.012   5.046  11.971  1.00  0.00    -0.044 C 
HETATM    3  C3  UNL     1      -1.155   6.046  12.281  1.00  0.00     0.019 C 
ENDROOT
BRANCH   3   4
HETATM    4  C4  UNL     1       0.232   6.156  11.822  1.00  0.00    -0.036 A 
HETATM    5  C5  UNL     1       0.941   7.343  12.027  1.00  0.00     0.012 A 
HETATM    6  C6  UNL     1       2.264   7.458  11.591  1.00  0.00     0.019 A 
HETATM    7  C7  UNL     1       2.886   6.384  10.942  1.00  0.00     0.037 A 
HETATM    8  C9  UNL     1       2.174   5.196  10.734  1.00  0.00     0.019 A 
HETATM    9  C10 UNL     1       0.852   5.083  11.171  1.00  0.00     0.012 A 
BRANCH   7  10
HETATM   10  C8  UNL     1       4.287   6.457  10.462  1.00  0.00     0.176 C 
HETATM   11  O1  UNL     1       4.873   7.469  10.121  1.00  0.00    -0.646 OA
BRANCH  10  12
HETATM   12  O2  UNL     1       4.892   5.257  10.431  1.00  0.00    -0.773 OA
HETATM   13  H7  UNL     1       5.792   5.458  10.100  1.00  0.00     0.167 HD
ENDBRANCH  10  12
ENDBRANCH   7  10
ENDBRANCH   3   4
BRANCH   2  14
HETATM   14  C11 UNL     1      -3.344   5.156  12.518  1.00  0.00     0.011 A 
HETATM   15  C12 UNL     1      -3.929   6.185  13.238  1.00  0.00     0.020 A 
HETATM   16  C13 UNL     1      -5.280   5.917  13.606  1.00  0.00     0.016 A 
HETATM   17  C14 UNL     1      -5.709   4.682  13.168  1.00  0.00    -0.013 A 
HETATM   18  S1  UNL     1      -4.468   3.863  12.319  1.00  0.00    -0.094 SA
BRANCH  17  19
HETATM   19  C15 UNL     1      -7.058   4.026  13.349  1.00  0.00     0.017 C 
HETATM   20  C16 UNL     1      -7.090   2.648  12.685  1.00  0.00     0.015 C 
HETATM   21  C17 UNL     1      -8.176   4.916  12.803  1.00  0.00     0.015 C 
ENDBRANCH  17  19
ENDBRANCH   2  14
TORSDOF 5
ENDMDL
MODEL 7
REMARK minimizedAffinity -6.92398453
REMARK  5 active torsions:
REMARK  status: ('A' for Active; 'I' for Inactive)
REMARK    1  A    between atoms: C2_2  and  C11_13 
REMARK    2  A    between atoms: C3_3  and  C4_4 
REMARK    3  A    between atoms: C7_7  and  C8_8 
REMARK    4  A    between atoms: C8_8  and  O2_10 
REMARK    5  A    between atoms: C14_16  and  C15_17 
ROOT
HETATM    1  C1  UNL     1      -1.968   7.847  13.159  1.00  0.00     0.049 C 
HETATM    2  C2  UNL     1      -1.654   6.484  12.571  1.00  0.00    -0.044 C 
HETATM    3  C3  UNL     1      -2.498   5.436  12.713  1.00  0.00     0.019 C 
ENDROOT
BRANCH   3   4
HETATM    4  C4  UNL     1      -3.796   5.473  13.393  1.00  0.00    -0.036 A 
HETATM    5  C5  UNL     1      -3.910   6.092  14.642  1.00  0.00     0.012 A 
HETATM    6  C6  UNL     1      -5.144   6.129  15.299  1.00  0.00     0.019 A 
HETATM    7  C7  UNL     1      -6.272   5.544  14.711  1.00  0.00     0.037 A 
HETATM    8  C9  UNL     1      -6.156   4.921  13.461  1.00  0.00     0.019 A 
HETATM    9  C10 UNL     1      -4.922   4.885  12.806  1.00  0.00     0.012 A 
BRANCH   7  10
HETATM   10  C8  UNL     1      -7.601   5.559  15.368  1.00  0.00     0.176 C 
HETATM   11  O1  UNL     1      -8.395   6.481  15.351  1.00  0.00    -0.646 OA
BRANCH  10  12
HETATM   12  O2  UNL     1      -7.875   4.414  16.019  1.00  0.00    -0.773 OA
HETATM   13  H7  UNL     1      -8.767   4.568  16.395  1.00  0.00     0.167 HD
ENDBRANCH  10  12
ENDBRANCH   7  10
ENDBRANCH   3   4
BRANCH   2  14
HETATM   14  C11 UNL     1      -0.435   6.223  11.841  1.00  0.00     0.011 A 
HETATM   15  C12 UNL     1       0.363   5.091  11.814  1.00  0.00     0.020 A 
HETATM   16  C13 UNL     1       1.497   5.221  10.961  1.00  0.00     0.016 A 
HETATM   17  C14 UNL     1       1.555   6.456  10.349  1.00  0.00    -0.013 A 
HETATM   18  S1  UNL     1       0.237   7.441  10.821  1.00  0.00    -0.094 SA
BRANCH  17  19
HETATM   19  C15 UNL     1       2.586   6.989   9.382  1.00  0.00     0.017 C 
HETATM   20  C16 UNL     1       2.608   6.164   8.094  1.00  0.00     0.015 C 
HETATM   21  C17 UNL     1       3.974   7.023  10.027  1.00  0.00     0.015 C 
ENDBRANCH  17  19
ENDBRANCH   2  14
TORSDOF 5
ENDMDL
MODEL 8
REMARK minimizedAffinity -6.92186499
REMARK  5 active torsions:
REMARK  status: ('A' for Active; 'I' for Inactive)
REMARK    1  A    between atoms: C2_2  and  C11_13 
REMARK    2  A    between atoms: C3_3  and  C4_4 
REMARK    3  A    between atoms: C7_7  and  C8_8 
REMARK    4  A    between atoms: C8_8  and  O2_10 
REMARK    5  A    between atoms: C14_16  and  C15_17 
ROOT
HETATM    1  C1  UNL     1      -8.922   5.906  11.616  1.00  0.00     0.049 C 
HETATM    2  C2  UNL     1      -8.757   6.052  13.118  1.00  0.00    -0.044 C 
HETATM    3  C3  UNL     1      -7.757   5.433  13.787  1.00  0.00     0.019 C 
ENDROOT
BRANCH   3   4
HETATM    4  C4  UNL     1      -6.714   4.600  13.183  1.00  0.00    -0.036 A 
HETATM    5  C5  UNL     1      -7.048   3.360  12.629  1.00  0.00     0.012 A 
HETATM    6  C6  UNL     1      -6.059   2.556  12.053  1.00  0.00     0.019 A 
HETATM    7  C7  UNL     1      -4.728   2.988  12.031  1.00  0.00     0.037 A 
HETATM    8  C9  UNL     1      -4.393   4.228  12.589  1.00  0.00     0.019 A 
HETATM    9  C10 UNL     1      -5.383   5.030  13.164  1.00  0.00     0.012 A 
BRANCH   7  10
HETATM   10  C8  UNL     1      -3.645   2.172  11.431  1.00  0.00     0.176 C 
HETATM   11  O1  UNL     1      -3.370   1.023  11.725  1.00  0.00    -0.646 OA
BRANCH  10  12
HETATM   12  O2  UNL     1      -2.952   2.835  10.488  1.00  0.00    -0.773 OA
HETATM   13  H7  UNL     1      -2.284   2.184  10.188  1.00  0.00     0.167 HD
ENDBRANCH  10  12
ENDBRANCH   7  10
ENDBRANCH   3   4
BRANCH   2  14
HETATM   14  C11 UNL     1      -9.662   6.845  13.916  1.00  0.00     0.011 A 
HETATM   15  C12 UNL     1     -11.045   6.916  13.889  1.00  0.00     0.020 A 
HETATM   16  C13 UNL     1     -11.581   7.828  14.845  1.00  0.00     0.016 A 
HETATM   17  C14 UNL     1     -10.598   8.447  15.588  1.00  0.00    -0.013 A 
HETATM   18  S1  UNL     1      -9.041   7.919  15.114  1.00  0.00    -0.094 SA
BRANCH  17  19
HETATM   19  C15 UNL     1     -10.745   9.470  16.691  1.00  0.00     0.017 C 
HETATM   20  C16 UNL     1     -12.199   9.571  17.154  1.00  0.00     0.015 C 
HETATM   21  C17 UNL     1     -10.223  10.836  16.242  1.00  0.00     0.015 C 
ENDBRANCH  17  19
ENDBRANCH   2  14
TORSDOF 5
ENDMDL
MODEL 9
REMARK minimizedAffinity -6.8189826
REMARK  5 active torsions:
REMARK  status: ('A' for Active; 'I' for Inactive)
REMARK    1  A    between atoms: C2_2  and  C11_13 
REMARK    2  A    between atoms: C3_3  and  C4_4 
REMARK    3  A    between atoms: C7_7  and  C8_8 
REMARK    4  A    between atoms: C8_8  and  O2_10 
REMARK    5  A    between atoms: C14_16  and  C15_17 
ROOT
HETATM    1  C1  UNL     1      -1.157   5.499  14.695  1.00  0.00     0.049 C 
HETATM    2  C2  UNL     1      -0.831   5.683  13.224  1.00  0.00    -0.044 C 
HETATM    3  C3  UNL     1      -1.754   5.464  12.259  1.00  0.00     0.019 C 
ENDROOT
BRANCH   3   4
HETATM    4  C4  UNL     1      -3.147   5.071  12.483  1.00  0.00    -0.036 A 
HETATM    5  C5  UNL     1      -3.577   3.791  12.117  1.00  0.00     0.012 A 
HETATM    6  C6  UNL     1      -4.906   3.408  12.325  1.00  0.00     0.019 A 
HETATM    7  C7  UNL     1      -5.814   4.305  12.898  1.00  0.00     0.037 A 
HETATM    8  C9  UNL     1      -5.384   5.588  13.261  1.00  0.00     0.019 A 
HETATM    9  C10 UNL     1      -4.056   5.970  13.054  1.00  0.00     0.012 A 
BRANCH   7  10
HETATM   10  C8  UNL     1      -7.232   3.945  13.139  1.00  0.00     0.176 C 
HETATM   11  O1  UNL     1      -7.630   3.074  13.891  1.00  0.00    -0.646 OA
BRANCH  10  12
HETATM   12  O2  UNL     1      -8.090   4.695  12.425  1.00  0.00    -0.773 OA
HETATM   13  H7  UNL     1      -8.971   4.351  12.682  1.00  0.00     0.167 HD
ENDBRANCH  10  12
ENDBRANCH   7  10
ENDBRANCH   3   4
BRANCH   2  14
HETATM   14  C11 UNL     1       0.479   6.087  12.772  1.00  0.00     0.011 A 
HETATM   15  C12 UNL     1       1.427   6.887  13.389  1.00  0.00     0.020 A 
HETATM   16  C13 UNL     1       2.612   7.056  12.615  1.00  0.00     0.016 A 
HETATM   17  C14 UNL     1       2.553   6.386  11.411  1.00  0.00    -0.013 A 
HETATM   18  S1  UNL     1       1.061   5.566  11.234  1.00  0.00    -0.094 SA
BRANCH  17  19
HETATM   19  C15 UNL     1       3.589   6.311  10.314  1.00  0.00     0.017 C 
HETATM   20  C16 UNL     1       3.484   4.989   9.552  1.00  0.00     0.015 C 
HETATM   21  C17 UNL     1       4.998   6.500  10.880  1.00  0.00     0.015 C 
ENDBRANCH  17  19
ENDBRANCH   2  14
TORSDOF 5
ENDMDL
