MODEL 1
REMARK minimizedAffinity -7.61557102
REMARK CNNscore 0.54601562
REMARK CNNaffinity 6.43169975
REMARK  13 active torsions:
REMARK  status: ('A' for Active; 'I' for Inactive)
REMARK    1  A    between atoms: C3_3  and  O1_4 
REMARK    2  A    between atoms: N1_14  and  O2_16 
REMARK    3  A    between atoms: O2_16  and  C13_17 
REMARK    4  A    between atoms: C13_17  and  C14_18 
REMARK       I    between atoms: C14_18  and  N2_20 
REMARK    5  A    between atoms: N2_20  and  C15_21 
REMARK    6  A    between atoms: C15_21  and  C16_22 
REMARK    7  A    between atoms: C15_21  and  C21_33 
REMARK       I    between atoms: C16_22  and  N3_24 
REMARK    8  A    between atoms: N3_24  and  C17_25 
REMARK    9  A    between atoms: C17_25  and  C18_26 
REMARK   10  A    between atoms: C17_25  and  C20_30 
REMARK   11  A    between atoms: C18_26  and  C19_27 
REMARK   12  A    between atoms: C19_27  and  O6_29 
REMARK   13  A    between atoms: C20_30  and  O8_32 
ROOT
HETATM    1  C1  UNL     1      -4.374   4.759  13.550  1.00  0.00     0.015 C 
HETATM    2  C2  UNL     1      -3.840   5.684  14.100  1.00  0.00    -0.078 C 
HETATM    3  C3  UNL     1      -3.176   6.801  14.796  1.00  0.00     0.128 C 
HETATM    4  C4  UNL     1      -1.663   6.789  14.549  1.00  0.00     0.052 C 
HETATM    5  C5  UNL     1      -1.240   8.203  14.918  1.00  0.00     0.010 C 
HETATM    6  C6  UNL     1      -2.304   9.063  14.236  1.00  0.00     0.002 C 
HETATM    7  C7  UNL     1      -2.403  10.529  14.701  1.00  0.00    -0.004 C 
HETATM    8  C8  UNL     1      -1.106  11.315  14.467  1.00  0.00     0.010 C 
HETATM    9  C9  UNL     1      -1.098  12.623  15.243  1.00  0.00     0.035 C 
HETATM   10  C10 UNL     1      -1.050  12.257  16.699  1.00  0.00    -0.069 C 
HETATM   11  C11 UNL     1       0.042  12.552  17.430  1.00  0.00     0.030 C 
HETATM   12  C12 UNL     1       0.189  12.080  18.836  1.00  0.00     0.032 C 
HETATM   13  N1  UNL     1       1.097  12.477  19.676  1.00  0.00    -0.271 N 
ATOM     14  H1  UNL     1       1.189  12.126  20.629  1.00  0.00     0.194 HD
HETATM   15  C24 UNL     1      -0.807  11.058  19.352  1.00  0.00     0.060 C 
HETATM   16  C25 UNL     1      -1.654  10.424  18.251  1.00  0.00     0.020 C 
HETATM   17  C26 UNL     1      -2.225  11.447  17.238  1.00  0.00    -0.016 C 
HETATM   18  C27 UNL     1      -3.166  12.431  17.991  1.00  0.00     0.020 C 
HETATM   19  C28 UNL     1      -3.081  10.773  16.082  1.00  0.00     0.002 C 
HETATM   20  C29 UNL     1      -3.936   9.574  16.532  1.00  0.00     0.007 C 
HETATM   21  C30 UNL     1      -4.631   8.902  15.348  1.00  0.00     0.014 C 
HETATM   22  C31 UNL     1      -3.641   8.246  14.352  1.00  0.00     0.003 C 
HETATM   23  C32 UNL     1      -4.316   8.250  12.958  1.00  0.00     0.020 C 
ENDROOT
BRANCH   3  24
HETATM   24  O1  UNL     1      -3.373   6.606  16.197  1.00  0.00    -0.377 OA
HETATM   25  H2  UNL     1      -3.149   5.680  16.390  1.00  0.00     0.211 HD
ENDBRANCH   3  24
BRANCH  13  26
HETATM   26  O2  UNL     1       1.937  13.450  19.110  1.00  0.00    -0.271 OA
BRANCH  26  27
HETATM   27  C13 UNL     1       2.362  14.337  20.134  1.00  0.00     0.303 C 
BRANCH  27  28
HETATM   28  C14 UNL     1       2.561  13.584  21.446  1.00  0.00     0.244 C 
HETATM   29  O3  UNL     1       1.931  13.819  22.474  1.00  0.00    -0.271 OA
HETATM   30  N2  UNL     1       3.517  12.587  21.367  1.00  0.00    -0.346 N 
HETATM   31  H16 UNL     1       4.226  12.701  20.648  1.00  0.00     0.163 HD
BRANCH  30  32
HETATM   32  C15 UNL     1       3.970  11.876  22.567  1.00  0.00     0.180 C 
BRANCH  32  33
HETATM   33  C16 UNL     1       5.428  12.320  22.822  1.00  0.00     0.241 C 
HETATM   34  O4  UNL     1       6.249  11.583  23.369  1.00  0.00    -0.271 OA
HETATM   35  N3  UNL     1       5.736  13.594  22.403  1.00  0.00    -0.344 N 
HETATM   36  H18 UNL     1       4.966  14.224  22.193  1.00  0.00     0.163 HD
BRANCH  35  37
HETATM   37  C17 UNL     1       7.008  14.227  22.760  1.00  0.00     0.192 C 
BRANCH  37  38
HETATM   38  C18 UNL     1       8.096  13.897  21.739  1.00  0.00     0.146 C 
BRANCH  38  39
HETATM   39  C19 UNL     1       9.283  13.236  22.379  1.00  0.00     0.141 C 
HETATM   40  O5  UNL     1       9.354  12.816  23.522  1.00  0.00    -0.650 OA
BRANCH  39  41
HETATM   41  O6  UNL     1      10.345  13.181  21.554  1.00  0.00    -0.776 OA
HETATM   42  H22 UNL     1      11.056  12.764  22.085  1.00  0.00     0.167 HD
ENDBRANCH  39  41
ENDBRANCH  38  39
ENDBRANCH  37  38
BRANCH  37  43
HETATM   43  C20 UNL     1       6.802  15.740  22.927  1.00  0.00     0.164 C 
HETATM   44  O7  UNL     1       6.142  16.301  23.789  1.00  0.00    -0.648 OA
BRANCH  43  45
HETATM   45  O8  UNL     1       7.484  16.475  22.024  1.00  0.00    -0.775 OA
HETATM   46  H23 UNL     1       7.289  17.401  22.284  1.00  0.00     0.167 HD
ENDBRANCH  43  45
ENDBRANCH  37  43
ENDBRANCH  35  37
ENDBRANCH  32  33
BRANCH  32  47
HETATM   47  C21 UNL     1       3.798  10.352  22.381  1.00  0.00     0.009 C 
HETATM   48  C22 UNL     1       2.984  10.006  21.131  1.00  0.00     0.012 C 
HETATM   49  C23 UNL     1       3.207   9.647  23.605  1.00  0.00     0.012 C 
ENDBRANCH  32  47
ENDBRANCH  30  32
ENDBRANCH  27  28
ENDBRANCH  26  27
ENDBRANCH  13  26
TORSDOF 13
ENDMDL
MODEL 2
REMARK minimizedAffinity -7.5001483
REMARK CNNscore 0.388033897
REMARK CNNaffinity 5.40302467
REMARK  13 active torsions:
REMARK  status: ('A' for Active; 'I' for Inactive)
REMARK    1  A    between atoms: C3_3  and  O1_4 
REMARK    2  A    between atoms: N1_14  and  O2_16 
REMARK    3  A    between atoms: O2_16  and  C13_17 
REMARK    4  A    between atoms: C13_17  and  C14_18 
REMARK       I    between atoms: C14_18  and  N2_20 
REMARK    5  A    between atoms: N2_20  and  C15_21 
REMARK    6  A    between atoms: C15_21  and  C16_22 
REMARK    7  A    between atoms: C15_21  and  C21_33 
REMARK       I    between atoms: C16_22  and  N3_24 
REMARK    8  A    between atoms: N3_24  and  C17_25 
REMARK    9  A    between atoms: C17_25  and  C18_26 
REMARK   10  A    between atoms: C17_25  and  C20_30 
REMARK   11  A    between atoms: C18_26  and  C19_27 
REMARK   12  A    between atoms: C19_27  and  O6_29 
REMARK   13  A    between atoms: C20_30  and  O8_32 
ROOT
HETATM    1  C1  UNL     1       3.474   7.272   9.338  1.00  0.00     0.015 C 
HETATM    2  C2  UNL     1       4.362   7.674  10.040  1.00  0.00    -0.078 C 
HETATM    3  C3  UNL     1       5.471   8.162  10.881  1.00  0.00     0.128 C 
HETATM    4  C4  UNL     1       5.936   9.552  10.436  1.00  0.00     0.052 C 
HETATM    5  C5  UNL     1       6.704  10.065  11.646  1.00  0.00     0.010 C 
HETATM    6  C6  UNL     1       5.781   9.702  12.809  1.00  0.00     0.002 C 
HETATM    7  C7  UNL     1       6.406   9.740  14.218  1.00  0.00    -0.004 C 
HETATM    8  C8  UNL     1       6.929  11.133  14.598  1.00  0.00     0.010 C 
HETATM    9  C9  UNL     1       7.846  11.073  15.810  1.00  0.00     0.035 C 
HETATM   10  C10 UNL     1       9.074  10.322  15.382  1.00  0.00    -0.069 C 
HETATM   11  C11 UNL     1      10.259  10.958  15.310  1.00  0.00     0.030 C 
HETATM   12  C12 UNL     1      11.469  10.289  14.754  1.00  0.00     0.032 C 
HETATM   13  N1  UNL     1      12.685  10.742  14.829  1.00  0.00    -0.271 N 
ATOM     14  H1  UNL     1      13.496  10.275  14.424  1.00  0.00     0.194 HD
HETATM   15  C24 UNL     1      11.287   8.959  14.047  1.00  0.00     0.060 C 
HETATM   16  C25 UNL     1       9.828   8.628  13.740  1.00  0.00     0.020 C 
HETATM   17  C26 UNL     1       8.868   8.879  14.929  1.00  0.00    -0.016 C 
HETATM   18  C27 UNL     1       9.278   7.954  16.111  1.00  0.00     0.020 C 
HETATM   19  C28 UNL     1       7.351   8.559  14.589  1.00  0.00     0.002 C 
HETATM   20  C29 UNL     1       7.142   7.337  13.675  1.00  0.00     0.007 C 
HETATM   21  C30 UNL     1       5.673   7.165  13.290  1.00  0.00     0.014 C 
HETATM   22  C31 UNL     1       5.132   8.326  12.417  1.00  0.00     0.003 C 
HETATM   23  C32 UNL     1       3.610   8.433  12.680  1.00  0.00     0.020 C 
ENDROOT
BRANCH   3  24
HETATM   24  O1  UNL     1       6.572   7.271  10.690  1.00  0.00    -0.377 OA
HETATM   25  H2  UNL     1       6.675   7.147   9.731  1.00  0.00     0.211 HD
ENDBRANCH   3  24
BRANCH  13  26
HETATM   26  O2  UNL     1      12.745  11.953  15.536  1.00  0.00    -0.271 OA
BRANCH  26  27
HETATM   27  C13 UNL     1      13.903  12.665  15.126  1.00  0.00     0.303 C 
BRANCH  27  28
HETATM   28  C14 UNL     1      15.135  11.767  15.198  1.00  0.00     0.244 C 
HETATM   29  O3  UNL     1      15.153  10.596  14.828  1.00  0.00    -0.271 OA
HETATM   30  N2  UNL     1      16.252  12.406  15.709  1.00  0.00    -0.346 N 
HETATM   31  H16 UNL     1      16.074  13.201  16.316  1.00  0.00     0.163 HD
BRANCH  30  32
HETATM   32  C15 UNL     1      17.476  11.660  16.017  1.00  0.00     0.180 C 
BRANCH  32  33
HETATM   33  C16 UNL     1      17.891  12.062  17.450  1.00  0.00     0.241 C 
HETATM   34  O4  UNL     1      18.627  11.355  18.139  1.00  0.00    -0.271 OA
HETATM   35  N3  UNL     1      17.376  13.256  17.898  1.00  0.00    -0.344 N 
HETATM   36  H18 UNL     1      16.594  13.658  17.387  1.00  0.00     0.163 HD
BRANCH  35  37
HETATM   37  C17 UNL     1      17.509  13.667  19.298  1.00  0.00     0.192 C 
BRANCH  37  38
HETATM   38  C18 UNL     1      17.034  12.566  20.246  1.00  0.00     0.146 C 
BRANCH  38  39
HETATM   39  C19 UNL     1      16.019  13.072  21.230  1.00  0.00     0.141 C 
HETATM   40  O5  UNL     1      16.155  14.010  21.999  1.00  0.00    -0.650 OA
BRANCH  39  41
HETATM   41  O6  UNL     1      14.893  12.336  21.228  1.00  0.00    -0.776 OA
HETATM   42  H22 UNL     1      14.327  12.736  21.922  1.00  0.00     0.167 HD
ENDBRANCH  39  41
ENDBRANCH  38  39
ENDBRANCH  37  38
BRANCH  37  43
HETATM   43  C20 UNL     1      18.958  14.092  19.575  1.00  0.00     0.164 C 
HETATM   44  O7  UNL     1      19.457  15.187  19.360  1.00  0.00    -0.648 OA
BRANCH  43  45
HETATM   45  O8  UNL     1      19.696  13.126  20.161  1.00  0.00    -0.775 OA
HETATM   46  H23 UNL     1      20.565  13.556  20.310  1.00  0.00     0.167 HD
ENDBRANCH  43  45
ENDBRANCH  37  43
ENDBRANCH  35  37
ENDBRANCH  32  33
BRANCH  32  47
HETATM   47  C21 UNL     1      18.553  11.939  14.946  1.00  0.00     0.009 C 
HETATM   48  C22 UNL     1      18.427  13.340  14.344  1.00  0.00     0.012 C 
HETATM   49  C23 UNL     1      18.597  10.890  13.832  1.00  0.00     0.012 C 
ENDBRANCH  32  47
ENDBRANCH  30  32
ENDBRANCH  27  28
ENDBRANCH  26  27
ENDBRANCH  13  26
TORSDOF 13
ENDMDL
MODEL 3
REMARK minimizedAffinity -6.96460629
REMARK CNNscore 0.230159402
REMARK CNNaffinity 5.74255323
REMARK  13 active torsions:
REMARK  status: ('A' for Active; 'I' for Inactive)
REMARK    1  A    between atoms: C3_3  and  O1_4 
REMARK    2  A    between atoms: N1_14  and  O2_16 
REMARK    3  A    between atoms: O2_16  and  C13_17 
REMARK    4  A    between atoms: C13_17  and  C14_18 
REMARK       I    between atoms: C14_18  and  N2_20 
REMARK    5  A    between atoms: N2_20  and  C15_21 
REMARK    6  A    between atoms: C15_21  and  C16_22 
REMARK    7  A    between atoms: C15_21  and  C21_33 
REMARK       I    between atoms: C16_22  and  N3_24 
REMARK    8  A    between atoms: N3_24  and  C17_25 
REMARK    9  A    between atoms: C17_25  and  C18_26 
REMARK   10  A    between atoms: C17_25  and  C20_30 
REMARK   11  A    between atoms: C18_26  and  C19_27 
REMARK   12  A    between atoms: C19_27  and  O6_29 
REMARK   13  A    between atoms: C20_30  and  O8_32 
ROOT
HETATM    1  C1  UNL     1       4.028  19.307  23.578  1.00  0.00     0.015 C 
HETATM    2  C2  UNL     1       3.819  18.261  23.025  1.00  0.00    -0.078 C 
HETATM    3  C3  UNL     1       3.536  16.987  22.340  1.00  0.00     0.128 C 
HETATM    4  C4  UNL     1       3.637  17.140  20.819  1.00  0.00     0.052 C 
HETATM    5  C5  UNL     1       3.786  15.704  20.335  1.00  0.00     0.010 C 
HETATM    6  C6  UNL     1       4.821  15.128  21.302  1.00  0.00     0.002 C 
HETATM    7  C7  UNL     1       4.943  13.592  21.341  1.00  0.00    -0.004 C 
HETATM    8  C8  UNL     1       5.346  12.993  19.987  1.00  0.00     0.010 C 
HETATM    9  C9  UNL     1       5.111  11.491  19.949  1.00  0.00     0.035 C 
HETATM   10  C10 UNL     1       3.625  11.287  20.014  1.00  0.00    -0.069 C 
HETATM   11  C11 UNL     1       2.970  10.775  18.955  1.00  0.00     0.030 C 
HETATM   12  C12 UNL     1       1.482  10.692  18.925  1.00  0.00     0.032 C 
HETATM   13  N1  UNL     1       0.778  10.039  18.049  1.00  0.00    -0.271 N 
ATOM     14  H1  UNL     1      -0.241  10.011  18.038  1.00  0.00     0.194 HD
HETATM   15  C24 UNL     1       0.706  11.414  20.010  1.00  0.00     0.060 C 
HETATM   16  C25 UNL     1       1.558  12.386  20.824  1.00  0.00     0.020 C 
HETATM   17  C26 UNL     1       2.921  11.798  21.268  1.00  0.00    -0.016 C 
HETATM   18  C27 UNL     1       2.664  10.575  22.194  1.00  0.00     0.020 C 
HETATM   19  C28 UNL     1       3.810  12.827  22.088  1.00  0.00     0.002 C 
HETATM   20  C29 UNL     1       3.018  13.743  23.040  1.00  0.00     0.007 C 
HETATM   21  C30 UNL     1       3.920  14.786  23.699  1.00  0.00     0.014 C 
HETATM   22  C31 UNL     1       4.519  15.799  22.690  1.00  0.00     0.003 C 
HETATM   23  C32 UNL     1       5.865  16.295  23.274  1.00  0.00     0.020 C 
ENDROOT
BRANCH   3  24
HETATM   24  O1  UNL     1       2.182  16.638  22.636  1.00  0.00    -0.377 OA
HETATM   25  H2  UNL     1       1.642  17.431  22.480  1.00  0.00     0.211 HD
ENDBRANCH   3  24
BRANCH  13  26
HETATM   26  O2  UNL     1       1.595   9.376  17.118  1.00  0.00    -0.271 OA
BRANCH  26  27
HETATM   27  C13 UNL     1       0.767   8.708  16.178  1.00  0.00     0.303 C 
BRANCH  27  28
HETATM   28  C14 UNL     1       1.580   7.699  15.371  1.00  0.00     0.244 C 
HETATM   29  O3  UNL     1       2.691   7.293  15.702  1.00  0.00    -0.271 OA
HETATM   30  N2  UNL     1       0.935   7.265  14.226  1.00  0.00    -0.346 N 
HETATM   31  H16 UNL     1       0.238   7.894  13.839  1.00  0.00     0.163 HD
BRANCH  30  32
HETATM   32  C15 UNL     1       1.628   6.434  13.237  1.00  0.00     0.180 C 
BRANCH  32  33
HETATM   33  C16 UNL     1       2.503   7.385  12.391  1.00  0.00     0.241 C 
HETATM   34  O4  UNL     1       2.014   8.252  11.665  1.00  0.00    -0.271 OA
HETATM   35  N3  UNL     1       3.861   7.189  12.503  1.00  0.00    -0.344 N 
HETATM   36  H18 UNL     1       4.182   6.317  12.914  1.00  0.00     0.163 HD
BRANCH  35  37
HETATM   37  C17 UNL     1       4.805   7.869  11.613  1.00  0.00     0.192 C 
BRANCH  37  38
HETATM   38  C18 UNL     1       5.759   8.767  12.400  1.00  0.00     0.146 C 
BRANCH  38  39
HETATM   39  C19 UNL     1       6.523   9.697  11.501  1.00  0.00     0.141 C 
HETATM   40  O5  UNL     1       6.061  10.396  10.615  1.00  0.00    -0.650 OA
BRANCH  39  41
HETATM   41  O6  UNL     1       7.848   9.661  11.735  1.00  0.00    -0.776 OA
HETATM   42  H22 UNL     1       8.238  10.275  11.077  1.00  0.00     0.167 HD
ENDBRANCH  39  41
ENDBRANCH  38  39
ENDBRANCH  37  38
BRANCH  37  43
HETATM   43  C20 UNL     1       5.549   6.831  10.760  1.00  0.00     0.164 C 
HETATM   44  O7  UNL     1       5.082   5.818  10.263  1.00  0.00    -0.648 OA
BRANCH  43  45
HETATM   45  O8  UNL     1       6.840   7.151  10.534  1.00  0.00    -0.775 OA
HETATM   46  H23 UNL     1       7.159   6.429   9.952  1.00  0.00     0.167 HD
ENDBRANCH  43  45
ENDBRANCH  37  43
ENDBRANCH  35  37
ENDBRANCH  32  33
BRANCH  32  47
HETATM   47  C21 UNL     1       0.605   5.620  12.415  1.00  0.00     0.009 C 
HETATM   48  C22 UNL     1       0.533   6.079  10.956  1.00  0.00     0.012 C 
HETATM   49  C23 UNL     1      -0.798   5.598  13.029  1.00  0.00     0.012 C 
ENDBRANCH  32  47
ENDBRANCH  30  32
ENDBRANCH  27  28
ENDBRANCH  26  27
ENDBRANCH  13  26
TORSDOF 13
ENDMDL
MODEL 4
REMARK minimizedAffinity -8.37535667
REMARK CNNscore 0.211259708
REMARK CNNaffinity 6.21686172
REMARK  13 active torsions:
REMARK  status: ('A' for Active; 'I' for Inactive)
REMARK    1  A    between atoms: C3_3  and  O1_4 
REMARK    2  A    between atoms: N1_14  and  O2_16 
REMARK    3  A    between atoms: O2_16  and  C13_17 
REMARK    4  A    between atoms: C13_17  and  C14_18 
REMARK       I    between atoms: C14_18  and  N2_20 
REMARK    5  A    between atoms: N2_20  and  C15_21 
REMARK    6  A    between atoms: C15_21  and  C16_22 
REMARK    7  A    between atoms: C15_21  and  C21_33 
REMARK       I    between atoms: C16_22  and  N3_24 
REMARK    8  A    between atoms: N3_24  and  C17_25 
REMARK    9  A    between atoms: C17_25  and  C18_26 
REMARK   10  A    between atoms: C17_25  and  C20_30 
REMARK   11  A    between atoms: C18_26  and  C19_27 
REMARK   12  A    between atoms: C19_27  and  O6_29 
REMARK   13  A    between atoms: C20_30  and  O8_32 
ROOT
HETATM    1  C1  UNL     1      -6.414   6.065  15.667  1.00  0.00     0.015 C 
HETATM    2  C2  UNL     1      -5.260   6.322  15.450  1.00  0.00    -0.078 C 
HETATM    3  C3  UNL     1      -3.838   6.621  15.207  1.00  0.00     0.128 C 
HETATM    4  C4  UNL     1      -3.128   5.438  14.540  1.00  0.00     0.052 C 
HETATM    5  C5  UNL     1      -1.871   6.071  13.958  1.00  0.00     0.010 C 
HETATM    6  C6  UNL     1      -2.406   7.345  13.306  1.00  0.00     0.002 C 
HETATM    7  C7  UNL     1      -1.362   8.418  12.938  1.00  0.00    -0.004 C 
HETATM    8  C8  UNL     1      -0.320   7.912  11.932  1.00  0.00     0.010 C 
HETATM    9  C9  UNL     1       0.883   8.840  11.860  1.00  0.00     0.035 C 
HETATM   10  C10 UNL     1       1.577   8.746  13.189  1.00  0.00    -0.069 C 
HETATM   11  C11 UNL     1       2.805   8.198  13.268  1.00  0.00     0.030 C 
HETATM   12  C12 UNL     1       3.466   7.955  14.581  1.00  0.00     0.032 C 
HETATM   13  N1  UNL     1       4.711   7.624  14.752  1.00  0.00    -0.271 N 
ATOM     14  H1  UNL     1       5.137   7.445  15.661  1.00  0.00     0.194 HD
HETATM   15  C24 UNL     1       2.632   8.115  15.839  1.00  0.00     0.060 C 
HETATM   16  C25 UNL     1       1.133   8.216  15.567  1.00  0.00     0.020 C 
HETATM   17  C26 UNL     1       0.773   9.182  14.410  1.00  0.00    -0.016 C 
HETATM   18  C27 UNL     1       1.237  10.617  14.790  1.00  0.00     0.020 C 
HETATM   19  C28 UNL     1      -0.786   9.256  14.118  1.00  0.00     0.002 C 
HETATM   20  C29 UNL     1      -1.678   9.188  15.372  1.00  0.00     0.007 C 
HETATM   21  C30 UNL     1      -3.162   9.139  15.006  1.00  0.00     0.014 C 
HETATM   22  C31 UNL     1      -3.560   7.847  14.247  1.00  0.00     0.003 C 
HETATM   23  C32 UNL     1      -4.778   8.190  13.355  1.00  0.00     0.020 C 
ENDROOT
BRANCH   3  24
HETATM   24  O1  UNL     1      -3.221   6.815  16.481  1.00  0.00    -0.377 OA
HETATM   25  H2  UNL     1      -3.496   6.075  17.047  1.00  0.00     0.211 HD
ENDBRANCH   3  24
BRANCH  13  26
HETATM   26  O2  UNL     1       5.398   7.544  13.530  1.00  0.00    -0.271 OA
BRANCH  26  27
HETATM   27  C13 UNL     1       6.339   8.605  13.464  1.00  0.00     0.303 C 
BRANCH  27  28
HETATM   28  C14 UNL     1       7.612   8.238  14.222  1.00  0.00     0.244 C 
HETATM   29  O3  UNL     1       7.863   7.109  14.635  1.00  0.00    -0.271 OA
HETATM   30  N2  UNL     1       8.480   9.304  14.387  1.00  0.00    -0.346 N 
HETATM   31  H16 UNL     1       8.062  10.229  14.365  1.00  0.00     0.163 HD
BRANCH  30  32
HETATM   32  C15 UNL     1       9.668   9.187  15.237  1.00  0.00     0.180 C 
BRANCH  32  33
HETATM   33  C16 UNL     1       9.609  10.358  16.245  1.00  0.00     0.241 C 
HETATM   34  O4  UNL     1       9.063  11.427  15.973  1.00  0.00    -0.271 OA
HETATM   35  N3  UNL     1      10.215  10.120  17.457  1.00  0.00    -0.344 N 
HETATM   36  H18 UNL     1      10.850   9.328  17.523  1.00  0.00     0.163 HD
BRANCH  35  37
HETATM   37  C17 UNL     1      10.423  11.195  18.430  1.00  0.00     0.192 C 
BRANCH  37  38
HETATM   38  C18 UNL     1       9.236  11.312  19.386  1.00  0.00     0.146 C 
BRANCH  38  39
HETATM   39  C19 UNL     1       9.491  12.316  20.475  1.00  0.00     0.141 C 
HETATM   40  O5  UNL     1       9.656  13.516  20.334  1.00  0.00    -0.650 OA
BRANCH  39  41
HETATM   41  O6  UNL     1       9.572  11.743  21.690  1.00  0.00    -0.776 OA
HETATM   42  H22 UNL     1       9.769  12.481  22.305  1.00  0.00     0.167 HD
ENDBRANCH  39  41
ENDBRANCH  38  39
ENDBRANCH  37  38
BRANCH  37  43
HETATM   43  C20 UNL     1      11.750  10.973  19.169  1.00  0.00     0.164 C 
HETATM   44  O7  UNL     1      11.928  10.979  20.377  1.00  0.00    -0.648 OA
BRANCH  43  45
HETATM   45  O8  UNL     1      12.782  10.703  18.343  1.00  0.00    -0.775 OA
HETATM   46  H23 UNL     1      13.534  10.546  18.955  1.00  0.00     0.167 HD
ENDBRANCH  43  45
ENDBRANCH  37  43
ENDBRANCH  35  37
ENDBRANCH  32  33
BRANCH  32  47
HETATM   47  C21 UNL     1      10.945   9.166  14.369  1.00  0.00     0.009 C 
HETATM   48  C22 UNL     1      10.929  10.244  13.283  1.00  0.00     0.012 C 
HETATM   49  C23 UNL     1      11.242   7.798  13.748  1.00  0.00     0.012 C 
ENDBRANCH  32  47
ENDBRANCH  30  32
ENDBRANCH  27  28
ENDBRANCH  26  27
ENDBRANCH  13  26
TORSDOF 13
ENDMDL
MODEL 5
REMARK minimizedAffinity -7.09874582
REMARK CNNscore 0.191758037
REMARK CNNaffinity 5.2738843
REMARK  13 active torsions:
REMARK  status: ('A' for Active; 'I' for Inactive)
REMARK    1  A    between atoms: C3_3  and  O1_4 
REMARK    2  A    between atoms: N1_14  and  O2_16 
REMARK    3  A    between atoms: O2_16  and  C13_17 
REMARK    4  A    between atoms: C13_17  and  C14_18 
REMARK       I    between atoms: C14_18  and  N2_20 
REMARK    5  A    between atoms: N2_20  and  C15_21 
REMARK    6  A    between atoms: C15_21  and  C16_22 
REMARK    7  A    between atoms: C15_21  and  C21_33 
REMARK       I    between atoms: C16_22  and  N3_24 
REMARK    8  A    between atoms: N3_24  and  C17_25 
REMARK    9  A    between atoms: C17_25  and  C18_26 
REMARK   10  A    between atoms: C17_25  and  C20_30 
REMARK   11  A    between atoms: C18_26  and  C19_27 
REMARK   12  A    between atoms: C19_27  and  O6_29 
REMARK   13  A    between atoms: C20_30  and  O8_32 
ROOT
HETATM    1  C1  UNL     1       1.924   6.351  10.316  1.00  0.00     0.015 C 
HETATM    2  C2  UNL     1       2.926   6.814  10.790  1.00  0.00    -0.078 C 
HETATM    3  C3  UNL     1       4.171   7.359  11.362  1.00  0.00     0.128 C 
HETATM    4  C4  UNL     1       5.011   8.064  10.291  1.00  0.00     0.052 C 
HETATM    5  C5  UNL     1       5.958   8.931  11.109  1.00  0.00     0.010 C 
HETATM    6  C6  UNL     1       5.029   9.557  12.148  1.00  0.00     0.002 C 
HETATM    7  C7  UNL     1       5.706  10.206  13.372  1.00  0.00    -0.004 C 
HETATM    8  C8  UNL     1       6.643  11.360  12.989  1.00  0.00     0.010 C 
HETATM    9  C9  UNL     1       7.560  11.741  14.142  1.00  0.00     0.035 C 
HETATM   10  C10 UNL     1       8.481  10.575  14.361  1.00  0.00    -0.069 C 
HETATM   11  C11 UNL     1       9.797  10.702  14.107  1.00  0.00     0.030 C 
HETATM   12  C12 UNL     1      10.719   9.533  14.173  1.00  0.00     0.032 C 
HETATM   13  N1  UNL     1      12.017   9.591  14.145  1.00  0.00    -0.271 N 
ATOM     14  H1  UNL     1      12.628   8.775  14.173  1.00  0.00     0.194 HD
HETATM   15  C24 UNL     1      10.108   8.150  14.296  1.00  0.00     0.060 C 
HETATM   16  C25 UNL     1       8.604   8.123  14.034  1.00  0.00     0.020 C 
HETATM   17  C26 UNL     1       7.826   9.253  14.753  1.00  0.00    -0.016 C 
HETATM   18  C27 UNL     1       7.997   9.083  16.290  1.00  0.00     0.020 C 
HETATM   19  C28 UNL     1       6.268   9.232  14.450  1.00  0.00     0.002 C 
HETATM   20  C29 UNL     1       5.654   7.824  14.339  1.00  0.00     0.007 C 
HETATM   21  C30 UNL     1       4.184   7.880  13.924  1.00  0.00     0.014 C 
HETATM   22  C31 UNL     1       3.975   8.444  12.495  1.00  0.00     0.003 C 
HETATM   23  C32 UNL     1       2.572   9.098  12.455  1.00  0.00     0.020 C 
ENDROOT
BRANCH   3  24
HETATM   24  O1  UNL     1       4.940   6.253  11.836  1.00  0.00    -0.377 OA
HETATM   25  H2  UNL     1       4.953   5.589  11.127  1.00  0.00     0.211 HD
ENDBRANCH   3  24
BRANCH  13  26
HETATM   26  O2  UNL     1      12.475  10.916  14.071  1.00  0.00    -0.271 OA
BRANCH  26  27
HETATM   27  C13 UNL     1      13.726  10.930  13.400  1.00  0.00     0.303 C 
BRANCH  27  28
HETATM   28  C14 UNL     1      14.754  11.726  14.200  1.00  0.00     0.244 C 
HETATM   29  O3  UNL     1      14.974  12.923  14.035  1.00  0.00    -0.271 OA
HETATM   30  N2  UNL     1      15.411  10.970  15.155  1.00  0.00    -0.346 N 
HETATM   31  H16 UNL     1      15.455   9.970  14.982  1.00  0.00     0.163 HD
BRANCH  30  32
HETATM   32  C15 UNL     1      16.551  11.515  15.899  1.00  0.00     0.180 C 
BRANCH  32  33
HETATM   33  C16 UNL     1      15.973  12.507  16.934  1.00  0.00     0.241 C 
HETATM   34  O4  UNL     1      16.163  13.720  16.853  1.00  0.00    -0.271 OA
HETATM   35  N3  UNL     1      15.243  11.935  17.950  1.00  0.00    -0.344 N 
HETATM   36  H18 UNL     1      15.333  10.932  18.094  1.00  0.00     0.163 HD
BRANCH  35  37
HETATM   37  C17 UNL     1      14.810  12.717  19.111  1.00  0.00     0.192 C 
BRANCH  37  38
HETATM   38  C18 UNL     1      15.944  13.593  19.642  1.00  0.00     0.146 C 
BRANCH  38  39
HETATM   39  C19 UNL     1      16.254  13.298  21.082  1.00  0.00     0.141 C 
HETATM   40  O5  UNL     1      16.030  14.022  22.038  1.00  0.00    -0.650 OA
BRANCH  39  41
HETATM   41  O6  UNL     1      16.877  12.116  21.239  1.00  0.00    -0.776 OA
HETATM   42  H22 UNL     1      17.054  12.049  22.202  1.00  0.00     0.167 HD
ENDBRANCH  39  41
ENDBRANCH  38  39
ENDBRANCH  37  38
BRANCH  37  43
HETATM   43  C20 UNL     1      13.561  13.533  18.748  1.00  0.00     0.164 C 
HETATM   44  O7  UNL     1      13.280  14.657  19.134  1.00  0.00    -0.648 OA
BRANCH  43  45
HETATM   45  O8  UNL     1      12.752  12.907  17.868  1.00  0.00    -0.775 OA
HETATM   46  H23 UNL     1      12.037  13.560  17.706  1.00  0.00     0.167 HD
ENDBRANCH  43  45
ENDBRANCH  37  43
ENDBRANCH  35  37
ENDBRANCH  32  33
BRANCH  32  47
HETATM   47  C21 UNL     1      17.572  12.143  14.925  1.00  0.00     0.009 C 
HETATM   48  C22 UNL     1      18.092  11.135  13.897  1.00  0.00     0.012 C 
HETATM   49  C23 UNL     1      18.746  12.832  15.627  1.00  0.00     0.012 C 
ENDBRANCH  32  47
ENDBRANCH  30  32
ENDBRANCH  27  28
ENDBRANCH  26  27
ENDBRANCH  13  26
TORSDOF 13
ENDMDL
MODEL 6
REMARK minimizedAffinity -7.85211658
REMARK CNNscore 0.179686368
REMARK CNNaffinity 5.71704292
REMARK  13 active torsions:
REMARK  status: ('A' for Active; 'I' for Inactive)
REMARK    1  A    between atoms: C3_3  and  O1_4 
REMARK    2  A    between atoms: N1_14  and  O2_16 
REMARK    3  A    between atoms: O2_16  and  C13_17 
REMARK    4  A    between atoms: C13_17  and  C14_18 
REMARK       I    between atoms: C14_18  and  N2_20 
REMARK    5  A    between atoms: N2_20  and  C15_21 
REMARK    6  A    between atoms: C15_21  and  C16_22 
REMARK    7  A    between atoms: C15_21  and  C21_33 
REMARK       I    between atoms: C16_22  and  N3_24 
REMARK    8  A    between atoms: N3_24  and  C17_25 
REMARK    9  A    between atoms: C17_25  and  C18_26 
REMARK   10  A    between atoms: C17_25  and  C20_30 
REMARK   11  A    between atoms: C18_26  and  C19_27 
REMARK   12  A    between atoms: C19_27  and  O6_29 
REMARK   13  A    between atoms: C20_30  and  O8_32 
ROOT
HETATM    1  C1  UNL     1       2.285   6.305   6.600  1.00  0.00     0.015 C 
HETATM    2  C2  UNL     1       2.414   6.831   7.672  1.00  0.00    -0.078 C 
HETATM    3  C3  UNL     1       2.573   7.501   8.975  1.00  0.00     0.128 C 
HETATM    4  C4  UNL     1       1.245   8.092   9.461  1.00  0.00     0.052 C 
HETATM    5  C5  UNL     1       1.483   8.302  10.950  1.00  0.00     0.010 C 
HETATM    6  C6  UNL     1       2.149   6.993  11.373  1.00  0.00     0.002 C 
HETATM    7  C7  UNL     1       2.864   6.998  12.739  1.00  0.00    -0.004 C 
HETATM    8  C8  UNL     1       1.916   7.309  13.904  1.00  0.00     0.010 C 
HETATM    9  C9  UNL     1       2.683   7.661  15.169  1.00  0.00     0.035 C 
HETATM   10  C10 UNL     1       3.377   8.966  14.901  1.00  0.00    -0.069 C 
HETATM   11  C11 UNL     1       3.011  10.072  15.575  1.00  0.00     0.030 C 
HETATM   12  C12 UNL     1       3.572  11.411  15.238  1.00  0.00     0.032 C 
HETATM   13  N1  UNL     1       3.438  12.489  15.951  1.00  0.00    -0.271 N 
ATOM     14  H1  UNL     1       3.817  13.399  15.690  1.00  0.00     0.194 HD
HETATM   15  C24 UNL     1       4.384  11.542  13.963  1.00  0.00     0.060 C 
HETATM   16  C25 UNL     1       4.263  10.334  13.037  1.00  0.00     0.020 C 
HETATM   17  C26 UNL     1       4.397   8.974  13.766  1.00  0.00    -0.016 C 
HETATM   18  C27 UNL     1       5.812   8.883  14.406  1.00  0.00     0.020 C 
HETATM   19  C28 UNL     1       4.240   7.726  12.797  1.00  0.00     0.002 C 
HETATM   20  C29 UNL     1       4.859   7.916  11.400  1.00  0.00     0.007 C 
HETATM   21  C30 UNL     1       4.562   6.728  10.485  1.00  0.00     0.014 C 
HETATM   22  C31 UNL     1       3.054   6.572  10.160  1.00  0.00     0.003 C 
HETATM   23  C32 UNL     1       2.794   5.071   9.880  1.00  0.00     0.020 C 
ENDROOT
BRANCH   3  24
HETATM   24  O1  UNL     1       3.471   8.596   8.782  1.00  0.00    -0.377 OA
HETATM   25  H2  UNL     1       3.169   9.077   7.994  1.00  0.00     0.211 HD
ENDBRANCH   3  24
BRANCH  13  26
HETATM   26  O2  UNL     1       2.707  12.246  17.125  1.00  0.00    -0.271 OA
BRANCH  26  27
HETATM   27  C13 UNL     1       2.633  13.450  17.875  1.00  0.00     0.303 C 
BRANCH  27  28
HETATM   28  C14 UNL     1       3.062  13.207  19.320  1.00  0.00     0.244 C 
HETATM   29  O3  UNL     1       2.771  13.948  20.255  1.00  0.00    -0.271 OA
HETATM   30  N2  UNL     1       3.804  12.050  19.485  1.00  0.00    -0.346 N 
HETATM   31  H16 UNL     1       4.303  11.717  18.666  1.00  0.00     0.163 HD
BRANCH  30  32
HETATM   32  C15 UNL     1       4.450  11.743  20.764  1.00  0.00     0.180 C 
BRANCH  32  33
HETATM   33  C16 UNL     1       5.975  11.793  20.515  1.00  0.00     0.241 C 
HETATM   34  O4  UNL     1       6.494  11.267  19.531  1.00  0.00    -0.271 OA
HETATM   35  N3  UNL     1       6.704  12.459  21.473  1.00  0.00    -0.344 N 
HETATM   36  H18 UNL     1       6.255  12.649  22.366  1.00  0.00     0.163 HD
BRANCH  35  37
HETATM   37  C17 UNL     1       8.168  12.414  21.485  1.00  0.00     0.192 C 
BRANCH  37  38
HETATM   38  C18 UNL     1       8.764  13.571  20.684  1.00  0.00     0.146 C 
BRANCH  38  39
HETATM   39  C19 UNL     1       9.900  13.121  19.810  1.00  0.00     0.141 C 
HETATM   40  O5  UNL     1       9.825  12.754  18.650  1.00  0.00    -0.650 OA
BRANCH  39  41
HETATM   41  O6  UNL     1      11.076  13.111  20.465  1.00  0.00    -0.776 OA
HETATM   42  H22 UNL     1      11.726  12.774  19.813  1.00  0.00     0.167 HD
ENDBRANCH  39  41
ENDBRANCH  38  39
ENDBRANCH  37  38
BRANCH  37  43
HETATM   43  C20 UNL     1       8.672  12.387  22.936  1.00  0.00     0.164 C 
HETATM   44  O7  UNL     1       8.844  13.346  23.672  1.00  0.00    -0.648 OA
BRANCH  43  45
HETATM   45  O8  UNL     1       8.884  11.139  23.404  1.00  0.00    -0.775 OA
HETATM   46  H23 UNL     1       9.155  11.284  24.336  1.00  0.00     0.167 HD
ENDBRANCH  43  45
ENDBRANCH  37  43
ENDBRANCH  35  37
ENDBRANCH  32  33
BRANCH  32  47
HETATM   47  C21 UNL     1       3.944  10.387  21.305  1.00  0.00     0.009 C 
HETATM   48  C22 UNL     1       2.430  10.228  21.152  1.00  0.00     0.012 C 
HETATM   49  C23 UNL     1       4.359  10.111  22.753  1.00  0.00     0.012 C 
ENDBRANCH  32  47
ENDBRANCH  30  32
ENDBRANCH  27  28
ENDBRANCH  26  27
ENDBRANCH  13  26
TORSDOF 13
ENDMDL
MODEL 7
REMARK minimizedAffinity -7.21634531
REMARK CNNscore 0.17697309
REMARK CNNaffinity 5.69233179
REMARK  13 active torsions:
REMARK  status: ('A' for Active; 'I' for Inactive)
REMARK    1  A    between atoms: C3_3  and  O1_4 
REMARK    2  A    between atoms: N1_14  and  O2_16 
REMARK    3  A    between atoms: O2_16  and  C13_17 
REMARK    4  A    between atoms: C13_17  and  C14_18 
REMARK       I    between atoms: C14_18  and  N2_20 
REMARK    5  A    between atoms: N2_20  and  C15_21 
REMARK    6  A    between atoms: C15_21  and  C16_22 
REMARK    7  A    between atoms: C15_21  and  C21_33 
REMARK       I    between atoms: C16_22  and  N3_24 
REMARK    8  A    between atoms: N3_24  and  C17_25 
REMARK    9  A    between atoms: C17_25  and  C18_26 
REMARK   10  A    between atoms: C17_25  and  C20_30 
REMARK   11  A    between atoms: C18_26  and  C19_27 
REMARK   12  A    between atoms: C19_27  and  O6_29 
REMARK   13  A    between atoms: C20_30  and  O8_32 
ROOT
HETATM    1  C1  UNL     1      -1.321   1.709  10.819  1.00  0.00     0.015 C 
HETATM    2  C2  UNL     1      -1.048   2.734  11.385  1.00  0.00    -0.078 C 
HETATM    3  C3  UNL     1      -0.690   3.978  12.088  1.00  0.00     0.128 C 
HETATM    4  C4  UNL     1       0.355   4.779  11.304  1.00  0.00     0.052 C 
HETATM    5  C5  UNL     1       0.245   6.174  11.902  1.00  0.00     0.010 C 
HETATM    6  C6  UNL     1      -1.266   6.395  11.967  1.00  0.00     0.002 C 
HETATM    7  C7  UNL     1      -1.753   7.553  12.861  1.00  0.00    -0.004 C 
HETATM    8  C8  UNL     1      -1.211   8.917  12.413  1.00  0.00     0.010 C 
HETATM    9  C9  UNL     1      -1.398   9.973  13.492  1.00  0.00     0.035 C 
HETATM   10  C10 UNL     1      -0.507   9.581  14.635  1.00  0.00    -0.069 C 
HETATM   11  C11 UNL     1       0.551  10.350  14.958  1.00  0.00     0.030 C 
HETATM   12  C12 UNL     1       1.538   9.923  15.988  1.00  0.00     0.032 C 
HETATM   13  N1  UNL     1       2.464  10.674  16.506  1.00  0.00    -0.271 N 
ATOM     14  H1  UNL     1       3.142  10.353  17.198  1.00  0.00     0.194 HD
HETATM   15  C24 UNL     1       1.465   8.495  16.498  1.00  0.00     0.060 C 
HETATM   16  C25 UNL     1       0.563   7.595  15.657  1.00  0.00     0.020 C 
HETATM   17  C26 UNL     1      -0.799   8.238  15.297  1.00  0.00    -0.016 C 
HETATM   18  C27 UNL     1      -1.583   8.523  16.610  1.00  0.00     0.020 C 
HETATM   19  C28 UNL     1      -1.716   7.303  14.398  1.00  0.00     0.002 C 
HETATM   20  C29 UNL     1      -1.638   5.804  14.744  1.00  0.00     0.007 C 
HETATM   21  C30 UNL     1      -2.445   4.956  13.761  1.00  0.00     0.014 C 
HETATM   22  C31 UNL     1      -1.881   4.992  12.318  1.00  0.00     0.003 C 
HETATM   23  C32 UNL     1      -3.066   4.745  11.351  1.00  0.00     0.020 C 
ENDROOT
BRANCH   3  24
HETATM   24  O1  UNL     1      -0.086   3.606  13.329  1.00  0.00    -0.377 OA
HETATM   25  H2  UNL     1       0.577   2.924  13.129  1.00  0.00     0.211 HD
ENDBRANCH   3  24
BRANCH  13  26
HETATM   26  O2  UNL     1       2.417  11.981  15.996  1.00  0.00    -0.271 OA
BRANCH  26  27
HETATM   27  C13 UNL     1       3.201  12.824  16.826  1.00  0.00     0.303 C 
BRANCH  27  28
HETATM   28  C14 UNL     1       3.575  12.104  18.119  1.00  0.00     0.244 C 
HETATM   29  O3  UNL     1       4.376  11.175  18.179  1.00  0.00    -0.271 OA
HETATM   30  N2  UNL     1       2.933  12.611  19.235  1.00  0.00    -0.346 N 
HETATM   31  H16 UNL     1       2.051  13.087  19.067  1.00  0.00     0.163 HD
BRANCH  30  32
HETATM   32  C15 UNL     1       3.029  11.939  20.534  1.00  0.00     0.180 C 
BRANCH  32  33
HETATM   33  C16 UNL     1       4.535  11.802  20.853  1.00  0.00     0.241 C 
HETATM   34  O4  UNL     1       5.048  10.718  21.131  1.00  0.00    -0.271 OA
HETATM   35  N3  UNL     1       5.253  12.975  20.810  1.00  0.00    -0.344 N 
HETATM   36  H18 UNL     1       4.735  13.850  20.820  1.00  0.00     0.163 HD
BRANCH  35  37
HETATM   37  C17 UNL     1       6.637  13.040  21.287  1.00  0.00     0.192 C 
BRANCH  37  38
HETATM   38  C18 UNL     1       6.823  12.213  22.559  1.00  0.00     0.146 C 
BRANCH  38  39
HETATM   39  C19 UNL     1       8.181  12.417  23.167  1.00  0.00     0.141 C 
HETATM   40  O5  UNL     1       8.720  13.485  23.403  1.00  0.00    -0.650 OA
BRANCH  39  41
HETATM   41  O6  UNL     1       8.816  11.254  23.402  1.00  0.00    -0.776 OA
HETATM   42  H22 UNL     1       9.691  11.511  23.763  1.00  0.00     0.167 HD
ENDBRANCH  39  41
ENDBRANCH  38  39
ENDBRANCH  37  38
BRANCH  37  43
HETATM   43  C20 UNL     1       7.591  12.608  20.164  1.00  0.00     0.164 C 
HETATM   44  O7  UNL     1       7.391  11.749  19.319  1.00  0.00    -0.648 OA
BRANCH  43  45
HETATM   45  O8  UNL     1       8.736  13.323  20.132  1.00  0.00    -0.775 OA
HETATM   46  H23 UNL     1       9.210  12.965  19.351  1.00  0.00     0.167 HD
ENDBRANCH  43  45
ENDBRANCH  37  43
ENDBRANCH  35  37
ENDBRANCH  32  33
BRANCH  32  47
HETATM   47  C21 UNL     1       2.268  10.596  20.497  1.00  0.00     0.009 C 
HETATM   48  C22 UNL     1       0.830  10.755  19.998  1.00  0.00     0.012 C 
HETATM   49  C23 UNL     1       2.281   9.847  21.833  1.00  0.00     0.012 C 
ENDBRANCH  32  47
ENDBRANCH  30  32
ENDBRANCH  27  28
ENDBRANCH  26  27
ENDBRANCH  13  26
TORSDOF 13
ENDMDL
MODEL 8
REMARK minimizedAffinity -7.17845297
REMARK CNNscore 0.175930753
REMARK CNNaffinity 5.36031723
REMARK  13 active torsions:
REMARK  status: ('A' for Active; 'I' for Inactive)
REMARK    1  A    between atoms: C3_3  and  O1_4 
REMARK    2  A    between atoms: N1_14  and  O2_16 
REMARK    3  A    between atoms: O2_16  and  C13_17 
REMARK    4  A    between atoms: C13_17  and  C14_18 
REMARK       I    between atoms: C14_18  and  N2_20 
REMARK    5  A    between atoms: N2_20  and  C15_21 
REMARK    6  A    between atoms: C15_21  and  C16_22 
REMARK    7  A    between atoms: C15_21  and  C21_33 
REMARK       I    between atoms: C16_22  and  N3_24 
REMARK    8  A    between atoms: N3_24  and  C17_25 
REMARK    9  A    between atoms: C17_25  and  C18_26 
REMARK   10  A    between atoms: C17_25  and  C20_30 
REMARK   11  A    between atoms: C18_26  and  C19_27 
REMARK   12  A    between atoms: C19_27  and  O6_29 
REMARK   13  A    between atoms: C20_30  and  O8_32 
ROOT
HETATM    1  C1  UNL     1      -3.975   5.354  13.652  1.00  0.00     0.015 C 
HETATM    2  C2  UNL     1      -3.296   6.146  14.248  1.00  0.00    -0.078 C 
HETATM    3  C3  UNL     1      -2.466   7.102  15.003  1.00  0.00     0.128 C 
HETATM    4  C4  UNL     1      -1.033   6.584  15.167  1.00  0.00     0.052 C 
HETATM    5  C5  UNL     1      -0.249   7.840  15.521  1.00  0.00     0.010 C 
HETATM    6  C6  UNL     1      -0.779   8.863  14.516  1.00  0.00     0.002 C 
HETATM    7  C7  UNL     1      -0.477  10.344  14.820  1.00  0.00    -0.004 C 
HETATM    8  C8  UNL     1       1.027  10.643  14.876  1.00  0.00     0.010 C 
HETATM    9  C9  UNL     1       1.304  11.993  15.520  1.00  0.00     0.035 C 
HETATM   10  C10 UNL     1       0.900  11.871  16.962  1.00  0.00    -0.069 C 
HETATM   11  C11 UNL     1       1.834  11.930  17.929  1.00  0.00     0.030 C 
HETATM   12  C12 UNL     1       1.495  11.670  19.356  1.00  0.00     0.032 C 
HETATM   13  N1  UNL     1       2.272  11.898  20.373  1.00  0.00    -0.271 N 
ATOM     14  H1  UNL     1       2.025  11.695  21.341  1.00  0.00     0.194 HD
HETATM   15  C24 UNL     1       0.124  11.101  19.671  1.00  0.00     0.060 C 
HETATM   16  C25 UNL     1      -0.620  10.589  18.439  1.00  0.00     0.020 C 
HETATM   17  C26 UNL     1      -0.570  11.560  17.233  1.00  0.00    -0.016 C 
HETATM   18  C27 UNL     1      -1.265  12.894  17.631  1.00  0.00     0.020 C 
HETATM   19  C28 UNL     1      -1.322  11.005  15.950  1.00  0.00     0.002 C 
HETATM   20  C29 UNL     1      -2.610  10.216  16.252  1.00  0.00     0.007 C 
HETATM   21  C30 UNL     1      -3.209   9.608  14.983  1.00  0.00     0.014 C 
HETATM   22  C31 UNL     1      -2.304   8.527  14.339  1.00  0.00     0.003 C 
HETATM   23  C32 UNL     1      -2.608   8.513  12.821  1.00  0.00     0.020 C 
ENDROOT
BRANCH   3  24
HETATM   24  O1  UNL     1      -3.025   7.206  16.314  1.00  0.00    -0.377 OA
HETATM   25  H2  UNL     1      -3.177   6.300  16.632  1.00  0.00     0.211 HD
ENDBRANCH   3  24
BRANCH  13  26
HETATM   26  O2  UNL     1       3.496  12.460  19.973  1.00  0.00    -0.271 OA
BRANCH  26  27
HETATM   27  C13 UNL     1       4.513  11.478  20.102  1.00  0.00     0.303 C 
BRANCH  27  28
HETATM   28  C14 UNL     1       5.842  12.130  20.474  1.00  0.00     0.244 C 
HETATM   29  O3  UNL     1       6.933  11.578  20.359  1.00  0.00    -0.271 OA
HETATM   30  N2  UNL     1       5.705  13.425  20.944  1.00  0.00    -0.346 N 
HETATM   31  H16 UNL     1       4.806  13.660  21.353  1.00  0.00     0.163 HD
BRANCH  30  32
HETATM   32  C15 UNL     1       6.846  14.148  21.514  1.00  0.00     0.180 C 
BRANCH  32  33
HETATM   33  C16 UNL     1       8.031  13.945  20.542  1.00  0.00     0.241 C 
HETATM   34  O4  UNL     1       7.925  14.147  19.332  1.00  0.00    -0.271 OA
HETATM   35  N3  UNL     1       9.201  13.518  21.125  1.00  0.00    -0.344 N 
HETATM   36  H18 UNL     1       9.152  13.138  22.067  1.00  0.00     0.163 HD
BRANCH  35  37
HETATM   37  C17 UNL     1      10.343  13.085  20.315  1.00  0.00     0.192 C 
BRANCH  37  38
HETATM   38  C18 UNL     1       9.962  11.923  19.398  1.00  0.00     0.146 C 
BRANCH  38  39
HETATM   39  C19 UNL     1      11.081  10.932  19.255  1.00  0.00     0.141 C 
HETATM   40  O5  UNL     1      12.003  10.757  20.034  1.00  0.00    -0.650 OA
BRANCH  39  41
HETATM   41  O6  UNL     1      11.007  10.239  18.103  1.00  0.00    -0.776 OA
HETATM   42  H22 UNL     1      11.795   9.656  18.107  1.00  0.00     0.167 HD
ENDBRANCH  39  41
ENDBRANCH  38  39
ENDBRANCH  37  38
BRANCH  37  43
HETATM   43  C20 UNL     1      10.907  14.282  19.537  1.00  0.00     0.164 C 
HETATM   44  O7  UNL     1      10.961  15.443  19.913  1.00  0.00    -0.648 OA
BRANCH  43  45
HETATM   45  O8  UNL     1      11.427  13.944  18.339  1.00  0.00    -0.775 OA
HETATM   46  H23 UNL     1      11.778  14.792  17.991  1.00  0.00     0.167 HD
ENDBRANCH  43  45
ENDBRANCH  37  43
ENDBRANCH  35  37
ENDBRANCH  32  33
BRANCH  32  47
HETATM   47  C21 UNL     1       7.121  13.661  22.953  1.00  0.00     0.009 C 
HETATM   48  C22 UNL     1       8.020  14.624  23.732  1.00  0.00     0.012 C 
HETATM   49  C23 UNL     1       7.688  12.240  23.022  1.00  0.00     0.012 C 
ENDBRANCH  32  47
ENDBRANCH  30  32
ENDBRANCH  27  28
ENDBRANCH  26  27
ENDBRANCH  13  26
TORSDOF 13
ENDMDL
MODEL 9
REMARK minimizedAffinity -6.95416594
REMARK CNNscore 0.175680593
REMARK CNNaffinity 5.48674154
REMARK  13 active torsions:
REMARK  status: ('A' for Active; 'I' for Inactive)
REMARK    1  A    between atoms: C3_3  and  O1_4 
REMARK    2  A    between atoms: N1_14  and  O2_16 
REMARK    3  A    between atoms: O2_16  and  C13_17 
REMARK    4  A    between atoms: C13_17  and  C14_18 
REMARK       I    between atoms: C14_18  and  N2_20 
REMARK    5  A    between atoms: N2_20  and  C15_21 
REMARK    6  A    between atoms: C15_21  and  C16_22 
REMARK    7  A    between atoms: C15_21  and  C21_33 
REMARK       I    between atoms: C16_22  and  N3_24 
REMARK    8  A    between atoms: N3_24  and  C17_25 
REMARK    9  A    between atoms: C17_25  and  C18_26 
REMARK   10  A    between atoms: C17_25  and  C20_30 
REMARK   11  A    between atoms: C18_26  and  C19_27 
REMARK   12  A    between atoms: C19_27  and  O6_29 
REMARK   13  A    between atoms: C20_30  and  O8_32 
ROOT
HETATM    1  C1  UNL     1      -3.696   5.382  13.919  1.00  0.00     0.015 C 
HETATM    2  C2  UNL     1      -3.086   6.228  14.515  1.00  0.00    -0.078 C 
HETATM    3  C3  UNL     1      -2.334   7.248  15.268  1.00  0.00     0.128 C 
HETATM    4  C4  UNL     1      -0.822   7.045  15.118  1.00  0.00     0.052 C 
HETATM    5  C5  UNL     1      -0.249   8.393  15.534  1.00  0.00     0.010 C 
HETATM    6  C6  UNL     1      -1.150   9.384  14.798  1.00  0.00     0.002 C 
HETATM    7  C7  UNL     1      -1.093  10.849  15.276  1.00  0.00    -0.004 C 
HETATM    8  C8  UNL     1       0.305  11.465  15.137  1.00  0.00     0.010 C 
HETATM    9  C9  UNL     1       0.427  12.757  15.931  1.00  0.00     0.035 C 
HETATM   10  C10 UNL     1       0.334  12.379  17.382  1.00  0.00    -0.069 C 
HETATM   11  C11 UNL     1       1.404  12.528  18.185  1.00  0.00     0.030 C 
HETATM   12  C12 UNL     1       1.398  12.033  19.590  1.00  0.00     0.032 C 
HETATM   13  N1  UNL     1       2.293  12.306  20.493  1.00  0.00    -0.271 N 
ATOM     14  H1  UNL     1       2.278  11.940  21.444  1.00  0.00     0.194 HD
HETATM   15  C24 UNL     1       0.251  11.141  20.027  1.00  0.00     0.060 C 
HETATM   16  C25 UNL     1      -0.596  10.627  18.865  1.00  0.00     0.020 C 
HETATM   17  C26 UNL     1      -0.967  11.720  17.833  1.00  0.00    -0.016 C 
HETATM   18  C27 UNL     1      -1.824  12.810  18.539  1.00  0.00     0.020 C 
HETATM   19  C28 UNL     1      -1.823  11.168  16.615  1.00  0.00     0.002 C 
HETATM   20  C29 UNL     1      -2.850  10.083  16.992  1.00  0.00     0.007 C 
HETATM   21  C30 UNL     1      -3.546   9.512  15.757  1.00  0.00     0.014 C 
HETATM   22  C31 UNL     1      -2.584   8.742  14.816  1.00  0.00     0.003 C 
HETATM   23  C32 UNL     1      -3.160   8.840  13.382  1.00  0.00     0.020 C 
ENDROOT
BRANCH   3  24
HETATM   24  O1  UNL     1      -2.644   7.070  16.651  1.00  0.00    -0.377 OA
HETATM   25  H2  UNL     1      -2.552   6.122  16.845  1.00  0.00     0.211 HD
ENDBRANCH   3  24
BRANCH  13  26
HETATM   26  O2  UNL     1       3.284  13.168  19.996  1.00  0.00    -0.271 OA
BRANCH  26  27
HETATM   27  C13 UNL     1       4.483  12.954  20.725  1.00  0.00     0.303 C 
BRANCH  27  28
HETATM   28  C14 UNL     1       5.239  11.749  20.170  1.00  0.00     0.244 C 
HETATM   29  O3  UNL     1       4.911  10.583  20.369  1.00  0.00    -0.271 OA
HETATM   30  N2  UNL     1       6.332  12.096  19.395  1.00  0.00    -0.346 N 
HETATM   31  H16 UNL     1       6.743  13.006  19.583  1.00  0.00     0.163 HD
BRANCH  30  32
HETATM   32  C15 UNL     1       7.278  11.081  18.923  1.00  0.00     0.180 C 
BRANCH  32  33
HETATM   33  C16 UNL     1       8.676  11.511  19.422  1.00  0.00     0.241 C 
HETATM   34  O4  UNL     1       8.908  11.725  20.612  1.00  0.00    -0.271 OA
HETATM   35  N3  UNL     1       9.633  11.642  18.442  1.00  0.00    -0.344 N 
HETATM   36  H18 UNL     1       9.321  11.693  17.476  1.00  0.00     0.163 HD
BRANCH  35  37
HETATM   37  C17 UNL     1      10.941  12.239  18.729  1.00  0.00     0.192 C 
BRANCH  37  38
HETATM   38  C18 UNL     1      10.791  13.630  19.344  1.00  0.00     0.146 C 
BRANCH  38  39
HETATM   39  C19 UNL     1      11.817  14.590  18.813  1.00  0.00     0.141 C 
HETATM   40  O5  UNL     1      12.952  14.320  18.457  1.00  0.00    -0.650 OA
BRANCH  39  41
HETATM   41  O6  UNL     1      11.373  15.860  18.804  1.00  0.00    -0.776 OA
HETATM   42  H22 UNL     1      12.128  16.391  18.474  1.00  0.00     0.167 HD
ENDBRANCH  39  41
ENDBRANCH  38  39
ENDBRANCH  37  38
BRANCH  37  43
HETATM   43  C20 UNL     1      11.757  11.290  19.619  1.00  0.00     0.164 C 
HETATM   44  O7  UNL     1      12.325  11.569  20.663  1.00  0.00    -0.648 OA
BRANCH  43  45
HETATM   45  O8  UNL     1      11.771  10.017  19.171  1.00  0.00    -0.775 OA
HETATM   46  H23 UNL     1      12.285   9.536  19.855  1.00  0.00     0.167 HD
ENDBRANCH  43  45
ENDBRANCH  37  43
ENDBRANCH  35  37
ENDBRANCH  32  33
BRANCH  32  47
HETATM   47  C21 UNL     1       7.175  10.927  17.390  1.00  0.00     0.009 C 
HETATM   48  C22 UNL     1       8.055   9.794  16.858  1.00  0.00     0.012 C 
HETATM   49  C23 UNL     1       7.462  12.221  16.623  1.00  0.00     0.012 C 
ENDBRANCH  32  47
ENDBRANCH  30  32
ENDBRANCH  27  28
ENDBRANCH  26  27
ENDBRANCH  13  26
TORSDOF 13
ENDMDL
