MODEL 1
REMARK minimizedAffinity -8.93688488
REMARK  4 active torsions:
REMARK  status: ('A' for Active; 'I' for Inactive)
REMARK    1  A    between atoms: C4_4  and  C5_5 
REMARK    2  A    between atoms: C5_5  and  C6_6 
REMARK    3  A    between atoms: C6_6  and  C7_7 
REMARK    4  A    between atoms: C7_7  and  C9_9 
ROOT
HETATM    1  C9  UNL     1       0.544   7.213  10.465  1.00  0.00    -0.002 C 
HETATM    2  C10 UNL     1       1.049   5.769  10.713  1.00  0.00     0.010 C 
HETATM    3  C11 UNL     1       0.482   5.324  12.087  1.00  0.00    -0.013 C 
HETATM    4  C12 UNL     1      -0.242   3.988  11.929  1.00  0.00     0.010 C 
HETATM    5  C13 UNL     1      -0.408   6.502  12.522  1.00  0.00     0.003 C 
HETATM    6  C14 UNL     1      -0.762   6.729  14.011  1.00  0.00    -0.000 C 
HETATM    7  C15 UNL     1      -1.307   5.523  14.764  1.00  0.00     0.006 C 
HETATM    8  C16 UNL     1      -2.730   5.106  14.410  1.00  0.00     0.006 C 
HETATM    9  C17 UNL     1      -3.641   6.158  13.742  1.00  0.00     0.003 C 
HETATM   10  C18 UNL     1      -5.168   5.925  14.033  1.00  0.00    -0.043 C 
HETATM   11  C19 UNL     1      -5.516   6.072  15.530  1.00  0.00     0.015 C 
HETATM   12  C20 UNL     1      -5.592   4.509  13.585  1.00  0.00     0.015 C 
HETATM   13  C21 UNL     1      -6.005   6.939  13.210  1.00  0.00     0.009 C 
HETATM   14  C22 UNL     1      -5.589   8.384  13.452  1.00  0.00     0.002 C 
HETATM   15  C23 UNL     1      -4.110   8.590  13.157  1.00  0.00     0.011 C 
HETATM   16  C24 UNL     1      -3.235   7.627  13.946  1.00  0.00    -0.027 A 
HETATM   17  C25 UNL     1      -2.658   8.115  15.259  1.00  0.00     0.021 A 
HETATM   18  C26 UNL     1      -1.731   7.925  14.072  1.00  0.00    -0.028 A 
HETATM   19  C27 UNL     1      -1.126   9.184  13.459  1.00  0.00     0.011 C 
HETATM   20  C28 UNL     1      -0.664   8.949  12.012  1.00  0.00     0.011 C 
HETATM   21  C29 UNL     1       0.310   7.756  11.902  1.00  0.00    -0.036 C 
HETATM   22  C30 UNL     1       1.640   8.117  12.605  1.00  0.00     0.016 C 
ENDROOT
BRANCH   1  23
HETATM   23  C7  UNL     1       1.365   7.967   9.378  1.00  0.00    -0.014 C 
HETATM   24  C8  UNL     1       0.738   8.059   7.983  1.00  0.00     0.010 C 
BRANCH  23  25
HETATM   25  C6  UNL     1       2.817   7.439   9.293  1.00  0.00     0.008 C 
BRANCH  25  26
HETATM   26  C5  UNL     1       2.965   5.909   9.353  1.00  0.00     0.028 C 
BRANCH  26  27
HETATM   27  C4  UNL     1       3.077   5.279   7.992  1.00  0.00    -0.025 C 
HETATM   28  C2  UNL     1       3.758   4.171   7.641  1.00  0.00    -0.091 C 
HETATM   29  C1  UNL     1       4.598   3.333   8.562  1.00  0.00     0.042 C 
HETATM   30  C3  UNL     1       3.725   3.674   6.219  1.00  0.00     0.042 C 
ENDBRANCH  26  27
ENDBRANCH  25  26
ENDBRANCH  23  25
ENDBRANCH   1  23
TORSDOF 4
ENDMDL
MODEL 2
REMARK minimizedAffinity -8.70933437
REMARK  4 active torsions:
REMARK  status: ('A' for Active; 'I' for Inactive)
REMARK    1  A    between atoms: C4_4  and  C5_5 
REMARK    2  A    between atoms: C5_5  and  C6_6 
REMARK    3  A    between atoms: C6_6  and  C7_7 
REMARK    4  A    between atoms: C7_7  and  C9_9 
ROOT
HETATM    1  C9  UNL     1       0.652   6.990  10.461  1.00  0.00    -0.002 C 
HETATM    2  C10 UNL     1       1.055   5.509  10.674  1.00  0.00     0.010 C 
HETATM    3  C11 UNL     1       0.469   5.075  12.043  1.00  0.00    -0.013 C 
HETATM    4  C12 UNL     1      -0.349   3.798  11.865  1.00  0.00     0.010 C 
HETATM    5  C13 UNL     1      -0.329   6.303  12.512  1.00  0.00     0.003 C 
HETATM    6  C14 UNL     1      -0.654   6.523  14.009  1.00  0.00    -0.000 C 
HETATM    7  C15 UNL     1      -1.277   5.343  14.742  1.00  0.00     0.006 C 
HETATM    8  C16 UNL     1      -2.729   5.036  14.395  1.00  0.00     0.006 C 
HETATM    9  C17 UNL     1      -3.568   6.165  13.758  1.00  0.00     0.003 C 
HETATM   10  C18 UNL     1      -5.106   6.035  14.060  1.00  0.00    -0.043 C 
HETATM   11  C19 UNL     1      -5.429   6.173  15.564  1.00  0.00     0.015 C 
HETATM   12  C20 UNL     1      -5.634   4.663  13.586  1.00  0.00     0.015 C 
HETATM   13  C21 UNL     1      -5.875   7.124  13.268  1.00  0.00     0.009 C 
HETATM   14  C22 UNL     1      -5.355   8.530  13.536  1.00  0.00     0.002 C 
HETATM   15  C23 UNL     1      -3.867   8.637  13.230  1.00  0.00     0.011 C 
HETATM   16  C24 UNL     1      -3.056   7.596  13.989  1.00  0.00    -0.027 A 
HETATM   17  C25 UNL     1      -2.435   8.013  15.306  1.00  0.00     0.021 A 
HETATM   18  C26 UNL     1      -1.534   7.783  14.106  1.00  0.00    -0.028 A 
HETATM   19  C27 UNL     1      -0.846   9.010  13.513  1.00  0.00     0.011 C 
HETATM   20  C28 UNL     1      -0.415   8.773  12.057  1.00  0.00     0.011 C 
HETATM   21  C29 UNL     1       0.471   7.517  11.911  1.00  0.00    -0.036 C 
HETATM   22  C30 UNL     1       1.829   7.766  12.608  1.00  0.00     0.016 C 
ENDROOT
BRANCH   1  23
HETATM   23  C7  UNL     1       1.516   7.707   9.382  1.00  0.00    -0.014 C 
HETATM   24  C8  UNL     1       0.761   8.351   8.214  1.00  0.00     0.010 C 
BRANCH  23  25
HETATM   25  C6  UNL     1       2.653   6.795   8.864  1.00  0.00     0.008 C 
BRANCH  25  26
HETATM   26  C5  UNL     1       3.897   6.719   9.766  1.00  0.00     0.028 C 
BRANCH  26  27
HETATM   27  C4  UNL     1       4.511   8.068  10.028  1.00  0.00    -0.025 C 
HETATM   28  C2  UNL     1       5.690   8.344  10.621  1.00  0.00    -0.091 C 
HETATM   29  C1  UNL     1       6.643   7.330  11.187  1.00  0.00     0.042 C 
HETATM   30  C3  UNL     1       6.152   9.771  10.768  1.00  0.00     0.042 C 
ENDBRANCH  26  27
ENDBRANCH  25  26
ENDBRANCH  23  25
ENDBRANCH   1  23
TORSDOF 4
ENDMDL
MODEL 3
REMARK minimizedAffinity -8.54306316
REMARK  4 active torsions:
REMARK  status: ('A' for Active; 'I' for Inactive)
REMARK    1  A    between atoms: C4_4  and  C5_5 
REMARK    2  A    between atoms: C5_5  and  C6_6 
REMARK    3  A    between atoms: C6_6  and  C7_7 
REMARK    4  A    between atoms: C7_7  and  C9_9 
ROOT
HETATM    1  C9  UNL     1      -0.597   7.265  10.983  1.00  0.00    -0.002 C 
HETATM    2  C10 UNL     1      -0.237   5.813  10.578  1.00  0.00     0.010 C 
HETATM    3  C11 UNL     1      -0.950   4.874  11.587  1.00  0.00    -0.013 C 
HETATM    4  C12 UNL     1      -1.768   3.835  10.824  1.00  0.00     0.010 C 
HETATM    5  C13 UNL     1      -1.769   5.831  12.470  1.00  0.00     0.003 C 
HETATM    6  C14 UNL     1      -2.224   5.416  13.891  1.00  0.00    -0.000 C 
HETATM    7  C15 UNL     1      -2.928   4.071  14.006  1.00  0.00     0.006 C 
HETATM    8  C16 UNL     1      -4.347   4.015  13.453  1.00  0.00     0.006 C 
HETATM    9  C17 UNL     1      -5.109   5.347  13.293  1.00  0.00     0.003 C 
HETATM   10  C18 UNL     1      -6.669   5.183  13.395  1.00  0.00    -0.043 C 
HETATM   11  C19 UNL     1      -7.124   4.692  14.786  1.00  0.00     0.015 C 
HETATM   12  C20 UNL     1      -7.172   4.166  12.346  1.00  0.00     0.015 C 
HETATM   13  C21 UNL     1      -7.347   6.541  13.083  1.00  0.00     0.009 C 
HETATM   14  C22 UNL     1      -6.833   7.676  13.959  1.00  0.00     0.002 C 
HETATM   15  C23 UNL     1      -5.322   7.824  13.840  1.00  0.00     0.011 C 
HETATM   16  C24 UNL     1      -4.598   6.520  14.146  1.00  0.00    -0.027 A 
HETATM   17  C25 UNL     1      -4.092   6.313  15.558  1.00  0.00     0.021 A 
HETATM   18  C26 UNL     1      -3.090   6.563  14.445  1.00  0.00    -0.028 A 
HETATM   19  C27 UNL     1      -2.334   7.887  14.481  1.00  0.00     0.011 C 
HETATM   20  C28 UNL     1      -1.777   8.264  13.099  1.00  0.00     0.011 C 
HETATM   21  C29 UNL     1      -0.901   7.141  12.502  1.00  0.00    -0.036 C 
HETATM   22  C30 UNL     1       0.393   7.004  13.339  1.00  0.00     0.016 C 
ENDROOT
BRANCH   1  23
HETATM   23  C7  UNL     1       0.371   8.324  10.378  1.00  0.00    -0.014 C 
HETATM   24  C8  UNL     1       0.053   8.814   8.962  1.00  0.00     0.010 C 
BRANCH  23  25
HETATM   25  C6  UNL     1       1.846   7.874  10.484  1.00  0.00     0.008 C 
BRANCH  25  26
HETATM   26  C5  UNL     1       2.671   8.012   9.193  1.00  0.00     0.028 C 
BRANCH  26  27
HETATM   27  C4  UNL     1       2.947   6.689   8.532  1.00  0.00    -0.025 C 
HETATM   28  C2  UNL     1       2.566   6.274   7.307  1.00  0.00    -0.091 C 
HETATM   29  C1  UNL     1       1.733   7.063   6.337  1.00  0.00     0.042 C 
HETATM   30  C3  UNL     1       2.968   4.913   6.804  1.00  0.00     0.042 C 
ENDBRANCH  26  27
ENDBRANCH  25  26
ENDBRANCH  23  25
ENDBRANCH   1  23
TORSDOF 4
ENDMDL
MODEL 4
REMARK minimizedAffinity -8.27234173
REMARK  4 active torsions:
REMARK  status: ('A' for Active; 'I' for Inactive)
REMARK    1  A    between atoms: C4_4  and  C5_5 
REMARK    2  A    between atoms: C5_5  and  C6_6 
REMARK    3  A    between atoms: C6_6  and  C7_7 
REMARK    4  A    between atoms: C7_7  and  C9_9 
ROOT
HETATM    1  C9  UNL     1      -4.276   8.248  14.207  1.00  0.00    -0.002 C 
HETATM    2  C10 UNL     1      -3.852   9.122  15.415  1.00  0.00     0.010 C 
HETATM    3  C11 UNL     1      -2.393   8.727  15.766  1.00  0.00    -0.013 C 
HETATM    4  C12 UNL     1      -1.525   9.983  15.815  1.00  0.00     0.010 C 
HETATM    5  C13 UNL     1      -2.010   7.711  14.676  1.00  0.00     0.003 C 
HETATM    6  C14 UNL     1      -0.869   6.690  14.901  1.00  0.00    -0.000 C 
HETATM    7  C15 UNL     1       0.455   7.258  15.395  1.00  0.00     0.006 C 
HETATM    8  C16 UNL     1       1.262   8.048  14.371  1.00  0.00     0.006 C 
HETATM    9  C17 UNL     1       0.959   7.806  12.877  1.00  0.00     0.003 C 
HETATM   10  C18 UNL     1       2.196   8.079  11.945  1.00  0.00    -0.043 C 
HETATM   11  C19 UNL     1       3.370   7.114  12.219  1.00  0.00     0.015 C 
HETATM   12  C20 UNL     1       2.712   9.521  12.145  1.00  0.00     0.015 C 
HETATM   13  C21 UNL     1       1.758   7.947  10.464  1.00  0.00     0.009 C 
HETATM   14  C22 UNL     1       1.095   6.610  10.159  1.00  0.00     0.002 C 
HETATM   15  C23 UNL     1      -0.104   6.368  11.065  1.00  0.00     0.011 C 
HETATM   16  C24 UNL     1       0.268   6.475  12.538  1.00  0.00    -0.027 A 
HETATM   17  C25 UNL     1       0.608   5.195  13.271  1.00  0.00     0.021 A 
HETATM   18  C26 UNL     1      -0.697   5.901  13.589  1.00  0.00    -0.028 A 
HETATM   19  C27 UNL     1      -1.984   5.196  13.172  1.00  0.00     0.011 C 
HETATM   20  C28 UNL     1      -3.159   6.178  13.051  1.00  0.00     0.011 C 
HETATM   21  C29 UNL     1      -3.369   6.994  14.345  1.00  0.00    -0.036 C 
HETATM   22  C30 UNL     1      -3.859   6.050  15.469  1.00  0.00     0.016 C 
ENDROOT
BRANCH   1  23
HETATM   23  C7  UNL     1      -5.819   8.184  14.013  1.00  0.00    -0.014 C 
HETATM   24  C8  UNL     1      -6.680   8.586  15.215  1.00  0.00     0.010 C 
BRANCH  23  25
HETATM   25  C6  UNL     1      -6.265   6.813  13.453  1.00  0.00     0.008 C 
BRANCH  25  26
HETATM   26  C5  UNL     1      -7.089   5.944  14.419  1.00  0.00     0.028 C 
BRANCH  26  27
HETATM   27  C4  UNL     1      -7.621   4.694  13.772  1.00  0.00    -0.025 C 
HETATM   28  C2  UNL     1      -6.931   3.735  13.123  1.00  0.00    -0.091 C 
HETATM   29  C1  UNL     1      -5.449   3.737  12.879  1.00  0.00     0.042 C 
HETATM   30  C3  UNL     1      -7.643   2.531  12.562  1.00  0.00     0.042 C 
ENDBRANCH  26  27
ENDBRANCH  25  26
ENDBRANCH  23  25
ENDBRANCH   1  23
TORSDOF 4
ENDMDL
MODEL 5
REMARK minimizedAffinity -7.97140455
REMARK  4 active torsions:
REMARK  status: ('A' for Active; 'I' for Inactive)
REMARK    1  A    between atoms: C4_4  and  C5_5 
REMARK    2  A    between atoms: C5_5  and  C6_6 
REMARK    3  A    between atoms: C6_6  and  C7_7 
REMARK    4  A    between atoms: C7_7  and  C9_9 
ROOT
HETATM    1  C9  UNL     1      -0.595   5.974  13.633  1.00  0.00    -0.002 C 
HETATM    2  C10 UNL     1       0.948   5.996  13.779  1.00  0.00     0.010 C 
HETATM    3  C11 UNL     1       1.349   7.459  14.103  1.00  0.00    -0.013 C 
HETATM    4  C12 UNL     1       2.218   7.481  15.359  1.00  0.00     0.010 C 
HETATM    5  C13 UNL     1       0.004   8.195  14.226  1.00  0.00     0.003 C 
HETATM    6  C14 UNL     1      -0.088   9.729  14.038  1.00  0.00    -0.000 C 
HETATM    7  C15 UNL     1       0.896  10.565  14.844  1.00  0.00     0.006 C 
HETATM    8  C16 UNL     1       0.620  10.656  16.341  1.00  0.00     0.006 C 
HETATM    9  C17 UNL     1      -0.812  10.347  16.827  1.00  0.00     0.003 C 
HETATM   10  C18 UNL     1      -1.184  11.089  18.162  1.00  0.00    -0.043 C 
HETATM   11  C19 UNL     1      -1.199  12.625  18.003  1.00  0.00     0.015 C 
HETATM   12  C20 UNL     1      -0.170  10.739  19.273  1.00  0.00     0.015 C 
HETATM   13  C21 UNL     1      -2.578  10.609  18.642  1.00  0.00     0.009 C 
HETATM   14  C22 UNL     1      -3.657  10.766  17.579  1.00  0.00     0.002 C 
HETATM   15  C23 UNL     1      -3.282  10.034  16.298  1.00  0.00     0.011 C 
HETATM   16  C24 UNL     1      -1.923  10.473  15.771  1.00  0.00    -0.027 A 
HETATM   17  C25 UNL     1      -1.895  11.559  14.716  1.00  0.00     0.021 A 
HETATM   18  C26 UNL     1      -1.547  10.136  14.318  1.00  0.00    -0.028 A 
HETATM   19  C27 UNL     1      -2.530   9.416  13.400  1.00  0.00     0.011 C 
HETATM   20  C28 UNL     1      -2.379   7.889  13.488  1.00  0.00     0.011 C 
HETATM   21  C29 UNL     1      -0.929   7.433  13.214  1.00  0.00    -0.036 C 
HETATM   22  C30 UNL     1      -0.581   7.701  11.731  1.00  0.00     0.016 C 
ENDROOT
BRANCH   1  23
HETATM   23  C7  UNL     1      -1.118   4.717  12.878  1.00  0.00    -0.014 C 
HETATM   24  C8  UNL     1      -0.132   4.021  11.936  1.00  0.00     0.010 C 
BRANCH  23  25
HETATM   25  C6  UNL     1      -2.457   5.001  12.158  1.00  0.00     0.008 C 
BRANCH  25  26
HETATM   26  C5  UNL     1      -3.707   4.414  12.837  1.00  0.00     0.028 C 
BRANCH  26  27
HETATM   27  C4  UNL     1      -4.254   3.213  12.113  1.00  0.00    -0.025 C 
HETATM   28  C2  UNL     1      -5.538   2.818  12.008  1.00  0.00    -0.091 C 
HETATM   29  C1  UNL     1      -6.717   3.502  12.640  1.00  0.00     0.042 C 
HETATM   30  C3  UNL     1      -5.896   1.593  11.208  1.00  0.00     0.042 C 
ENDBRANCH  26  27
ENDBRANCH  25  26
ENDBRANCH  23  25
ENDBRANCH   1  23
TORSDOF 4
ENDMDL
MODEL 6
REMARK minimizedAffinity -7.80988979
REMARK  4 active torsions:
REMARK  status: ('A' for Active; 'I' for Inactive)
REMARK    1  A    between atoms: C4_4  and  C5_5 
REMARK    2  A    between atoms: C5_5  and  C6_6 
REMARK    3  A    between atoms: C6_6  and  C7_7 
REMARK    4  A    between atoms: C7_7  and  C9_9 
ROOT
HETATM    1  C9  UNL     1      -6.920   6.948  13.732  1.00  0.00    -0.002 C 
HETATM    2  C10 UNL     1      -7.482   5.950  12.687  1.00  0.00     0.010 C 
HETATM    3  C11 UNL     1      -9.018   5.900  12.892  1.00  0.00    -0.013 C 
HETATM    4  C12 UNL     1      -9.717   6.161  11.560  1.00  0.00     0.010 C 
HETATM    5  C13 UNL     1      -9.282   6.950  13.985  1.00  0.00     0.003 C 
HETATM    6  C14 UNL     1     -10.561   6.895  14.856  1.00  0.00    -0.000 C 
HETATM    7  C15 UNL     1     -11.880   6.763  14.107  1.00  0.00     0.006 C 
HETATM    8  C16 UNL     1     -12.349   8.009  13.364  1.00  0.00     0.006 C 
HETATM    9  C17 UNL     1     -11.768   9.369  13.805  1.00  0.00     0.003 C 
HETATM   10  C18 UNL     1     -12.736  10.575  13.521  1.00  0.00    -0.043 C 
HETATM   11  C19 UNL     1     -14.050  10.485  14.327  1.00  0.00     0.015 C 
HETATM   12  C20 UNL     1     -13.103  10.628  12.022  1.00  0.00     0.015 C 
HETATM   13  C21 UNL     1     -12.013  11.903  13.865  1.00  0.00     0.009 C 
HETATM   14  C22 UNL     1     -11.469  11.929  15.288  1.00  0.00     0.002 C 
HETATM   15  C23 UNL     1     -10.528  10.759  15.540  1.00  0.00     0.011 C 
HETATM   16  C24 UNL     1     -11.187   9.423  15.229  1.00  0.00    -0.027 A 
HETATM   17  C25 UNL     1     -11.829   8.671  16.376  1.00  0.00     0.021 A 
HETATM   18  C26 UNL     1     -10.545   8.134  15.770  1.00  0.00    -0.028 A 
HETATM   19  C27 UNL     1      -9.294   8.188  16.642  1.00  0.00     0.011 C 
HETATM   20  C28 UNL     1      -8.009   8.132  15.801  1.00  0.00     0.011 C 
HETATM   21  C29 UNL     1      -7.981   6.902  14.866  1.00  0.00    -0.036 C 
HETATM   22  C30 UNL     1      -7.859   5.617  15.718  1.00  0.00     0.016 C 
ENDROOT
BRANCH   1  23
HETATM   23  C7  UNL     1      -5.391   6.785  13.970  1.00  0.00    -0.014 C 
HETATM   24  C8  UNL     1      -4.463   7.605  13.069  1.00  0.00     0.010 C 
BRANCH  23  25
HETATM   25  C6  UNL     1      -4.972   5.296  13.979  1.00  0.00     0.008 C 
BRANCH  25  26
HETATM   26  C5  UNL     1      -4.370   4.775  12.662  1.00  0.00     0.028 C 
BRANCH  26  27
HETATM   27  C4  UNL     1      -5.162   3.643  12.066  1.00  0.00    -0.025 C 
HETATM   28  C2  UNL     1      -4.722   2.426  11.690  1.00  0.00    -0.091 C 
HETATM   29  C1  UNL     1      -3.298   1.951  11.761  1.00  0.00     0.042 C 
HETATM   30  C3  UNL     1      -5.682   1.405  11.137  1.00  0.00     0.042 C 
ENDBRANCH  26  27
ENDBRANCH  25  26
ENDBRANCH  23  25
ENDBRANCH   1  23
TORSDOF 4
ENDMDL
MODEL 7
REMARK minimizedAffinity -7.75937462
REMARK  4 active torsions:
REMARK  status: ('A' for Active; 'I' for Inactive)
REMARK    1  A    between atoms: C4_4  and  C5_5 
REMARK    2  A    between atoms: C5_5  and  C6_6 
REMARK    3  A    between atoms: C6_6  and  C7_7 
REMARK    4  A    between atoms: C7_7  and  C9_9 
ROOT
HETATM    1  C9  UNL     1      -0.078  10.727  18.194  1.00  0.00    -0.002 C 
HETATM    2  C10 UNL     1      -1.281  11.382  18.919  1.00  0.00     0.010 C 
HETATM    3  C11 UNL     1      -2.481  11.328  17.938  1.00  0.00    -0.013 C 
HETATM    4  C12 UNL     1      -3.678  10.685  18.635  1.00  0.00     0.010 C 
HETATM    5  C13 UNL     1      -1.937  10.554  16.725  1.00  0.00     0.003 C 
HETATM    6  C14 UNL     1      -2.589  10.694  15.329  1.00  0.00    -0.000 C 
HETATM    7  C15 UNL     1      -4.100  10.509  15.270  1.00  0.00     0.006 C 
HETATM    8  C16 UNL     1      -4.601   9.081  15.445  1.00  0.00     0.006 C 
HETATM    9  C17 UNL     1      -3.606   7.932  15.176  1.00  0.00     0.003 C 
HETATM   10  C18 UNL     1      -4.307   6.604  14.710  1.00  0.00    -0.043 C 
HETATM   11  C19 UNL     1      -5.029   6.759  13.354  1.00  0.00     0.015 C 
HETATM   12  C20 UNL     1      -5.352   6.153  15.754  1.00  0.00     0.015 C 
HETATM   13  C21 UNL     1      -3.248   5.478  14.602  1.00  0.00     0.009 C 
HETATM   14  C22 UNL     1      -2.075   5.852  13.704  1.00  0.00     0.002 C 
HETATM   15  C23 UNL     1      -1.405   7.134  14.177  1.00  0.00     0.011 C 
HETATM   16  C24 UNL     1      -2.397   8.283  14.292  1.00  0.00    -0.027 A 
HETATM   17  C25 UNL     1      -2.523   9.224  13.113  1.00  0.00     0.021 A 
HETATM   18  C26 UNL     1      -1.859   9.721  14.384  1.00  0.00    -0.028 A 
HETATM   19  C27 UNL     1      -0.361  10.004  14.316  1.00  0.00     0.011 C 
HETATM   20  C28 UNL     1       0.288   9.980  15.709  1.00  0.00     0.011 C 
HETATM   21  C29 UNL     1      -0.414  10.942  16.692  1.00  0.00    -0.036 C 
HETATM   22  C30 UNL     1      -0.158  12.402  16.248  1.00  0.00     0.016 C 
ENDROOT
BRANCH   1  23
HETATM   23  C7  UNL     1       1.293  11.093  18.835  1.00  0.00    -0.014 C 
HETATM   24  C8  UNL     1       2.539  10.478  18.190  1.00  0.00     0.010 C 
BRANCH  23  25
HETATM   25  C6  UNL     1       1.290  10.851  20.363  1.00  0.00     0.008 C 
BRANCH  25  26
HETATM   26  C5  UNL     1       2.384   9.901  20.880  1.00  0.00     0.028 C 
BRANCH  26  27
HETATM   27  C4  UNL     1       3.593  10.632  21.398  1.00  0.00    -0.025 C 
HETATM   28  C2  UNL     1       4.087  10.640  22.652  1.00  0.00    -0.091 C 
HETATM   29  C1  UNL     1       3.490   9.925  23.831  1.00  0.00     0.042 C 
HETATM   30  C3  UNL     1       5.338  11.416  22.974  1.00  0.00     0.042 C 
ENDBRANCH  26  27
ENDBRANCH  25  26
ENDBRANCH  23  25
ENDBRANCH   1  23
TORSDOF 4
ENDMDL
MODEL 8
REMARK minimizedAffinity -7.7144146
REMARK  4 active torsions:
REMARK  status: ('A' for Active; 'I' for Inactive)
REMARK    1  A    between atoms: C4_4  and  C5_5 
REMARK    2  A    between atoms: C5_5  and  C6_6 
REMARK    3  A    between atoms: C6_6  and  C7_7 
REMARK    4  A    between atoms: C7_7  and  C9_9 
ROOT
HETATM    1  C9  UNL     1      -2.987   5.659  12.782  1.00  0.00    -0.002 C 
HETATM    2  C10 UNL     1      -3.509   7.118  12.801  1.00  0.00     0.010 C 
HETATM    3  C11 UNL     1      -2.263   8.042  12.783  1.00  0.00    -0.013 C 
HETATM    4  C12 UNL     1      -2.397   9.053  11.647  1.00  0.00     0.010 C 
HETATM    5  C13 UNL     1      -1.079   7.068  12.656  1.00  0.00     0.003 C 
HETATM    6  C14 UNL     1       0.346   7.478  13.101  1.00  0.00    -0.000 C 
HETATM    7  C15 UNL     1       0.864   8.804  12.560  1.00  0.00     0.006 C 
HETATM    8  C16 UNL     1       1.239   8.817  11.082  1.00  0.00     0.006 C 
HETATM    9  C17 UNL     1       1.537   7.463  10.405  1.00  0.00     0.003 C 
HETATM   10  C18 UNL     1       2.528   7.584   9.191  1.00  0.00    -0.043 C 
HETATM   11  C19 UNL     1       3.931   8.071   9.617  1.00  0.00     0.015 C 
HETATM   12  C20 UNL     1       1.979   8.580   8.146  1.00  0.00     0.015 C 
HETATM   13  C21 UNL     1       2.653   6.205   8.494  1.00  0.00     0.009 C 
HETATM   14  C22 UNL     1       3.054   5.091   9.452  1.00  0.00     0.002 C 
HETATM   15  C23 UNL     1       2.078   4.984  10.615  1.00  0.00     0.011 C 
HETATM   16  C24 UNL     1       1.921   6.310  11.347  1.00  0.00    -0.027 A 
HETATM   17  C25 UNL     1       2.778   6.540  12.574  1.00  0.00     0.021 A 
HETATM   18  C26 UNL     1       1.287   6.312  12.749  1.00  0.00    -0.028 A 
HETATM   19  C27 UNL     1       0.862   5.009  13.420  1.00  0.00     0.011 C 
HETATM   20  C28 UNL     1      -0.591   4.640  13.079  1.00  0.00     0.011 C 
HETATM   21  C29 UNL     1      -1.573   5.783  13.415  1.00  0.00    -0.036 C 
HETATM   22  C30 UNL     1      -1.643   5.962  14.950  1.00  0.00     0.016 C 
ENDROOT
BRANCH   1  23
HETATM   23  C7  UNL     1      -4.054   4.624  13.245  1.00  0.00    -0.014 C 
HETATM   24  C8  UNL     1      -4.183   3.348  12.407  1.00  0.00     0.010 C 
BRANCH  23  25
HETATM   25  C6  UNL     1      -5.436   5.286  13.453  1.00  0.00     0.008 C 
BRANCH  25  26
HETATM   26  C5  UNL     1      -6.646   4.349  13.283  1.00  0.00     0.028 C 
BRANCH  26  27
HETATM   27  C4  UNL     1      -7.922   5.092  12.994  1.00  0.00    -0.025 C 
HETATM   28  C2  UNL     1      -8.629   5.886  13.822  1.00  0.00    -0.091 C 
HETATM   29  C1  UNL     1      -8.291   6.173  15.258  1.00  0.00     0.042 C 
HETATM   30  C3  UNL     1      -9.879   6.574  13.337  1.00  0.00     0.042 C 
ENDBRANCH  26  27
ENDBRANCH  25  26
ENDBRANCH  23  25
ENDBRANCH   1  23
TORSDOF 4
ENDMDL
MODEL 9
REMARK minimizedAffinity -7.65861082
REMARK  4 active torsions:
REMARK  status: ('A' for Active; 'I' for Inactive)
REMARK    1  A    between atoms: C4_4  and  C5_5 
REMARK    2  A    between atoms: C5_5  and  C6_6 
REMARK    3  A    between atoms: C6_6  and  C7_7 
REMARK    4  A    between atoms: C7_7  and  C9_9 
ROOT
HETATM    1  C9  UNL     1      -5.038   6.086  14.837  1.00  0.00    -0.002 C 
HETATM    2  C10 UNL     1      -4.644   5.242  13.598  1.00  0.00     0.010 C 
HETATM    3  C11 UNL     1      -3.602   6.070  12.802  1.00  0.00    -0.013 C 
HETATM    4  C12 UNL     1      -2.362   5.216  12.547  1.00  0.00     0.010 C 
HETATM    5  C13 UNL     1      -3.370   7.315  13.675  1.00  0.00     0.003 C 
HETATM    6  C14 UNL     1      -2.819   8.627  13.067  1.00  0.00    -0.000 C 
HETATM    7  C15 UNL     1      -1.560   8.499  12.219  1.00  0.00     0.006 C 
HETATM    8  C16 UNL     1      -0.271   8.222  12.983  1.00  0.00     0.006 C 
HETATM    9  C17 UNL     1      -0.236   8.574  14.485  1.00  0.00     0.003 C 
HETATM   10  C18 UNL     1       1.208   8.912  15.007  1.00  0.00    -0.043 C 
HETATM   11  C19 UNL     1       1.798  10.176  14.345  1.00  0.00     0.015 C 
HETATM   12  C20 UNL     1       2.170   7.737  14.725  1.00  0.00     0.015 C 
HETATM   13  C21 UNL     1       1.162   9.111  16.544  1.00  0.00     0.009 C 
HETATM   14  C22 UNL     1       0.138  10.154  16.975  1.00  0.00     0.002 C 
HETATM   15  C23 UNL     1      -1.254   9.804  16.468  1.00  0.00     0.011 C 
HETATM   16  C24 UNL     1      -1.274   9.605  14.958  1.00  0.00    -0.027 A 
HETATM   17  C25 UNL     1      -1.664  10.789  14.099  1.00  0.00     0.021 A 
HETATM   18  C26 UNL     1      -2.626   9.622  14.226  1.00  0.00    -0.028 A 
HETATM   19  C27 UNL     1      -3.926   9.878  14.984  1.00  0.00     0.011 C 
HETATM   20  C28 UNL     1      -4.550   8.573  15.502  1.00  0.00     0.011 C 
HETATM   21  C29 UNL     1      -4.761   7.542  14.372  1.00  0.00    -0.036 C 
HETATM   22  C30 UNL     1      -5.857   8.058  13.410  1.00  0.00     0.016 C 
ENDROOT
BRANCH   1  23
HETATM   23  C7  UNL     1      -6.374   5.624  15.489  1.00  0.00    -0.014 C 
HETATM   24  C8  UNL     1      -7.431   5.038  14.548  1.00  0.00     0.010 C 
BRANCH  23  25
HETATM   25  C6  UNL     1      -6.985   6.732  16.379  1.00  0.00     0.008 C 
BRANCH  25  26
HETATM   26  C5  UNL     1      -8.520   6.835  16.340  1.00  0.00     0.028 C 
BRANCH  26  27
HETATM   27  C4  UNL     1      -9.002   8.200  15.929  1.00  0.00    -0.025 C 
HETATM   28  C2  UNL     1      -9.864   8.517  14.943  1.00  0.00    -0.091 C 
HETATM   29  C1  UNL     1     -10.511   7.541  14.001  1.00  0.00     0.042 C 
HETATM   30  C3  UNL     1     -10.253   9.952  14.701  1.00  0.00     0.042 C 
ENDBRANCH  26  27
ENDBRANCH  25  26
ENDBRANCH  23  25
ENDBRANCH   1  23
TORSDOF 4
ENDMDL
