MODEL 1
REMARK minimizedAffinity -6.97199631
REMARK  2 active torsions:
REMARK  status: ('A' for Active; 'I' for Inactive)
REMARK    1  A    between atoms: C4_5  and  S1_6 
REMARK    2  A    between atoms: S1_6  and  C5_7 
ROOT
HETATM    1  C5  UNL     1      -0.192  52.521 -25.027  1.00  0.00     0.029 A 
HETATM    2  C6  UNL     1      -1.576  52.539 -24.800  1.00  0.00     0.046 A 
HETATM    3  C7  UNL     1      -2.402  51.545 -25.335  1.00  0.00     0.057 A 
HETATM    4 CL2  UNL     1      -4.096  51.652 -25.016  1.00  0.00    -0.083 Cl
HETATM    5  C8  UNL     1      -1.846  50.514 -26.098  1.00  0.00     0.057 A 
HETATM    6 CL3  UNL     1      -2.804  49.254 -26.791  1.00  0.00    -0.082 Cl
HETATM    7  C9  UNL     1      -0.468  50.478 -26.320  1.00  0.00     0.051 A 
HETATM    8  C10 UNL     1       0.358  51.473 -25.785  1.00  0.00     0.052 A 
HETATM    9 CL4  UNL     1       2.055  51.334 -26.090  1.00  0.00    -0.083 Cl
ENDROOT
BRANCH   1  10
HETATM   10  S1  UNL     1       0.775  53.841 -24.298  1.00  0.00    -0.089 SA
BRANCH  10  11
HETATM   11  C4  UNL     1       0.752  53.360 -22.579  1.00  0.00     0.005 A 
HETATM   12  C3  UNL     1       0.195  52.129 -22.215  1.00  0.00     0.020 A 
HETATM   13  C2  UNL     1       0.164  51.738 -20.874  1.00  0.00     0.025 A 
HETATM   14  C1  UNL     1       0.682  52.582 -19.895  1.00  0.00     0.034 A 
HETATM   15 CL1  UNL     1       0.645  52.102 -18.244  1.00  0.00    -0.084 Cl
HETATM   16  C12 UNL     1       1.228  53.816 -20.244  1.00  0.00     0.025 A 
HETATM   17  C11 UNL     1       1.259  54.206 -21.587  1.00  0.00     0.020 A 
ENDBRANCH  10  11
ENDBRANCH   1  10
TORSDOF 2
ENDMDL
MODEL 2
REMARK minimizedAffinity -6.54912758
REMARK  2 active torsions:
REMARK  status: ('A' for Active; 'I' for Inactive)
REMARK    1  A    between atoms: C4_5  and  S1_6 
REMARK    2  A    between atoms: S1_6  and  C5_7 
ROOT
HETATM    1  C5  UNL     1      -1.535  50.326 -22.923  1.00  0.00     0.029 A 
HETATM    2  C6  UNL     1      -1.681  50.957 -24.167  1.00  0.00     0.046 A 
HETATM    3  C7  UNL     1      -0.933  52.096 -24.484  1.00  0.00     0.057 A 
HETATM    4 CL2  UNL     1      -1.186  52.817 -26.033  1.00  0.00    -0.083 Cl
HETATM    5  C8  UNL     1      -0.022  52.611 -23.556  1.00  0.00     0.057 A 
HETATM    6 CL3  UNL     1       0.933  54.014 -23.877  1.00  0.00    -0.082 Cl
HETATM    7  C9  UNL     1       0.141  51.983 -22.320  1.00  0.00     0.051 A 
HETATM    8  C10 UNL     1      -0.608  50.844 -22.003  1.00  0.00     0.052 A 
HETATM    9 CL4  UNL     1      -0.321  50.120 -20.459  1.00  0.00    -0.083 Cl
ENDROOT
BRANCH   1  10
HETATM   10  S1  UNL     1      -2.541  48.875 -22.617  1.00  0.00    -0.089 SA
BRANCH  10  11
HETATM   11  C4  UNL     1      -3.304  48.657 -24.216  1.00  0.00     0.005 A 
HETATM   12  C3  UNL     1      -2.504  48.630 -25.364  1.00  0.00     0.020 A 
HETATM   13  C2  UNL     1      -3.084  48.465 -26.624  1.00  0.00     0.025 A 
HETATM   14  C1  UNL     1      -4.466  48.336 -26.738  1.00  0.00     0.034 A 
HETATM   15 CL1  UNL     1      -5.182  48.132 -28.289  1.00  0.00    -0.084 Cl
HETATM   16  C12 UNL     1      -5.274  48.374 -25.603  1.00  0.00     0.025 A 
HETATM   17  C11 UNL     1      -4.693  48.539 -24.342  1.00  0.00     0.020 A 
ENDBRANCH  10  11
ENDBRANCH   1  10
TORSDOF 2
ENDMDL
MODEL 3
REMARK minimizedAffinity -6.50424719
REMARK  2 active torsions:
REMARK  status: ('A' for Active; 'I' for Inactive)
REMARK    1  A    between atoms: C4_5  and  S1_6 
REMARK    2  A    between atoms: S1_6  and  C5_7 
ROOT
HETATM    1  C5  UNL     1       0.128  52.476 -22.835  1.00  0.00     0.029 A 
HETATM    2  C6  UNL     1      -0.594  51.280 -22.704  1.00  0.00     0.046 A 
HETATM    3  C7  UNL     1      -0.727  50.657 -21.458  1.00  0.00     0.057 A 
HETATM    4 CL2  UNL     1      -1.621  49.181 -21.391  1.00  0.00    -0.083 Cl
HETATM    5  C8  UNL     1      -0.143  51.233 -20.326  1.00  0.00     0.057 A 
HETATM    6 CL3  UNL     1      -0.265  50.521 -18.757  1.00  0.00    -0.082 Cl
HETATM    7  C9  UNL     1       0.566  52.431 -20.442  1.00  0.00     0.051 A 
HETATM    8  C10 UNL     1       0.699  53.054 -21.688  1.00  0.00     0.052 A 
HETATM    9 CL4  UNL     1       1.573  54.545 -21.732  1.00  0.00    -0.083 Cl
ENDROOT
BRANCH   1  10
HETATM   10  S1  UNL     1       0.239  53.190 -24.474  1.00  0.00    -0.089 SA
BRANCH  10  11
HETATM   11  C4  UNL     1      -0.880  52.131 -25.375  1.00  0.00     0.005 A 
HETATM   12  C3  UNL     1      -2.246  52.437 -25.405  1.00  0.00     0.020 A 
HETATM   13  C2  UNL     1      -3.137  51.615 -26.102  1.00  0.00     0.025 A 
HETATM   14  C1  UNL     1      -2.664  50.483 -26.760  1.00  0.00     0.034 A 
HETATM   15 CL1  UNL     1      -3.760  49.472 -27.617  1.00  0.00    -0.084 Cl
HETATM   16  C12 UNL     1      -1.308  50.161 -26.726  1.00  0.00     0.025 A 
HETATM   17  C11 UNL     1      -0.417  50.984 -26.030  1.00  0.00     0.020 A 
ENDBRANCH  10  11
ENDBRANCH   1  10
TORSDOF 2
ENDMDL
MODEL 4
REMARK minimizedAffinity -6.50143766
REMARK  2 active torsions:
REMARK  status: ('A' for Active; 'I' for Inactive)
REMARK    1  A    between atoms: C4_5  and  S1_6 
REMARK    2  A    between atoms: S1_6  and  C5_7 
ROOT
HETATM    1  C5  UNL     1      -3.308  50.717 -24.300  1.00  0.00     0.029 A 
HETATM    2  C6  UNL     1      -3.487  51.290 -23.031  1.00  0.00     0.046 A 
HETATM    3  C7  UNL     1      -3.526  50.490 -21.885  1.00  0.00     0.057 A 
HETATM    4 CL2  UNL     1      -3.764  51.276 -20.365  1.00  0.00    -0.083 Cl
HETATM    5  C8  UNL     1      -3.377  49.104 -21.997  1.00  0.00     0.057 A 
HETATM    6 CL3  UNL     1      -3.416  48.054 -20.626  1.00  0.00    -0.082 Cl
HETATM    7  C9  UNL     1      -3.185  48.525 -23.253  1.00  0.00     0.051 A 
HETATM    8  C10 UNL     1      -3.146  49.325 -24.400  1.00  0.00     0.052 A 
HETATM    9 CL4  UNL     1      -2.879  48.523 -25.909  1.00  0.00    -0.083 Cl
ENDROOT
BRANCH   1  10
HETATM   10  S1  UNL     1      -3.275  51.831 -25.704  1.00  0.00    -0.089 SA
BRANCH  10  11
HETATM   11  C4  UNL     1      -1.543  51.768 -26.135  1.00  0.00     0.005 A 
HETATM   12  C3  UNL     1      -0.578  51.977 -25.144  1.00  0.00     0.020 A 
HETATM   13  C2  UNL     1       0.782  51.936 -25.464  1.00  0.00     0.025 A 
HETATM   14  C1  UNL     1       1.176  51.697 -26.778  1.00  0.00     0.034 A 
HETATM   15 CL1  UNL     1       2.849  51.647 -27.174  1.00  0.00    -0.084 Cl
HETATM   16  C12 UNL     1       0.223  51.501 -27.776  1.00  0.00     0.025 A 
HETATM   17  C11 UNL     1      -1.137  51.540 -27.455  1.00  0.00     0.020 A 
ENDBRANCH  10  11
ENDBRANCH   1  10
TORSDOF 2
ENDMDL
MODEL 5
REMARK minimizedAffinity -6.49779367
REMARK  2 active torsions:
REMARK  status: ('A' for Active; 'I' for Inactive)
REMARK    1  A    between atoms: C4_5  and  S1_6 
REMARK    2  A    between atoms: S1_6  and  C5_7 
ROOT
HETATM    1  C5  UNL     1      -3.346  50.720 -24.362  1.00  0.00     0.029 A 
HETATM    2  C6  UNL     1      -3.556  51.297 -23.101  1.00  0.00     0.046 A 
HETATM    3  C7  UNL     1      -3.623  50.502 -21.952  1.00  0.00     0.057 A 
HETATM    4 CL2  UNL     1      -3.897  51.294 -20.443  1.00  0.00    -0.083 Cl
HETATM    5  C8  UNL     1      -3.470  49.116 -22.055  1.00  0.00     0.057 A 
HETATM    6 CL3  UNL     1      -3.541  48.072 -20.681  1.00  0.00    -0.082 Cl
HETATM    7  C9  UNL     1      -3.247  48.532 -23.304  1.00  0.00     0.051 A 
HETATM    8  C10 UNL     1      -3.181  49.328 -24.453  1.00  0.00     0.052 A 
HETATM    9 CL4  UNL     1      -2.877  48.520 -25.952  1.00  0.00    -0.083 Cl
ENDROOT
BRANCH   1  10
HETATM   10  S1  UNL     1      -3.279  51.827 -25.769  1.00  0.00    -0.089 SA
BRANCH  10  11
HETATM   11  C4  UNL     1      -1.534  51.784 -26.143  1.00  0.00     0.005 A 
HETATM   12  C3  UNL     1      -1.116  51.523 -27.453  1.00  0.00     0.020 A 
HETATM   13  C2  UNL     1       0.246  51.481 -27.763  1.00  0.00     0.025 A 
HETATM   14  C1  UNL     1       1.191  51.689 -26.761  1.00  0.00     0.034 A 
HETATM   15 CL1  UNL     1       2.867  51.637 -27.142  1.00  0.00    -0.084 Cl
HETATM   16  C12 UNL     1       0.786  51.937 -25.451  1.00  0.00     0.025 A 
HETATM   17  C11 UNL     1      -0.577  51.980 -25.142  1.00  0.00     0.020 A 
ENDBRANCH  10  11
ENDBRANCH   1  10
TORSDOF 2
ENDMDL
MODEL 6
REMARK minimizedAffinity -6.36717606
REMARK  2 active torsions:
REMARK  status: ('A' for Active; 'I' for Inactive)
REMARK    1  A    between atoms: C4_5  and  S1_6 
REMARK    2  A    between atoms: S1_6  and  C5_7 
ROOT
HETATM    1  C5  UNL     1      -1.958  51.928 -22.286  1.00  0.00     0.029 A 
HETATM    2  C6  UNL     1      -0.686  52.451 -22.014  1.00  0.00     0.046 A 
HETATM    3  C7  UNL     1      -0.067  52.224 -20.780  1.00  0.00     0.057 A 
HETATM    4 CL2  UNL     1       1.494  52.917 -20.525  1.00  0.00    -0.083 Cl
HETATM    5  C8  UNL     1      -0.716  51.458 -19.807  1.00  0.00     0.057 A 
HETATM    6 CL3  UNL     1      -0.014  51.137 -18.261  1.00  0.00    -0.082 Cl
HETATM    7  C9  UNL     1      -1.977  50.921 -20.071  1.00  0.00     0.051 A 
HETATM    8  C10 UNL     1      -2.597  51.149 -21.306  1.00  0.00     0.052 A 
HETATM    9 CL4  UNL     1      -4.147  50.424 -21.553  1.00  0.00    -0.083 Cl
ENDROOT
BRANCH   1  10
HETATM   10  S1  UNL     1      -2.662  52.280 -23.896  1.00  0.00    -0.089 SA
BRANCH  10  11
HETATM   11  C4  UNL     1      -1.213  52.141 -24.929  1.00  0.00     0.005 A 
HETATM   12  C3  UNL     1      -0.852  50.892 -25.446  1.00  0.00     0.020 A 
HETATM   13  C2  UNL     1       0.282  50.764 -26.254  1.00  0.00     0.025 A 
HETATM   14  C1  UNL     1       1.060  51.884 -26.536  1.00  0.00     0.034 A 
HETATM   15 CL1  UNL     1       2.456  51.728 -27.529  1.00  0.00    -0.084 Cl
HETATM   16  C12 UNL     1       0.718  53.131 -26.015  1.00  0.00     0.025 A 
HETATM   17  C11 UNL     1      -0.417  53.258 -25.209  1.00  0.00     0.020 A 
ENDBRANCH  10  11
ENDBRANCH   1  10
TORSDOF 2
ENDMDL
MODEL 7
REMARK minimizedAffinity -6.34181309
REMARK  2 active torsions:
REMARK  status: ('A' for Active; 'I' for Inactive)
REMARK    1  A    between atoms: C4_5  and  S1_6 
REMARK    2  A    between atoms: S1_6  and  C5_7 
ROOT
HETATM    1  C5  UNL     1       0.076  52.043 -21.986  1.00  0.00     0.029 A 
HETATM    2  C6  UNL     1      -0.428  50.746 -22.164  1.00  0.00     0.046 A 
HETATM    3  C7  UNL     1      -0.741  49.942 -21.063  1.00  0.00     0.057 A 
HETATM    4 CL2  UNL     1      -1.343  48.353 -21.375  1.00  0.00    -0.083 Cl
HETATM    5  C8  UNL     1      -0.562  50.435 -19.767  1.00  0.00     0.057 A 
HETATM    6 CL3  UNL     1      -0.926  49.500 -18.362  1.00  0.00    -0.082 Cl
HETATM    7  C9  UNL     1      -0.074  51.730 -19.578  1.00  0.00     0.051 A 
HETATM    8  C10 UNL     1       0.240  52.534 -20.680  1.00  0.00     0.052 A 
HETATM    9 CL4  UNL     1       0.814  54.131 -20.348  1.00  0.00    -0.083 Cl
ENDROOT
BRANCH   1  10
HETATM   10  S1  UNL     1       0.447  52.988 -23.462  1.00  0.00    -0.089 SA
BRANCH  10  11
HETATM   11  C4  UNL     1      -0.635  52.199 -24.642  1.00  0.00     0.005 A 
HETATM   12  C3  UNL     1      -0.108  51.274 -25.550  1.00  0.00     0.020 A 
HETATM   13  C2  UNL     1      -0.940  50.650 -26.484  1.00  0.00     0.025 A 
HETATM   14  C1  UNL     1      -2.298  50.958 -26.517  1.00  0.00     0.034 A 
HETATM   15 CL1  UNL     1      -3.323  50.191 -27.665  1.00  0.00    -0.084 Cl
HETATM   16  C12 UNL     1      -2.831  51.888 -25.626  1.00  0.00     0.025 A 
HETATM   17  C11 UNL     1      -1.999  52.511 -24.691  1.00  0.00     0.020 A 
ENDBRANCH  10  11
ENDBRANCH   1  10
TORSDOF 2
ENDMDL
MODEL 8
REMARK minimizedAffinity -6.29001284
REMARK  2 active torsions:
REMARK  status: ('A' for Active; 'I' for Inactive)
REMARK    1  A    between atoms: C4_5  and  S1_6 
REMARK    2  A    between atoms: S1_6  and  C5_7 
ROOT
HETATM    1  C5  UNL     1      -2.976  51.837 -23.759  1.00  0.00     0.029 A 
HETATM    2  C6  UNL     1      -1.722  52.093 -23.185  1.00  0.00     0.046 A 
HETATM    3  C7  UNL     1      -1.493  51.846 -21.827  1.00  0.00     0.057 A 
HETATM    4 CL2  UNL     1       0.076  52.203 -21.201  1.00  0.00    -0.083 Cl
HETATM    5  C8  UNL     1      -2.520  51.330 -21.030  1.00  0.00     0.057 A 
HETATM    6 CL3  UNL     1      -2.310  51.003 -19.348  1.00  0.00    -0.082 Cl
HETATM    7  C9  UNL     1      -3.768  51.059 -21.595  1.00  0.00     0.051 A 
HETATM    8  C10 UNL     1      -3.998  51.306 -22.953  1.00  0.00     0.052 A 
HETATM    9 CL4  UNL     1      -5.566  50.917 -23.569  1.00  0.00    -0.083 Cl
ENDROOT
BRANCH   1  10
HETATM   10  S1  UNL     1      -3.165  52.189 -25.506  1.00  0.00    -0.089 SA
BRANCH  10  11
HETATM   11  C4  UNL     1      -1.475  52.033 -26.060  1.00  0.00     0.005 A 
HETATM   12  C3  UNL     1      -0.801  53.160 -26.545  1.00  0.00     0.020 A 
HETATM   13  C2  UNL     1       0.520  53.056 -26.987  1.00  0.00     0.025 A 
HETATM   14  C1  UNL     1       1.165  51.822 -26.954  1.00  0.00     0.034 A 
HETATM   15 CL1  UNL     1       2.792  51.692 -27.498  1.00  0.00    -0.084 Cl
HETATM   16  C12 UNL     1       0.500  50.690 -26.486  1.00  0.00     0.025 A 
HETATM   17  C11 UNL     1      -0.822  50.795 -26.043  1.00  0.00     0.020 A 
ENDBRANCH  10  11
ENDBRANCH   1  10
TORSDOF 2
ENDMDL
MODEL 9
REMARK minimizedAffinity -6.26659298
REMARK  2 active torsions:
REMARK  status: ('A' for Active; 'I' for Inactive)
REMARK    1  A    between atoms: C4_5  and  S1_6 
REMARK    2  A    between atoms: S1_6  and  C5_7 
ROOT
HETATM    1  C5  UNL     1      -1.475  51.066 -25.112  1.00  0.00     0.029 A 
HETATM    2  C6  UNL     1      -0.152  50.964 -25.568  1.00  0.00     0.046 A 
HETATM    3  C7  UNL     1       0.297  51.740 -26.641  1.00  0.00     0.057 A 
HETATM    4 CL2  UNL     1       1.937  51.540 -27.145  1.00  0.00    -0.083 Cl
HETATM    5  C8  UNL     1      -0.575  52.638 -27.264  1.00  0.00     0.057 A 
HETATM    6 CL3  UNL     1      -0.090  53.627 -28.594  1.00  0.00    -0.082 Cl
HETATM    7  C9  UNL     1      -1.890  52.758 -26.810  1.00  0.00     0.051 A 
HETATM    8  C10 UNL     1      -2.340  51.981 -25.737  1.00  0.00     0.052 A 
HETATM    9 CL4  UNL     1      -3.976  52.215 -25.228  1.00  0.00    -0.083 Cl
ENDROOT
BRANCH   1  10
HETATM   10  S1  UNL     1      -1.950  50.026 -23.733  1.00  0.00    -0.089 SA
BRANCH  10  11
HETATM   11  C4  UNL     1      -1.105  50.846 -22.392  1.00  0.00     0.005 A 
HETATM   12  C3  UNL     1      -0.683  52.172 -22.550  1.00  0.00     0.020 A 
HETATM   13  C2  UNL     1      -0.016  52.828 -21.512  1.00  0.00     0.025 A 
HETATM   14  C1  UNL     1       0.239  52.156 -20.319  1.00  0.00     0.034 A 
HETATM   15 CL1  UNL     1       1.060  52.963 -19.041  1.00  0.00    -0.084 Cl
HETATM   16  C12 UNL     1      -0.164  50.832 -20.155  1.00  0.00     0.025 A 
HETATM   17  C11 UNL     1      -0.833  50.176 -21.193  1.00  0.00     0.020 A 
ENDBRANCH  10  11
ENDBRANCH   1  10
TORSDOF 2
ENDMDL
