MODEL 1
REMARK minimizedAffinity -8.79504967
REMARK  12 active torsions:
REMARK  status: ('A' for Active; 'I' for Inactive)
REMARK    1  A    between atoms: C2_2  and  C17_19 
REMARK    2  A    between atoms: C3_3  and  C4_4 
REMARK    3  A    between atoms: C4_4  and  C5_5 
REMARK    4  A    between atoms: C5_5  and  C6_6 
REMARK    5  A    between atoms: C12_12  and  O1_13 
REMARK    6  A    between atoms: C17_19  and  C18_20 
REMARK    7  A    between atoms: C19_21  and  C20_22 
REMARK    8  A    between atoms: C20_22  and  C22_24 
REMARK    9  A    between atoms: C22_24  and  C23_26 
REMARK   10  A    between atoms: C23_26  and  O4_27 
REMARK   11  A    between atoms: C23_26  and  C24_28 
REMARK   12  A    between atoms: C24_28  and  C25_29 
ROOT
HETATM    1  C1  UNL     1      -0.158   7.901  13.922  1.00  0.00     0.043 C 
HETATM    2  C2  UNL     1      -0.580   8.436  12.579  1.00  0.00    -0.084 C 
HETATM    3  C3  UNL     1      -1.856   8.749  12.262  1.00  0.00    -0.024 C 
ENDROOT
BRANCH   3   4
HETATM    4  C4  UNL     1      -3.042   8.728  13.182  1.00  0.00     0.030 C 
BRANCH   4   5
HETATM    5  C5  UNL     1      -3.924   7.478  13.117  1.00  0.00     0.042 C 
BRANCH   5   6
HETATM    6  C6  UNL     1      -3.656   6.324  14.121  1.00  0.00     0.065 C 
HETATM    7  C7  UNL     1      -3.504   6.868  15.553  1.00  0.00     0.046 C 
HETATM    8  C8  UNL     1      -2.442   5.444  13.798  1.00  0.00     0.043 C 
HETATM    9  C9  UNL     1      -2.618   4.735  12.463  1.00  0.00     0.044 C 
HETATM   10  C10 UNL     1      -3.991   4.143  12.358  1.00  0.00    -0.021 A 
HETATM   11  C11 UNL     1      -4.254   3.186  11.367  1.00  0.00     0.046 A 
HETATM   12  C16 UNL     1      -5.026   4.557  13.210  1.00  0.00     0.082 A 
HETATM   13  C12 UNL     1      -5.525   2.639  11.258  1.00  0.00     0.066 A 
HETATM   14  C13 UNL     1      -6.547   3.022  12.117  1.00  0.00     0.046 A 
HETATM   15  C14 UNL     1      -6.304   3.985  13.109  1.00  0.00    -0.025 A 
HETATM   16  C15 UNL     1      -7.411   4.406  14.032  1.00  0.00     0.051 C 
HETATM   17  O2  UNL     1      -4.858   5.514  14.180  1.00  0.00    -0.340 OA
BRANCH  13  18
HETATM   18  O1  UNL     1      -5.824   1.716  10.295  1.00  0.00    -0.361 OA
HETATM   19  H17 UNL     1      -5.032   1.570   9.746  1.00  0.00     0.217 HD
ENDBRANCH  13  18
ENDBRANCH   5   6
ENDBRANCH   4   5
ENDBRANCH   3   4
BRANCH   2  20
HETATM   20  C17 UNL     1       0.539   8.591  11.563  1.00  0.00     0.060 C 
BRANCH  20  21
HETATM   21  C18 UNL     1       0.106   8.145  10.193  1.00  0.00    -0.026 C 
HETATM   22  C19 UNL     1       0.872   7.840   9.132  1.00  0.00    -0.019 C 
BRANCH  22  23
HETATM   23  C20 UNL     1       2.379   7.877   9.042  1.00  0.00     0.076 C 
HETATM   24  C21 UNL     1       2.852   8.490   7.729  1.00  0.00     0.022 C 
BRANCH  23  25
HETATM   25  C22 UNL     1       2.964   6.475   9.259  1.00  0.00     0.162 C 
HETATM   26  O3  UNL     1       2.644   5.542   8.514  1.00  0.00    -0.294 OA
BRANCH  25  27
HETATM   27  C23 UNL     1       3.972   6.266  10.400  1.00  0.00     0.188 C 
BRANCH  27  28
HETATM   28  O4  UNL     1       3.313   5.993  11.633  1.00  0.00    -0.388 OA
HETATM   29  H31 UNL     1       2.967   6.842  11.983  1.00  0.00     0.210 HD
ENDBRANCH  27  28
BRANCH  27  30
HETATM   30  C24 UNL     1       4.989   7.410  10.560  1.00  0.00     0.043 C 
BRANCH  30  31
HETATM   31  C25 UNL     1       6.354   7.107  11.216  1.00  0.00    -0.020 C 
HETATM   32  C26 UNL     1       6.716   5.640  10.959  1.00  0.00     0.009 C 
HETATM   33  C27 UNL     1       6.399   7.369  12.722  1.00  0.00     0.009 C 
ENDBRANCH  30  31
ENDBRANCH  27  30
ENDBRANCH  25  27
ENDBRANCH  23  25
ENDBRANCH  22  23
ENDBRANCH  20  21
ENDBRANCH   2  20
TORSDOF 12
ENDMDL
MODEL 2
REMARK minimizedAffinity -8.7396965
REMARK  12 active torsions:
REMARK  status: ('A' for Active; 'I' for Inactive)
REMARK    1  A    between atoms: C2_2  and  C17_19 
REMARK    2  A    between atoms: C3_3  and  C4_4 
REMARK    3  A    between atoms: C4_4  and  C5_5 
REMARK    4  A    between atoms: C5_5  and  C6_6 
REMARK    5  A    between atoms: C12_12  and  O1_13 
REMARK    6  A    between atoms: C17_19  and  C18_20 
REMARK    7  A    between atoms: C19_21  and  C20_22 
REMARK    8  A    between atoms: C20_22  and  C22_24 
REMARK    9  A    between atoms: C22_24  and  C23_26 
REMARK   10  A    between atoms: C23_26  and  O4_27 
REMARK   11  A    between atoms: C23_26  and  C24_28 
REMARK   12  A    between atoms: C24_28  and  C25_29 
ROOT
HETATM    1  C1  UNL     1      -0.527   7.291  15.805  1.00  0.00     0.043 C 
HETATM    2  C2  UNL     1      -1.330   7.151  14.538  1.00  0.00    -0.084 C 
HETATM    3  C3  UNL     1      -2.610   6.717  14.505  1.00  0.00    -0.024 C 
ENDROOT
BRANCH   3   4
HETATM    4  C4  UNL     1      -3.484   6.403  15.684  1.00  0.00     0.030 C 
BRANCH   4   5
HETATM    5  C5  UNL     1      -4.968   6.177  15.383  1.00  0.00     0.042 C 
BRANCH   5   6
HETATM    6  C6  UNL     1      -5.538   6.680  14.027  1.00  0.00     0.065 C 
HETATM    7  C7  UNL     1      -5.079   8.121  13.742  1.00  0.00     0.046 C 
HETATM    8  C8  UNL     1      -7.064   6.615  13.895  1.00  0.00     0.043 C 
HETATM    9  C9  UNL     1      -7.563   5.180  13.992  1.00  0.00     0.044 C 
HETATM   10  C10 UNL     1      -6.721   4.271  13.148  1.00  0.00    -0.021 A 
HETATM   11  C11 UNL     1      -7.192   2.987  12.840  1.00  0.00     0.046 A 
HETATM   12  C16 UNL     1      -5.457   4.671  12.690  1.00  0.00     0.082 A 
HETATM   13  C12 UNL     1      -6.415   2.136  12.064  1.00  0.00     0.066 A 
HETATM   14  C13 UNL     1      -5.176   2.537  11.584  1.00  0.00     0.046 A 
HETATM   15  C14 UNL     1      -4.685   3.815  11.889  1.00  0.00    -0.025 A 
HETATM   16  C15 UNL     1      -3.340   4.244  11.377  1.00  0.00     0.051 C 
HETATM   17  O2  UNL     1      -4.912   5.897  12.979  1.00  0.00    -0.340 OA
BRANCH  13  18
HETATM   18  O1  UNL     1      -6.833   0.872  11.757  1.00  0.00    -0.361 OA
HETATM   19  H17 UNL     1      -7.694   0.714  12.186  1.00  0.00     0.217 HD
ENDBRANCH  13  18
ENDBRANCH   5   6
ENDBRANCH   4   5
ENDBRANCH   3   4
BRANCH   2  20
HETATM   20  C17 UNL     1      -0.595   7.518  13.261  1.00  0.00     0.060 C 
BRANCH  20  21
HETATM   21  C18 UNL     1      -0.240   6.295  12.458  1.00  0.00    -0.026 C 
HETATM   22  C19 UNL     1       0.929   5.993  11.869  1.00  0.00    -0.019 C 
BRANCH  22  23
HETATM   23  C20 UNL     1       2.195   6.816  11.854  1.00  0.00     0.076 C 
HETATM   24  C21 UNL     1       1.918   8.275  11.514  1.00  0.00     0.022 C 
BRANCH  23  25
HETATM   25  C22 UNL     1       3.227   6.196  10.903  1.00  0.00     0.162 C 
HETATM   26  O3  UNL     1       4.436   6.391  11.080  1.00  0.00    -0.294 OA
BRANCH  25  27
HETATM   27  C23 UNL     1       2.730   5.310   9.751  1.00  0.00     0.188 C 
BRANCH  27  28
HETATM   28  O4  UNL     1       3.258   3.990   9.845  1.00  0.00    -0.388 OA
HETATM   29  H31 UNL     1       4.188   4.015   9.534  1.00  0.00     0.210 HD
ENDBRANCH  27  28
BRANCH  27  30
HETATM   30  C24 UNL     1       2.972   5.902   8.351  1.00  0.00     0.043 C 
BRANCH  30  31
HETATM   31  C25 UNL     1       2.217   7.186   7.944  1.00  0.00    -0.020 C 
HETATM   32  C26 UNL     1       1.769   7.059   6.484  1.00  0.00     0.009 C 
HETATM   33  C27 UNL     1       3.034   8.470   8.099  1.00  0.00     0.009 C 
ENDBRANCH  30  31
ENDBRANCH  27  30
ENDBRANCH  25  27
ENDBRANCH  23  25
ENDBRANCH  22  23
ENDBRANCH  20  21
ENDBRANCH   2  20
TORSDOF 12
ENDMDL
MODEL 3
REMARK minimizedAffinity -8.73924255
REMARK  12 active torsions:
REMARK  status: ('A' for Active; 'I' for Inactive)
REMARK    1  A    between atoms: C2_2  and  C17_19 
REMARK    2  A    between atoms: C3_3  and  C4_4 
REMARK    3  A    between atoms: C4_4  and  C5_5 
REMARK    4  A    between atoms: C5_5  and  C6_6 
REMARK    5  A    between atoms: C12_12  and  O1_13 
REMARK    6  A    between atoms: C17_19  and  C18_20 
REMARK    7  A    between atoms: C19_21  and  C20_22 
REMARK    8  A    between atoms: C20_22  and  C22_24 
REMARK    9  A    between atoms: C22_24  and  C23_26 
REMARK   10  A    between atoms: C23_26  and  O4_27 
REMARK   11  A    between atoms: C23_26  and  C24_28 
REMARK   12  A    between atoms: C24_28  and  C25_29 
ROOT
HETATM    1  C1  UNL     1      -0.261   5.716  12.317  1.00  0.00     0.043 C 
HETATM    2  C2  UNL     1      -0.050   6.226  13.719  1.00  0.00    -0.084 C 
HETATM    3  C3  UNL     1      -0.953   6.084  14.714  1.00  0.00    -0.024 C 
ENDROOT
BRANCH   3   4
HETATM    4  C4  UNL     1      -2.247   5.326  14.651  1.00  0.00     0.030 C 
BRANCH   4   5
HETATM    5  C5  UNL     1      -3.523   6.151  14.844  1.00  0.00     0.042 C 
BRANCH   5   6
HETATM    6  C6  UNL     1      -4.235   6.725  13.588  1.00  0.00     0.065 C 
HETATM    7  C7  UNL     1      -3.419   7.877  12.974  1.00  0.00     0.046 C 
HETATM    8  C8  UNL     1      -5.673   7.209  13.815  1.00  0.00     0.043 C 
HETATM    9  C9  UNL     1      -6.573   6.064  14.256  1.00  0.00     0.044 C 
HETATM   10  C10 UNL     1      -6.341   4.853  13.404  1.00  0.00    -0.021 A 
HETATM   11  C11 UNL     1      -7.276   3.807  13.425  1.00  0.00     0.046 A 
HETATM   12  C16 UNL     1      -5.188   4.732  12.615  1.00  0.00     0.082 A 
HETATM   13  C12 UNL     1      -7.064   2.679  12.645  1.00  0.00     0.066 A 
HETATM   14  C13 UNL     1      -5.939   2.566  11.838  1.00  0.00     0.046 A 
HETATM   15  C14 UNL     1      -4.989   3.598  11.812  1.00  0.00    -0.025 A 
HETATM   16  C15 UNL     1      -3.768   3.471  10.947  1.00  0.00     0.051 C 
HETATM   17  O2  UNL     1      -4.210   5.695  12.568  1.00  0.00    -0.340 OA
BRANCH  13  18
HETATM   18  O1  UNL     1      -7.944   1.633  12.651  1.00  0.00    -0.361 OA
HETATM   19  H17 UNL     1      -8.659   1.830  13.282  1.00  0.00     0.217 HD
ENDBRANCH  13  18
ENDBRANCH   5   6
ENDBRANCH   4   5
ENDBRANCH   3   4
BRANCH   2  20
HETATM   20  C17 UNL     1       1.266   6.948  13.954  1.00  0.00     0.060 C 
BRANCH  20  21
HETATM   21  C18 UNL     1       1.571   7.915  12.841  1.00  0.00    -0.026 C 
HETATM   22  C19 UNL     1       2.655   7.962  12.050  1.00  0.00    -0.019 C 
BRANCH  22  23
HETATM   23  C20 UNL     1       3.861   7.054  12.081  1.00  0.00     0.076 C 
HETATM   24  C21 UNL     1       5.119   7.798  12.511  1.00  0.00     0.022 C 
BRANCH  23  25
HETATM   25  C22 UNL     1       4.046   6.360  10.725  1.00  0.00     0.162 C 
HETATM   26  O3  UNL     1       5.173   6.249  10.228  1.00  0.00    -0.294 OA
BRANCH  25  27
HETATM   27  C23 UNL     1       2.810   5.784  10.016  1.00  0.00     0.188 C 
BRANCH  27  28
HETATM   28  O4  UNL     1       2.688   4.382  10.242  1.00  0.00    -0.388 OA
HETATM   29  H31 UNL     1       3.335   3.927   9.662  1.00  0.00     0.210 HD
ENDBRANCH  27  28
BRANCH  27  30
HETATM   30  C24 UNL     1       2.736   6.109   8.514  1.00  0.00     0.043 C 
BRANCH  30  31
HETATM   31  C25 UNL     1       2.002   7.392   8.065  1.00  0.00    -0.020 C 
HETATM   32  C26 UNL     1       3.010   8.544   7.994  1.00  0.00     0.009 C 
HETATM   33  C27 UNL     1       0.844   7.805   8.975  1.00  0.00     0.009 C 
ENDBRANCH  30  31
ENDBRANCH  27  30
ENDBRANCH  25  27
ENDBRANCH  23  25
ENDBRANCH  22  23
ENDBRANCH  20  21
ENDBRANCH   2  20
TORSDOF 12
ENDMDL
MODEL 4
REMARK minimizedAffinity -8.67987061
REMARK  12 active torsions:
REMARK  status: ('A' for Active; 'I' for Inactive)
REMARK    1  A    between atoms: C2_2  and  C17_19 
REMARK    2  A    between atoms: C3_3  and  C4_4 
REMARK    3  A    between atoms: C4_4  and  C5_5 
REMARK    4  A    between atoms: C5_5  and  C6_6 
REMARK    5  A    between atoms: C12_12  and  O1_13 
REMARK    6  A    between atoms: C17_19  and  C18_20 
REMARK    7  A    between atoms: C19_21  and  C20_22 
REMARK    8  A    between atoms: C20_22  and  C22_24 
REMARK    9  A    between atoms: C22_24  and  C23_26 
REMARK   10  A    between atoms: C23_26  and  O4_27 
REMARK   11  A    between atoms: C23_26  and  C24_28 
REMARK   12  A    between atoms: C24_28  and  C25_29 
ROOT
HETATM    1  C1  UNL     1      -1.147  10.566  14.296  1.00  0.00     0.043 C 
HETATM    2  C2  UNL     1      -1.143   9.273  13.522  1.00  0.00    -0.084 C 
HETATM    3  C3  UNL     1      -2.263   8.595  13.190  1.00  0.00    -0.024 C 
ENDROOT
BRANCH   3   4
HETATM    4  C4  UNL     1      -3.681   9.030  13.422  1.00  0.00     0.030 C 
BRANCH   4   5
HETATM    5  C5  UNL     1      -4.760   7.969  13.187  1.00  0.00     0.042 C 
BRANCH   5   6
HETATM    6  C6  UNL     1      -5.175   7.053  14.371  1.00  0.00     0.065 C 
HETATM    7  C7  UNL     1      -5.967   7.847  15.425  1.00  0.00     0.046 C 
HETATM    8  C8  UNL     1      -4.020   6.325  15.071  1.00  0.00     0.043 C 
HETATM    9  C9  UNL     1      -3.305   5.384  14.113  1.00  0.00     0.044 C 
HETATM   10  C10 UNL     1      -4.295   4.583  13.323  1.00  0.00    -0.021 A 
HETATM   11  C11 UNL     1      -3.861   3.445  12.627  1.00  0.00     0.046 A 
HETATM   12  C16 UNL     1      -5.640   4.973  13.238  1.00  0.00     0.082 A 
HETATM   13  C12 UNL     1      -4.771   2.702  11.888  1.00  0.00     0.066 A 
HETATM   14  C13 UNL     1      -6.110   3.065  11.824  1.00  0.00     0.046 A 
HETATM   15  C14 UNL     1      -6.560   4.206  12.505  1.00  0.00    -0.025 A 
HETATM   16  C15 UNL     1      -8.005   4.604  12.429  1.00  0.00     0.051 C 
HETATM   17  O2  UNL     1      -6.133   6.093  13.860  1.00  0.00    -0.340 OA
BRANCH  13  18
HETATM   18  O1  UNL     1      -4.384   1.596  11.184  1.00  0.00    -0.361 OA
HETATM   19  H17 UNL     1      -3.421   1.481  11.288  1.00  0.00     0.217 HD
ENDBRANCH  13  18
ENDBRANCH   5   6
ENDBRANCH   4   5
ENDBRANCH   3   4
BRANCH   2  20
HETATM   20  C17 UNL     1       0.231   8.750  13.143  1.00  0.00     0.060 C 
BRANCH  20  21
HETATM   21  C18 UNL     1       0.353   8.549  11.656  1.00  0.00    -0.026 C 
HETATM   22  C19 UNL     1       1.127   7.674  10.992  1.00  0.00    -0.019 C 
BRANCH  22  23
HETATM   23  C20 UNL     1       2.088   6.666  11.574  1.00  0.00     0.076 C 
HETATM   24  C21 UNL     1       3.433   7.297  11.915  1.00  0.00     0.022 C 
BRANCH  23  25
HETATM   25  C22 UNL     1       2.245   5.466  10.630  1.00  0.00     0.162 C 
HETATM   26  O3  UNL     1       1.449   4.521  10.685  1.00  0.00    -0.294 OA
BRANCH  25  27
HETATM   27  C23 UNL     1       3.388   5.479   9.603  1.00  0.00     0.188 C 
BRANCH  27  28
HETATM   28  O4  UNL     1       4.459   6.317  10.029  1.00  0.00    -0.388 OA
HETATM   29  H31 UNL     1       4.194   7.248   9.870  1.00  0.00     0.210 HD
ENDBRANCH  27  28
BRANCH  27  30
HETATM   30  C24 UNL     1       2.945   5.833   8.173  1.00  0.00     0.043 C 
BRANCH  30  31
HETATM   31  C25 UNL     1       2.192   7.160   7.932  1.00  0.00    -0.020 C 
HETATM   32  C26 UNL     1       1.588   7.142   6.524  1.00  0.00     0.009 C 
HETATM   33  C27 UNL     1       3.061   8.411   8.079  1.00  0.00     0.009 C 
ENDBRANCH  30  31
ENDBRANCH  27  30
ENDBRANCH  25  27
ENDBRANCH  23  25
ENDBRANCH  22  23
ENDBRANCH  20  21
ENDBRANCH   2  20
TORSDOF 12
ENDMDL
MODEL 5
REMARK minimizedAffinity -8.48591328
REMARK  12 active torsions:
REMARK  status: ('A' for Active; 'I' for Inactive)
REMARK    1  A    between atoms: C2_2  and  C17_19 
REMARK    2  A    between atoms: C3_3  and  C4_4 
REMARK    3  A    between atoms: C4_4  and  C5_5 
REMARK    4  A    between atoms: C5_5  and  C6_6 
REMARK    5  A    between atoms: C12_12  and  O1_13 
REMARK    6  A    between atoms: C17_19  and  C18_20 
REMARK    7  A    between atoms: C19_21  and  C20_22 
REMARK    8  A    between atoms: C20_22  and  C22_24 
REMARK    9  A    between atoms: C22_24  and  C23_26 
REMARK   10  A    between atoms: C23_26  and  O4_27 
REMARK   11  A    between atoms: C23_26  and  C24_28 
REMARK   12  A    between atoms: C24_28  and  C25_29 
ROOT
HETATM    1  C1  UNL     1      -0.681   8.658  10.863  1.00  0.00     0.043 C 
HETATM    2  C2  UNL     1      -0.451   8.316  12.312  1.00  0.00    -0.084 C 
HETATM    3  C3  UNL     1      -1.410   8.385  13.261  1.00  0.00    -0.024 C 
ENDROOT
BRANCH   3   4
HETATM    4  C4  UNL     1      -2.862   8.699  13.050  1.00  0.00     0.030 C 
BRANCH   4   5
HETATM    5  C5  UNL     1      -3.809   7.497  12.970  1.00  0.00     0.042 C 
BRANCH   5   6
HETATM    6  C6  UNL     1      -3.814   6.475  14.139  1.00  0.00     0.065 C 
HETATM    7  C7  UNL     1      -3.836   7.197  15.498  1.00  0.00     0.046 C 
HETATM    8  C8  UNL     1      -2.654   5.471  14.136  1.00  0.00     0.043 C 
HETATM    9  C9  UNL     1      -2.686   4.600  12.888  1.00  0.00     0.044 C 
HETATM   10  C10 UNL     1      -4.077   4.104  12.627  1.00  0.00    -0.021 A 
HETATM   11  C11 UNL     1      -4.271   3.043  11.731  1.00  0.00     0.046 A 
HETATM   12  C16 UNL     1      -5.188   4.707  13.235  1.00  0.00     0.082 A 
HETATM   13  C12 UNL     1      -5.557   2.583  11.479  1.00  0.00     0.066 A 
HETATM   14  C13 UNL     1      -6.658   3.156  12.100  1.00  0.00     0.046 A 
HETATM   15  C14 UNL     1      -6.483   4.225  12.992  1.00  0.00    -0.025 A 
HETATM   16  C15 UNL     1      -7.675   4.850  13.656  1.00  0.00     0.051 C 
HETATM   17  O2  UNL     1      -5.082   5.773  14.094  1.00  0.00    -0.340 OA
BRANCH  13  18
HETATM   18  O1  UNL     1      -5.788   1.561  10.600  1.00  0.00    -0.361 OA
HETATM   19  H17 UNL     1      -4.938   1.282  10.215  1.00  0.00     0.217 HD
ENDBRANCH  13  18
ENDBRANCH   5   6
ENDBRANCH   4   5
ENDBRANCH   3   4
BRANCH   2  20
HETATM   20  C17 UNL     1       0.967   7.896  12.660  1.00  0.00     0.060 C 
BRANCH  20  21
HETATM   21  C18 UNL     1       1.978   8.882  12.141  1.00  0.00    -0.026 C 
HETATM   22  C19 UNL     1       3.292   8.697  11.930  1.00  0.00    -0.019 C 
BRANCH  22  23
HETATM   23  C20 UNL     1       4.099   7.445  12.173  1.00  0.00     0.076 C 
HETATM   24  C21 UNL     1       5.345   7.727  13.005  1.00  0.00     0.022 C 
BRANCH  23  25
HETATM   25  C22 UNL     1       4.445   6.762  10.843  1.00  0.00     0.162 C 
HETATM   26  O3  UNL     1       5.520   6.999  10.280  1.00  0.00    -0.294 OA
BRANCH  25  27
HETATM   27  C23 UNL     1       3.442   5.764  10.244  1.00  0.00     0.188 C 
BRANCH  27  28
HETATM   28  O4  UNL     1       4.109   4.695   9.578  1.00  0.00    -0.388 OA
HETATM   29  H31 UNL     1       4.420   5.030   8.709  1.00  0.00     0.210 HD
ENDBRANCH  27  28
BRANCH  27  30
HETATM   30  C24 UNL     1       2.381   6.406   9.333  1.00  0.00     0.043 C 
BRANCH  30  31
HETATM   31  C25 UNL     1       2.828   7.034   7.995  1.00  0.00    -0.020 C 
HETATM   32  C26 UNL     1       2.951   8.552   8.174  1.00  0.00     0.009 C 
HETATM   33  C27 UNL     1       1.887   6.751   6.823  1.00  0.00     0.009 C 
ENDBRANCH  30  31
ENDBRANCH  27  30
ENDBRANCH  25  27
ENDBRANCH  23  25
ENDBRANCH  22  23
ENDBRANCH  20  21
ENDBRANCH   2  20
TORSDOF 12
ENDMDL
MODEL 6
REMARK minimizedAffinity -8.45236206
REMARK  12 active torsions:
REMARK  status: ('A' for Active; 'I' for Inactive)
REMARK    1  A    between atoms: C2_2  and  C17_19 
REMARK    2  A    between atoms: C3_3  and  C4_4 
REMARK    3  A    between atoms: C4_4  and  C5_5 
REMARK    4  A    between atoms: C5_5  and  C6_6 
REMARK    5  A    between atoms: C12_12  and  O1_13 
REMARK    6  A    between atoms: C17_19  and  C18_20 
REMARK    7  A    between atoms: C19_21  and  C20_22 
REMARK    8  A    between atoms: C20_22  and  C22_24 
REMARK    9  A    between atoms: C22_24  and  C23_26 
REMARK   10  A    between atoms: C23_26  and  O4_27 
REMARK   11  A    between atoms: C23_26  and  C24_28 
REMARK   12  A    between atoms: C24_28  and  C25_29 
ROOT
HETATM    1  C1  UNL     1       1.841   7.689  16.146  1.00  0.00     0.043 C 
HETATM    2  C2  UNL     1       1.238   8.036  14.810  1.00  0.00    -0.084 C 
HETATM    3  C3  UNL     1       0.078   7.515  14.351  1.00  0.00    -0.024 C 
ENDROOT
BRANCH   3   4
HETATM    4  C4  UNL     1      -0.856   6.606  15.096  1.00  0.00     0.030 C 
BRANCH   4   5
HETATM    5  C5  UNL     1      -1.641   5.603  14.247  1.00  0.00     0.042 C 
BRANCH   5   6
HETATM    6  C6  UNL     1      -2.134   6.042  12.840  1.00  0.00     0.065 C 
HETATM    7  C7  UNL     1      -0.954   6.154  11.858  1.00  0.00     0.046 C 
HETATM    8  C8  UNL     1      -2.928   7.353  12.805  1.00  0.00     0.043 C 
HETATM    9  C9  UNL     1      -4.207   7.242  13.622  1.00  0.00     0.044 C 
HETATM   10  C10 UNL     1      -4.915   5.955  13.320  1.00  0.00    -0.021 A 
HETATM   11  C11 UNL     1      -6.253   5.798  13.711  1.00  0.00     0.046 A 
HETATM   12  C16 UNL     1      -4.252   4.895  12.685  1.00  0.00     0.082 A 
HETATM   13  C12 UNL     1      -6.914   4.607  13.441  1.00  0.00     0.066 A 
HETATM   14  C13 UNL     1      -6.272   3.564  12.787  1.00  0.00     0.046 A 
HETATM   15  C14 UNL     1      -4.931   3.700  12.397  1.00  0.00    -0.025 A 
HETATM   16  C15 UNL     1      -4.235   2.569  11.697  1.00  0.00     0.051 C 
HETATM   17  O2  UNL     1      -2.935   4.958  12.305  1.00  0.00    -0.340 OA
BRANCH  13  18
HETATM   18  O1  UNL     1      -8.212   4.411  13.821  1.00  0.00    -0.361 OA
HETATM   19  H17 UNL     1      -8.521   5.202  14.297  1.00  0.00     0.217 HD
ENDBRANCH  13  18
ENDBRANCH   5   6
ENDBRANCH   4   5
ENDBRANCH   3   4
BRANCH   2  20
HETATM   20  C17 UNL     1       2.039   9.019  13.974  1.00  0.00     0.060 C 
BRANCH  20  21
HETATM   21  C18 UNL     1       1.771   8.839  12.504  1.00  0.00    -0.026 C 
HETATM   22  C19 UNL     1       2.487   8.145  11.603  1.00  0.00    -0.019 C 
BRANCH  22  23
HETATM   23  C20 UNL     1       3.760   7.369  11.837  1.00  0.00     0.076 C 
HETATM   24  C21 UNL     1       4.944   8.290  12.106  1.00  0.00     0.022 C 
BRANCH  23  25
HETATM   25  C22 UNL     1       4.034   6.418  10.664  1.00  0.00     0.162 C 
HETATM   26  O3  UNL     1       5.195   6.181  10.309  1.00  0.00    -0.294 OA
BRANCH  25  27
HETATM   27  C23 UNL     1       2.841   5.751   9.962  1.00  0.00     0.188 C 
BRANCH  27  28
HETATM   28  O4  UNL     1       2.779   4.358  10.254  1.00  0.00    -0.388 OA
HETATM   29  H31 UNL     1       3.459   3.906   9.710  1.00  0.00     0.210 HD
ENDBRANCH  27  28
BRANCH  27  30
HETATM   30  C24 UNL     1       2.784   5.999   8.444  1.00  0.00     0.043 C 
BRANCH  30  31
HETATM   31  C25 UNL     1       2.164   7.316   7.927  1.00  0.00    -0.020 C 
HETATM   32  C26 UNL     1       1.762   7.134   6.459  1.00  0.00     0.009 C 
HETATM   33  C27 UNL     1       3.086   8.531   8.039  1.00  0.00     0.009 C 
ENDBRANCH  30  31
ENDBRANCH  27  30
ENDBRANCH  25  27
ENDBRANCH  23  25
ENDBRANCH  22  23
ENDBRANCH  20  21
ENDBRANCH   2  20
TORSDOF 12
ENDMDL
MODEL 7
REMARK minimizedAffinity -8.35811138
REMARK  12 active torsions:
REMARK  status: ('A' for Active; 'I' for Inactive)
REMARK    1  A    between atoms: C2_2  and  C17_19 
REMARK    2  A    between atoms: C3_3  and  C4_4 
REMARK    3  A    between atoms: C4_4  and  C5_5 
REMARK    4  A    between atoms: C5_5  and  C6_6 
REMARK    5  A    between atoms: C12_12  and  O1_13 
REMARK    6  A    between atoms: C17_19  and  C18_20 
REMARK    7  A    between atoms: C19_21  and  C20_22 
REMARK    8  A    between atoms: C20_22  and  C22_24 
REMARK    9  A    between atoms: C22_24  and  C23_26 
REMARK   10  A    between atoms: C23_26  and  O4_27 
REMARK   11  A    between atoms: C23_26  and  C24_28 
REMARK   12  A    between atoms: C24_28  and  C25_29 
ROOT
HETATM    1  C1  UNL     1      -3.258   3.100  11.947  1.00  0.00     0.043 C 
HETATM    2  C2  UNL     1      -3.555   4.319  12.781  1.00  0.00    -0.084 C 
HETATM    3  C3  UNL     1      -2.602   5.118  13.308  1.00  0.00    -0.024 C 
ENDROOT
BRANCH   3   4
HETATM    4  C4  UNL     1      -1.121   5.018  13.087  1.00  0.00     0.030 C 
BRANCH   4   5
HETATM    5  C5  UNL     1      -0.564   5.789  11.887  1.00  0.00     0.042 C 
BRANCH   5   6
HETATM    6  C6  UNL     1       0.630   6.758  12.114  1.00  0.00     0.065 C 
HETATM    7  C7  UNL     1       1.184   6.618  13.542  1.00  0.00     0.046 C 
HETATM    8  C8  UNL     1       0.331   8.238  11.846  1.00  0.00     0.043 C 
HETATM    9  C9  UNL     1      -0.054   8.465  10.391  1.00  0.00     0.044 C 
HETATM   10  C10 UNL     1       0.886   7.737   9.477  1.00  0.00    -0.021 A 
HETATM   11  C11 UNL     1       0.911   8.065   8.114  1.00  0.00     0.046 A 
HETATM   12  C16 UNL     1       1.712   6.710   9.956  1.00  0.00     0.082 A 
HETATM   13  C12 UNL     1       1.774   7.390   7.260  1.00  0.00     0.066 A 
HETATM   14  C13 UNL     1       2.616   6.393   7.733  1.00  0.00     0.046 A 
HETATM   15  C14 UNL     1       2.597   6.045   9.092  1.00  0.00    -0.025 A 
HETATM   16  C15 UNL     1       3.501   4.961   9.602  1.00  0.00     0.051 C 
HETATM   17  O2  UNL     1       1.719   6.307  11.268  1.00  0.00    -0.340 OA
BRANCH  13  18
HETATM   18  O1  UNL     1       1.816   7.670   5.923  1.00  0.00    -0.361 OA
HETATM   19  H17 UNL     1       1.153   8.357   5.726  1.00  0.00     0.217 HD
ENDBRANCH  13  18
ENDBRANCH   5   6
ENDBRANCH   4   5
ENDBRANCH   3   4
BRANCH   2  20
HETATM   20  C17 UNL     1      -5.029   4.595  13.020  1.00  0.00     0.060 C 
BRANCH  20  21
HETATM   21  C18 UNL     1      -5.283   6.058  13.271  1.00  0.00    -0.026 C 
HETATM   22  C19 UNL     1      -6.356   6.634  13.837  1.00  0.00    -0.019 C 
BRANCH  22  23
HETATM   23  C20 UNL     1      -7.599   5.957  14.361  1.00  0.00     0.076 C 
HETATM   24  C21 UNL     1      -8.754   6.049  13.371  1.00  0.00     0.022 C 
BRANCH  23  25
HETATM   25  C22 UNL     1      -7.980   6.522  15.735  1.00  0.00     0.162 C 
HETATM   26  O3  UNL     1      -7.290   6.266  16.729  1.00  0.00    -0.294 OA
BRANCH  25  27
HETATM   27  C23 UNL     1      -9.215   7.430  15.843  1.00  0.00     0.188 C 
BRANCH  27  28
HETATM   28  O4  UNL     1     -10.397   6.751  15.431  1.00  0.00    -0.388 OA
HETATM   29  H31 UNL     1     -10.401   6.722  14.450  1.00  0.00     0.210 HD
ENDBRANCH  27  28
BRANCH  27  30
HETATM   30  C24 UNL     1      -9.071   8.778  15.115  1.00  0.00     0.043 C 
BRANCH  30  31
HETATM   31  C25 UNL     1     -10.165   9.851  15.311  1.00  0.00    -0.020 C 
HETATM   32  C26 UNL     1     -11.018   9.930  14.040  1.00  0.00     0.009 C 
HETATM   33  C27 UNL     1      -9.625  11.247  15.629  1.00  0.00     0.009 C 
ENDBRANCH  30  31
ENDBRANCH  27  30
ENDBRANCH  25  27
ENDBRANCH  23  25
ENDBRANCH  22  23
ENDBRANCH  20  21
ENDBRANCH   2  20
TORSDOF 12
ENDMDL
MODEL 8
REMARK minimizedAffinity -8.33153248
REMARK  12 active torsions:
REMARK  status: ('A' for Active; 'I' for Inactive)
REMARK    1  A    between atoms: C2_2  and  C17_19 
REMARK    2  A    between atoms: C3_3  and  C4_4 
REMARK    3  A    between atoms: C4_4  and  C5_5 
REMARK    4  A    between atoms: C5_5  and  C6_6 
REMARK    5  A    between atoms: C12_12  and  O1_13 
REMARK    6  A    between atoms: C17_19  and  C18_20 
REMARK    7  A    between atoms: C19_21  and  C20_22 
REMARK    8  A    between atoms: C20_22  and  C22_24 
REMARK    9  A    between atoms: C22_24  and  C23_26 
REMARK   10  A    between atoms: C23_26  and  O4_27 
REMARK   11  A    between atoms: C23_26  and  C24_28 
REMARK   12  A    between atoms: C24_28  and  C25_29 
ROOT
HETATM    1  C1  UNL     1      -3.910   3.303  12.202  1.00  0.00     0.043 C 
HETATM    2  C2  UNL     1      -3.928   4.658  12.860  1.00  0.00    -0.084 C 
HETATM    3  C3  UNL     1      -2.813   5.332  13.219  1.00  0.00    -0.024 C 
ENDROOT
BRANCH   3   4
HETATM    4  C4  UNL     1      -1.392   4.930  12.947  1.00  0.00     0.030 C 
BRANCH   4   5
HETATM    5  C5  UNL     1      -0.698   5.649  11.787  1.00  0.00     0.042 C 
BRANCH   5   6
HETATM    6  C6  UNL     1       0.485   6.605  12.105  1.00  0.00     0.065 C 
HETATM    7  C7  UNL     1       0.977   6.406  13.549  1.00  0.00     0.046 C 
HETATM    8  C8  UNL     1       0.200   8.096  11.884  1.00  0.00     0.043 C 
HETATM    9  C9  UNL     1      -0.121   8.383  10.425  1.00  0.00     0.044 C 
HETATM   10  C10 UNL     1       0.857   7.690   9.524  1.00  0.00    -0.021 A 
HETATM   11  C11 UNL     1       0.943   8.073   8.178  1.00  0.00     0.046 A 
HETATM   12  C16 UNL     1       1.661   6.642   9.997  1.00  0.00     0.082 A 
HETATM   13  C12 UNL     1       1.841   7.431   7.335  1.00  0.00     0.066 A 
HETATM   14  C13 UNL     1       2.661   6.413   7.804  1.00  0.00     0.046 A 
HETATM   15  C14 UNL     1       2.582   6.011   9.146  1.00  0.00    -0.025 A 
HETATM   16  C15 UNL     1       3.463   4.904   9.650  1.00  0.00     0.051 C 
HETATM   17  O2  UNL     1       1.610   6.186  11.290  1.00  0.00    -0.340 OA
BRANCH  13  18
HETATM   18  O1  UNL     1       1.942   7.765   6.014  1.00  0.00    -0.361 OA
HETATM   19  H17 UNL     1       1.289   8.461   5.817  1.00  0.00     0.217 HD
ENDBRANCH  13  18
ENDBRANCH   5   6
ENDBRANCH   4   5
ENDBRANCH   3   4
BRANCH   2  20
HETATM   20  C17 UNL     1      -5.308   5.232  13.123  1.00  0.00     0.060 C 
BRANCH  20  21
HETATM   21  C18 UNL     1      -6.265   4.173  13.601  1.00  0.00    -0.026 C 
HETATM   22  C19 UNL     1      -7.603   4.239  13.701  1.00  0.00    -0.019 C 
BRANCH  22  23
HETATM   23  C20 UNL     1      -8.497   5.409  13.367  1.00  0.00     0.076 C 
HETATM   24  C21 UNL     1      -8.510   5.701  11.871  1.00  0.00     0.022 C 
BRANCH  23  25
HETATM   25  C22 UNL     1      -8.095   6.643  14.185  1.00  0.00     0.162 C 
HETATM   26  O3  UNL     1      -7.044   7.245  13.932  1.00  0.00    -0.294 OA
BRANCH  25  27
HETATM   27  C23 UNL     1      -9.034   7.128  15.300  1.00  0.00     0.188 C 
BRANCH  27  28
HETATM   28  O4  UNL     1      -9.514   6.039  16.084  1.00  0.00    -0.388 OA
HETATM   29  H31 UNL     1     -10.219   5.588  15.572  1.00  0.00     0.210 HD
ENDBRANCH  27  28
BRANCH  27  30
HETATM   30  C24 UNL     1     -10.197   8.006  14.806  1.00  0.00     0.043 C 
BRANCH  30  31
HETATM   31  C25 UNL     1     -11.547   7.336  14.469  1.00  0.00    -0.020 C 
HETATM   32  C26 UNL     1     -11.695   7.254  12.945  1.00  0.00     0.009 C 
HETATM   33  C27 UNL     1     -12.768   8.058  15.044  1.00  0.00     0.009 C 
ENDBRANCH  30  31
ENDBRANCH  27  30
ENDBRANCH  25  27
ENDBRANCH  23  25
ENDBRANCH  22  23
ENDBRANCH  20  21
ENDBRANCH   2  20
TORSDOF 12
ENDMDL
MODEL 9
REMARK minimizedAffinity -8.30177402
REMARK  12 active torsions:
REMARK  status: ('A' for Active; 'I' for Inactive)
REMARK    1  A    between atoms: C2_2  and  C17_19 
REMARK    2  A    between atoms: C3_3  and  C4_4 
REMARK    3  A    between atoms: C4_4  and  C5_5 
REMARK    4  A    between atoms: C5_5  and  C6_6 
REMARK    5  A    between atoms: C12_12  and  O1_13 
REMARK    6  A    between atoms: C17_19  and  C18_20 
REMARK    7  A    between atoms: C19_21  and  C20_22 
REMARK    8  A    between atoms: C20_22  and  C22_24 
REMARK    9  A    between atoms: C22_24  and  C23_26 
REMARK   10  A    between atoms: C23_26  and  O4_27 
REMARK   11  A    between atoms: C23_26  and  C24_28 
REMARK   12  A    between atoms: C24_28  and  C25_29 
ROOT
HETATM    1  C1  UNL     1      -3.885   5.146  12.841  1.00  0.00     0.043 C 
HETATM    2  C2  UNL     1      -3.400   6.569  12.937  1.00  0.00    -0.084 C 
HETATM    3  C3  UNL     1      -4.218   7.631  13.108  1.00  0.00    -0.024 C 
ENDROOT
BRANCH   3   4
HETATM    4  C4  UNL     1      -5.701   7.596  13.336  1.00  0.00     0.030 C 
BRANCH   4   5
HETATM    5  C5  UNL     1      -6.181   8.023  14.726  1.00  0.00     0.042 C 
BRANCH   5   6
HETATM    6  C6  UNL     1      -7.641   7.694  15.144  1.00  0.00     0.065 C 
HETATM    7  C7  UNL     1      -8.440   8.983  15.403  1.00  0.00     0.046 C 
HETATM    8  C8  UNL     1      -7.781   6.775  16.364  1.00  0.00     0.043 C 
HETATM    9  C9  UNL     1      -7.160   5.412  16.098  1.00  0.00     0.044 C 
HETATM   10  C10 UNL     1      -7.573   4.898  14.751  1.00  0.00    -0.021 A 
HETATM   11  C11 UNL     1      -7.382   3.543  14.443  1.00  0.00     0.046 A 
HETATM   12  C16 UNL     1      -8.112   5.757  13.782  1.00  0.00     0.082 A 
HETATM   13  C12 UNL     1      -7.755   3.061  13.196  1.00  0.00     0.066 A 
HETATM   14  C13 UNL     1      -8.317   3.900  12.242  1.00  0.00     0.046 A 
HETATM   15  C14 UNL     1      -8.507   5.260  12.529  1.00  0.00    -0.025 A 
HETATM   16  C15 UNL     1      -9.106   6.169  11.495  1.00  0.00     0.051 C 
HETATM   17  O2  UNL     1      -8.296   7.100  13.994  1.00  0.00    -0.340 OA
BRANCH  13  18
HETATM   18  O1  UNL     1      -7.571   1.751  12.853  1.00  0.00    -0.361 OA
HETATM   19  H17 UNL     1      -7.138   1.292  13.596  1.00  0.00     0.217 HD
ENDBRANCH  13  18
ENDBRANCH   5   6
ENDBRANCH   4   5
ENDBRANCH   3   4
BRANCH   2  20
HETATM   20  C17 UNL     1      -1.898   6.752  12.806  1.00  0.00     0.060 C 
BRANCH  20  21
HETATM   21  C18 UNL     1      -1.145   5.674  13.540  1.00  0.00    -0.026 C 
HETATM   22  C19 UNL     1       0.158   5.360  13.455  1.00  0.00    -0.019 C 
BRANCH  22  23
HETATM   23  C20 UNL     1       1.209   6.008  12.587  1.00  0.00     0.076 C 
HETATM   24  C21 UNL     1       0.915   7.484  12.348  1.00  0.00     0.022 C 
BRANCH  23  25
HETATM   25  C22 UNL     1       1.366   5.238  11.269  1.00  0.00     0.162 C 
HETATM   26  O3  UNL     1       0.485   4.455  10.893  1.00  0.00    -0.294 OA
BRANCH  25  27
HETATM   27  C23 UNL     1       2.622   5.481  10.417  1.00  0.00     0.188 C 
BRANCH  27  28
HETATM   28  O4  UNL     1       3.138   4.261   9.893  1.00  0.00    -0.388 OA
HETATM   29  H31 UNL     1       3.617   3.802  10.616  1.00  0.00     0.210 HD
ENDBRANCH  27  28
BRANCH  27  30
HETATM   30  C24 UNL     1       3.722   6.284  11.133  1.00  0.00     0.043 C 
BRANCH  30  31
HETATM   31  C25 UNL     1       4.089   7.687  10.599  1.00  0.00    -0.020 C 
HETATM   32  C26 UNL     1       3.511   7.849   9.188  1.00  0.00     0.009 C 
HETATM   33  C27 UNL     1       5.592   7.968  10.552  1.00  0.00     0.009 C 
ENDBRANCH  30  31
ENDBRANCH  27  30
ENDBRANCH  25  27
ENDBRANCH  23  25
ENDBRANCH  22  23
ENDBRANCH  20  21
ENDBRANCH   2  20
TORSDOF 12
ENDMDL
