MODEL 1
REMARK minimizedAffinity -9.29746723
REMARK  6 active torsions:
REMARK  status: ('A' for Active; 'I' for Inactive)
REMARK    1  A    between atoms: C12_13  and  C13_14 
REMARK    2  A    between atoms: C13_14  and  C15_16 
REMARK    3  A    between atoms: C15_16  and  C16_17 
REMARK    4  A    between atoms: C16_17  and  C17_18 
REMARK    5  A    between atoms: C18_19  and  C20_21 
REMARK    6  A    between atoms: C20_21  and  O3_23 
ROOT
HETATM    1  C1  UNL     1      -6.874   4.086  12.101  1.00  0.00     0.052 C 
HETATM    2  C2  UNL     1      -6.104   4.924  13.082  1.00  0.00    -0.013 C 
HETATM    3  C3  UNL     1      -4.802   4.769  13.412  1.00  0.00    -0.066 C 
HETATM    4  C4  UNL     1      -3.880   3.748  12.790  1.00  0.00     0.036 C 
HETATM    5  C5  UNL     1      -2.766   4.470  12.021  1.00  0.00     0.010 C 
HETATM    6  C6  UNL     1      -2.008   5.483  12.915  1.00  0.00     0.007 C 
HETATM    7  C7  UNL     1      -3.027   6.468  13.575  1.00  0.00     0.068 C 
HETATM    8  C8  UNL     1      -2.286   7.518  14.381  1.00  0.00     0.133 C 
HETATM    9  O1  UNL     1      -2.862   8.503  14.846  1.00  0.00    -0.298 OA
HETATM   10  C9  UNL     1      -0.813   7.315  14.597  1.00  0.00     0.089 C 
HETATM   11  C10 UNL     1       0.004   7.095  13.283  1.00  0.00    -0.026 C 
HETATM   12  C11 UNL     1       1.292   6.396  13.775  1.00  0.00     0.016 C 
HETATM   13  C12 UNL     1       0.233   8.492  12.560  1.00  0.00    -0.002 C 
HETATM   14  C21 UNL     1      -1.038   8.628  11.711  1.00  0.00     0.006 C 
HETATM   15  C22 UNL     1      -1.279   7.244  11.140  1.00  0.00     0.011 C 
HETATM   16  C23 UNL     1      -0.808   6.223  12.214  1.00  0.00    -0.032 C 
HETATM   17  C24 UNL     1       0.080   5.184  11.486  1.00  0.00     0.016 C 
HETATM   18  C25 UNL     1      -4.059   5.663  14.403  1.00  0.00     0.027 C 
HETATM   19  C26 UNL     1      -5.044   6.455  15.271  1.00  0.00     0.018 C 
HETATM   20  C27 UNL     1      -6.121   7.123  14.445  1.00  0.00     0.084 C 
HETATM   21  C28 UNL     1      -6.878   6.076  13.665  1.00  0.00     0.155 C 
HETATM   22  O4  UNL     1      -8.086   6.187  13.459  1.00  0.00    -0.293 OA
ENDROOT
BRANCH  13  23
HETATM   23  C13 UNL     1       1.584   8.644  11.765  1.00  0.00    -0.014 C 
HETATM   24  C14 UNL     1       1.299   8.525  10.257  1.00  0.00     0.010 C 
BRANCH  23  25
HETATM   25  C15 UNL     1       2.689   7.637  12.180  1.00  0.00     0.008 C 
BRANCH  25  26
HETATM   26  C16 UNL     1       3.835   7.438  11.168  1.00  0.00     0.028 C 
BRANCH  26  27
HETATM   27  C17 UNL     1       4.007   6.013  10.715  1.00  0.00    -0.013 C 
HETATM   28  C18 UNL     1       3.565   5.455   9.569  1.00  0.00     0.008 C 
HETATM   29  C19 UNL     1       2.827   6.165   8.475  1.00  0.00     0.055 C 
BRANCH  28  30
HETATM   30  C20 UNL     1       3.857   4.009   9.381  1.00  0.00     0.171 C 
HETATM   31  O2  UNL     1       4.822   3.525   8.814  1.00  0.00    -0.646 OA
BRANCH  30  32
HETATM   32  O3  UNL     1       2.915   3.223   9.929  1.00  0.00    -0.773 OA
HETATM   33  H28 UNL     1       3.234   2.318   9.726  1.00  0.00     0.167 HD
ENDBRANCH  30  32
ENDBRANCH  28  30
ENDBRANCH  26  27
ENDBRANCH  25  26
ENDBRANCH  23  25
ENDBRANCH  13  23
TORSDOF 6
ENDMDL
MODEL 2
REMARK minimizedAffinity -9.15175915
REMARK  6 active torsions:
REMARK  status: ('A' for Active; 'I' for Inactive)
REMARK    1  A    between atoms: C12_13  and  C13_14 
REMARK    2  A    between atoms: C13_14  and  C15_16 
REMARK    3  A    between atoms: C15_16  and  C16_17 
REMARK    4  A    between atoms: C16_17  and  C17_18 
REMARK    5  A    between atoms: C18_19  and  C20_21 
REMARK    6  A    between atoms: C20_21  and  O3_23 
ROOT
HETATM    1  C1  UNL     1      -8.562   4.954  12.450  1.00  0.00     0.052 C 
HETATM    2  C2  UNL     1      -7.772   5.609  13.548  1.00  0.00    -0.013 C 
HETATM    3  C3  UNL     1      -6.521   5.275  13.935  1.00  0.00    -0.066 C 
HETATM    4  C4  UNL     1      -5.677   4.212  13.274  1.00  0.00     0.036 C 
HETATM    5  C5  UNL     1      -4.441   4.863  12.641  1.00  0.00     0.010 C 
HETATM    6  C6  UNL     1      -3.637   5.699  13.669  1.00  0.00     0.007 C 
HETATM    7  C7  UNL     1      -4.583   6.735  14.359  1.00  0.00     0.068 C 
HETATM    8  C8  UNL     1      -3.787   7.617  15.301  1.00  0.00     0.133 C 
HETATM    9  O1  UNL     1      -4.280   8.618  15.823  1.00  0.00    -0.298 OA
HETATM   10  C9  UNL     1      -2.363   7.226  15.581  1.00  0.00     0.089 C 
HETATM   11  C10 UNL     1      -1.489   7.028  14.301  1.00  0.00    -0.026 C 
HETATM   12  C11 UNL     1      -0.322   6.143  14.798  1.00  0.00     0.016 C 
HETATM   13  C12 UNL     1      -1.058   8.445  13.727  1.00  0.00    -0.002 C 
HETATM   14  C21 UNL     1      -2.246   8.803  12.823  1.00  0.00     0.006 C 
HETATM   15  C22 UNL     1      -2.600   7.511  12.112  1.00  0.00     0.011 C 
HETATM   16  C23 UNL     1      -2.319   6.353  13.110  1.00  0.00    -0.032 C 
HETATM   17  C24 UNL     1      -1.503   5.285  12.340  1.00  0.00     0.016 C 
HETATM   18  C25 UNL     1      -5.752   5.987  15.047  1.00  0.00     0.027 C 
HETATM   19  C26 UNL     1      -6.699   6.810  15.928  1.00  0.00     0.018 C 
HETATM   20  C27 UNL     1      -7.637   7.668  15.108  1.00  0.00     0.084 C 
HETATM   21  C28 UNL     1      -8.451   6.788  14.191  1.00  0.00     0.155 C 
HETATM   22  O4  UNL     1      -9.623   7.057  13.928  1.00  0.00    -0.293 OA
ENDROOT
BRANCH  13  23
HETATM   23  C13 UNL     1       0.352   8.508  13.029  1.00  0.00    -0.014 C 
HETATM   24  C14 UNL     1       0.158   8.730  11.518  1.00  0.00     0.010 C 
BRANCH  23  25
HETATM   25  C15 UNL     1       1.245   7.263  13.275  1.00  0.00     0.008 C 
BRANCH  25  26
HETATM   26  C16 UNL     1       2.580   7.228  12.504  1.00  0.00     0.028 C 
BRANCH  26  27
HETATM   27  C17 UNL     1       2.589   6.268  11.345  1.00  0.00    -0.013 C 
HETATM   28  C18 UNL     1       3.649   5.884  10.604  1.00  0.00     0.008 C 
HETATM   29  C19 UNL     1       5.068   6.317  10.812  1.00  0.00     0.055 C 
BRANCH  28  30
HETATM   30  C20 UNL     1       3.372   4.933   9.495  1.00  0.00     0.171 C 
HETATM   31  O2  UNL     1       3.256   5.203   8.312  1.00  0.00    -0.646 OA
BRANCH  30  32
HETATM   32  O3  UNL     1       3.263   3.665   9.925  1.00  0.00    -0.773 OA
HETATM   33  H28 UNL     1       3.081   3.164   9.102  1.00  0.00     0.167 HD
ENDBRANCH  30  32
ENDBRANCH  28  30
ENDBRANCH  26  27
ENDBRANCH  25  26
ENDBRANCH  23  25
ENDBRANCH  13  23
TORSDOF 6
ENDMDL
MODEL 3
REMARK minimizedAffinity -9.06822586
REMARK  6 active torsions:
REMARK  status: ('A' for Active; 'I' for Inactive)
REMARK    1  A    between atoms: C12_13  and  C13_14 
REMARK    2  A    between atoms: C13_14  and  C15_16 
REMARK    3  A    between atoms: C15_16  and  C16_17 
REMARK    4  A    between atoms: C16_17  and  C17_18 
REMARK    5  A    between atoms: C18_19  and  C20_21 
REMARK    6  A    between atoms: C20_21  and  O3_23 
ROOT
HETATM    1  C1  UNL     1      -8.650   5.098  12.508  1.00  0.00     0.052 C 
HETATM    2  C2  UNL     1      -7.912   5.790  13.619  1.00  0.00    -0.013 C 
HETATM    3  C3  UNL     1      -6.690   5.457  14.092  1.00  0.00    -0.066 C 
HETATM    4  C4  UNL     1      -5.829   4.353  13.527  1.00  0.00     0.036 C 
HETATM    5  C5  UNL     1      -4.548   4.957  12.938  1.00  0.00     0.010 C 
HETATM    6  C6  UNL     1      -3.790   5.827  13.972  1.00  0.00     0.007 C 
HETATM    7  C7  UNL     1      -4.755   6.907  14.560  1.00  0.00     0.068 C 
HETATM    8  C8  UNL     1      -3.999   7.818  15.507  1.00  0.00     0.133 C 
HETATM    9  O1  UNL     1      -4.503   8.849  15.955  1.00  0.00    -0.298 OA
HETATM   10  C9  UNL     1      -2.600   7.420  15.884  1.00  0.00     0.089 C 
HETATM   11  C10 UNL     1      -1.658   7.152  14.667  1.00  0.00    -0.026 C 
HETATM   12  C11 UNL     1      -0.536   6.274  15.268  1.00  0.00     0.016 C 
HETATM   13  C12 UNL     1      -1.172   8.536  14.056  1.00  0.00    -0.002 C 
HETATM   14  C21 UNL     1      -2.301   8.869  13.071  1.00  0.00     0.006 C 
HETATM   15  C22 UNL     1      -2.636   7.551  12.398  1.00  0.00     0.011 C 
HETATM   16  C23 UNL     1      -2.431   6.436  13.461  1.00  0.00    -0.032 C 
HETATM   17  C24 UNL     1      -1.592   5.323  12.787  1.00  0.00     0.016 C 
HETATM   18  C25 UNL     1      -5.973   6.206  15.213  1.00  0.00     0.027 C 
HETATM   19  C26 UNL     1      -6.955   7.081  16.002  1.00  0.00     0.018 C 
HETATM   20  C27 UNL     1      -7.831   7.916  15.093  1.00  0.00     0.084 C 
HETATM   21  C28 UNL     1      -8.606   7.007  14.170  1.00  0.00     0.155 C 
HETATM   22  O4  UNL     1      -9.757   7.280  13.829  1.00  0.00    -0.293 OA
ENDROOT
BRANCH  13  23
HETATM   23  C13 UNL     1       0.276   8.547  13.437  1.00  0.00    -0.014 C 
HETATM   24  C14 UNL     1       1.049   9.761  13.982  1.00  0.00     0.010 C 
BRANCH  23  25
HETATM   25  C15 UNL     1       0.310   8.546  11.885  1.00  0.00     0.008 C 
BRANCH  25  26
HETATM   26  C16 UNL     1       0.889   7.280  11.224  1.00  0.00     0.028 C 
BRANCH  26  27
HETATM   27  C17 UNL     1       1.682   7.554   9.975  1.00  0.00    -0.013 C 
HETATM   28  C18 UNL     1       1.231   8.061   8.809  1.00  0.00     0.008 C 
HETATM   29  C19 UNL     1      -0.174   8.498   8.527  1.00  0.00     0.055 C 
BRANCH  28  30
HETATM   30  C20 UNL     1       2.232   8.211   7.719  1.00  0.00     0.171 C 
HETATM   31  O2  UNL     1       3.123   9.040   7.654  1.00  0.00    -0.646 OA
BRANCH  30  32
HETATM   32  O3  UNL     1       2.074   7.292   6.752  1.00  0.00    -0.773 OA
HETATM   33  H28 UNL     1       2.787   7.513   6.115  1.00  0.00     0.167 HD
ENDBRANCH  30  32
ENDBRANCH  28  30
ENDBRANCH  26  27
ENDBRANCH  25  26
ENDBRANCH  23  25
ENDBRANCH  13  23
TORSDOF 6
ENDMDL
MODEL 4
REMARK minimizedAffinity -8.84895802
REMARK  6 active torsions:
REMARK  status: ('A' for Active; 'I' for Inactive)
REMARK    1  A    between atoms: C12_13  and  C13_14 
REMARK    2  A    between atoms: C13_14  and  C15_16 
REMARK    3  A    between atoms: C15_16  and  C16_17 
REMARK    4  A    between atoms: C16_17  and  C17_18 
REMARK    5  A    between atoms: C18_19  and  C20_21 
REMARK    6  A    between atoms: C20_21  and  O3_23 
ROOT
HETATM    1  C1  UNL     1       6.993   6.620  11.469  1.00  0.00     0.052 C 
HETATM    2  C2  UNL     1       6.055   7.435  12.313  1.00  0.00    -0.013 C 
HETATM    3  C3  UNL     1       4.905   8.013  11.897  1.00  0.00    -0.066 C 
HETATM    4  C4  UNL     1       4.339   7.877  10.504  1.00  0.00     0.036 C 
HETATM    5  C5  UNL     1       2.998   7.134  10.569  1.00  0.00     0.010 C 
HETATM    6  C6  UNL     1       2.007   7.816  11.546  1.00  0.00     0.007 C 
HETATM    7  C7  UNL     1       2.678   7.980  12.948  1.00  0.00     0.068 C 
HETATM    8  C8  UNL     1       1.686   8.565  13.934  1.00  0.00     0.133 C 
HETATM    9  O1  UNL     1       1.928   8.622  15.140  1.00  0.00    -0.298 OA
HETATM   10  C9  UNL     1       0.384   9.078  13.385  1.00  0.00     0.089 C 
HETATM   11  C10 UNL     1      -0.399   8.042  12.516  1.00  0.00    -0.026 C 
HETATM   12  C11 UNL     1      -1.342   8.926  11.668  1.00  0.00     0.016 C 
HETATM   13  C12 UNL     1      -1.132   6.998  13.465  1.00  0.00    -0.002 C 
HETATM   14  C21 UNL     1      -0.041   5.942  13.686  1.00  0.00     0.006 C 
HETATM   15  C22 UNL     1       0.611   5.761  12.329  1.00  0.00     0.011 C 
HETATM   16  C23 UNL     1       0.584   7.147  11.625  1.00  0.00    -0.032 C 
HETATM   17  C24 UNL     1       0.048   6.911  10.191  1.00  0.00     0.016 C 
HETATM   18  C25 UNL     1       3.974   8.817  12.803  1.00  0.00     0.027 C 
HETATM   19  C26 UNL     1       4.693   9.239  14.089  1.00  0.00     0.018 C 
HETATM   20  C27 UNL     1       5.426   8.085  14.738  1.00  0.00     0.084 C 
HETATM   21  C28 UNL     1       6.435   7.521  13.767  1.00  0.00     0.155 C 
HETATM   22  O4  UNL     1       7.520   7.089  14.158  1.00  0.00    -0.293 OA
ENDROOT
BRANCH  13  23
HETATM   23  C13 UNL     1      -2.506   6.436  12.941  1.00  0.00    -0.014 C 
HETATM   24  C14 UNL     1      -3.653   7.281  13.523  1.00  0.00     0.010 C 
BRANCH  23  25
HETATM   25  C15 UNL     1      -2.742   4.933  13.248  1.00  0.00     0.008 C 
BRANCH  25  26
HETATM   26  C16 UNL     1      -3.697   4.191  12.292  1.00  0.00     0.028 C 
BRANCH  26  27
HETATM   27  C17 UNL     1      -5.096   4.038  12.827  1.00  0.00    -0.013 C 
HETATM   28  C18 UNL     1      -6.027   3.138  12.447  1.00  0.00     0.008 C 
HETATM   29  C19 UNL     1      -5.841   2.063  11.420  1.00  0.00     0.055 C 
BRANCH  28  30
HETATM   30  C20 UNL     1      -7.346   3.222  13.129  1.00  0.00     0.171 C 
HETATM   31  O2  UNL     1      -8.375   2.656  12.802  1.00  0.00    -0.646 OA
BRANCH  30  32
HETATM   32  O3  UNL     1      -7.311   4.016  14.212  1.00  0.00    -0.773 OA
HETATM   33  H28 UNL     1      -8.232   3.977  14.548  1.00  0.00     0.167 HD
ENDBRANCH  30  32
ENDBRANCH  28  30
ENDBRANCH  26  27
ENDBRANCH  25  26
ENDBRANCH  23  25
ENDBRANCH  13  23
TORSDOF 6
ENDMDL
MODEL 5
REMARK minimizedAffinity -8.72466278
REMARK  6 active torsions:
REMARK  status: ('A' for Active; 'I' for Inactive)
REMARK    1  A    between atoms: C12_13  and  C13_14 
REMARK    2  A    between atoms: C13_14  and  C15_16 
REMARK    3  A    between atoms: C15_16  and  C16_17 
REMARK    4  A    between atoms: C16_17  and  C17_18 
REMARK    5  A    between atoms: C18_19  and  C20_21 
REMARK    6  A    between atoms: C20_21  and  O3_23 
ROOT
HETATM    1  C1  UNL     1       5.938   9.795  12.636  1.00  0.00     0.052 C 
HETATM    2  C2  UNL     1       4.989   8.840  11.970  1.00  0.00    -0.013 C 
HETATM    3  C3  UNL     1       4.172   7.962  12.596  1.00  0.00    -0.066 C 
HETATM    4  C4  UNL     1       4.037   7.843  14.094  1.00  0.00     0.036 C 
HETATM    5  C5  UNL     1       2.611   8.229  14.510  1.00  0.00     0.010 C 
HETATM    6  C6  UNL     1       1.544   7.400  13.752  1.00  0.00     0.007 C 
HETATM    7  C7  UNL     1       1.780   7.518  12.211  1.00  0.00     0.068 C 
HETATM    8  C8  UNL     1       0.688   6.782  11.460  1.00  0.00     0.133 C 
HETATM    9  O1  UNL     1       0.561   6.882  10.239  1.00  0.00    -0.298 OA
HETATM   10  C9  UNL     1      -0.244   5.918  12.262  1.00  0.00     0.089 C 
HETATM   11  C10 UNL     1      -0.934   6.654  13.456  1.00  0.00    -0.026 C 
HETATM   12  C11 UNL     1      -1.362   5.499  14.390  1.00  0.00     0.016 C 
HETATM   13  C12 UNL     1      -2.126   7.552  12.909  1.00  0.00    -0.002 C 
HETATM   14  C21 UNL     1      -1.408   8.862  12.556  1.00  0.00     0.006 C 
HETATM   15  C22 UNL     1      -0.433   9.094  13.694  1.00  0.00     0.011 C 
HETATM   16  C23 UNL     1       0.054   7.695  14.165  1.00  0.00    -0.032 C 
HETATM   17  C24 UNL     1      -0.063   7.677  15.710  1.00  0.00     0.016 C 
HETATM   18  C25 UNL     1       3.209   7.024  11.871  1.00  0.00     0.027 C 
HETATM   19  C26 UNL     1       3.580   6.896  10.389  1.00  0.00     0.018 C 
HETATM   20  C27 UNL     1       3.814   8.244   9.742  1.00  0.00     0.084 C 
HETATM   21  C28 UNL     1       4.923   8.965  10.471  1.00  0.00     0.155 C 
HETATM   22  O4  UNL     1       5.718   9.684   9.867  1.00  0.00    -0.293 OA
ENDROOT
BRANCH  13  23
HETATM   23  C13 UNL     1      -3.366   7.710  13.867  1.00  0.00    -0.014 C 
HETATM   24  C14 UNL     1      -3.369   6.556  14.885  1.00  0.00     0.010 C 
BRANCH  23  25
HETATM   25  C15 UNL     1      -4.734   7.782  13.137  1.00  0.00     0.008 C 
BRANCH  25  26
HETATM   26  C16 UNL     1      -5.925   7.136  13.873  1.00  0.00     0.028 C 
BRANCH  26  27
HETATM   27  C17 UNL     1      -6.233   5.734  13.420  1.00  0.00    -0.013 C 
HETATM   28  C18 UNL     1      -7.432   5.229  13.065  1.00  0.00     0.008 C 
HETATM   29  C19 UNL     1      -8.723   5.988  13.013  1.00  0.00     0.055 C 
BRANCH  28  30
HETATM   30  C20 UNL     1      -7.459   3.794  12.677  1.00  0.00     0.171 C 
HETATM   31  O2  UNL     1      -6.624   3.199  12.017  1.00  0.00    -0.646 OA
BRANCH  30  32
HETATM   32  O3  UNL     1      -8.543   3.157  13.150  1.00  0.00    -0.773 OA
HETATM   33  H28 UNL     1      -8.427   2.242  12.818  1.00  0.00     0.167 HD
ENDBRANCH  30  32
ENDBRANCH  28  30
ENDBRANCH  26  27
ENDBRANCH  25  26
ENDBRANCH  23  25
ENDBRANCH  13  23
TORSDOF 6
ENDMDL
MODEL 6
REMARK minimizedAffinity -8.68186474
REMARK  6 active torsions:
REMARK  status: ('A' for Active; 'I' for Inactive)
REMARK    1  A    between atoms: C12_13  and  C13_14 
REMARK    2  A    between atoms: C13_14  and  C15_16 
REMARK    3  A    between atoms: C15_16  and  C16_17 
REMARK    4  A    between atoms: C16_17  and  C17_18 
REMARK    5  A    between atoms: C18_19  and  C20_21 
REMARK    6  A    between atoms: C20_21  and  O3_23 
ROOT
HETATM    1  C1  UNL     1       1.966   6.366   6.789  1.00  0.00     0.052 C 
HETATM    2  C2  UNL     1       2.420   6.569   8.207  1.00  0.00    -0.013 C 
HETATM    3  C3  UNL     1       1.980   7.526   9.054  1.00  0.00    -0.066 C 
HETATM    4  C4  UNL     1       0.896   8.525   8.725  1.00  0.00     0.036 C 
HETATM    5  C5  UNL     1      -0.309   8.290   9.644  1.00  0.00     0.010 C 
HETATM    6  C6  UNL     1       0.090   8.324  11.141  1.00  0.00     0.007 C 
HETATM    7  C7  UNL     1       1.256   7.314  11.399  1.00  0.00     0.068 C 
HETATM    8  C8  UNL     1       1.593   7.276  12.876  1.00  0.00     0.133 C 
HETATM    9  O1  UNL     1       2.354   6.429  13.346  1.00  0.00    -0.298 OA
HETATM   10  C9  UNL     1       0.961   8.316  13.759  1.00  0.00     0.089 C 
HETATM   11  C10 UNL     1      -0.596   8.387  13.653  1.00  0.00    -0.026 C 
HETATM   12  C11 UNL     1      -0.927   9.802  14.182  1.00  0.00     0.016 C 
HETATM   13  C12 UNL     1      -1.241   7.194  14.481  1.00  0.00    -0.002 C 
HETATM   14  C21 UNL     1      -1.254   6.056  13.451  1.00  0.00     0.006 C 
HETATM   15  C22 UNL     1      -1.685   6.708  12.151  1.00  0.00     0.011 C 
HETATM   16  C23 UNL     1      -1.103   8.149  12.153  1.00  0.00    -0.032 C 
HETATM   17  C24 UNL     1      -2.259   9.099  11.752  1.00  0.00     0.016 C 
HETATM   18  C25 UNL     1       2.461   7.679  10.496  1.00  0.00     0.027 C 
HETATM   19  C26 UNL     1       3.771   6.915  10.720  1.00  0.00     0.018 C 
HETATM   20  C27 UNL     1       3.705   5.502  10.183  1.00  0.00     0.084 C 
HETATM   21  C28 UNL     1       3.399   5.540   8.705  1.00  0.00     0.155 C 
HETATM   22  O4  UNL     1       3.889   4.716   7.933  1.00  0.00    -0.293 OA
ENDROOT
BRANCH  13  23
HETATM   23  C13 UNL     1      -2.631   7.495  15.157  1.00  0.00    -0.014 C 
HETATM   24  C14 UNL     1      -2.399   7.951  16.609  1.00  0.00     0.010 C 
BRANCH  23  25
HETATM   25  C15 UNL     1      -3.630   6.308  15.125  1.00  0.00     0.008 C 
BRANCH  25  26
HETATM   26  C16 UNL     1      -4.542   6.227  13.885  1.00  0.00     0.028 C 
BRANCH  26  27
HETATM   27  C17 UNL     1      -5.808   5.445  14.109  1.00  0.00    -0.013 C 
HETATM   28  C18 UNL     1      -6.292   4.430  13.363  1.00  0.00     0.008 C 
HETATM   29  C19 UNL     1      -5.633   3.840  12.153  1.00  0.00     0.055 C 
BRANCH  28  30
HETATM   30  C20 UNL     1      -7.586   3.844  13.800  1.00  0.00     0.171 C 
HETATM   31  O2  UNL     1      -8.383   3.232  13.109  1.00  0.00    -0.646 OA
BRANCH  30  32
HETATM   32  O3  UNL     1      -7.821   4.044  15.107  1.00  0.00    -0.773 OA
HETATM   33  H28 UNL     1      -8.692   3.614  15.247  1.00  0.00     0.167 HD
ENDBRANCH  30  32
ENDBRANCH  28  30
ENDBRANCH  26  27
ENDBRANCH  25  26
ENDBRANCH  23  25
ENDBRANCH  13  23
TORSDOF 6
ENDMDL
MODEL 7
REMARK minimizedAffinity -8.68142319
REMARK  6 active torsions:
REMARK  status: ('A' for Active; 'I' for Inactive)
REMARK    1  A    between atoms: C12_13  and  C13_14 
REMARK    2  A    between atoms: C13_14  and  C15_16 
REMARK    3  A    between atoms: C15_16  and  C16_17 
REMARK    4  A    between atoms: C16_17  and  C17_18 
REMARK    5  A    between atoms: C18_19  and  C20_21 
REMARK    6  A    between atoms: C20_21  and  O3_23 
ROOT
HETATM    1  C1  UNL     1      -7.879   8.061  15.724  1.00  0.00     0.052 C 
HETATM    2  C2  UNL     1      -7.240   6.989  14.888  1.00  0.00    -0.013 C 
HETATM    3  C3  UNL     1      -6.324   7.180  13.912  1.00  0.00    -0.066 C 
HETATM    4  C4  UNL     1      -5.740   8.521  13.541  1.00  0.00     0.036 C 
HETATM    5  C5  UNL     1      -4.236   8.523  13.841  1.00  0.00     0.010 C 
HETATM    6  C6  UNL     1      -3.505   7.347  13.144  1.00  0.00     0.007 C 
HETATM    7  C7  UNL     1      -4.199   5.998  13.521  1.00  0.00     0.068 C 
HETATM    8  C8  UNL     1      -3.438   4.835  12.915  1.00  0.00     0.133 C 
HETATM    9  O1  UNL     1      -3.689   3.668  13.217  1.00  0.00    -0.298 OA
HETATM   10  C9  UNL     1      -2.357   5.157  11.921  1.00  0.00     0.089 C 
HETATM   11  C10 UNL     1      -1.290   6.173  12.441  1.00  0.00    -0.026 C 
HETATM   12  C11 UNL     1      -0.663   6.731  11.142  1.00  0.00     0.016 C 
HETATM   13  C12 UNL     1      -0.273   5.429  13.409  1.00  0.00    -0.002 C 
HETATM   14  C21 UNL     1      -0.985   5.530  14.765  1.00  0.00     0.006 C 
HETATM   15  C22 UNL     1      -1.546   6.938  14.810  1.00  0.00     0.011 C 
HETATM   16  C23 UNL     1      -1.946   7.312  13.354  1.00  0.00    -0.032 C 
HETATM   17  C24 UNL     1      -1.359   8.718  13.076  1.00  0.00     0.016 C 
HETATM   18  C25 UNL     1      -5.689   6.050  13.102  1.00  0.00     0.027 C 
HETATM   19  C26 UNL     1      -6.507   4.760  13.228  1.00  0.00     0.018 C 
HETATM   20  C27 UNL     1      -6.849   4.440  14.667  1.00  0.00     0.084 C 
HETATM   21  C28 UNL     1      -7.633   5.585  15.263  1.00  0.00     0.155 C 
HETATM   22  O4  UNL     1      -8.532   5.382  16.079  1.00  0.00    -0.293 OA
ENDROOT
BRANCH  13  23
HETATM   23  C13 UNL     1       1.209   5.960  13.395  1.00  0.00    -0.014 C 
HETATM   24  C14 UNL     1       1.410   6.928  14.575  1.00  0.00     0.010 C 
BRANCH  23  25
HETATM   25  C15 UNL     1       1.634   6.642  12.067  1.00  0.00     0.008 C 
BRANCH  25  26
HETATM   26  C16 UNL     1       2.385   5.750  11.061  1.00  0.00     0.028 C 
BRANCH  26  27
HETATM   27  C17 UNL     1       2.229   6.182   9.628  1.00  0.00    -0.013 C 
HETATM   28  C18 UNL     1       2.898   7.163   8.987  1.00  0.00     0.008 C 
HETATM   29  C19 UNL     1       3.982   8.014   9.575  1.00  0.00     0.055 C 
BRANCH  28  30
HETATM   30  C20 UNL     1       2.530   7.398   7.566  1.00  0.00     0.171 C 
HETATM   31  O2  UNL     1       2.134   6.568   6.766  1.00  0.00    -0.646 OA
BRANCH  30  32
HETATM   32  O3  UNL     1       2.666   8.687   7.210  1.00  0.00    -0.773 OA
HETATM   33  H28 UNL     1       2.396   8.688   6.268  1.00  0.00     0.167 HD
ENDBRANCH  30  32
ENDBRANCH  28  30
ENDBRANCH  26  27
ENDBRANCH  25  26
ENDBRANCH  23  25
ENDBRANCH  13  23
TORSDOF 6
ENDMDL
MODEL 8
REMARK minimizedAffinity -8.54497433
REMARK  6 active torsions:
REMARK  status: ('A' for Active; 'I' for Inactive)
REMARK    1  A    between atoms: C12_13  and  C13_14 
REMARK    2  A    between atoms: C13_14  and  C15_16 
REMARK    3  A    between atoms: C15_16  and  C16_17 
REMARK    4  A    between atoms: C16_17  and  C17_18 
REMARK    5  A    between atoms: C18_19  and  C20_21 
REMARK    6  A    between atoms: C20_21  and  O3_23 
ROOT
HETATM    1  C1  UNL     1      -7.729   4.730  12.179  1.00  0.00     0.052 C 
HETATM    2  C2  UNL     1      -6.939   5.376  13.282  1.00  0.00    -0.013 C 
HETATM    3  C3  UNL     1      -5.666   5.081  13.628  1.00  0.00    -0.066 C 
HETATM    4  C4  UNL     1      -4.796   4.079  12.907  1.00  0.00     0.036 C 
HETATM    5  C5  UNL     1      -3.604   4.805  12.271  1.00  0.00     0.010 C 
HETATM    6  C6  UNL     1      -2.810   5.635  13.311  1.00  0.00     0.007 C 
HETATM    7  C7  UNL     1      -3.780   6.605  14.062  1.00  0.00     0.068 C 
HETATM    8  C8  UNL     1      -2.998   7.483  15.019  1.00  0.00     0.133 C 
HETATM    9  O1  UNL     1      -3.519   8.443  15.590  1.00  0.00    -0.298 OA
HETATM   10  C9  UNL     1      -1.553   7.142  15.251  1.00  0.00     0.089 C 
HETATM   11  C10 UNL     1      -0.703   7.028  13.945  1.00  0.00    -0.026 C 
HETATM   12  C11 UNL     1       0.511   6.176  14.380  1.00  0.00     0.016 C 
HETATM   13  C12 UNL     1      -0.345   8.484  13.415  1.00  0.00    -0.002 C 
HETATM   14  C21 UNL     1      -1.569   8.824  12.553  1.00  0.00     0.006 C 
HETATM   15  C22 UNL     1      -1.886   7.545  11.801  1.00  0.00     0.011 C 
HETATM   16  C23 UNL     1      -1.533   6.364  12.748  1.00  0.00    -0.032 C 
HETATM   17  C24 UNL     1      -0.694   5.360  11.919  1.00  0.00     0.016 C 
HETATM   18  C25 UNL     1      -4.900   5.782  14.748  1.00  0.00     0.027 C 
HETATM   19  C26 UNL     1      -5.858   6.531  15.682  1.00  0.00     0.018 C 
HETATM   20  C27 UNL     1      -6.851   7.380  14.917  1.00  0.00     0.084 C 
HETATM   21  C28 UNL     1      -7.650   6.501  13.986  1.00  0.00     0.155 C 
HETATM   22  O4  UNL     1      -8.839   6.730  13.760  1.00  0.00    -0.293 OA
ENDROOT
BRANCH  13  23
HETATM   23  C13 UNL     1       1.043   8.631  12.688  1.00  0.00    -0.014 C 
HETATM   24  C14 UNL     1       0.821   8.603  11.165  1.00  0.00     0.010 C 
BRANCH  23  25
HETATM   25  C15 UNL     1       2.096   7.565  13.092  1.00  0.00     0.008 C 
BRANCH  25  26
HETATM   26  C16 UNL     1       3.560   8.047  13.139  1.00  0.00     0.028 C 
BRANCH  26  27
HETATM   27  C17 UNL     1       4.442   7.418  12.095  1.00  0.00    -0.013 C 
HETATM   28  C18 UNL     1       5.723   7.018  12.233  1.00  0.00     0.008 C 
HETATM   29  C19 UNL     1       6.533   7.087  13.492  1.00  0.00     0.055 C 
BRANCH  28  30
HETATM   30  C20 UNL     1       6.372   6.443  11.025  1.00  0.00     0.171 C 
HETATM   31  O2  UNL     1       6.235   5.313  10.588  1.00  0.00    -0.646 OA
BRANCH  30  32
HETATM   32  O3  UNL     1       7.167   7.330  10.403  1.00  0.00    -0.773 OA
HETATM   33  H28 UNL     1       7.521   6.819   9.644  1.00  0.00     0.167 HD
ENDBRANCH  30  32
ENDBRANCH  28  30
ENDBRANCH  26  27
ENDBRANCH  25  26
ENDBRANCH  23  25
ENDBRANCH  13  23
TORSDOF 6
ENDMDL
MODEL 9
REMARK minimizedAffinity -8.52997112
REMARK  6 active torsions:
REMARK  status: ('A' for Active; 'I' for Inactive)
REMARK    1  A    between atoms: C12_13  and  C13_14 
REMARK    2  A    between atoms: C13_14  and  C15_16 
REMARK    3  A    between atoms: C15_16  and  C16_17 
REMARK    4  A    between atoms: C16_17  and  C17_18 
REMARK    5  A    between atoms: C18_19  and  C20_21 
REMARK    6  A    between atoms: C20_21  and  O3_23 
ROOT
HETATM    1  C1  UNL     1      -6.082   3.398  11.653  1.00  0.00     0.052 C 
HETATM    2  C2  UNL     1      -5.503   4.384  12.629  1.00  0.00    -0.013 C 
HETATM    3  C3  UNL     1      -4.242   4.377  13.115  1.00  0.00    -0.066 C 
HETATM    4  C4  UNL     1      -3.174   3.393  12.702  1.00  0.00     0.036 C 
HETATM    5  C5  UNL     1      -2.037   4.142  11.995  1.00  0.00     0.010 C 
HETATM    6  C6  UNL     1      -1.474   5.293  12.867  1.00  0.00     0.007 C 
HETATM    7  C7  UNL     1      -2.639   6.236  13.311  1.00  0.00     0.068 C 
HETATM    8  C8  UNL     1      -2.087   7.414  14.090  1.00  0.00     0.133 C 
HETATM    9  O1  UNL     1      -2.790   8.380  14.390  1.00  0.00    -0.298 OA
HETATM   10  C9  UNL     1      -0.638   7.364  14.488  1.00  0.00     0.089 C 
HETATM   11  C10 UNL     1       0.345   7.106  13.301  1.00  0.00    -0.026 C 
HETATM   12  C11 UNL     1       1.617   6.571  13.999  1.00  0.00     0.016 C 
HETATM   13  C12 UNL     1       0.547   8.450  12.476  1.00  0.00    -0.002 C 
HETATM   14  C21 UNL     1      -0.620   8.397  11.481  1.00  0.00     0.006 C 
HETATM   15  C22 UNL     1      -0.680   6.952  11.023  1.00  0.00     0.011 C 
HETATM   16  C23 UNL     1      -0.262   6.076  12.237  1.00  0.00    -0.032 C 
HETATM   17  C24 UNL     1       0.787   5.062  11.716  1.00  0.00     0.016 C 
HETATM   18  C25 UNL     1      -3.696   5.416  14.092  1.00  0.00     0.027 C 
HETATM   19  C26 UNL     1      -4.837   6.188  14.765  1.00  0.00     0.018 C 
HETATM   20  C27 UNL     1      -5.858   6.683  13.763  1.00  0.00     0.084 C 
HETATM   21  C28 UNL     1      -6.430   5.508  13.007  1.00  0.00     0.155 C 
HETATM   22  O4  UNL     1      -7.611   5.491  12.658  1.00  0.00    -0.293 OA
ENDROOT
BRANCH  13  23
HETATM   23  C13 UNL     1       1.967   8.654  11.827  1.00  0.00    -0.014 C 
HETATM   24  C14 UNL     1       1.944   8.118  10.384  1.00  0.00     0.010 C 
BRANCH  23  25
HETATM   25  C15 UNL     1       3.134   8.005  12.618  1.00  0.00     0.008 C 
BRANCH  25  26
HETATM   26  C16 UNL     1       4.123   7.161  11.790  1.00  0.00     0.028 C 
BRANCH  26  27
HETATM   27  C17 UNL     1       5.553   7.277  12.246  1.00  0.00    -0.013 C 
HETATM   28  C18 UNL     1       6.000   7.545  13.491  1.00  0.00     0.008 C 
HETATM   29  C19 UNL     1       5.145   7.748  14.705  1.00  0.00     0.055 C 
BRANCH  28  30
HETATM   30  C20 UNL     1       7.474   7.624  13.663  1.00  0.00     0.171 C 
HETATM   31  O2  UNL     1       8.292   7.950  12.819  1.00  0.00    -0.646 OA
BRANCH  30  32
HETATM   32  O3  UNL     1       7.861   7.298  14.907  1.00  0.00    -0.773 OA
HETATM   33  H28 UNL     1       8.837   7.391  14.870  1.00  0.00     0.167 HD
ENDBRANCH  30  32
ENDBRANCH  28  30
ENDBRANCH  26  27
ENDBRANCH  25  26
ENDBRANCH  23  25
ENDBRANCH  13  23
TORSDOF 6
ENDMDL
