MODEL 1
REMARK minimizedAffinity -7.67046022
REMARK CNNscore 0.417273641
REMARK CNNaffinity 5.70317268
REMARK  6 active torsions:
REMARK  status: ('A' for Active; 'I' for Inactive)
REMARK    1  A    between atoms: C2_2  and  N1_3 
REMARK    2  A    between atoms: N1_3  and  C3_4 
REMARK    3  A    between atoms: N1_3  and  C22_25 
REMARK    4  A    between atoms: C3_4  and  C4_5 
REMARK    5  A    between atoms: C5_6  and  C6_7 
REMARK    6  A    between atoms: C9_11  and  C10_12 
ROOT
HETATM    1  C6  UNL     1       6.257  66.886 -37.705  1.00  0.00    -0.033 C 
HETATM    2  C7  UNL     1       5.066  66.412 -37.179  1.00  0.00     0.036 C 
HETATM    3  C8  UNL     1       3.859  66.603 -37.869  1.00  0.00     0.043 C 
HETATM    4 CL1  UNL     1       2.445  66.127 -36.967  1.00  0.00    -0.084 Cl
HETATM    5  C9  UNL     1       3.788  67.222 -39.154  1.00  0.00    -0.010 C 
HETATM    6  C20 UNL     1       5.002  67.784 -39.604  1.00  0.00     0.043 C 
HETATM    7 CL2  UNL     1       5.175  68.873 -40.934  1.00  0.00    -0.084 Cl
HETATM    8  C21 UNL     1       6.212  67.580 -38.910  1.00  0.00     0.036 C 
ENDROOT
BRANCH   1   9
HETATM    9  C5  UNL     1       7.513  66.667 -36.986  1.00  0.00     0.009 C 
HETATM   10  C4  UNL     1       7.866  65.538 -36.350  1.00  0.00    -0.007 C 
BRANCH  10  11
HETATM   11  C3  UNL     1       7.109  64.238 -36.285  1.00  0.00     0.144 C 
BRANCH  11  12
HETATM   12  N1  UNL     1       7.365  63.488 -35.048  1.00  0.00    -0.405 N 
BRANCH  12  13
HETATM   13  C2  UNL     1       8.697  63.773 -34.502  1.00  0.00     0.113 C 
HETATM   14  C1  UNL     1       9.491  62.585 -33.974  1.00  0.00     0.026 C 
ENDBRANCH  12  13
BRANCH  12  15
HETATM   15  C22 UNL     1       6.227  63.387 -34.108  1.00  0.00     0.079 C 
HETATM   16  C23 UNL     1       5.098  62.408 -34.481  1.00  0.00     0.025 C 
HETATM   17  C24 UNL     1       4.096  62.200 -33.336  1.00  0.00     0.002 C 
HETATM   18  C25 UNL     1       4.147  63.278 -32.257  1.00  0.00     0.000 C 
HETATM   19  C26 UNL     1       4.358  64.659 -32.855  1.00  0.00     0.002 C 
HETATM   20  C27 UNL     1       5.623  64.757 -33.717  1.00  0.00     0.025 C 
ENDBRANCH  12  15
ENDBRANCH  11  12
ENDBRANCH  10  11
ENDBRANCH   1   9
BRANCH   5  21
HETATM   21  C10 UNL     1       2.422  67.253 -39.871  1.00  0.00     0.030 C 
HETATM   22  C11 UNL     1       1.053  67.156 -39.124  1.00  0.00    -0.005 C 
HETATM   23  C12 UNL     1       0.614  68.494 -38.483  1.00  0.00     0.010 C 
HETATM   24  C16 UNL     1      -0.032  66.782 -40.171  1.00  0.00     0.010 C 
HETATM   25  C13 UNL     1       0.504  69.596 -39.539  1.00  0.00    -0.013 C 
HETATM   26  C14 UNL     1      -0.548  69.200 -40.582  1.00  0.00     0.009 C 
HETATM   27  C19 UNL     1       1.877  69.751 -40.201  1.00  0.00     0.010 C 
HETATM   28  C15 UNL     1      -0.146  67.875 -41.247  1.00  0.00    -0.013 C 
HETATM   29  C17 UNL     1       1.214  68.066 -41.936  1.00  0.00     0.010 C 
HETATM   30  C18 UNL     1       2.289  68.441 -40.895  1.00  0.00    -0.005 C 
ENDBRANCH   5  21
TORSDOF 6
ENDMDL
MODEL 2
REMARK minimizedAffinity -8.00397682
REMARK CNNscore 0.347238392
REMARK CNNaffinity 6.26010942
REMARK  6 active torsions:
REMARK  status: ('A' for Active; 'I' for Inactive)
REMARK    1  A    between atoms: C2_2  and  N1_3 
REMARK    2  A    between atoms: N1_3  and  C3_4 
REMARK    3  A    between atoms: N1_3  and  C22_25 
REMARK    4  A    between atoms: C3_4  and  C4_5 
REMARK    5  A    between atoms: C5_6  and  C6_7 
REMARK    6  A    between atoms: C9_11  and  C10_12 
ROOT
HETATM    1  C6  UNL     1       0.801  51.570 -16.949  1.00  0.00    -0.033 C 
HETATM    2  C7  UNL     1       0.854  52.547 -17.931  1.00  0.00     0.036 C 
HETATM    3  C8  UNL     1       0.219  52.347 -19.166  1.00  0.00     0.043 C 
HETATM    4 CL1  UNL     1       0.561  53.583 -20.347  1.00  0.00    -0.084 Cl
HETATM    5  C9  UNL     1      -0.559  51.185 -19.461  1.00  0.00    -0.010 C 
HETATM    6  C20 UNL     1      -0.498  50.173 -18.480  1.00  0.00     0.043 C 
HETATM    7 CL2  UNL     1      -1.041  48.545 -18.680  1.00  0.00    -0.084 Cl
HETATM    8  C21 UNL     1       0.134  50.384 -17.238  1.00  0.00     0.036 C 
ENDROOT
BRANCH   1   9
HETATM    9  C5  UNL     1       1.453  51.795 -15.658  1.00  0.00     0.009 C 
HETATM   10  C4  UNL     1       0.830  51.895 -14.472  1.00  0.00    -0.007 C 
BRANCH  10  11
HETATM   11  C3  UNL     1      -0.639  51.732 -14.182  1.00  0.00     0.144 C 
BRANCH  11  12
HETATM   12  N1  UNL     1      -0.912  51.414 -12.773  1.00  0.00    -0.405 N 
BRANCH  12  13
HETATM   13  C2  UNL     1       0.304  51.013 -12.058  1.00  0.00     0.113 C 
HETATM   14  C1  UNL     1       0.503  49.521 -11.826  1.00  0.00     0.026 C 
ENDBRANCH  12  13
BRANCH  12  15
HETATM   15  C22 UNL     1      -1.870  52.307 -12.085  1.00  0.00     0.079 C 
HETATM   16  C23 UNL     1      -1.358  53.056 -10.841  1.00  0.00     0.025 C 
HETATM   17  C24 UNL     1      -2.342  54.128 -10.351  1.00  0.00     0.002 C 
HETATM   18  C25 UNL     1      -3.763  53.963 -10.885  1.00  0.00     0.000 C 
HETATM   19  C26 UNL     1      -4.176  52.500 -10.933  1.00  0.00     0.002 C 
HETATM   20  C27 UNL     1      -3.227  51.632 -11.767  1.00  0.00     0.025 C 
ENDBRANCH  12  15
ENDBRANCH  11  12
ENDBRANCH  10  11
ENDBRANCH   1   9
BRANCH   5  21
HETATM   21  C10 UNL     1      -1.319  51.142 -20.803  1.00  0.00     0.030 C 
HETATM   22  C11 UNL     1      -0.999  50.123 -21.944  1.00  0.00    -0.005 C 
HETATM   23  C12 UNL     1      -1.599  48.720 -21.693  1.00  0.00     0.010 C 
HETATM   24  C16 UNL     1      -1.641  50.660 -23.253  1.00  0.00     0.010 C 
HETATM   25  C13 UNL     1      -3.120  48.797 -21.536  1.00  0.00    -0.013 C 
HETATM   26  C14 UNL     1      -3.738  49.357 -22.823  1.00  0.00     0.009 C 
HETATM   27  C19 UNL     1      -3.423  49.723 -20.354  1.00  0.00     0.010 C 
HETATM   28  C15 UNL     1      -3.169  50.755 -23.106  1.00  0.00    -0.013 C 
HETATM   29  C17 UNL     1      -3.519  51.674 -21.926  1.00  0.00     0.010 C 
HETATM   30  C18 UNL     1      -2.883  51.137 -20.627  1.00  0.00    -0.005 C 
ENDBRANCH   5  21
TORSDOF 6
ENDMDL
MODEL 3
REMARK minimizedAffinity -7.58639908
REMARK CNNscore 0.332185775
REMARK CNNaffinity 5.63221216
REMARK  6 active torsions:
REMARK  status: ('A' for Active; 'I' for Inactive)
REMARK    1  A    between atoms: C2_2  and  N1_3 
REMARK    2  A    between atoms: N1_3  and  C3_4 
REMARK    3  A    between atoms: N1_3  and  C22_25 
REMARK    4  A    between atoms: C3_4  and  C4_5 
REMARK    5  A    between atoms: C5_6  and  C6_7 
REMARK    6  A    between atoms: C9_11  and  C10_12 
ROOT
HETATM    1  C6  UNL     1       6.148  66.504 -38.019  1.00  0.00    -0.033 C 
HETATM    2  C7  UNL     1       5.040  66.072 -37.308  1.00  0.00     0.036 C 
HETATM    3  C8  UNL     1       3.756  66.517 -37.656  1.00  0.00     0.043 C 
HETATM    4 CL1  UNL     1       2.512  66.038 -36.533  1.00  0.00    -0.084 Cl
HETATM    5  C9  UNL     1       3.506  67.368 -38.775  1.00  0.00    -0.010 C 
HETATM    6  C20 UNL     1       4.665  67.869 -39.404  1.00  0.00     0.043 C 
HETATM    7 CL2  UNL     1       4.710  69.161 -40.551  1.00  0.00    -0.084 Cl
HETATM    8  C21 UNL     1       5.951  67.410 -39.055  1.00  0.00     0.036 C 
ENDROOT
BRANCH   1   9
HETATM    9  C5  UNL     1       7.483  66.020 -37.659  1.00  0.00     0.009 C 
HETATM   10  C4  UNL     1       7.772  65.218 -36.620  1.00  0.00    -0.007 C 
BRANCH  10  11
HETATM   11  C3  UNL     1       6.815  64.584 -35.646  1.00  0.00     0.144 C 
BRANCH  11  12
HETATM   12  N1  UNL     1       7.492  63.776 -34.622  1.00  0.00    -0.405 N 
BRANCH  12  13
HETATM   13  C2  UNL     1       6.669  62.644 -34.187  1.00  0.00     0.113 C 
HETATM   14  C1  UNL     1       5.529  62.228 -35.108  1.00  0.00     0.026 C 
ENDBRANCH  12  13
BRANCH  12  15
HETATM   15  C22 UNL     1       8.940  63.554 -34.830  1.00  0.00     0.079 C 
HETATM   16  C23 UNL     1       9.343  62.395 -35.761  1.00  0.00     0.025 C 
HETATM   17  C24 UNL     1      10.841  62.403 -36.098  1.00  0.00     0.002 C 
HETATM   18  C25 UNL     1      11.691  63.245 -35.150  1.00  0.00     0.000 C 
HETATM   19  C26 UNL     1      11.226  63.106 -33.709  1.00  0.00     0.002 C 
HETATM   20  C27 UNL     1       9.750  63.473 -33.513  1.00  0.00     0.025 C 
ENDBRANCH  12  15
ENDBRANCH  11  12
ENDBRANCH  10  11
ENDBRANCH   1   9
BRANCH   5  21
HETATM   21  C10 UNL     1       2.038  67.680 -39.137  1.00  0.00     0.030 C 
HETATM   22  C11 UNL     1       1.407  69.106 -39.029  1.00  0.00    -0.005 C 
HETATM   23  C12 UNL     1       1.772  70.024 -40.220  1.00  0.00     0.010 C 
HETATM   24  C16 UNL     1      -0.137  68.943 -39.044  1.00  0.00     0.010 C 
HETATM   25  C13 UNL     1       1.325  69.404 -41.545  1.00  0.00    -0.013 C 
HETATM   26  C14 UNL     1      -0.198  69.220 -41.534  1.00  0.00     0.009 C 
HETATM   27  C19 UNL     1       2.023  68.047 -41.688  1.00  0.00     0.010 C 
HETATM   28  C15 UNL     1      -0.602  68.309 -40.366  1.00  0.00    -0.013 C 
HETATM   29  C17 UNL     1       0.079  66.944 -40.552  1.00  0.00     0.010 C 
HETATM   30  C18 UNL     1       1.613  67.109 -40.540  1.00  0.00    -0.005 C 
ENDBRANCH   5  21
TORSDOF 6
ENDMDL
MODEL 4
REMARK minimizedAffinity -7.49674749
REMARK CNNscore 0.330705911
REMARK CNNaffinity 6.13817596
REMARK  6 active torsions:
REMARK  status: ('A' for Active; 'I' for Inactive)
REMARK    1  A    between atoms: C2_2  and  N1_3 
REMARK    2  A    between atoms: N1_3  and  C3_4 
REMARK    3  A    between atoms: N1_3  and  C22_25 
REMARK    4  A    between atoms: C3_4  and  C4_5 
REMARK    5  A    between atoms: C5_6  and  C6_7 
REMARK    6  A    between atoms: C9_11  and  C10_12 
ROOT
HETATM    1  C6  UNL     1      -4.495  48.260 -26.975  1.00  0.00    -0.033 C 
HETATM    2  C7  UNL     1      -4.686  48.352 -28.344  1.00  0.00     0.036 C 
HETATM    3  C8  UNL     1      -5.941  48.076 -28.907  1.00  0.00     0.043 C 
HETATM    4 CL1  UNL     1      -5.945  48.041 -30.649  1.00  0.00    -0.084 Cl
HETATM    5  C9  UNL     1      -7.091  47.757 -28.121  1.00  0.00    -0.010 C 
HETATM    6  C20 UNL     1      -6.831  47.569 -26.747  1.00  0.00     0.043 C 
HETATM    7 CL2  UNL     1      -7.917  46.862 -25.605  1.00  0.00    -0.084 Cl
HETATM    8  C21 UNL     1      -5.569  47.857 -26.188  1.00  0.00     0.036 C 
ENDROOT
BRANCH   1   9
HETATM    9  C5  UNL     1      -3.185  48.565 -26.396  1.00  0.00     0.009 C 
HETATM   10  C4  UNL     1      -2.956  48.931 -25.123  1.00  0.00    -0.007 C 
BRANCH  10  11
HETATM   11  C3  UNL     1      -3.952  49.041 -23.999  1.00  0.00     0.144 C 
BRANCH  11  12
HETATM   12  N1  UNL     1      -3.543  50.003 -22.966  1.00  0.00    -0.405 N 
BRANCH  12  13
HETATM   13  C2  UNL     1      -4.534  51.071 -22.792  1.00  0.00     0.113 C 
HETATM   14  C1  UNL     1      -4.932  51.849 -24.040  1.00  0.00     0.026 C 
ENDBRANCH  12  13
BRANCH  12  15
HETATM   15  C22 UNL     1      -2.914  49.424 -21.759  1.00  0.00     0.079 C 
HETATM   16  C23 UNL     1      -1.893  48.292 -21.977  1.00  0.00     0.025 C 
HETATM   17  C24 UNL     1      -1.128  47.933 -20.695  1.00  0.00     0.002 C 
HETATM   18  C25 UNL     1      -1.792  48.425 -19.412  1.00  0.00     0.000 C 
HETATM   19  C26 UNL     1      -3.304  48.281 -19.473  1.00  0.00     0.002 C 
HETATM   20  C27 UNL     1      -3.932  49.007 -20.669  1.00  0.00     0.025 C 
ENDBRANCH  12  15
ENDBRANCH  11  12
ENDBRANCH  10  11
ENDBRANCH   1   9
BRANCH   5  21
HETATM   21  C10 UNL     1      -8.446  47.607 -28.844  1.00  0.00     0.030 C 
HETATM   22  C11 UNL     1      -8.790  48.323 -30.191  1.00  0.00    -0.005 C 
HETATM   23  C12 UNL     1      -8.186  47.616 -31.427  1.00  0.00     0.010 C 
HETATM   24  C16 UNL     1     -10.333  48.291 -30.364  1.00  0.00     0.010 C 
HETATM   25  C13 UNL     1      -8.671  46.168 -31.519  1.00  0.00    -0.013 C 
HETATM   26  C14 UNL     1     -10.198  46.150 -31.659  1.00  0.00     0.009 C 
HETATM   27  C19 UNL     1      -8.246  45.447 -30.236  1.00  0.00     0.010 C 
HETATM   28  C15 UNL     1     -10.838  46.841 -30.446  1.00  0.00    -0.013 C 
HETATM   29  C17 UNL     1     -10.430  46.078 -29.176  1.00  0.00     0.010 C 
HETATM   30  C18 UNL     1      -8.896  46.108 -29.008  1.00  0.00    -0.005 C 
ENDBRANCH   5  21
TORSDOF 6
ENDMDL
MODEL 5
REMARK minimizedAffinity -8.79285908
REMARK CNNscore 0.282975793
REMARK CNNaffinity 6.46118116
REMARK  6 active torsions:
REMARK  status: ('A' for Active; 'I' for Inactive)
REMARK    1  A    between atoms: C2_2  and  N1_3 
REMARK    2  A    between atoms: N1_3  and  C3_4 
REMARK    3  A    between atoms: N1_3  and  C22_25 
REMARK    4  A    between atoms: C3_4  and  C4_5 
REMARK    5  A    between atoms: C5_6  and  C6_7 
REMARK    6  A    between atoms: C9_11  and  C10_12 
ROOT
HETATM    1  C6  UNL     1      -2.907  51.506 -21.141  1.00  0.00    -0.033 C 
HETATM    2  C7  UNL     1      -1.562  51.534 -21.476  1.00  0.00     0.036 C 
HETATM    3  C8  UNL     1      -1.159  51.921 -22.764  1.00  0.00     0.043 C 
HETATM    4 CL1  UNL     1       0.543  51.700 -23.069  1.00  0.00    -0.084 Cl
HETATM    5  C9  UNL     1      -2.077  52.363 -23.765  1.00  0.00    -0.010 C 
HETATM    6  C20 UNL     1      -3.438  52.217 -23.420  1.00  0.00     0.043 C 
HETATM    7 CL2  UNL     1      -4.771  52.341 -24.512  1.00  0.00    -0.084 Cl
HETATM    8  C21 UNL     1      -3.835  51.837 -22.122  1.00  0.00     0.036 C 
ENDROOT
BRANCH   1   9
HETATM    9  C5  UNL     1      -3.316  51.117 -19.790  1.00  0.00     0.009 C 
HETATM   10  C4  UNL     1      -4.029  50.024 -19.471  1.00  0.00    -0.007 C 
BRANCH  10  11
HETATM   11  C3  UNL     1      -4.504  48.929 -20.389  1.00  0.00     0.144 C 
BRANCH  11  12
HETATM   12  N1  UNL     1      -3.486  48.519 -21.366  1.00  0.00    -0.405 N 
BRANCH  12  13
HETATM   13  C2  UNL     1      -2.591  47.491 -20.824  1.00  0.00     0.113 C 
HETATM   14  C1  UNL     1      -1.100  47.804 -20.834  1.00  0.00     0.026 C 
ENDBRANCH  12  13
BRANCH  12  15
HETATM   15  C22 UNL     1      -3.953  48.378 -22.763  1.00  0.00     0.079 C 
HETATM   16  C23 UNL     1      -3.001  48.868 -23.870  1.00  0.00     0.025 C 
HETATM   17  C24 UNL     1      -3.470  48.459 -25.274  1.00  0.00     0.002 C 
HETATM   18  C25 UNL     1      -4.939  48.051 -25.348  1.00  0.00     0.000 C 
HETATM   19  C26 UNL     1      -5.811  48.936 -24.472  1.00  0.00     0.002 C 
HETATM   20  C27 UNL     1      -5.372  48.950 -23.002  1.00  0.00     0.025 C 
ENDBRANCH  12  15
ENDBRANCH  11  12
ENDBRANCH  10  11
ENDBRANCH   1   9
BRANCH   5  21
HETATM   21  C10 UNL     1      -1.502  52.890 -25.096  1.00  0.00     0.030 C 
HETATM   22  C11 UNL     1       0.009  53.231 -25.309  1.00  0.00    -0.005 C 
HETATM   23  C12 UNL     1       0.884  51.980 -25.562  1.00  0.00     0.010 C 
HETATM   24  C16 UNL     1       0.120  54.121 -26.576  1.00  0.00     0.010 C 
HETATM   25  C13 UNL     1       0.392  51.208 -26.788  1.00  0.00    -0.013 C 
HETATM   26  C14 UNL     1       0.478  52.109 -28.026  1.00  0.00     0.009 C 
HETATM   27  C19 UNL     1      -1.061  50.795 -26.531  1.00  0.00     0.010 C 
HETATM   28  C15 UNL     1      -0.383  53.363 -27.816  1.00  0.00    -0.013 C 
HETATM   29  C17 UNL     1      -1.840  52.926 -27.600  1.00  0.00     0.010 C 
HETATM   30  C18 UNL     1      -1.947  52.038 -26.342  1.00  0.00    -0.005 C 
ENDBRANCH   5  21
TORSDOF 6
ENDMDL
MODEL 6
REMARK minimizedAffinity -9.15887642
REMARK CNNscore 0.269194573
REMARK CNNaffinity 6.39870882
REMARK  6 active torsions:
REMARK  status: ('A' for Active; 'I' for Inactive)
REMARK    1  A    between atoms: C2_2  and  N1_3 
REMARK    2  A    between atoms: N1_3  and  C3_4 
REMARK    3  A    between atoms: N1_3  and  C22_25 
REMARK    4  A    between atoms: C3_4  and  C4_5 
REMARK    5  A    between atoms: C5_6  and  C6_7 
REMARK    6  A    between atoms: C9_11  and  C10_12 
ROOT
HETATM    1  C6  UNL     1      -2.516  51.304 -20.956  1.00  0.00    -0.033 C 
HETATM    2  C7  UNL     1      -3.419  51.541 -21.981  1.00  0.00     0.036 C 
HETATM    3  C8  UNL     1      -2.981  52.063 -23.207  1.00  0.00     0.043 C 
HETATM    4 CL1  UNL     1      -4.271  52.487 -24.299  1.00  0.00    -0.084 Cl
HETATM    5  C9  UNL     1      -1.604  52.315 -23.496  1.00  0.00    -0.010 C 
HETATM    6  C20 UNL     1      -0.735  52.163 -22.395  1.00  0.00     0.043 C 
HETATM    7 CL2  UNL     1       0.904  52.705 -22.326  1.00  0.00    -0.084 Cl
HETATM    8  C21 UNL     1      -1.181  51.629 -21.169  1.00  0.00     0.036 C 
ENDROOT
BRANCH   1   9
HETATM    9  C5  UNL     1      -2.981  50.743 -19.686  1.00  0.00     0.009 C 
HETATM   10  C4  UNL     1      -4.083  49.993 -19.517  1.00  0.00    -0.007 C 
BRANCH  10  11
HETATM   11  C3  UNL     1      -5.040  49.503 -20.572  1.00  0.00     0.144 C 
BRANCH  11  12
HETATM   12  N1  UNL     1      -4.494  48.394 -21.367  1.00  0.00    -0.405 N 
BRANCH  12  13
HETATM   13  C2  UNL     1      -4.887  47.088 -20.826  1.00  0.00     0.113 C 
HETATM   14  C1  UNL     1      -3.819  46.003 -20.808  1.00  0.00     0.026 C 
ENDBRANCH  12  13
BRANCH  12  15
HETATM   15  C22 UNL     1      -4.514  48.583 -22.834  1.00  0.00     0.079 C 
HETATM   16  C23 UNL     1      -5.592  47.815 -23.623  1.00  0.00     0.025 C 
HETATM   17  C24 UNL     1      -5.682  48.264 -25.089  1.00  0.00     0.002 C 
HETATM   18  C25 UNL     1      -4.457  49.028 -25.584  1.00  0.00     0.000 C 
HETATM   19  C26 UNL     1      -3.168  48.437 -25.036  1.00  0.00     0.002 C 
HETATM   20  C27 UNL     1      -3.134  48.381 -23.504  1.00  0.00     0.025 C 
ENDBRANCH  12  15
ENDBRANCH  11  12
ENDBRANCH  10  11
ENDBRANCH   1   9
BRANCH   5  21
HETATM   21  C10 UNL     1      -1.233  52.762 -24.926  1.00  0.00     0.030 C 
HETATM   22  C11 UNL     1       0.199  53.236 -25.337  1.00  0.00    -0.005 C 
HETATM   23  C12 UNL     1       1.183  52.066 -25.574  1.00  0.00     0.010 C 
HETATM   24  C16 UNL     1       0.076  54.000 -26.684  1.00  0.00     0.010 C 
HETATM   25  C13 UNL     1       0.661  51.125 -26.662  1.00  0.00    -0.013 C 
HETATM   26  C14 UNL     1       0.515  51.899 -27.978  1.00  0.00     0.009 C 
HETATM   27  C19 UNL     1      -0.701  50.590 -26.207  1.00  0.00     0.010 C 
HETATM   28  C15 UNL     1      -0.459  53.070 -27.786  1.00  0.00    -0.013 C 
HETATM   29  C17 UNL     1      -1.826  52.506 -27.368  1.00  0.00     0.010 C 
HETATM   30  C18 UNL     1      -1.701  51.745 -26.032  1.00  0.00    -0.005 C 
ENDBRANCH   5  21
TORSDOF 6
ENDMDL
MODEL 7
REMARK minimizedAffinity -9.60073757
REMARK CNNscore 0.251995683
REMARK CNNaffinity 6.62474966
REMARK  6 active torsions:
REMARK  status: ('A' for Active; 'I' for Inactive)
REMARK    1  A    between atoms: C2_2  and  N1_3 
REMARK    2  A    between atoms: N1_3  and  C3_4 
REMARK    3  A    between atoms: N1_3  and  C22_25 
REMARK    4  A    between atoms: C3_4  and  C4_5 
REMARK    5  A    between atoms: C5_6  and  C6_7 
REMARK    6  A    between atoms: C9_11  and  C10_12 
ROOT
HETATM    1  C6  UNL     1      -0.785  50.076 -20.884  1.00  0.00    -0.033 C 
HETATM    2  C7  UNL     1      -1.703  49.830 -21.893  1.00  0.00     0.036 C 
HETATM    3  C8  UNL     1      -1.696  50.603 -23.064  1.00  0.00     0.043 C 
HETATM    4 CL1  UNL     1      -3.042  50.292 -24.127  1.00  0.00    -0.084 Cl
HETATM    5  C9  UNL     1      -0.727  51.622 -23.315  1.00  0.00    -0.010 C 
HETATM    6  C20 UNL     1       0.118  51.912 -22.223  1.00  0.00     0.043 C 
HETATM    7 CL2  UNL     1       1.151  53.291 -22.089  1.00  0.00    -0.084 Cl
HETATM    8  C21 UNL     1       0.111  51.125 -21.054  1.00  0.00     0.036 C 
ENDROOT
BRANCH   1   9
HETATM    9  C5  UNL     1      -0.791  49.252 -19.673  1.00  0.00     0.009 C 
HETATM   10  C4  UNL     1      -0.591  49.698 -18.421  1.00  0.00    -0.007 C 
BRANCH  10  11
HETATM   11  C3  UNL     1      -0.392  51.119 -17.966  1.00  0.00     0.144 C 
BRANCH  11  12
HETATM   12  N1  UNL     1      -0.087  51.222 -16.532  1.00  0.00    -0.405 N 
BRANCH  12  13
HETATM   13  C2  UNL     1      -0.845  50.248 -15.740  1.00  0.00     0.113 C 
HETATM   14  C1  UNL     1      -2.236  50.668 -15.282  1.00  0.00     0.026 C 
ENDBRANCH  12  13
BRANCH  12  15
HETATM   15  C22 UNL     1       1.334  51.452 -16.190  1.00  0.00     0.079 C 
HETATM   16  C23 UNL     1       1.690  51.526 -14.694  1.00  0.00     0.025 C 
HETATM   17  C24 UNL     1       3.206  51.523 -14.447  1.00  0.00     0.002 C 
HETATM   18  C25 UNL     1       4.039  51.878 -15.676  1.00  0.00     0.000 C 
HETATM   19  C26 UNL     1       3.393  52.987 -16.490  1.00  0.00     0.002 C 
HETATM   20  C27 UNL     1       1.964  52.653 -16.937  1.00  0.00     0.025 C 
ENDBRANCH  12  15
ENDBRANCH  11  12
ENDBRANCH  10  11
ENDBRANCH   1   9
BRANCH   5  21
HETATM   21  C10 UNL     1      -0.740  52.311 -24.696  1.00  0.00     0.030 C 
HETATM   22  C11 UNL     1       0.487  53.077 -25.290  1.00  0.00    -0.005 C 
HETATM   23  C12 UNL     1       1.553  52.137 -25.900  1.00  0.00     0.010 C 
HETATM   24  C16 UNL     1      -0.031  53.979 -26.443  1.00  0.00     0.010 C 
HETATM   25  C13 UNL     1       0.949  51.272 -27.008  1.00  0.00    -0.013 C 
HETATM   26  C14 UNL     1       0.415  52.175 -28.126  1.00  0.00     0.009 C 
HETATM   27  C19 UNL     1      -0.192  50.453 -26.395  1.00  0.00     0.010 C 
HETATM   28  C15 UNL     1      -0.653  53.124 -27.561  1.00  0.00    -0.013 C 
HETATM   29  C17 UNL     1      -1.803  52.281 -26.988  1.00  0.00     0.010 C 
HETATM   30  C18 UNL     1      -1.285  51.384 -25.844  1.00  0.00    -0.005 C 
ENDBRANCH   5  21
TORSDOF 6
ENDMDL
MODEL 8
REMARK minimizedAffinity -7.9477725
REMARK CNNscore 0.240968153
REMARK CNNaffinity 6.25700521
REMARK  6 active torsions:
REMARK  status: ('A' for Active; 'I' for Inactive)
REMARK    1  A    between atoms: C2_2  and  N1_3 
REMARK    2  A    between atoms: N1_3  and  C3_4 
REMARK    3  A    between atoms: N1_3  and  C22_25 
REMARK    4  A    between atoms: C3_4  and  C4_5 
REMARK    5  A    between atoms: C5_6  and  C6_7 
REMARK    6  A    between atoms: C9_11  and  C10_12 
ROOT
HETATM    1  C6  UNL     1      -4.760  48.754 -23.123  1.00  0.00    -0.033 C 
HETATM    2  C7  UNL     1      -4.216  48.324 -24.324  1.00  0.00     0.036 C 
HETATM    3  C8  UNL     1      -3.098  48.974 -24.870  1.00  0.00     0.043 C 
HETATM    4 CL1  UNL     1      -2.680  48.436 -26.474  1.00  0.00    -0.084 Cl
HETATM    5  C9  UNL     1      -2.425  50.047 -24.210  1.00  0.00    -0.010 C 
HETATM    6  C20 UNL     1      -3.071  50.521 -23.049  1.00  0.00     0.043 C 
HETATM    7 CL2  UNL     1      -2.704  51.995 -22.224  1.00  0.00    -0.084 Cl
HETATM    8  C21 UNL     1      -4.188  49.859 -22.501  1.00  0.00     0.036 C 
ENDROOT
BRANCH   1   9
HETATM    9  C5  UNL     1      -5.916  48.059 -22.554  1.00  0.00     0.009 C 
HETATM   10  C4  UNL     1      -5.867  46.977 -21.758  1.00  0.00    -0.007 C 
BRANCH  10  11
HETATM   11  C3  UNL     1      -4.647  46.281 -21.217  1.00  0.00     0.144 C 
BRANCH  11  12
HETATM   12  N1  UNL     1      -4.210  46.817 -19.920  1.00  0.00    -0.405 N 
BRANCH  12  13
HETATM   13  C2  UNL     1      -4.274  45.804 -18.861  1.00  0.00     0.113 C 
HETATM   14  C1  UNL     1      -3.928  44.374 -19.257  1.00  0.00     0.026 C 
ENDBRANCH  12  13
BRANCH  12  15
HETATM   15  C22 UNL     1      -3.042  47.723 -19.957  1.00  0.00     0.079 C 
HETATM   16  C23 UNL     1      -1.920  47.377 -20.954  1.00  0.00     0.025 C 
HETATM   17  C24 UNL     1      -0.880  48.500 -21.086  1.00  0.00     0.002 C 
HETATM   18  C25 UNL     1      -0.903  49.509 -19.940  1.00  0.00     0.000 C 
HETATM   19  C26 UNL     1      -1.140  48.830 -18.601  1.00  0.00     0.002 C 
HETATM   20  C27 UNL     1      -2.432  48.005 -18.562  1.00  0.00     0.025 C 
ENDBRANCH  12  15
ENDBRANCH  11  12
ENDBRANCH  10  11
ENDBRANCH   1   9
BRANCH   5  21
HETATM   21  C10 UNL     1      -1.128  50.590 -24.845  1.00  0.00     0.030 C 
HETATM   22  C11 UNL     1      -0.797  50.472 -26.369  1.00  0.00    -0.005 C 
HETATM   23  C12 UNL     1      -1.524  51.530 -27.232  1.00  0.00     0.010 C 
HETATM   24  C16 UNL     1       0.726  50.717 -26.543  1.00  0.00     0.010 C 
HETATM   25  C13 UNL     1      -1.167  52.947 -26.775  1.00  0.00    -0.013 C 
HETATM   26  C14 UNL     1       0.344  53.165 -26.924  1.00  0.00     0.009 C 
HETATM   27  C19 UNL     1      -1.582  53.085 -25.307  1.00  0.00     0.010 C 
HETATM   28  C15 UNL     1       1.103  52.134 -26.077  1.00  0.00    -0.013 C 
HETATM   29  C17 UNL     1       0.700  52.318 -24.605  1.00  0.00     0.010 C 
HETATM   30  C18 UNL     1      -0.814  52.076 -24.435  1.00  0.00    -0.005 C 
ENDBRANCH   5  21
TORSDOF 6
ENDMDL
MODEL 9
REMARK minimizedAffinity -8.54917145
REMARK CNNscore 0.239325926
REMARK CNNaffinity 6.8900528
REMARK  6 active torsions:
REMARK  status: ('A' for Active; 'I' for Inactive)
REMARK    1  A    between atoms: C2_2  and  N1_3 
REMARK    2  A    between atoms: N1_3  and  C3_4 
REMARK    3  A    between atoms: N1_3  and  C22_25 
REMARK    4  A    between atoms: C3_4  and  C4_5 
REMARK    5  A    between atoms: C5_6  and  C6_7 
REMARK    6  A    between atoms: C9_11  and  C10_12 
ROOT
HETATM    1  C6  UNL     1       0.137  51.942 -21.446  1.00  0.00    -0.033 C 
HETATM    2  C7  UNL     1      -0.299  50.629 -21.518  1.00  0.00     0.036 C 
HETATM    3  C8  UNL     1      -0.493  49.880 -20.347  1.00  0.00     0.043 C 
HETATM    4 CL1  UNL     1      -0.843  48.197 -20.633  1.00  0.00    -0.084 Cl
HETATM    5  C9  UNL     1      -0.323  50.427 -19.038  1.00  0.00    -0.010 C 
HETATM    6  C20 UNL     1       0.223  51.728 -19.011  1.00  0.00     0.043 C 
HETATM    7 CL2  UNL     1       0.853  52.525 -17.613  1.00  0.00    -0.084 Cl
HETATM    8  C21 UNL     1       0.407  52.477 -20.190  1.00  0.00     0.036 C 
ENDROOT
BRANCH   1   9
HETATM    9  C5  UNL     1       0.321  52.721 -22.672  1.00  0.00     0.009 C 
HETATM   10  C4  UNL     1      -0.445  52.641 -23.773  1.00  0.00    -0.007 C 
BRANCH  10  11
HETATM   11  C3  UNL     1      -1.684  51.810 -23.981  1.00  0.00     0.144 C 
BRANCH  11  12
HETATM   12  N1  UNL     1      -1.546  50.843 -25.078  1.00  0.00    -0.405 N 
BRANCH  12  13
HETATM   13  C2  UNL     1      -2.795  50.114 -25.324  1.00  0.00     0.113 C 
HETATM   14  C1  UNL     1      -2.682  48.791 -26.071  1.00  0.00     0.026 C 
ENDBRANCH  12  13
BRANCH  12  15
HETATM   15  C22 UNL     1      -0.756  51.298 -26.244  1.00  0.00     0.079 C 
HETATM   16  C23 UNL     1       0.777  51.269 -26.103  1.00  0.00     0.025 C 
HETATM   17  C24 UNL     1       1.496  51.526 -27.436  1.00  0.00     0.002 C 
HETATM   18  C25 UNL     1       0.617  52.168 -28.507  1.00  0.00     0.000 C 
HETATM   19  C26 UNL     1      -0.309  53.218 -27.915  1.00  0.00     0.002 C 
HETATM   20  C27 UNL     1      -1.205  52.672 -26.797  1.00  0.00     0.025 C 
ENDBRANCH  12  15
ENDBRANCH  11  12
ENDBRANCH  10  11
ENDBRANCH   1   9
BRANCH   5  21
HETATM   21  C10 UNL     1      -0.696  49.544 -17.829  1.00  0.00     0.030 C 
HETATM   22  C11 UNL     1      -0.039  49.691 -16.418  1.00  0.00    -0.005 C 
HETATM   23  C12 UNL     1      -0.623  50.862 -15.593  1.00  0.00     0.010 C 
HETATM   24  C16 UNL     1      -0.333  48.390 -15.621  1.00  0.00     0.010 C 
HETATM   25  C13 UNL     1      -2.132  50.697 -15.402  1.00  0.00    -0.013 C 
HETATM   26  C14 UNL     1      -2.410  49.394 -14.641  1.00  0.00     0.009 C 
HETATM   27  C19 UNL     1      -2.780  50.650 -16.790  1.00  0.00     0.010 C 
HETATM   28  C15 UNL     1      -1.848  48.203 -15.431  1.00  0.00    -0.013 C 
HETATM   29  C17 UNL     1      -2.539  48.154 -16.802  1.00  0.00     0.010 C 
HETATM   30  C18 UNL     1      -2.249  49.448 -17.590  1.00  0.00    -0.005 C 
ENDBRANCH   5  21
TORSDOF 6
ENDMDL
