MODEL 1
REMARK minimizedAffinity -9.82657433
REMARK  5 active torsions:
REMARK  status: ('A' for Active; 'I' for Inactive)
REMARK    1  A    between atoms: C4_4  and  C5_5 
REMARK    2  A    between atoms: C5_5  and  C6_6 
REMARK    3  A    between atoms: C6_6  and  C7_7 
REMARK    4  A    between atoms: C7_7  and  C9_9 
REMARK    5  A    between atoms: C24_24  and  O1_26 
ROOT
HETATM    1  C9  UNL     1      -1.209  48.926 -18.148  1.00  0.00    -0.002 C 
HETATM    2  C10 UNL     1      -2.220  47.777 -18.400  1.00  0.00     0.007 C 
HETATM    3  C11 UNL     1      -2.695  47.911 -19.865  1.00  0.00     0.015 C 
HETATM    4  C12 UNL     1      -1.707  48.899 -20.514  1.00  0.00    -0.013 C 
HETATM    5  C13 UNL     1      -0.456  48.069 -20.945  1.00  0.00     0.021 C 
HETATM    6  C14 UNL     1      -2.113  49.667 -21.763  1.00  0.00    -0.068 C 
HETATM    7  C15 UNL     1      -1.536  50.871 -22.029  1.00  0.00    -0.068 C 
HETATM    8  C16 UNL     1      -0.566  51.537 -21.050  1.00  0.00     0.036 C 
HETATM    9  C17 UNL     1      -0.316  50.828 -19.700  1.00  0.00     0.015 C 
HETATM   10  C18 UNL     1      -1.481  49.903 -19.328  1.00  0.00    -0.029 C 
HETATM   11  C19 UNL     1      -2.723  50.794 -19.021  1.00  0.00     0.016 C 
HETATM   12  C20 UNL     1      -1.927  51.649 -23.311  1.00  0.00    -0.016 C 
HETATM   13  C21 UNL     1      -3.203  52.439 -22.908  1.00  0.00     0.020 C 
HETATM   14  C22 UNL     1      -0.894  52.696 -23.816  1.00  0.00     0.017 C 
HETATM   15  C23 UNL     1       0.102  52.112 -24.804  1.00  0.00     0.039 C 
HETATM   16  C24 UNL     1      -0.567  51.624 -26.120  1.00  0.00     0.061 C 
HETATM   17  C25 UNL     1       0.405  50.609 -26.757  1.00  0.00     0.046 C 
HETATM   18  C26 UNL     1      -2.048  51.067 -25.901  1.00  0.00    -0.012 C 
HETATM   19  C27 UNL     1      -3.120  52.136 -26.220  1.00  0.00     0.018 C 
HETATM   20  C28 UNL     1      -2.354  49.911 -26.892  1.00  0.00     0.018 C 
HETATM   21  C29 UNL     1      -2.141  50.549 -24.424  1.00  0.00     0.009 C 
HETATM   22  C30 UNL     1      -3.341  49.669 -24.052  1.00  0.00     0.011 C 
HETATM   23  C31 UNL     1      -3.113  48.995 -22.688  1.00  0.00     0.036 C 
ENDROOT
BRANCH   1  24
HETATM   24  C7  UNL     1      -1.147  49.506 -16.704  1.00  0.00    -0.014 C 
HETATM   25  C8  UNL     1      -1.655  48.568 -15.600  1.00  0.00     0.010 C 
BRANCH  24  26
HETATM   26  C6  UNL     1       0.310  49.947 -16.396  1.00  0.00     0.008 C 
BRANCH  26  27
HETATM   27  C5  UNL     1       0.467  51.449 -16.135  1.00  0.00     0.028 C 
BRANCH  27  28
HETATM   28  C4  UNL     1       1.868  51.905 -16.443  1.00  0.00    -0.025 C 
HETATM   29  C2  UNL     1       2.931  51.934 -15.616  1.00  0.00    -0.091 C 
HETATM   30  C1  UNL     1       4.278  52.389 -16.115  1.00  0.00     0.042 C 
HETATM   31  C3  UNL     1       2.910  51.540 -14.164  1.00  0.00     0.042 C 
ENDBRANCH  27  28
ENDBRANCH  26  27
ENDBRANCH  24  26
ENDBRANCH   1  24
BRANCH  16  32
HETATM   32  O1  UNL     1      -0.626  52.737 -27.026  1.00  0.00    -0.389 OA
HETATM   33  H41 UNL     1       0.281  53.047 -27.188  1.00  0.00     0.210 HD
ENDBRANCH  16  32
TORSDOF 5
ENDMDL
MODEL 2
REMARK minimizedAffinity -9.3676672
REMARK  5 active torsions:
REMARK  status: ('A' for Active; 'I' for Inactive)
REMARK    1  A    between atoms: C4_4  and  C5_5 
REMARK    2  A    between atoms: C5_5  and  C6_6 
REMARK    3  A    between atoms: C6_6  and  C7_7 
REMARK    4  A    between atoms: C7_7  and  C9_9 
REMARK    5  A    between atoms: C24_24  and  O1_26 
ROOT
HETATM    1  C9  UNL     1      -1.088  50.917 -21.762  1.00  0.00    -0.002 C 
HETATM    2  C10 UNL     1      -0.499  49.655 -21.078  1.00  0.00     0.007 C 
HETATM    3  C11 UNL     1      -1.633  48.604 -21.026  1.00  0.00     0.015 C 
HETATM    4  C12 UNL     1      -2.720  49.146 -21.974  1.00  0.00    -0.013 C 
HETATM    5  C13 UNL     1      -2.318  48.711 -23.419  1.00  0.00     0.021 C 
HETATM    6  C14 UNL     1      -4.162  48.685 -21.817  1.00  0.00    -0.068 C 
HETATM    7  C15 UNL     1      -5.175  49.495 -22.231  1.00  0.00    -0.068 C 
HETATM    8  C16 UNL     1      -4.918  50.911 -22.750  1.00  0.00     0.036 C 
HETATM    9  C17 UNL     1      -3.463  51.428 -22.721  1.00  0.00     0.015 C 
HETATM   10  C18 UNL     1      -2.623  50.685 -21.676  1.00  0.00    -0.029 C 
HETATM   11  C19 UNL     1      -3.154  51.079 -20.264  1.00  0.00     0.016 C 
HETATM   12  C20 UNL     1      -6.645  49.023 -22.095  1.00  0.00    -0.016 C 
HETATM   13  C21 UNL     1      -7.040  49.404 -20.641  1.00  0.00     0.020 C 
HETATM   14  C22 UNL     1      -7.673  49.716 -23.034  1.00  0.00     0.017 C 
HETATM   15  C23 UNL     1      -7.849  48.986 -24.356  1.00  0.00     0.039 C 
HETATM   16  C24 UNL     1      -8.443  47.560 -24.185  1.00  0.00     0.061 C 
HETATM   17  C25 UNL     1      -8.067  46.772 -25.457  1.00  0.00     0.046 C 
HETATM   18  C26 UNL     1      -8.000  46.855 -22.822  1.00  0.00    -0.012 C 
HETATM   19  C27 UNL     1      -9.075  47.003 -21.719  1.00  0.00     0.018 C 
HETATM   20  C28 UNL     1      -7.859  45.321 -23.015  1.00  0.00     0.018 C 
HETATM   21  C29 UNL     1      -6.621  47.473 -22.401  1.00  0.00     0.009 C 
HETATM   22  C30 UNL     1      -5.817  46.748 -21.313  1.00  0.00     0.011 C 
HETATM   23  C31 UNL     1      -4.379  47.291 -21.254  1.00  0.00     0.036 C 
ENDROOT
BRANCH   1  24
HETATM   24  C7  UNL     1      -0.518  52.294 -21.308  1.00  0.00    -0.014 C 
HETATM   25  C8  UNL     1       0.255  52.277 -19.983  1.00  0.00     0.010 C 
BRANCH  24  26
HETATM   26  C6  UNL     1       0.379  52.870 -22.438  1.00  0.00     0.008 C 
BRANCH  26  27
HETATM   27  C5  UNL     1      -0.127  52.568 -23.854  1.00  0.00     0.028 C 
BRANCH  27  28
HETATM   28  C4  UNL     1       1.023  52.383 -24.807  1.00  0.00    -0.025 C 
HETATM   29  C2  UNL     1       1.065  51.615 -25.913  1.00  0.00    -0.091 C 
HETATM   30  C1  UNL     1       2.301  51.583 -26.777  1.00  0.00     0.042 C 
HETATM   31  C3  UNL     1      -0.052  50.734 -26.401  1.00  0.00     0.042 C 
ENDBRANCH  27  28
ENDBRANCH  26  27
ENDBRANCH  24  26
ENDBRANCH   1  24
BRANCH  16  32
HETATM   32  O1  UNL     1      -9.875  47.672 -24.198  1.00  0.00    -0.389 OA
HETATM   33  H41 UNL     1     -10.142  48.064 -25.046  1.00  0.00     0.210 HD
ENDBRANCH  16  32
TORSDOF 5
ENDMDL
MODEL 3
REMARK minimizedAffinity -9.36418915
REMARK  5 active torsions:
REMARK  status: ('A' for Active; 'I' for Inactive)
REMARK    1  A    between atoms: C4_4  and  C5_5 
REMARK    2  A    between atoms: C5_5  and  C6_6 
REMARK    3  A    between atoms: C6_6  and  C7_7 
REMARK    4  A    between atoms: C7_7  and  C9_9 
REMARK    5  A    between atoms: C24_24  and  O1_26 
ROOT
HETATM    1  C9  UNL     1      -0.380  52.532 -21.482  1.00  0.00    -0.002 C 
HETATM    2  C10 UNL     1      -0.109  52.329 -22.996  1.00  0.00     0.007 C 
HETATM    3  C11 UNL     1      -1.063  51.211 -23.476  1.00  0.00     0.015 C 
HETATM    4  C12 UNL     1      -2.083  51.042 -22.333  1.00  0.00    -0.013 C 
HETATM    5  C13 UNL     1      -3.180  52.133 -22.541  1.00  0.00     0.021 C 
HETATM    6  C14 UNL     1      -2.854  49.737 -22.192  1.00  0.00    -0.068 C 
HETATM    7  C15 UNL     1      -3.315  49.359 -20.969  1.00  0.00    -0.068 C 
HETATM    8  C16 UNL     1      -2.987  50.149 -19.700  1.00  0.00     0.036 C 
HETATM    9  C17 UNL     1      -2.042  51.363 -19.841  1.00  0.00     0.015 C 
HETATM   10  C18 UNL     1      -1.153  51.242 -21.083  1.00  0.00    -0.029 C 
HETATM   11  C19 UNL     1      -0.161  50.063 -20.851  1.00  0.00     0.016 C 
HETATM   12  C20 UNL     1      -4.121  48.043 -20.821  1.00  0.00    -0.016 C 
HETATM   13  C21 UNL     1      -3.036  46.942 -20.665  1.00  0.00     0.020 C 
HETATM   14  C22 UNL     1      -5.041  47.944 -19.571  1.00  0.00     0.017 C 
HETATM   15  C23 UNL     1      -6.449  48.455 -19.833  1.00  0.00     0.039 C 
HETATM   16  C24 UNL     1      -7.211  47.610 -20.892  1.00  0.00     0.061 C 
HETATM   17  C25 UNL     1      -8.339  48.508 -21.441  1.00  0.00     0.046 C 
HETATM   18  C26 UNL     1      -6.253  46.999 -22.015  1.00  0.00    -0.012 C 
HETATM   19  C27 UNL     1      -5.864  45.533 -21.707  1.00  0.00     0.018 C 
HETATM   20  C28 UNL     1      -6.986  46.920 -23.382  1.00  0.00     0.018 C 
HETATM   21  C29 UNL     1      -5.003  47.939 -22.127  1.00  0.00     0.009 C 
HETATM   22  C30 UNL     1      -4.091  47.769 -23.349  1.00  0.00     0.011 C 
HETATM   23  C31 UNL     1      -3.121  48.957 -23.468  1.00  0.00     0.036 C 
ENDROOT
BRANCH   1  24
HETATM   24  C7  UNL     1       0.828  52.974 -20.604  1.00  0.00    -0.014 C 
HETATM   25  C8  UNL     1       1.719  54.064 -21.217  1.00  0.00     0.010 C 
BRANCH  24  26
HETATM   26  C6  UNL     1       0.306  53.435 -19.216  1.00  0.00     0.008 C 
BRANCH  26  27
HETATM   27  C5  UNL     1       0.647  52.477 -18.069  1.00  0.00     0.028 C 
BRANCH  27  28
HETATM   28  C4  UNL     1       2.058  52.692 -17.590  1.00  0.00    -0.025 C 
HETATM   29  C2  UNL     1       2.572  52.414 -16.376  1.00  0.00    -0.091 C 
HETATM   30  C1  UNL     1       4.030  52.663 -16.087  1.00  0.00     0.042 C 
HETATM   31  C3  UNL     1       1.798  51.854 -15.215  1.00  0.00     0.042 C 
ENDBRANCH  27  28
ENDBRANCH  26  27
ENDBRANCH  24  26
ENDBRANCH   1  24
BRANCH  16  32
HETATM   32  O1  UNL     1      -7.864  46.528 -20.209  1.00  0.00    -0.389 OA
HETATM   33  H41 UNL     1      -8.476  46.906 -19.555  1.00  0.00     0.210 HD
ENDBRANCH  16  32
TORSDOF 5
ENDMDL
MODEL 4
REMARK minimizedAffinity -8.7896204
REMARK  5 active torsions:
REMARK  status: ('A' for Active; 'I' for Inactive)
REMARK    1  A    between atoms: C4_4  and  C5_5 
REMARK    2  A    between atoms: C5_5  and  C6_6 
REMARK    3  A    between atoms: C6_6  and  C7_7 
REMARK    4  A    between atoms: C7_7  and  C9_9 
REMARK    5  A    between atoms: C24_24  and  O1_26 
ROOT
HETATM    1  C9  UNL     1      -0.073  51.879 -23.201  1.00  0.00    -0.002 C 
HETATM    2  C10 UNL     1       0.209  52.677 -21.900  1.00  0.00     0.007 C 
HETATM    3  C11 UNL     1      -0.766  52.141 -20.827  1.00  0.00     0.015 C 
HETATM    4  C12 UNL     1      -1.334  50.838 -21.420  1.00  0.00    -0.013 C 
HETATM    5  C13 UNL     1      -0.298  49.711 -21.110  1.00  0.00     0.021 C 
HETATM    6  C14 UNL     1      -2.664  50.292 -20.919  1.00  0.00    -0.068 C 
HETATM    7  C15 UNL     1      -3.422  49.513 -21.738  1.00  0.00    -0.068 C 
HETATM    8  C16 UNL     1      -3.034  49.256 -23.196  1.00  0.00     0.036 C 
HETATM    9  C17 UNL     1      -1.780  49.977 -23.739  1.00  0.00     0.015 C 
HETATM   10  C18 UNL     1      -1.467  51.242 -22.932  1.00  0.00    -0.029 C 
HETATM   11  C19 UNL     1      -2.599  52.277 -23.202  1.00  0.00     0.016 C 
HETATM   12  C20 UNL     1      -4.766  48.934 -21.228  1.00  0.00    -0.016 C 
HETATM   13  C21 UNL     1      -5.796  50.069 -21.484  1.00  0.00     0.020 C 
HETATM   14  C22 UNL     1      -5.294  47.675 -21.973  1.00  0.00     0.017 C 
HETATM   15  C23 UNL     1      -4.812  46.376 -21.347  1.00  0.00     0.039 C 
HETATM   16  C24 UNL     1      -5.340  46.169 -19.900  1.00  0.00     0.061 C 
HETATM   17  C25 UNL     1      -4.387  45.162 -19.224  1.00  0.00     0.046 C 
HETATM   18  C26 UNL     1      -5.525  47.538 -19.098  1.00  0.00    -0.012 C 
HETATM   19  C27 UNL     1      -6.989  48.037 -19.136  1.00  0.00     0.018 C 
HETATM   20  C28 UNL     1      -5.229  47.336 -17.587  1.00  0.00     0.018 C 
HETATM   21  C29 UNL     1      -4.522  48.578 -19.708  1.00  0.00     0.009 C 
HETATM   22  C30 UNL     1      -4.260  49.865 -18.915  1.00  0.00     0.011 C 
HETATM   23  C31 UNL     1      -3.036  50.606 -19.480  1.00  0.00     0.036 C 
ENDROOT
BRANCH   1  24
HETATM   24  C7  UNL     1       0.154  52.627 -24.548  1.00  0.00    -0.014 C 
HETATM   25  C8  UNL     1       0.564  54.100 -24.418  1.00  0.00     0.010 C 
BRANCH  24  26
HETATM   26  C6  UNL     1       1.208  51.854 -25.386  1.00  0.00     0.008 C 
BRANCH  26  27
HETATM   27  C5  UNL     1       0.812  51.645 -26.852  1.00  0.00     0.028 C 
BRANCH  27  28
HETATM   28  C4  UNL     1      -0.414  50.777 -26.960  1.00  0.00    -0.025 C 
HETATM   29  C2  UNL     1      -1.682  51.163 -27.200  1.00  0.00    -0.091 C 
HETATM   30  C1  UNL     1      -2.784  50.140 -27.314  1.00  0.00     0.042 C 
HETATM   31  C3  UNL     1      -2.138  52.585 -27.373  1.00  0.00     0.042 C 
ENDBRANCH  27  28
ENDBRANCH  26  27
ENDBRANCH  24  26
ENDBRANCH   1  24
BRANCH  16  32
HETATM   32  O1  UNL     1      -6.615  45.512 -19.984  1.00  0.00    -0.389 OA
HETATM   33  H41 UNL     1      -6.490  44.661 -20.437  1.00  0.00     0.210 HD
ENDBRANCH  16  32
TORSDOF 5
ENDMDL
MODEL 5
REMARK minimizedAffinity -8.70684338
REMARK  5 active torsions:
REMARK  status: ('A' for Active; 'I' for Inactive)
REMARK    1  A    between atoms: C4_4  and  C5_5 
REMARK    2  A    between atoms: C5_5  and  C6_6 
REMARK    3  A    between atoms: C6_6  and  C7_7 
REMARK    4  A    between atoms: C7_7  and  C9_9 
REMARK    5  A    between atoms: C24_24  and  O1_26 
ROOT
HETATM    1  C9  UNL     1      -2.188  51.242 -24.701  1.00  0.00    -0.002 C 
HETATM    2  C10 UNL     1      -3.269  52.269 -25.133  1.00  0.00     0.007 C 
HETATM    3  C11 UNL     1      -4.594  51.831 -24.467  1.00  0.00     0.015 C 
HETATM    4  C12 UNL     1      -4.181  50.788 -23.410  1.00  0.00    -0.013 C 
HETATM    5  C13 UNL     1      -3.748  51.582 -22.137  1.00  0.00     0.021 C 
HETATM    6  C14 UNL     1      -5.199  49.774 -22.908  1.00  0.00    -0.068 C 
HETATM    7  C15 UNL     1      -4.771  48.573 -22.431  1.00  0.00    -0.068 C 
HETATM    8  C16 UNL     1      -3.299  48.159 -22.487  1.00  0.00     0.036 C 
HETATM    9  C17 UNL     1      -2.311  49.126 -23.176  1.00  0.00     0.015 C 
HETATM   10  C18 UNL     1      -3.027  50.044 -24.173  1.00  0.00    -0.029 C 
HETATM   11  C19 UNL     1      -3.530  49.167 -25.358  1.00  0.00     0.016 C 
HETATM   12  C20 UNL     1      -5.799  47.544 -21.896  1.00  0.00    -0.016 C 
HETATM   13  C21 UNL     1      -6.276  46.781 -23.163  1.00  0.00     0.020 C 
HETATM   14  C22 UNL     1      -5.244  46.473 -20.914  1.00  0.00     0.017 C 
HETATM   15  C23 UNL     1      -5.333  46.906 -19.459  1.00  0.00     0.039 C 
HETATM   16  C24 UNL     1      -6.797  47.097 -18.973  1.00  0.00     0.061 C 
HETATM   17  C25 UNL     1      -6.734  48.019 -17.738  1.00  0.00     0.046 C 
HETATM   18  C26 UNL     1      -7.779  47.609 -20.125  1.00  0.00    -0.012 C 
HETATM   19  C27 UNL     1      -8.566  46.445 -20.774  1.00  0.00     0.018 C 
HETATM   20  C28 UNL     1      -8.880  48.535 -19.540  1.00  0.00     0.018 C 
HETATM   21  C29 UNL     1      -6.910  48.397 -21.166  1.00  0.00     0.009 C 
HETATM   22  C30 UNL     1      -7.644  49.269 -22.193  1.00  0.00     0.011 C 
HETATM   23  C31 UNL     1      -6.655  50.204 -22.911  1.00  0.00     0.036 C 
ENDROOT
BRANCH   1  24
HETATM   24  C7  UNL     1      -1.044  50.956 -25.718  1.00  0.00    -0.014 C 
HETATM   25  C8  UNL     1      -1.260  51.527 -27.126  1.00  0.00     0.010 C 
BRANCH  24  26
HETATM   26  C6  UNL     1       0.297  51.479 -25.134  1.00  0.00     0.008 C 
BRANCH  26  27
HETATM   27  C5  UNL     1       0.137  52.628 -24.131  1.00  0.00     0.028 C 
BRANCH  27  28
HETATM   28  C4  UNL     1       0.021  52.102 -22.725  1.00  0.00    -0.025 C 
HETATM   29  C2  UNL     1       0.479  52.666 -21.591  1.00  0.00    -0.091 C 
HETATM   30  C1  UNL     1       0.233  52.009 -20.256  1.00  0.00     0.042 C 
HETATM   31  C3  UNL     1       1.256  53.951 -21.513  1.00  0.00     0.042 C 
ENDBRANCH  27  28
ENDBRANCH  26  27
ENDBRANCH  24  26
ENDBRANCH   1  24
BRANCH  16  32
HETATM   32  O1  UNL     1      -7.274  45.829 -18.496  1.00  0.00    -0.389 OA
HETATM   33  H41 UNL     1      -6.698  45.541 -17.768  1.00  0.00     0.210 HD
ENDBRANCH  16  32
TORSDOF 5
ENDMDL
MODEL 6
REMARK minimizedAffinity -8.6493721
REMARK  5 active torsions:
REMARK  status: ('A' for Active; 'I' for Inactive)
REMARK    1  A    between atoms: C4_4  and  C5_5 
REMARK    2  A    between atoms: C5_5  and  C6_6 
REMARK    3  A    between atoms: C6_6  and  C7_7 
REMARK    4  A    between atoms: C7_7  and  C9_9 
REMARK    5  A    between atoms: C24_24  and  O1_26 
ROOT
HETATM    1  C9  UNL     1      -1.599  50.550 -23.702  1.00  0.00    -0.002 C 
HETATM    2  C10 UNL     1      -1.468  51.591 -22.558  1.00  0.00     0.007 C 
HETATM    3  C11 UNL     1      -2.644  51.339 -21.587  1.00  0.00     0.015 C 
HETATM    4  C12 UNL     1      -3.211  49.966 -21.997  1.00  0.00    -0.013 C 
HETATM    5  C13 UNL     1      -2.333  48.884 -21.291  1.00  0.00     0.021 C 
HETATM    6  C14 UNL     1      -4.644  49.599 -21.638  1.00  0.00    -0.068 C 
HETATM    7  C15 UNL     1      -5.319  48.699 -22.405  1.00  0.00    -0.068 C 
HETATM    8  C16 UNL     1      -4.722  48.123 -23.691  1.00  0.00     0.036 C 
HETATM    9  C17 UNL     1      -3.343  48.656 -24.138  1.00  0.00     0.015 C 
HETATM   10  C18 UNL     1      -3.064  50.048 -23.559  1.00  0.00    -0.029 C 
HETATM   11  C19 UNL     1      -4.051  51.053 -24.225  1.00  0.00     0.016 C 
HETATM   12  C20 UNL     1      -6.770  48.302 -22.032  1.00  0.00    -0.016 C 
HETATM   13  C21 UNL     1      -7.651  49.402 -22.688  1.00  0.00     0.020 C 
HETATM   14  C22 UNL     1      -7.270  46.940 -22.591  1.00  0.00     0.017 C 
HETATM   15  C23 UNL     1      -7.002  45.781 -21.643  1.00  0.00     0.039 C 
HETATM   16  C24 UNL     1      -7.772  45.908 -20.300  1.00  0.00     0.061 C 
HETATM   17  C25 UNL     1      -7.026  45.024 -19.279  1.00  0.00     0.046 C 
HETATM   18  C26 UNL     1      -7.974  47.422 -19.833  1.00  0.00    -0.012 C 
HETATM   19  C27 UNL     1      -9.368  47.967 -20.226  1.00  0.00     0.018 C 
HETATM   20  C28 UNL     1      -7.945  47.530 -18.284  1.00  0.00     0.018 C 
HETATM   21  C29 UNL     1      -6.806  48.264 -20.454  1.00  0.00     0.009 C 
HETATM   22  C30 UNL     1      -6.573  49.676 -19.901  1.00  0.00     0.011 C 
HETATM   23  C31 UNL     1      -5.218  50.226 -20.380  1.00  0.00     0.036 C 
ENDROOT
BRANCH   1  24
HETATM   24  C7  UNL     1      -1.097  50.986 -25.110  1.00  0.00    -0.014 C 
HETATM   25  C8  UNL     1      -1.603  50.130 -26.279  1.00  0.00     0.010 C 
BRANCH  24  26
HETATM   26  C6  UNL     1      -1.469  52.476 -25.343  1.00  0.00     0.008 C 
BRANCH  26  27
HETATM   27  C5  UNL     1      -0.260  53.407 -25.491  1.00  0.00     0.028 C 
BRANCH  27  28
HETATM   28  C4  UNL     1       0.998  52.619 -25.744  1.00  0.00    -0.025 C 
HETATM   29  C2  UNL     1       1.455  52.144 -26.919  1.00  0.00    -0.091 C 
HETATM   30  C1  UNL     1       2.767  51.405 -26.988  1.00  0.00     0.042 C 
HETATM   31  C3  UNL     1       0.752  52.279 -28.241  1.00  0.00     0.042 C 
ENDBRANCH  27  28
ENDBRANCH  26  27
ENDBRANCH  24  26
ENDBRANCH   1  24
BRANCH  16  32
HETATM   32  O1  UNL     1      -9.065  45.306 -20.472  1.00  0.00    -0.389 OA
HETATM   33  H41 UNL     1      -8.938  44.374 -20.717  1.00  0.00     0.210 HD
ENDBRANCH  16  32
TORSDOF 5
ENDMDL
MODEL 7
REMARK minimizedAffinity -8.56209946
REMARK  5 active torsions:
REMARK  status: ('A' for Active; 'I' for Inactive)
REMARK    1  A    between atoms: C4_4  and  C5_5 
REMARK    2  A    between atoms: C5_5  and  C6_6 
REMARK    3  A    between atoms: C6_6  and  C7_7 
REMARK    4  A    between atoms: C7_7  and  C9_9 
REMARK    5  A    between atoms: C24_24  and  O1_26 
ROOT
HETATM    1  C9  UNL     1      -1.481  50.375 -23.118  1.00  0.00    -0.002 C 
HETATM    2  C10 UNL     1      -0.913  50.411 -21.675  1.00  0.00     0.007 C 
HETATM    3  C11 UNL     1      -1.881  49.591 -20.792  1.00  0.00     0.015 C 
HETATM    4  C12 UNL     1      -2.775  48.826 -21.787  1.00  0.00    -0.013 C 
HETATM    5  C13 UNL     1      -1.991  47.541 -22.204  1.00  0.00     0.021 C 
HETATM    6  C14 UNL     1      -4.142  48.322 -21.346  1.00  0.00    -0.068 C 
HETATM    7  C15 UNL     1      -5.124  48.148 -22.272  1.00  0.00    -0.068 C 
HETATM    8  C16 UNL     1      -4.937  48.552 -23.736  1.00  0.00     0.036 C 
HETATM    9  C17 UNL     1      -3.609  49.239 -24.122  1.00  0.00     0.015 C 
HETATM   10  C18 UNL     1      -2.951  49.910 -22.910  1.00  0.00    -0.029 C 
HETATM   11  C19 UNL     1      -3.845  51.111 -22.480  1.00  0.00     0.016 C 
HETATM   12  C20 UNL     1      -6.511  47.612 -21.834  1.00  0.00    -0.016 C 
HETATM   13  C21 UNL     1      -7.284  48.878 -21.368  1.00  0.00     0.020 C 
HETATM   14  C22 UNL     1      -7.370  46.951 -22.949  1.00  0.00     0.017 C 
HETATM   15  C23 UNL     1      -7.134  45.454 -23.065  1.00  0.00     0.039 C 
HETATM   16  C24 UNL     1      -7.562  44.674 -21.790  1.00  0.00     0.061 C 
HETATM   17  C25 UNL     1      -6.799  43.334 -21.818  1.00  0.00     0.046 C 
HETATM   18  C26 UNL     1      -7.366  45.514 -20.445  1.00  0.00    -0.012 C 
HETATM   19  C27 UNL     1      -8.680  46.191 -19.990  1.00  0.00     0.018 C 
HETATM   20  C28 UNL     1      -6.987  44.581 -19.263  1.00  0.00     0.018 C 
HETATM   21  C29 UNL     1      -6.217  46.550 -20.703  1.00  0.00     0.009 C 
HETATM   22  C30 UNL     1      -5.605  47.254 -19.485  1.00  0.00     0.011 C 
HETATM   23  C31 UNL     1      -4.304  47.974 -19.876  1.00  0.00     0.036 C 
ENDROOT
BRANCH   1  24
HETATM   24  C7  UNL     1      -1.216  51.623 -24.011  1.00  0.00    -0.014 C 
HETATM   25  C8  UNL     1      -2.417  52.561 -24.197  1.00  0.00     0.010 C 
BRANCH  24  26
HETATM   26  C6  UNL     1      -0.011  52.414 -23.433  1.00  0.00     0.008 C 
BRANCH  26  27
HETATM   27  C5  UNL     1       0.800  53.177 -24.487  1.00  0.00     0.028 C 
BRANCH  27  28
HETATM   28  C4  UNL     1       0.426  52.735 -25.877  1.00  0.00    -0.025 C 
HETATM   29  C2  UNL     1       1.123  51.935 -26.706  1.00  0.00    -0.091 C 
HETATM   30  C1  UNL     1       0.568  51.565 -28.059  1.00  0.00     0.042 C 
HETATM   31  C3  UNL     1       2.473  51.342 -26.409  1.00  0.00     0.042 C 
ENDBRANCH  27  28
ENDBRANCH  26  27
ENDBRANCH  24  26
ENDBRANCH   1  24
BRANCH  16  32
HETATM   32  O1  UNL     1      -8.953  44.340 -21.922  1.00  0.00    -0.389 OA
HETATM   33  H41 UNL     1      -9.061  43.795 -22.719  1.00  0.00     0.210 HD
ENDBRANCH  16  32
TORSDOF 5
ENDMDL
MODEL 8
REMARK minimizedAffinity -8.32976818
REMARK  5 active torsions:
REMARK  status: ('A' for Active; 'I' for Inactive)
REMARK    1  A    between atoms: C4_4  and  C5_5 
REMARK    2  A    between atoms: C5_5  and  C6_6 
REMARK    3  A    between atoms: C6_6  and  C7_7 
REMARK    4  A    between atoms: C7_7  and  C9_9 
REMARK    5  A    between atoms: C24_24  and  O1_26 
ROOT
HETATM    1  C9  UNL     1      -2.935  50.243 -24.442  1.00  0.00    -0.002 C 
HETATM    2  C10 UNL     1      -3.612  49.366 -25.528  1.00  0.00     0.007 C 
HETATM    3  C11 UNL     1      -4.613  48.442 -24.798  1.00  0.00     0.015 C 
HETATM    4  C12 UNL     1      -4.742  49.036 -23.382  1.00  0.00    -0.013 C 
HETATM    5  C13 UNL     1      -5.794  50.187 -23.469  1.00  0.00     0.021 C 
HETATM    6  C14 UNL     1      -5.219  48.160 -22.232  1.00  0.00    -0.068 C 
HETATM    7  C15 UNL     1      -4.843  48.460 -20.959  1.00  0.00    -0.068 C 
HETATM    8  C16 UNL     1      -3.858  49.590 -20.651  1.00  0.00     0.036 C 
HETATM    9  C17 UNL     1      -3.238  50.342 -21.850  1.00  0.00     0.015 C 
HETATM   10  C18 UNL     1      -3.260  49.487 -23.122  1.00  0.00    -0.029 C 
HETATM   11  C19 UNL     1      -2.275  48.297 -22.919  1.00  0.00     0.016 C 
HETATM   12  C20 UNL     1      -5.343  47.587 -19.780  1.00  0.00    -0.016 C 
HETATM   13  C21 UNL     1      -4.332  46.408 -19.717  1.00  0.00     0.020 C 
HETATM   14  C22 UNL     1      -5.330  48.261 -18.379  1.00  0.00     0.017 C 
HETATM   15  C23 UNL     1      -6.638  48.965 -18.052  1.00  0.00     0.039 C 
HETATM   16  C24 UNL     1      -7.843  47.988 -17.956  1.00  0.00     0.061 C 
HETATM   17  C25 UNL     1      -9.114  48.837 -18.166  1.00  0.00     0.046 C 
HETATM   18  C26 UNL     1      -7.718  46.738 -18.943  1.00  0.00    -0.012 C 
HETATM   19  C27 UNL     1      -7.158  45.488 -18.223  1.00  0.00     0.018 C 
HETATM   20  C28 UNL     1      -9.117  46.293 -19.449  1.00  0.00     0.018 C 
HETATM   21  C29 UNL     1      -6.824  47.183 -20.152  1.00  0.00     0.009 C 
HETATM   22  C30 UNL     1      -6.814  46.288 -21.399  1.00  0.00     0.011 C 
HETATM   23  C31 UNL     1      -6.159  47.020 -22.582  1.00  0.00     0.036 C 
ENDROOT
BRANCH   1  24
HETATM   24  C7  UNL     1      -1.463  50.677 -24.705  1.00  0.00    -0.014 C 
HETATM   25  C8  UNL     1      -0.982  50.519 -26.154  1.00  0.00     0.010 C 
BRANCH  24  26
HETATM   26  C6  UNL     1      -1.277  52.148 -24.242  1.00  0.00     0.008 C 
BRANCH  26  27
HETATM   27  C5  UNL     1       0.055  52.417 -23.532  1.00  0.00     0.028 C 
BRANCH  27  28
HETATM   28  C4  UNL     1      -0.089  52.263 -22.042  1.00  0.00    -0.025 C 
HETATM   29  C2  UNL     1       0.487  53.002 -21.074  1.00  0.00    -0.091 C 
HETATM   30  C1  UNL     1       0.193  52.724 -19.621  1.00  0.00     0.042 C 
HETATM   31  C3  UNL     1       1.449  54.135 -21.304  1.00  0.00     0.042 C 
ENDBRANCH  27  28
ENDBRANCH  26  27
ENDBRANCH  24  26
ENDBRANCH   1  24
BRANCH  16  32
HETATM   32  O1  UNL     1      -7.912  47.501 -16.607  1.00  0.00    -0.389 OA
HETATM   33  H41 UNL     1      -8.029  48.262 -16.013  1.00  0.00     0.210 HD
ENDBRANCH  16  32
TORSDOF 5
ENDMDL
MODEL 9
REMARK minimizedAffinity -8.3179903
REMARK  5 active torsions:
REMARK  status: ('A' for Active; 'I' for Inactive)
REMARK    1  A    between atoms: C4_4  and  C5_5 
REMARK    2  A    between atoms: C5_5  and  C6_6 
REMARK    3  A    between atoms: C6_6  and  C7_7 
REMARK    4  A    between atoms: C7_7  and  C9_9 
REMARK    5  A    between atoms: C24_24  and  O1_26 
ROOT
HETATM    1  C9  UNL     1      -1.929  52.164 -22.460  1.00  0.00    -0.002 C 
HETATM    2  C10 UNL     1      -2.666  52.347 -23.814  1.00  0.00     0.007 C 
HETATM    3  C11 UNL     1      -3.906  51.425 -23.777  1.00  0.00     0.015 C 
HETATM    4  C12 UNL     1      -4.045  51.006 -22.301  1.00  0.00    -0.013 C 
HETATM    5  C13 UNL     1      -4.817  52.153 -21.575  1.00  0.00     0.021 C 
HETATM    6  C14 UNL     1      -4.807  49.738 -21.941  1.00  0.00    -0.068 C 
HETATM    7  C15 UNL     1      -4.503  49.075 -20.792  1.00  0.00    -0.068 C 
HETATM    8  C16 UNL     1      -3.337  49.501 -19.897  1.00  0.00     0.036 C 
HETATM    9  C17 UNL     1      -2.458  50.675 -20.380  1.00  0.00     0.015 C 
HETATM   10  C18 UNL     1      -2.535  50.844 -21.902  1.00  0.00    -0.029 C 
HETATM   11  C19 UNL     1      -1.847  49.609 -22.559  1.00  0.00     0.016 C 
HETATM   12  C20 UNL     1      -5.290  47.796 -20.407  1.00  0.00    -0.016 C 
HETATM   13  C21 UNL     1      -4.561  46.652 -21.166  1.00  0.00     0.020 C 
HETATM   14  C22 UNL     1      -5.274  47.413 -18.900  1.00  0.00     0.017 C 
HETATM   15  C23 UNL     1      -6.429  48.025 -18.124  1.00  0.00     0.039 C 
HETATM   16  C24 UNL     1      -7.816  47.510 -18.598  1.00  0.00     0.061 C 
HETATM   17  C25 UNL     1      -8.853  48.559 -18.146  1.00  0.00     0.046 C 
HETATM   18  C26 UNL     1      -7.861  47.172 -20.159  1.00  0.00    -0.012 C 
HETATM   19  C27 UNL     1      -7.651  45.663 -20.430  1.00  0.00     0.018 C 
HETATM   20  C28 UNL     1      -9.265  47.475 -20.748  1.00  0.00     0.018 C 
HETATM   21  C29 UNL     1      -6.778  48.063 -20.862  1.00  0.00     0.009 C 
HETATM   22  C30 UNL     1      -6.835  48.179 -22.391  1.00  0.00     0.011 C 
HETATM   23  C31 UNL     1      -5.927  49.321 -22.878  1.00  0.00     0.036 C 
ENDROOT
BRANCH   1  24
HETATM   24  C7  UNL     1      -0.380  52.321 -22.475  1.00  0.00    -0.014 C 
HETATM   25  C8  UNL     1       0.363  51.599 -21.343  1.00  0.00     0.010 C 
BRANCH  24  26
HETATM   26  C6  UNL     1       0.165  51.851 -23.851  1.00  0.00     0.008 C 
BRANCH  26  27
HETATM   27  C5  UNL     1       0.746  52.979 -24.713  1.00  0.00     0.028 C 
BRANCH  27  28
HETATM   28  C4  UNL     1       0.510  52.713 -26.176  1.00  0.00    -0.025 C 
HETATM   29  C2  UNL     1       1.290  52.019 -27.027  1.00  0.00    -0.091 C 
HETATM   30  C1  UNL     1       0.870  51.821 -28.462  1.00  0.00     0.042 C 
HETATM   31  C3  UNL     1       2.610  51.389 -26.677  1.00  0.00     0.042 C 
ENDBRANCH  27  28
ENDBRANCH  26  27
ENDBRANCH  24  26
ENDBRANCH   1  24
BRANCH  16  32
HETATM   32  O1  UNL     1      -8.119  46.313 -17.862  1.00  0.00    -0.389 OA
HETATM   33  H41 UNL     1      -8.131  46.532 -16.916  1.00  0.00     0.210 HD
ENDBRANCH  16  32
TORSDOF 5
ENDMDL
