MODEL 1
REMARK minimizedAffinity -6.98470688
REMARK CNNscore 0.627440572
REMARK CNNaffinity 6.31225967
REMARK  8 active torsions:
REMARK  status: ('A' for Active; 'I' for Inactive)
REMARK    1  A    between atoms: C2_2  and  C3_3 
REMARK    2  A    between atoms: C2_2  and  C9_11 
REMARK    3  A    between atoms: C3_3  and  C4_4 
REMARK    4  A    between atoms: C4_4  and  C5_5 
REMARK    5  A    between atoms: C5_5  and  O1_6 
REMARK    6  A    between atoms: C5_5  and  C6_7 
REMARK    7  A    between atoms: C6_7  and  O2_10 
REMARK    8  A    between atoms: C30_34  and  O5_35 
ROOT
HETATM    1  C9  UNL     1      -0.577  11.405  17.704  1.00  0.00    -0.001 C 
HETATM    2  C10 UNL     1      -0.060  12.401  16.631  1.00  0.00     0.007 C 
HETATM    3  C11 UNL     1       1.283  12.969  17.121  1.00  0.00     0.015 C 
HETATM    4  C12 UNL     1       1.691  12.070  18.299  1.00  0.00    -0.009 C 
HETATM    5  C13 UNL     1       2.392  10.810  17.700  1.00  0.00     0.021 C 
HETATM    6  C14 UNL     1       2.629  12.632  19.370  1.00  0.00    -0.032 C 
HETATM    7  C15 UNL     1       2.619  12.107  20.627  1.00  0.00     0.002 C 
HETATM    8  C16 UNL     1       1.727  10.913  20.865  1.00  0.00     0.157 C 
HETATM    9  O3  UNL     1       2.021  10.064  21.705  1.00  0.00    -0.293 OA
HETATM   10  C17 UNL     1       0.474  10.708  20.016  1.00  0.00     0.094 C 
HETATM   11  C18 UNL     1       0.284  11.795  18.953  1.00  0.00    -0.022 C 
HETATM   12  C19 UNL     1      -0.340  13.053  19.635  1.00  0.00     0.017 C 
HETATM   13  C20 UNL     1       3.484  12.711  21.757  1.00  0.00    -0.008 C 
HETATM   14  C21 UNL     1       2.642  13.907  22.287  1.00  0.00     0.021 C 
HETATM   15  C22 UNL     1       3.810  11.849  23.011  1.00  0.00     0.022 C 
HETATM   16  C23 UNL     1       5.100  11.060  22.874  1.00  0.00     0.080 C 
HETATM   17  C24 UNL     1       6.256  12.042  22.827  1.00  0.00     0.135 C 
HETATM   18  O4  UNL     1       7.303  11.802  23.428  1.00  0.00    -0.297 OA
HETATM   19  C25 UNL     1       6.068  13.330  21.995  1.00  0.00     0.018 C 
HETATM   20  C26 UNL     1       5.946  14.519  22.955  1.00  0.00     0.023 C 
HETATM   21  C27 UNL     1       7.354  13.519  21.159  1.00  0.00     0.023 C 
HETATM   22  C28 UNL     1       4.837  13.124  21.055  1.00  0.00     0.016 C 
HETATM   23  C29 UNL     1       4.569  14.241  20.032  1.00  0.00     0.043 C 
HETATM   24  C30 UNL     1       3.548  13.778  18.974  1.00  0.00     0.149 C 
ENDROOT
BRANCH   1  25
HETATM   25  C2  UNL     1      -2.134  11.369  17.816  1.00  0.00    -0.014 C 
HETATM   26  C1  UNL     1      -2.607  10.223  18.724  1.00  0.00     0.010 C 
BRANCH  25  27
HETATM   27  C3  UNL     1      -2.845  11.183  16.443  1.00  0.00     0.007 C 
BRANCH  27  28
HETATM   28  C4  UNL     1      -2.479   9.899  15.679  1.00  0.00     0.035 C 
BRANCH  28  29
HETATM   29  C5  UNL     1      -3.356   9.700  14.427  1.00  0.00     0.151 C 
BRANCH  29  30
HETATM   30  O1  UNL     1      -2.477   9.411  13.330  1.00  0.00    -0.393 OA
HETATM   31  H10 UNL     1      -2.326   8.445  13.358  1.00  0.00     0.210 HD
ENDBRANCH  29  30
BRANCH  29  32
HETATM   32  C6  UNL     1      -4.395   8.546  14.548  1.00  0.00     0.076 C 
HETATM   33  C7  UNL     1      -5.640   8.942  15.350  1.00  0.00     0.048 C 
HETATM   34  C8  UNL     1      -4.824   8.061  13.157  1.00  0.00     0.048 C 
BRANCH  32  35
HETATM   35  O2  UNL     1      -3.760   7.425  15.188  1.00  0.00    -0.388 OA
HETATM   36  H17 UNL     1      -3.727   7.599  16.145  1.00  0.00     0.210 HD
ENDBRANCH  32  35
ENDBRANCH  29  32
ENDBRANCH  28  29
ENDBRANCH  27  28
ENDBRANCH  25  27
ENDBRANCH   1  25
BRANCH  24  37
HETATM   37  O5  UNL     1       4.286  13.374  17.823  1.00  0.00    -0.391 OA
HETATM   38  H48 UNL     1       4.842  12.618  18.079  1.00  0.00     0.210 HD
ENDBRANCH  24  37
TORSDOF 8
ENDMDL
MODEL 2
REMARK minimizedAffinity -8.97490025
REMARK CNNscore 0.586791635
REMARK CNNaffinity 6.93618536
REMARK  8 active torsions:
REMARK  status: ('A' for Active; 'I' for Inactive)
REMARK    1  A    between atoms: C2_2  and  C3_3 
REMARK    2  A    between atoms: C2_2  and  C9_11 
REMARK    3  A    between atoms: C3_3  and  C4_4 
REMARK    4  A    between atoms: C4_4  and  C5_5 
REMARK    5  A    between atoms: C5_5  and  O1_6 
REMARK    6  A    between atoms: C5_5  and  C6_7 
REMARK    7  A    between atoms: C6_7  and  O2_10 
REMARK    8  A    between atoms: C30_34  and  O5_35 
ROOT
HETATM    1  C9  UNL     1      -6.247   7.371  15.142  1.00  0.00    -0.001 C 
HETATM    2  C10 UNL     1      -5.884   8.815  15.583  1.00  0.00     0.007 C 
HETATM    3  C11 UNL     1      -4.480   9.136  15.043  1.00  0.00     0.015 C 
HETATM    4  C12 UNL     1      -4.176   8.019  14.032  1.00  0.00    -0.009 C 
HETATM    5  C13 UNL     1      -4.838   8.426  12.678  1.00  0.00     0.021 C 
HETATM    6  C14 UNL     1      -2.717   7.673  13.725  1.00  0.00    -0.032 C 
HETATM    7  C15 UNL     1      -2.394   6.432  13.265  1.00  0.00     0.002 C 
HETATM    8  C16 UNL     1      -3.534   5.482  12.993  1.00  0.00     0.157 C 
HETATM    9  O3  UNL     1      -3.443   4.622  12.120  1.00  0.00    -0.293 OA
HETATM   10  C17 UNL     1      -4.848   5.619  13.760  1.00  0.00     0.094 C 
HETATM   11  C18 UNL     1      -4.847   6.788  14.750  1.00  0.00    -0.022 C 
HETATM   12  C19 UNL     1      -4.097   6.341  16.045  1.00  0.00     0.017 C 
HETATM   13  C20 UNL     1      -0.922   6.019  13.036  1.00  0.00    -0.008 C 
HETATM   14  C21 UNL     1      -0.419   5.591  14.445  1.00  0.00     0.021 C 
HETATM   15  C22 UNL     1      -0.606   4.815  12.102  1.00  0.00     0.022 C 
HETATM   16  C23 UNL     1      -0.388   5.223  10.656  1.00  0.00     0.080 C 
HETATM   17  C24 UNL     1       0.880   6.053  10.580  1.00  0.00     0.135 C 
HETATM   18  O4  UNL     1       1.670   5.902   9.649  1.00  0.00    -0.297 OA
HETATM   19  C25 UNL     1       1.125   7.087  11.700  1.00  0.00     0.018 C 
HETATM   20  C26 UNL     1       2.276   6.592  12.582  1.00  0.00     0.023 C 
HETATM   21  C27 UNL     1       1.577   8.397  11.014  1.00  0.00     0.023 C 
HETATM   22  C28 UNL     1      -0.223   7.312  12.457  1.00  0.00     0.016 C 
HETATM   23  C29 UNL     1      -0.229   8.423  13.520  1.00  0.00     0.043 C 
HETATM   24  C30 UNL     1      -1.671   8.754  13.955  1.00  0.00     0.149 C 
ENDROOT
BRANCH   1  25
HETATM   25  C2  UNL     1      -7.142   6.616  16.174  1.00  0.00    -0.014 C 
HETATM   26  C1  UNL     1      -7.434   5.176  15.718  1.00  0.00     0.010 C 
BRANCH  25  27
HETATM   27  C3  UNL     1      -8.518   7.303  16.414  1.00  0.00     0.007 C 
BRANCH  27  28
HETATM   28  C4  UNL     1      -8.983   8.257  15.301  1.00  0.00     0.035 C 
BRANCH  28  29
HETATM   29  C5  UNL     1     -10.105   7.642  14.441  1.00  0.00     0.151 C 
BRANCH  29  30
HETATM   30  O1  UNL     1     -10.643   6.529  15.170  1.00  0.00    -0.393 OA
HETATM   31  H10 UNL     1     -11.325   6.905  15.762  1.00  0.00     0.210 HD
ENDBRANCH  29  30
BRANCH  29  32
HETATM   32  C6  UNL     1     -11.267   8.623  14.103  1.00  0.00     0.076 C 
HETATM   33  C7  UNL     1     -10.904  10.091  14.351  1.00  0.00     0.048 C 
HETATM   34  C8  UNL     1     -11.707   8.452  12.643  1.00  0.00     0.048 C 
BRANCH  32  35
HETATM   35  O2  UNL     1     -12.405   8.276  14.911  1.00  0.00    -0.388 OA
HETATM   36  H17 UNL     1     -12.263   8.631  15.806  1.00  0.00     0.210 HD
ENDBRANCH  32  35
ENDBRANCH  29  32
ENDBRANCH  28  29
ENDBRANCH  27  28
ENDBRANCH  25  27
ENDBRANCH   1  25
BRANCH  24  37
HETATM   37  O5  UNL     1      -2.073   9.917  13.234  1.00  0.00    -0.391 OA
HETATM   38  H48 UNL     1      -2.071   9.693  12.287  1.00  0.00     0.210 HD
ENDBRANCH  24  37
TORSDOF 8
ENDMDL
MODEL 3
REMARK minimizedAffinity -6.81748676
REMARK CNNscore 0.502068937
REMARK CNNaffinity 6.10991144
REMARK  8 active torsions:
REMARK  status: ('A' for Active; 'I' for Inactive)
REMARK    1  A    between atoms: C2_2  and  C3_3 
REMARK    2  A    between atoms: C2_2  and  C9_11 
REMARK    3  A    between atoms: C3_3  and  C4_4 
REMARK    4  A    between atoms: C4_4  and  C5_5 
REMARK    5  A    between atoms: C5_5  and  O1_6 
REMARK    6  A    between atoms: C5_5  and  C6_7 
REMARK    7  A    between atoms: C6_7  and  O2_10 
REMARK    8  A    between atoms: C30_34  and  O5_35 
ROOT
HETATM    1  C9  UNL     1     -11.497  14.812   3.016  1.00  0.00    -0.001 C 
HETATM    2  C10 UNL     1     -10.132  15.123   2.343  1.00  0.00     0.007 C 
HETATM    3  C11 UNL     1      -9.264  15.881   3.363  1.00  0.00     0.015 C 
HETATM    4  C12 UNL     1      -9.995  15.721   4.706  1.00  0.00    -0.009 C 
HETATM    5  C13 UNL     1      -9.569  14.342   5.303  1.00  0.00     0.021 C 
HETATM    6  C14 UNL     1      -9.770  16.767   5.801  1.00  0.00    -0.032 C 
HETATM    7  C15 UNL     1     -10.718  16.961   6.761  1.00  0.00     0.002 C 
HETATM    8  C16 UNL     1     -11.917  16.046   6.736  1.00  0.00     0.157 C 
HETATM    9  O3  UNL     1     -12.508  15.753   7.774  1.00  0.00    -0.293 OA
HETATM   10  C17 UNL     1     -12.378  15.416   5.423  1.00  0.00     0.094 C 
HETATM   11  C18 UNL     1     -11.495  15.799   4.231  1.00  0.00    -0.022 C 
HETATM   12  C19 UNL     1     -11.915  17.220   3.739  1.00  0.00     0.017 C 
HETATM   13  C20 UNL     1     -10.567  18.072   7.825  1.00  0.00    -0.008 C 
HETATM   14  C21 UNL     1     -11.075  19.358   7.111  1.00  0.00     0.021 C 
HETATM   15  C22 UNL     1     -11.389  17.980   9.143  1.00  0.00     0.022 C 
HETATM   16  C23 UNL     1     -10.654  17.252  10.255  1.00  0.00     0.080 C 
HETATM   17  C24 UNL     1      -9.454  18.088  10.660  1.00  0.00     0.135 C 
HETATM   18  O4  UNL     1      -9.148  18.206  11.846  1.00  0.00    -0.297 OA
HETATM   19  C25 UNL     1      -8.640  18.763   9.534  1.00  0.00     0.018 C 
HETATM   20  C26 UNL     1      -8.892  20.274   9.587  1.00  0.00     0.023 C 
HETATM   21  C27 UNL     1      -7.146  18.515   9.847  1.00  0.00     0.023 C 
HETATM   22  C28 UNL     1      -9.029  18.086   8.182  1.00  0.00     0.016 C 
HETATM   23  C29 UNL     1      -8.216  18.515   6.948  1.00  0.00     0.043 C 
HETATM   24  C30 UNL     1      -8.473  17.560   5.766  1.00  0.00     0.149 C 
ENDROOT
BRANCH   1  25
HETATM   25  C2  UNL     1     -12.694  14.815   2.014  1.00  0.00    -0.014 C 
HETATM   26  C1  UNL     1     -14.037  14.639   2.741  1.00  0.00     0.010 C 
BRANCH  25  27
HETATM   27  C3  UNL     1     -12.606  13.686   0.945  1.00  0.00     0.007 C 
BRANCH  27  28
HETATM   28  C4  UNL     1     -13.955  13.122   0.469  1.00  0.00     0.035 C 
BRANCH  28  29
HETATM   29  C5  UNL     1     -13.786  12.108  -0.680  1.00  0.00     0.151 C 
BRANCH  29  30
HETATM   30  O1  UNL     1     -12.380  11.869  -0.837  1.00  0.00    -0.393 OA
HETATM   31  H10 UNL     1     -12.159  11.159  -0.201  1.00  0.00     0.210 HD
ENDBRANCH  29  30
BRANCH  29  32
HETATM   32  C6  UNL     1     -14.499  10.744  -0.443  1.00  0.00     0.076 C 
HETATM   33  C7  UNL     1     -15.337  10.289  -1.642  1.00  0.00     0.048 C 
HETATM   34  C8  UNL     1     -13.474   9.655  -0.101  1.00  0.00     0.048 C 
BRANCH  32  35
HETATM   35  O2  UNL     1     -15.353  10.870   0.708  1.00  0.00    -0.388 OA
HETATM   36  H17 UNL     1     -16.164  11.334   0.436  1.00  0.00     0.210 HD
ENDBRANCH  32  35
ENDBRANCH  29  32
ENDBRANCH  28  29
ENDBRANCH  27  28
ENDBRANCH  25  27
ENDBRANCH   1  25
BRANCH  24  37
HETATM   37  O5  UNL     1      -7.390  16.633   5.729  1.00  0.00    -0.391 OA
HETATM   38  H48 UNL     1      -7.408  16.124   6.557  1.00  0.00     0.210 HD
ENDBRANCH  24  37
TORSDOF 8
ENDMDL
MODEL 4
REMARK minimizedAffinity -8.68912315
REMARK CNNscore 0.449394107
REMARK CNNaffinity 6.82077789
REMARK  8 active torsions:
REMARK  status: ('A' for Active; 'I' for Inactive)
REMARK    1  A    between atoms: C2_2  and  C3_3 
REMARK    2  A    between atoms: C2_2  and  C9_11 
REMARK    3  A    between atoms: C3_3  and  C4_4 
REMARK    4  A    between atoms: C4_4  and  C5_5 
REMARK    5  A    between atoms: C5_5  and  O1_6 
REMARK    6  A    between atoms: C5_5  and  C6_7 
REMARK    7  A    between atoms: C6_7  and  O2_10 
REMARK    8  A    between atoms: C30_34  and  O5_35 
ROOT
HETATM    1  C9  UNL     1      -3.459   7.494  15.066  1.00  0.00    -0.001 C 
HETATM    2  C10 UNL     1      -3.967   6.094  14.627  1.00  0.00     0.007 C 
HETATM    3  C11 UNL     1      -2.953   5.515  13.625  1.00  0.00     0.015 C 
HETATM    4  C12 UNL     1      -1.718   6.425  13.736  1.00  0.00    -0.009 C 
HETATM    5  C13 UNL     1      -0.876   5.918  14.949  1.00  0.00     0.021 C 
HETATM    6  C14 UNL     1      -0.763   6.527  12.545  1.00  0.00    -0.032 C 
HETATM    7  C15 UNL     1       0.014   7.635  12.388  1.00  0.00     0.002 C 
HETATM    8  C16 UNL     1      -0.051   8.678  13.477  1.00  0.00     0.157 C 
HETATM    9  O3  UNL     1       0.923   9.384  13.732  1.00  0.00    -0.293 OA
HETATM   10  C17 UNL     1      -1.313   8.828  14.324  1.00  0.00     0.094 C 
HETATM   11  C18 UNL     1      -2.409   7.825  13.952  1.00  0.00    -0.022 C 
HETATM   12  C19 UNL     1      -3.154   8.350  12.684  1.00  0.00     0.017 C 
HETATM   13  C20 UNL     1       0.919   7.812  11.148  1.00  0.00    -0.008 C 
HETATM   14  C21 UNL     1      -0.036   8.369  10.053  1.00  0.00     0.021 C 
HETATM   15  C22 UNL     1       2.106   8.817  11.209  1.00  0.00     0.022 C 
HETATM   16  C23 UNL     1       3.404   8.180  11.674  1.00  0.00     0.080 C 
HETATM   17  C24 UNL     1       3.853   7.187  10.618  1.00  0.00     0.135 C 
HETATM   18  O4  UNL     1       5.041   7.096  10.312  1.00  0.00    -0.297 OA
HETATM   19  C25 UNL     1       2.770   6.301   9.963  1.00  0.00     0.018 C 
HETATM   20  C26 UNL     1       2.570   6.763   8.515  1.00  0.00     0.023 C 
HETATM   21  C27 UNL     1       3.324   4.859   9.933  1.00  0.00     0.023 C 
HETATM   22  C28 UNL     1       1.486   6.369  10.850  1.00  0.00     0.016 C 
HETATM   23  C29 UNL     1       0.333   5.433  10.449  1.00  0.00     0.043 C 
HETATM   24  C30 UNL     1      -0.726   5.362  11.567  1.00  0.00     0.149 C 
ENDROOT
BRANCH   1  25
HETATM   25  C2  UNL     1      -4.611   8.502  15.371  1.00  0.00    -0.014 C 
HETATM   26  C1  UNL     1      -4.149   9.613  16.328  1.00  0.00     0.010 C 
BRANCH  25  27
HETATM   27  C3  UNL     1      -5.858   7.833  16.022  1.00  0.00     0.007 C 
BRANCH  27  28
HETATM   28  C4  UNL     1      -7.053   7.610  15.080  1.00  0.00     0.035 C 
BRANCH  28  29
HETATM   29  C5  UNL     1      -7.530   6.144  15.086  1.00  0.00     0.151 C 
BRANCH  29  30
HETATM   30  O1  UNL     1      -8.784   6.103  15.782  1.00  0.00    -0.393 OA
HETATM   31  H10 UNL     1      -9.466   6.305  15.111  1.00  0.00     0.210 HD
ENDBRANCH  29  30
BRANCH  29  32
HETATM   32  C6  UNL     1      -7.728   5.527  13.669  1.00  0.00     0.076 C 
HETATM   33  C7  UNL     1      -7.641   3.998  13.663  1.00  0.00     0.048 C 
HETATM   34  C8  UNL     1      -9.077   5.959  13.079  1.00  0.00     0.048 C 
BRANCH  32  35
HETATM   35  O2  UNL     1      -6.716   6.060  12.795  1.00  0.00    -0.388 OA
HETATM   36  H17 UNL     1      -5.884   5.587  12.969  1.00  0.00     0.210 HD
ENDBRANCH  32  35
ENDBRANCH  29  32
ENDBRANCH  28  29
ENDBRANCH  27  28
ENDBRANCH  25  27
ENDBRANCH   1  25
BRANCH  24  37
HETATM   37  O5  UNL     1      -0.475   4.170  12.310  1.00  0.00    -0.391 OA
HETATM   38  H48 UNL     1       0.406   4.253  12.713  1.00  0.00     0.210 HD
ENDBRANCH  24  37
TORSDOF 8
ENDMDL
MODEL 5
REMARK minimizedAffinity -6.81673622
REMARK CNNscore 0.399228901
REMARK CNNaffinity 6.16835356
REMARK  8 active torsions:
REMARK  status: ('A' for Active; 'I' for Inactive)
REMARK    1  A    between atoms: C2_2  and  C3_3 
REMARK    2  A    between atoms: C2_2  and  C9_11 
REMARK    3  A    between atoms: C3_3  and  C4_4 
REMARK    4  A    between atoms: C4_4  and  C5_5 
REMARK    5  A    between atoms: C5_5  and  O1_6 
REMARK    6  A    between atoms: C5_5  and  C6_7 
REMARK    7  A    between atoms: C6_7  and  O2_10 
REMARK    8  A    between atoms: C30_34  and  O5_35 
ROOT
HETATM    1  C9  UNL     1      -0.983   7.987  14.039  1.00  0.00    -0.001 C 
HETATM    2  C10 UNL     1      -1.376   7.066  15.226  1.00  0.00     0.007 C 
HETATM    3  C11 UNL     1      -1.912   7.958  16.360  1.00  0.00     0.015 C 
HETATM    4  C12 UNL     1      -2.131   9.336  15.714  1.00  0.00    -0.009 C 
HETATM    5  C13 UNL     1      -3.528   9.305  15.018  1.00  0.00     0.021 C 
HETATM    6  C14 UNL     1      -2.105  10.583  16.602  1.00  0.00    -0.032 C 
HETATM    7  C15 UNL     1      -1.793  11.795  16.063  1.00  0.00     0.002 C 
HETATM    8  C16 UNL     1      -1.578  11.848  14.570  1.00  0.00     0.157 C 
HETATM    9  O3  UNL     1      -1.835  12.867  13.932  1.00  0.00    -0.293 OA
HETATM   10  C17 UNL     1      -1.096  10.609  13.818  1.00  0.00     0.094 C 
HETATM   11  C18 UNL     1      -0.903   9.391  14.728  1.00  0.00    -0.022 C 
HETATM   12  C19 UNL     1       0.471   9.528  15.456  1.00  0.00     0.017 C 
HETATM   13  C20 UNL     1      -1.666  13.057  16.946  1.00  0.00    -0.008 C 
HETATM   14  C21 UNL     1      -0.222  12.979  17.520  1.00  0.00     0.021 C 
HETATM   15  C22 UNL     1      -1.771  14.462  16.286  1.00  0.00     0.022 C 
HETATM   16  C23 UNL     1      -3.189  15.005  16.263  1.00  0.00     0.080 C 
HETATM   17  C24 UNL     1      -3.622  15.269  17.693  1.00  0.00     0.135 C 
HETATM   18  O4  UNL     1      -4.268  16.278  17.974  1.00  0.00    -0.297 OA
HETATM   19  C25 UNL     1      -3.232  14.224  18.762  1.00  0.00     0.018 C 
HETATM   20  C26 UNL     1      -2.150  14.828  19.665  1.00  0.00     0.023 C 
HETATM   21  C27 UNL     1      -4.489  13.971  19.626  1.00  0.00     0.023 C 
HETATM   22  C28 UNL     1      -2.808  12.913  18.027  1.00  0.00     0.016 C 
HETATM   23  C29 UNL     1      -2.523  11.694  18.921  1.00  0.00     0.043 C 
HETATM   24  C30 UNL     1      -2.433  10.408  18.076  1.00  0.00     0.149 C 
ENDROOT
BRANCH   1  25
HETATM   25  C2  UNL     1       0.233   7.454  13.219  1.00  0.00    -0.014 C 
HETATM   26  C1  UNL     1       1.464   7.236  14.114  1.00  0.00     0.010 C 
BRANCH  25  27
HETATM   27  C3  UNL     1       0.670   8.412  12.073  1.00  0.00     0.007 C 
BRANCH  27  28
HETATM   28  C4  UNL     1       0.751   7.775  10.675  1.00  0.00     0.035 C 
BRANCH  28  29
HETATM   29  C5  UNL     1       1.616   6.500  10.668  1.00  0.00     0.151 C 
BRANCH  29  30
HETATM   30  O1  UNL     1       0.741   5.390  10.415  1.00  0.00    -0.393 OA
HETATM   31  H10 UNL     1       0.669   5.326   9.441  1.00  0.00     0.210 HD
ENDBRANCH  29  30
BRANCH  29  32
HETATM   32  C6  UNL     1       2.746   6.496   9.596  1.00  0.00     0.076 C 
HETATM   33  C7  UNL     1       3.416   7.863   9.426  1.00  0.00     0.048 C 
HETATM   34  C8  UNL     1       3.814   5.450   9.945  1.00  0.00     0.048 C 
BRANCH  32  35
HETATM   35  O2  UNL     1       2.179   6.089   8.337  1.00  0.00    -0.388 OA
HETATM   36  H17 UNL     1       1.712   6.851   7.953  1.00  0.00     0.210 HD
ENDBRANCH  32  35
ENDBRANCH  29  32
ENDBRANCH  28  29
ENDBRANCH  27  28
ENDBRANCH  25  27
ENDBRANCH   1  25
BRANCH  24  37
HETATM   37  O5  UNL     1      -3.695   9.750  18.173  1.00  0.00    -0.391 OA
HETATM   38  H48 UNL     1      -4.365  10.338  17.784  1.00  0.00     0.210 HD
ENDBRANCH  24  37
TORSDOF 8
ENDMDL
MODEL 6
REMARK minimizedAffinity -6.62245321
REMARK CNNscore 0.390639812
REMARK CNNaffinity 5.90758371
REMARK  8 active torsions:
REMARK  status: ('A' for Active; 'I' for Inactive)
REMARK    1  A    between atoms: C2_2  and  C3_3 
REMARK    2  A    between atoms: C2_2  and  C9_11 
REMARK    3  A    between atoms: C3_3  and  C4_4 
REMARK    4  A    between atoms: C4_4  and  C5_5 
REMARK    5  A    between atoms: C5_5  and  O1_6 
REMARK    6  A    between atoms: C5_5  and  C6_7 
REMARK    7  A    between atoms: C6_7  and  O2_10 
REMARK    8  A    between atoms: C30_34  and  O5_35 
ROOT
HETATM    1  C9  UNL     1     -15.168   7.105  21.071  1.00  0.00    -0.001 C 
HETATM    2  C10 UNL     1     -15.464   8.328  21.981  1.00  0.00     0.007 C 
HETATM    3  C11 UNL     1     -15.184   7.914  23.436  1.00  0.00     0.015 C 
HETATM    4  C12 UNL     1     -14.426   6.580  23.333  1.00  0.00    -0.009 C 
HETATM    5  C13 UNL     1     -12.921   6.919  23.092  1.00  0.00     0.021 C 
HETATM    6  C14 UNL     1     -14.478   5.605  24.512  1.00  0.00    -0.032 C 
HETATM    7  C15 UNL     1     -14.277   4.274  24.303  1.00  0.00     0.002 C 
HETATM    8  C16 UNL     1     -13.915   3.846  22.902  1.00  0.00     0.157 C 
HETATM    9  O3  UNL     1     -13.210   2.857  22.707  1.00  0.00    -0.293 OA
HETATM   10  C17 UNL     1     -14.367   4.677  21.703  1.00  0.00     0.094 C 
HETATM   11  C18 UNL     1     -15.160   5.926  22.102  1.00  0.00    -0.022 C 
HETATM   12  C19 UNL     1     -16.631   5.503  22.410  1.00  0.00     0.017 C 
HETATM   13  C20 UNL     1     -14.415   3.251  25.453  1.00  0.00    -0.008 C 
HETATM   14  C21 UNL     1     -15.944   2.972  25.536  1.00  0.00     0.021 C 
HETATM   15  C22 UNL     1     -13.748   1.852  25.313  1.00  0.00     0.022 C 
HETATM   16  C23 UNL     1     -12.334   1.808  25.865  1.00  0.00     0.080 C 
HETATM   17  C24 UNL     1     -12.402   2.002  27.368  1.00  0.00     0.135 C 
HETATM   18  O4  UNL     1     -11.684   1.339  28.116  1.00  0.00    -0.297 OA
HETATM   19  C25 UNL     1     -13.390   3.060  27.908  1.00  0.00     0.018 C 
HETATM   20  C26 UNL     1     -14.550   2.338  28.601  1.00  0.00     0.023 C 
HETATM   21  C27 UNL     1     -12.631   3.882  28.976  1.00  0.00     0.023 C 
HETATM   22  C28 UNL     1     -13.813   3.980  26.719  1.00  0.00     0.016 C 
HETATM   23  C29 UNL     1     -14.683   5.197  27.077  1.00  0.00     0.043 C 
HETATM   24  C30 UNL     1     -14.761   6.179  25.892  1.00  0.00     0.149 C 
ENDROOT
BRANCH   1  25
HETATM   25  C2  UNL     1     -16.092   7.031  19.815  1.00  0.00    -0.014 C 
HETATM   26  C1  UNL     1     -16.396   5.576  19.424  1.00  0.00     0.010 C 
BRANCH  25  27
HETATM   27  C3  UNL     1     -15.478   7.719  18.559  1.00  0.00     0.007 C 
BRANCH  27  28
HETATM   28  C4  UNL     1     -15.315   6.815  17.326  1.00  0.00     0.035 C 
BRANCH  28  29
HETATM   29  C5  UNL     1     -14.788   7.592  16.103  1.00  0.00     0.151 C 
BRANCH  29  30
HETATM   30  O1  UNL     1     -13.493   8.105  16.448  1.00  0.00    -0.393 OA
HETATM   31  H10 UNL     1     -12.860   7.387  16.243  1.00  0.00     0.210 HD
ENDBRANCH  29  30
BRANCH  29  32
HETATM   32  C6  UNL     1     -14.656   6.738  14.807  1.00  0.00     0.076 C 
HETATM   33  C7  UNL     1     -13.207   6.359  14.484  1.00  0.00     0.048 C 
HETATM   34  C8  UNL     1     -15.499   5.461  14.917  1.00  0.00     0.048 C 
BRANCH  32  35
HETATM   35  O2  UNL     1     -15.202   7.489  13.709  1.00  0.00    -0.388 OA
HETATM   36  H17 UNL     1     -14.543   8.149  13.433  1.00  0.00     0.210 HD
ENDBRANCH  32  35
ENDBRANCH  29  32
ENDBRANCH  28  29
ENDBRANCH  27  28
ENDBRANCH  25  27
ENDBRANCH   1  25
BRANCH  24  37
HETATM   37  O5  UNL     1     -13.814   7.217  26.141  1.00  0.00    -0.391 OA
HETATM   38  H48 UNL     1     -12.930   6.812  26.159  1.00  0.00     0.210 HD
ENDBRANCH  24  37
TORSDOF 8
ENDMDL
MODEL 7
REMARK minimizedAffinity -7.97137785
REMARK CNNscore 0.364450634
REMARK CNNaffinity 6.13672209
REMARK  8 active torsions:
REMARK  status: ('A' for Active; 'I' for Inactive)
REMARK    1  A    between atoms: C2_2  and  C3_3 
REMARK    2  A    between atoms: C2_2  and  C9_11 
REMARK    3  A    between atoms: C3_3  and  C4_4 
REMARK    4  A    between atoms: C4_4  and  C5_5 
REMARK    5  A    between atoms: C5_5  and  O1_6 
REMARK    6  A    between atoms: C5_5  and  C6_7 
REMARK    7  A    between atoms: C6_7  and  O2_10 
REMARK    8  A    between atoms: C30_34  and  O5_35 
ROOT
HETATM    1  C9  UNL     1       1.917  10.733  17.000  1.00  0.00    -0.001 C 
HETATM    2  C10 UNL     1       3.465  10.836  16.926  1.00  0.00     0.007 C 
HETATM    3  C11 UNL     1       3.907  10.341  15.538  1.00  0.00     0.015 C 
HETATM    4  C12 UNL     1       2.613  10.264  14.711  1.00  0.00    -0.009 C 
HETATM    5  C13 UNL     1       2.330  11.697  14.159  1.00  0.00     0.021 C 
HETATM    6  C14 UNL     1       2.552   9.309  13.516  1.00  0.00    -0.032 C 
HETATM    7  C15 UNL     1       1.350   8.836  13.084  1.00  0.00     0.002 C 
HETATM    8  C16 UNL     1       0.116   9.370  13.768  1.00  0.00     0.157 C 
HETATM    9  O3  UNL     1      -0.950   9.465  13.162  1.00  0.00    -0.293 OA
HETATM   10  C17 UNL     1       0.189   9.863  15.212  1.00  0.00     0.094 C 
HETATM   11  C18 UNL     1       1.597   9.767  15.808  1.00  0.00    -0.022 C 
HETATM   12  C19 UNL     1       1.846   8.294  16.261  1.00  0.00     0.017 C 
HETATM   13  C20 UNL     1       1.259   7.798  11.942  1.00  0.00    -0.008 C 
HETATM   14  C21 UNL     1       1.505   6.432  12.646  1.00  0.00     0.021 C 
HETATM   15  C22 UNL     1      -0.082   7.629  11.171  1.00  0.00     0.022 C 
HETATM   16  C23 UNL     1      -0.180   8.519   9.944  1.00  0.00     0.080 C 
HETATM   17  C24 UNL     1       0.853   8.056   8.934  1.00  0.00     0.135 C 
HETATM   18  O4  UNL     1       0.578   8.011   7.736  1.00  0.00    -0.297 OA
HETATM   19  C25 UNL     1       2.247   7.659   9.468  1.00  0.00     0.018 C 
HETATM   20  C26 UNL     1       2.402   6.139   9.353  1.00  0.00     0.023 C 
HETATM   21  C27 UNL     1       3.291   8.319   8.538  1.00  0.00     0.023 C 
HETATM   22  C28 UNL     1       2.387   8.219  10.920  1.00  0.00     0.016 C 
HETATM   23  C29 UNL     1       3.768   8.060  11.579  1.00  0.00     0.043 C 
HETATM   24  C30 UNL     1       3.866   8.920  12.855  1.00  0.00     0.149 C 
ENDROOT
BRANCH   1  25
HETATM   25  C2  UNL     1       1.387  10.403  18.430  1.00  0.00    -0.014 C 
HETATM   26  C1  UNL     1       0.042  11.095  18.706  1.00  0.00     0.010 C 
BRANCH  25  27
HETATM   27  C3  UNL     1       2.361  10.838  19.563  1.00  0.00     0.007 C 
BRANCH  27  28
HETATM   28  C4  UNL     1       2.118  10.181  20.932  1.00  0.00     0.035 C 
BRANCH  28  29
HETATM   29  C5  UNL     1       3.436   9.822  21.646  1.00  0.00     0.151 C 
BRANCH  29  30
HETATM   30  O1  UNL     1       4.510  10.152  20.754  1.00  0.00    -0.393 OA
HETATM   31  H10 UNL     1       4.703  11.098  20.909  1.00  0.00     0.210 HD
ENDBRANCH  29  30
BRANCH  29  32
HETATM   32  C6  UNL     1       3.662  10.570  22.994  1.00  0.00     0.076 C 
HETATM   33  C7  UNL     1       3.244  12.043  22.939  1.00  0.00     0.048 C 
HETATM   34  C8  UNL     1       2.902   9.871  24.129  1.00  0.00     0.048 C 
BRANCH  32  35
HETATM   35  O2  UNL     1       5.058  10.488  23.332  1.00  0.00    -0.388 OA
HETATM   36  H17 UNL     1       5.539  11.144  22.799  1.00  0.00     0.210 HD
ENDBRANCH  32  35
ENDBRANCH  29  32
ENDBRANCH  28  29
ENDBRANCH  27  28
ENDBRANCH  25  27
ENDBRANCH   1  25
BRANCH  24  37
HETATM   37  O5  UNL     1       4.554  10.119  12.504  1.00  0.00    -0.391 OA
HETATM   38  H48 UNL     1       4.013  10.588  11.845  1.00  0.00     0.210 HD
ENDBRANCH  24  37
TORSDOF 8
ENDMDL
MODEL 8
REMARK minimizedAffinity -6.26870441
REMARK CNNscore 0.364262998
REMARK CNNaffinity 5.95175123
REMARK  8 active torsions:
REMARK  status: ('A' for Active; 'I' for Inactive)
REMARK    1  A    between atoms: C2_2  and  C3_3 
REMARK    2  A    between atoms: C2_2  and  C9_11 
REMARK    3  A    between atoms: C3_3  and  C4_4 
REMARK    4  A    between atoms: C4_4  and  C5_5 
REMARK    5  A    between atoms: C5_5  and  O1_6 
REMARK    6  A    between atoms: C5_5  and  C6_7 
REMARK    7  A    between atoms: C6_7  and  O2_10 
REMARK    8  A    between atoms: C30_34  and  O5_35 
ROOT
HETATM    1  C9  UNL     1     -13.525  -6.109  12.439  1.00  0.00    -0.001 C 
HETATM    2  C10 UNL     1     -14.374  -6.089  11.139  1.00  0.00     0.007 C 
HETATM    3  C11 UNL     1     -15.253  -4.827  11.167  1.00  0.00     0.015 C 
HETATM    4  C12 UNL     1     -14.682  -3.968  12.307  1.00  0.00    -0.009 C 
HETATM    5  C13 UNL     1     -13.475  -3.167  11.724  1.00  0.00     0.021 C 
HETATM    6  C14 UNL     1     -15.595  -2.952  12.999  1.00  0.00    -0.032 C 
HETATM    7  C15 UNL     1     -15.325  -2.553  14.273  1.00  0.00     0.002 C 
HETATM    8  C16 UNL     1     -14.060  -3.080  14.905  1.00  0.00     0.157 C 
HETATM    9  O3  UNL     1     -13.453  -2.419  15.745  1.00  0.00    -0.293 OA
HETATM   10  C17 UNL     1     -13.478  -4.420  14.459  1.00  0.00     0.094 C 
HETATM   11  C18 UNL     1     -14.291  -5.087  13.345  1.00  0.00    -0.022 C 
HETATM   12  C19 UNL     1     -15.527  -5.795  13.987  1.00  0.00     0.017 C 
HETATM   13  C20 UNL     1     -16.277  -1.602  15.034  1.00  0.00    -0.008 C 
HETATM   14  C21 UNL     1     -17.384  -2.539  15.599  1.00  0.00     0.021 C 
HETATM   15  C22 UNL     1     -15.741  -0.811  16.263  1.00  0.00     0.022 C 
HETATM   16  C23 UNL     1     -15.182   0.552  15.897  1.00  0.00     0.080 C 
HETATM   17  C24 UNL     1     -16.325   1.421  15.406  1.00  0.00     0.135 C 
HETATM   18  O4  UNL     1     -16.393   2.606  15.732  1.00  0.00    -0.297 OA
HETATM   19  C25 UNL     1     -17.376   0.765  14.485  1.00  0.00     0.018 C 
HETATM   20  C26 UNL     1     -18.686   0.612  15.266  1.00  0.00     0.023 C 
HETATM   21  C27 UNL     1     -17.628   1.746  13.317  1.00  0.00     0.023 C 
HETATM   22  C28 UNL     1     -16.781  -0.575  13.946  1.00  0.00     0.016 C 
HETATM   23  C29 UNL     1     -17.617  -1.313  12.887  1.00  0.00     0.043 C 
HETATM   24  C30 UNL     1     -16.788  -2.426  12.216  1.00  0.00     0.149 C 
ENDROOT
BRANCH   1  25
HETATM   25  C2  UNL     1     -13.236  -7.550  12.967  1.00  0.00    -0.014 C 
HETATM   26  C1  UNL     1     -14.482  -8.171  13.619  1.00  0.00     0.010 C 
BRANCH  25  27
HETATM   27  C3  UNL     1     -12.097  -7.600  14.027  1.00  0.00     0.007 C 
BRANCH  27  28
HETATM   28  C4  UNL     1     -12.424  -8.383  15.310  1.00  0.00     0.035 C 
BRANCH  28  29
HETATM   29  C5  UNL     1     -11.656  -7.840  16.532  1.00  0.00     0.151 C 
BRANCH  29  30
HETATM   30  O1  UNL     1     -12.583  -7.072  17.314  1.00  0.00    -0.393 OA
HETATM   31  H10 UNL     1     -13.030  -7.714  17.901  1.00  0.00     0.210 HD
ENDBRANCH  29  30
BRANCH  29  32
HETATM   32  C6  UNL     1     -11.033  -8.942  17.440  1.00  0.00     0.076 C 
HETATM   33  C7  UNL     1     -10.668 -10.216  16.672  1.00  0.00     0.048 C 
HETATM   34  C8  UNL     1      -9.785  -8.407  18.154  1.00  0.00     0.048 C 
BRANCH  32  35
HETATM   35  O2  UNL     1     -11.980  -9.270  18.473  1.00  0.00    -0.388 OA
HETATM   36  H17 UNL     1     -12.655  -9.858  18.092  1.00  0.00     0.210 HD
ENDBRANCH  32  35
ENDBRANCH  29  32
ENDBRANCH  28  29
ENDBRANCH  27  28
ENDBRANCH  25  27
ENDBRANCH   1  25
BRANCH  24  37
HETATM   37  O5  UNL     1     -16.309  -1.907  10.977  1.00  0.00    -0.391 OA
HETATM   38  H48 UNL     1     -15.726  -1.155  11.178  1.00  0.00     0.210 HD
ENDBRANCH  24  37
TORSDOF 8
ENDMDL
MODEL 9
REMARK minimizedAffinity -8.10204124
REMARK CNNscore 0.360526562
REMARK CNNaffinity 6.86661911
REMARK  8 active torsions:
REMARK  status: ('A' for Active; 'I' for Inactive)
REMARK    1  A    between atoms: C2_2  and  C3_3 
REMARK    2  A    between atoms: C2_2  and  C9_11 
REMARK    3  A    between atoms: C3_3  and  C4_4 
REMARK    4  A    between atoms: C4_4  and  C5_5 
REMARK    5  A    between atoms: C5_5  and  O1_6 
REMARK    6  A    between atoms: C5_5  and  C6_7 
REMARK    7  A    between atoms: C6_7  and  O2_10 
REMARK    8  A    between atoms: C30_34  and  O5_35 
ROOT
HETATM    1  C9  UNL     1       2.804   7.694  12.803  1.00  0.00    -0.001 C 
HETATM    2  C10 UNL     1       2.525   9.027  12.056  1.00  0.00     0.007 C 
HETATM    3  C11 UNL     1       1.017   9.318  12.154  1.00  0.00     0.015 C 
HETATM    4  C12 UNL     1       0.491   8.341  13.218  1.00  0.00    -0.009 C 
HETATM    5  C13 UNL     1       0.752   8.990  14.614  1.00  0.00     0.021 C 
HETATM    6  C14 UNL     1      -0.985   7.936  13.186  1.00  0.00    -0.032 C 
HETATM    7  C15 UNL     1      -1.378   6.754  13.739  1.00  0.00     0.002 C 
HETATM    8  C16 UNL     1      -0.322   5.943  14.447  1.00  0.00     0.157 C 
HETATM    9  O3  UNL     1      -0.616   5.215  15.394  1.00  0.00    -0.293 OA
HETATM   10  C17 UNL     1       1.144   6.063  14.037  1.00  0.00     0.094 C 
HETATM   11  C18 UNL     1       1.370   7.071  12.906  1.00  0.00    -0.022 C 
HETATM   12  C19 UNL     1       1.010   6.386  11.550  1.00  0.00     0.017 C 
HETATM   13  C20 UNL     1      -2.844   6.271  13.642  1.00  0.00    -0.008 C 
HETATM   14  C21 UNL     1      -2.935   5.606  12.238  1.00  0.00     0.021 C 
HETATM   15  C22 UNL     1      -3.358   5.196  14.642  1.00  0.00     0.022 C 
HETATM   16  C23 UNL     1      -3.970   5.793  15.897  1.00  0.00     0.080 C 
HETATM   17  C24 UNL     1      -5.238   6.529  15.507  1.00  0.00     0.135 C 
HETATM   18  O4  UNL     1      -6.244   6.457  16.212  1.00  0.00    -0.297 OA
HETATM   19  C25 UNL     1      -5.208   7.368  14.210  1.00  0.00     0.018 C 
HETATM   20  C26 UNL     1      -6.063   6.664  13.151  1.00  0.00     0.023 C 
HETATM   21  C27 UNL     1      -5.870   8.726  14.536  1.00  0.00     0.023 C 
HETATM   22  C28 UNL     1      -3.714   7.579  13.804  1.00  0.00     0.016 C 
HETATM   23  C29 UNL     1      -3.459   8.520  12.615  1.00  0.00     0.043 C 
HETATM   24  C30 UNL     1      -1.966   8.890  12.522  1.00  0.00     0.149 C 
ENDROOT
BRANCH   1  25
HETATM   25  C2  UNL     1       3.968   6.865  12.175  1.00  0.00    -0.014 C 
HETATM   26  C1  UNL     1       5.221   7.728  11.959  1.00  0.00     0.010 C 
BRANCH  25  27
HETATM   27  C3  UNL     1       3.603   6.242  10.795  1.00  0.00     0.007 C 
BRANCH  27  28
HETATM   28  C4  UNL     1       3.765   7.177   9.585  1.00  0.00     0.035 C 
BRANCH  28  29
HETATM   29  C5  UNL     1       2.969   6.684   8.360  1.00  0.00     0.151 C 
BRANCH  29  30
HETATM   30  O1  UNL     1       2.047   5.686   8.822  1.00  0.00    -0.393 OA
HETATM   31  H10 UNL     1       1.254   6.174   9.119  1.00  0.00     0.210 HD
ENDBRANCH  29  30
BRANCH  29  32
HETATM   32  C6  UNL     1       2.167   7.798   7.624  1.00  0.00     0.076 C 
HETATM   33  C7  UNL     1       1.686   7.371   6.233  1.00  0.00     0.048 C 
HETATM   34  C8  UNL     1       0.960   8.236   8.464  1.00  0.00     0.048 C 
BRANCH  32  35
HETATM   35  O2  UNL     1       3.011   8.957   7.495  1.00  0.00    -0.388 OA
HETATM   36  H17 UNL     1       3.627   8.805   6.757  1.00  0.00     0.210 HD
ENDBRANCH  32  35
ENDBRANCH  29  32
ENDBRANCH  28  29
ENDBRANCH  27  28
ENDBRANCH  25  27
ENDBRANCH   1  25
BRANCH  24  37
HETATM   37  O5  UNL     1      -1.811  10.173  13.126  1.00  0.00    -0.391 OA
HETATM   38  H48 UNL     1      -2.059  10.090  14.063  1.00  0.00     0.210 HD
ENDBRANCH  24  37
TORSDOF 8
ENDMDL
