MODEL 1
REMARK minimizedAffinity -7.40582752
REMARK CNNscore 0.611578107
REMARK CNNaffinity 6.05847597
REMARK  4 active torsions:
REMARK  status: ('A' for Active; 'I' for Inactive)
REMARK    1  A    between atoms: C4_4  and  O1_5 
REMARK    2  A    between atoms: C5_6  and  O2_7 
REMARK    3  A    between atoms: C8_11  and  C9_12 
REMARK    4  A    between atoms: C22_26  and  C23_27 
ROOT
HETATM    1  C1  UNL     1      14.408 -13.585   2.300  1.00  0.00     0.040 C 
HETATM    2  C2  UNL     1      13.065 -13.044   2.772  1.00  0.00     0.123 C 
HETATM    3  C3  UNL     1      12.322 -12.360   1.629  1.00  0.00     0.069 C 
HETATM    4  C4  UNL     1      11.005 -11.800   2.145  1.00  0.00     0.188 C 
HETATM    5  C5  UNL     1      11.214 -10.857   3.350  1.00  0.00     0.240 C 
HETATM    6  O3  UNL     1      11.822  -9.643   2.859  1.00  0.00    -0.341 OA
HETATM    7  C6  UNL     1      12.163  -8.774   3.958  1.00  0.00     0.156 C 
HETATM    8  C7  UNL     1      12.814  -7.511   3.385  1.00  0.00     0.056 C 
HETATM    9  C8  UNL     1      13.339  -6.521   4.461  1.00  0.00     0.043 C 
HETATM   10  C10 UNL     1      14.111  -7.270   5.551  1.00  0.00    -0.065 C 
HETATM   11  C11 UNL     1      15.294  -6.844   6.034  1.00  0.00    -0.022 C 
HETATM   12  C12 UNL     1      16.000  -5.599   5.591  1.00  0.00     0.035 C 
HETATM   13  C13 UNL     1      15.095  -4.651   4.802  1.00  0.00     0.030 C 
HETATM   14  C14 UNL     1      14.228  -5.427   3.763  1.00  0.00     0.012 C 
HETATM   15  C15 UNL     1      13.424  -4.481   2.809  1.00  0.00     0.007 C 
HETATM   16  C16 UNL     1      14.223  -3.282   2.235  1.00  0.00     0.016 C 
HETATM   17  C17 UNL     1      14.929  -2.547   3.377  1.00  0.00     0.023 C 
HETATM   18  C18 UNL     1      13.902  -1.767   4.229  1.00  0.00     0.022 C 
HETATM   19  C19 UNL     1      15.883  -3.611   4.046  1.00  0.00     0.077 C 
HETATM   20  C20 UNL     1      17.000  -4.039   3.086  1.00  0.00     0.042 C 
HETATM   21  C21 UNL     1      17.338  -2.662   2.529  1.00  0.00     0.047 C 
HETATM   22  C22 UNL     1      16.359  -1.851   3.375  1.00  0.00     0.098 C 
HETATM   23  O7  UNL     1      16.470  -2.458   4.784  1.00  0.00    -0.362 OA
HETATM   24  C27 UNL     1      13.487  -8.549   6.070  1.00  0.00     0.069 C 
HETATM   25  C28 UNL     1      13.118  -9.489   4.924  1.00  0.00     0.158 C 
HETATM   26  O8  UNL     1      12.502 -10.667   5.464  1.00  0.00    -0.347 OA
HETATM   27  C29 UNL     1      12.128 -11.569   4.404  1.00  0.00     0.325 C 
HETATM   28  O9  UNL     1      13.321 -12.112   3.822  1.00  0.00    -0.351 OA
ENDROOT
BRANCH  22  29
HETATM   29  C23 UNL     1      16.454  -0.399   3.282  1.00  0.00    -0.015 A 
HETATM   30  C24 UNL     1      16.768   0.406   4.290  1.00  0.00     0.090 A 
HETATM   31  C25 UNL     1      16.717   1.764   3.750  1.00  0.00     0.283 A 
HETATM   32  O5  UNL     1      16.940   2.772   4.393  1.00  0.00    -0.260 OA
HETATM   33  O6  UNL     1      16.380   1.714   2.431  1.00  0.00    -0.314 OA
HETATM   34  C26 UNL     1      16.190   0.351   2.044  1.00  0.00     0.216 A 
ENDBRANCH  22  29
BRANCH   9  35
HETATM   35  C9  UNL     1      12.170  -5.839   5.188  1.00  0.00     0.245 C 
HETATM   36  O4  UNL     1      12.075  -5.737   6.407  1.00  0.00    -0.306 OA
ENDBRANCH   9  35
BRANCH   5  37
HETATM   37  O2  UNL     1       9.931 -10.532   3.887  1.00  0.00    -0.360 OA
HETATM   38  H9  UNL     1       9.360 -10.384   3.110  1.00  0.00     0.213 HD
ENDBRANCH   5  37
BRANCH   4  39
HETATM   39  O1  UNL     1      10.333 -11.093   1.090  1.00  0.00    -0.390 OA
HETATM   40  H8  UNL     1      10.811 -10.243   0.998  1.00  0.00     0.210 HD
ENDBRANCH   4  39
TORSDOF 4
ENDMDL
MODEL 2
REMARK minimizedAffinity -8.22447681
REMARK CNNscore 0.538409114
REMARK CNNaffinity 6.76512671
REMARK  4 active torsions:
REMARK  status: ('A' for Active; 'I' for Inactive)
REMARK    1  A    between atoms: C4_4  and  O1_5 
REMARK    2  A    between atoms: C5_6  and  O2_7 
REMARK    3  A    between atoms: C8_11  and  C9_12 
REMARK    4  A    between atoms: C22_26  and  C23_27 
ROOT
HETATM    1  C1  UNL     1      -7.613  -1.176  -7.148  1.00  0.00     0.040 C 
HETATM    2  C2  UNL     1      -9.038  -1.543  -6.754  1.00  0.00     0.123 C 
HETATM    3  C3  UNL     1      -9.299  -1.211  -5.288  1.00  0.00     0.069 C 
HETATM    4  C4  UNL     1     -10.716  -1.625  -4.921  1.00  0.00     0.188 C 
HETATM    5  C5  UNL     1     -10.981  -3.113  -5.236  1.00  0.00     0.240 C 
HETATM    6  O3  UNL     1     -10.238  -3.904  -4.284  1.00  0.00    -0.341 OA
HETATM    7  C6  UNL     1     -10.340  -5.305  -4.609  1.00  0.00     0.156 C 
HETATM    8  C7  UNL     1      -9.527  -6.096  -3.579  1.00  0.00     0.056 C 
HETATM    9  C8  UNL     1      -9.450  -7.621  -3.862  1.00  0.00     0.043 C 
HETATM   10  C10 UNL     1      -9.143  -7.879  -5.340  1.00  0.00    -0.065 C 
HETATM   11  C11 UNL     1      -8.231  -8.781  -5.751  1.00  0.00    -0.022 C 
HETATM   12  C12 UNL     1      -7.415  -9.648  -4.841  1.00  0.00     0.035 C 
HETATM   13  C13 UNL     1      -7.961  -9.690  -3.413  1.00  0.00     0.030 C 
HETATM   14  C14 UNL     1      -8.369  -8.266  -2.920  1.00  0.00     0.012 C 
HETATM   15  C15 UNL     1      -8.760  -8.233  -1.404  1.00  0.00     0.007 C 
HETATM   16  C16 UNL     1      -7.809  -9.009  -0.456  1.00  0.00     0.016 C 
HETATM   17  C17 UNL     1      -7.588 -10.422  -1.002  1.00  0.00     0.023 C 
HETATM   18  C18 UNL     1      -8.864 -11.275  -0.817  1.00  0.00     0.022 C 
HETATM   19  C19 UNL     1      -6.952 -10.234  -2.434  1.00  0.00     0.077 C 
HETATM   20  C20 UNL     1      -5.553  -9.609  -2.343  1.00  0.00     0.042 C 
HETATM   21  C21 UNL     1      -5.037 -10.421  -1.162  1.00  0.00     0.047 C 
HETATM   22  C22 UNL     1      -6.266 -11.306  -0.965  1.00  0.00     0.098 C 
HETATM   23  O7  UNL     1      -6.691 -11.699  -2.390  1.00  0.00    -0.362 OA
HETATM   24  C27 UNL     1      -9.910  -7.051  -6.350  1.00  0.00     0.069 C 
HETATM   25  C28 UNL     1      -9.816  -5.561  -6.029  1.00  0.00     0.158 C 
HETATM   26  O8  UNL     1     -10.585  -4.824  -6.991  1.00  0.00    -0.347 OA
HETATM   27  C29 UNL     1     -10.527  -3.413  -6.705  1.00  0.00     0.325 C 
HETATM   28  O9  UNL     1      -9.200  -2.942  -6.980  1.00  0.00    -0.351 OA
ENDROOT
BRANCH  22  29
HETATM   29  C23 UNL     1      -6.150 -12.389   0.002  1.00  0.00    -0.015 A 
HETATM   30  C24 UNL     1      -5.918 -12.225   1.300  1.00  0.00     0.090 A 
HETATM   31  C25 UNL     1      -5.858 -13.571   1.870  1.00  0.00     0.283 A 
HETATM   32  O5  UNL     1      -5.649 -13.815   3.043  1.00  0.00    -0.260 OA
HETATM   33  O6  UNL     1      -6.065 -14.489   0.885  1.00  0.00    -0.314 OA
HETATM   34  C26 UNL     1      -6.262 -13.811  -0.358  1.00  0.00     0.216 A 
ENDBRANCH  22  29
BRANCH   9  35
HETATM   35  C9  UNL     1     -10.810  -8.290  -3.610  1.00  0.00     0.245 C 
HETATM   36  O4  UNL     1     -11.739  -7.769  -3.001  1.00  0.00    -0.306 OA
ENDBRANCH   9  35
BRANCH   5  37
HETATM   37  O2  UNL     1     -12.373  -3.367  -5.043  1.00  0.00    -0.360 OA
HETATM   38  H9  UNL     1     -12.611  -2.882  -4.232  1.00  0.00     0.213 HD
ENDBRANCH   5  37
BRANCH   4  39
HETATM   39  O1  UNL     1     -10.944  -1.380  -3.523  1.00  0.00    -0.390 OA
HETATM   40  H8  UNL     1     -10.471  -2.096  -3.051  1.00  0.00     0.210 HD
ENDBRANCH   4  39
TORSDOF 4
ENDMDL
MODEL 3
REMARK minimizedAffinity -6.833498
REMARK CNNscore 0.429589212
REMARK CNNaffinity 5.96892881
REMARK  4 active torsions:
REMARK  status: ('A' for Active; 'I' for Inactive)
REMARK    1  A    between atoms: C4_4  and  O1_5 
REMARK    2  A    between atoms: C5_6  and  O2_7 
REMARK    3  A    between atoms: C8_11  and  C9_12 
REMARK    4  A    between atoms: C22_26  and  C23_27 
ROOT
HETATM    1  C1  UNL     1     -17.723  14.048  -0.636  1.00  0.00     0.040 C 
HETATM    2  C2  UNL     1     -16.520  13.218  -1.064  1.00  0.00     0.123 C 
HETATM    3  C3  UNL     1     -16.241  12.106  -0.057  1.00  0.00     0.069 C 
HETATM    4  C4  UNL     1     -15.012  11.324  -0.496  1.00  0.00     0.188 C 
HETATM    5  C5  UNL     1     -13.789  12.242  -0.702  1.00  0.00     0.240 C 
HETATM    6  O3  UNL     1     -13.347  12.686   0.600  1.00  0.00    -0.341 OA
HETATM    7  C6  UNL     1     -12.286  13.653   0.466  1.00  0.00     0.156 C 
HETATM    8  C7  UNL     1     -11.864  14.099   1.869  1.00  0.00     0.056 C 
HETATM    9  C8  UNL     1     -10.799  15.229   1.887  1.00  0.00     0.043 C 
HETATM   10  C10 UNL     1     -11.165  16.330   0.887  1.00  0.00    -0.065 C 
HETATM   11  C11 UNL     1     -11.094  17.641   1.184  1.00  0.00    -0.022 C 
HETATM   12  C12 UNL     1     -10.647  18.196   2.502  1.00  0.00     0.035 C 
HETATM   13  C13 UNL     1      -9.925  17.163   3.368  1.00  0.00     0.030 C 
HETATM   14  C14 UNL     1     -10.667  15.790   3.350  1.00  0.00     0.012 C 
HETATM   15  C15 UNL     1     -10.069  14.758   4.365  1.00  0.00     0.007 C 
HETATM   16  C16 UNL     1      -9.759  15.320   5.777  1.00  0.00     0.016 C 
HETATM   17  C17 UNL     1      -8.932  16.601   5.645  1.00  0.00     0.023 C 
HETATM   18  C18 UNL     1      -7.491  16.267   5.196  1.00  0.00     0.022 C 
HETATM   19  C19 UNL     1      -9.820  17.600   4.807  1.00  0.00     0.077 C 
HETATM   20  C20 UNL     1     -11.081  18.007   5.581  1.00  0.00     0.042 C 
HETATM   21  C21 UNL     1     -10.433  18.210   6.945  1.00  0.00     0.047 C 
HETATM   22  C22 UNL     1      -8.992  17.918   6.536  1.00  0.00     0.098 C 
HETATM   23  O7  UNL     1      -8.820  18.636   5.186  1.00  0.00    -0.362 OA
HETATM   24  C27 UNL     1     -11.636  15.878  -0.480  1.00  0.00     0.069 C 
HETATM   25  C28 UNL     1     -12.763  14.852  -0.366  1.00  0.00     0.158 C 
HETATM   26  O8  UNL     1     -13.150  14.432  -1.682  1.00  0.00    -0.347 OA
HETATM   27  C29 UNL     1     -14.203  13.452  -1.607  1.00  0.00     0.325 C 
HETATM   28  O9  UNL     1     -15.400  14.098  -1.151  1.00  0.00    -0.351 OA
ENDROOT
BRANCH  22  29
HETATM   29  C23 UNL     1      -7.961  18.157   7.537  1.00  0.00    -0.015 A 
HETATM   30  C24 UNL     1      -8.161  18.144   8.850  1.00  0.00     0.090 A 
HETATM   31  C25 UNL     1      -6.868  18.457   9.457  1.00  0.00     0.283 A 
HETATM   32  O5  UNL     1      -6.669  18.543  10.653  1.00  0.00    -0.260 OA
HETATM   33  O6  UNL     1      -5.940  18.638   8.476  1.00  0.00    -0.314 OA
HETATM   34  C26 UNL     1      -6.561  18.464   7.201  1.00  0.00     0.216 A 
ENDBRANCH  22  29
BRANCH   9  35
HETATM   35  C9  UNL     1      -9.435  14.696   1.420  1.00  0.00     0.245 C 
HETATM   36  O4  UNL     1      -8.571  15.379   0.879  1.00  0.00    -0.306 OA
ENDBRANCH   9  35
BRANCH   5  37
HETATM   37  O2  UNL     1     -12.744  11.466  -1.290  1.00  0.00    -0.360 OA
HETATM   38  H9  UNL     1     -12.771  10.609  -0.826  1.00  0.00     0.213 HD
ENDBRANCH   5  37
BRANCH   4  39
HETATM   39  O1  UNL     1     -14.703  10.320   0.485  1.00  0.00    -0.390 OA
HETATM   40  H8  UNL     1     -14.293  10.802   1.233  1.00  0.00     0.210 HD
ENDBRANCH   4  39
TORSDOF 4
ENDMDL
MODEL 4
REMARK minimizedAffinity -7.64139891
REMARK CNNscore 0.408681095
REMARK CNNaffinity 6.15423918
REMARK  4 active torsions:
REMARK  status: ('A' for Active; 'I' for Inactive)
REMARK    1  A    between atoms: C4_4  and  O1_5 
REMARK    2  A    between atoms: C5_6  and  O2_7 
REMARK    3  A    between atoms: C8_11  and  C9_12 
REMARK    4  A    between atoms: C22_26  and  C23_27 
ROOT
HETATM    1  C1  UNL     1      -8.259 -13.160  13.285  1.00  0.00     0.040 C 
HETATM    2  C2  UNL     1      -7.931 -11.679  13.146  1.00  0.00     0.123 C 
HETATM    3  C3  UNL     1      -9.077 -10.929  12.473  1.00  0.00     0.069 C 
HETATM    4  C4  UNL     1      -8.698  -9.464  12.316  1.00  0.00     0.188 C 
HETATM    5  C5  UNL     1      -7.366  -9.292  11.557  1.00  0.00     0.240 C 
HETATM    6  O3  UNL     1      -7.599  -9.636  10.174  1.00  0.00    -0.341 OA
HETATM    7  C6  UNL     1      -6.360  -9.621   9.438  1.00  0.00     0.156 C 
HETATM    8  C7  UNL     1      -6.661 -10.003   7.985  1.00  0.00     0.056 C 
HETATM    9  C8  UNL     1      -5.401 -10.139   7.087  1.00  0.00     0.043 C 
HETATM   10  C10 UNL     1      -4.310 -10.938   7.807  1.00  0.00    -0.065 C 
HETATM   11  C11 UNL     1      -3.603 -11.915   7.207  1.00  0.00    -0.022 C 
HETATM   12  C12 UNL     1      -3.772 -12.340   5.780  1.00  0.00     0.035 C 
HETATM   13  C13 UNL     1      -4.560 -11.328   4.947  1.00  0.00     0.030 C 
HETATM   14  C14 UNL     1      -5.810 -10.807   5.723  1.00  0.00     0.012 C 
HETATM   15  C15 UNL     1      -6.746  -9.911   4.843  1.00  0.00     0.007 C 
HETATM   16  C16 UNL     1      -7.034 -10.451   3.419  1.00  0.00     0.016 C 
HETATM   17  C17 UNL     1      -5.714 -10.816   2.735  1.00  0.00     0.023 C 
HETATM   18  C18 UNL     1      -4.934  -9.537   2.356  1.00  0.00     0.022 C 
HETATM   19  C19 UNL     1      -5.049 -11.918   3.649  1.00  0.00     0.077 C 
HETATM   20  C20 UNL     1      -5.876 -13.211   3.653  1.00  0.00     0.042 C 
HETATM   21  C21 UNL     1      -6.194 -13.261   2.164  1.00  0.00     0.047 C 
HETATM   22  C22 UNL     1      -5.410 -12.021   1.742  1.00  0.00     0.098 C 
HETATM   23  O7  UNL     1      -4.090 -12.112   2.527  1.00  0.00    -0.362 OA
HETATM   24  C27 UNL     1      -4.060 -10.593   9.260  1.00  0.00     0.069 C 
HETATM   25  C28 UNL     1      -5.359 -10.603  10.063  1.00  0.00     0.158 C 
HETATM   26  O8  UNL     1      -5.074 -10.237  11.421  1.00  0.00    -0.347 OA
HETATM   27  C29 UNL     1      -6.285 -10.224  12.202  1.00  0.00     0.325 C 
HETATM   28  O9  UNL     1      -6.744 -11.574  12.361  1.00  0.00    -0.351 OA
ENDROOT
BRANCH  22  29
HETATM   29  C23 UNL     1      -5.301 -11.765   0.312  1.00  0.00    -0.015 A 
HETATM   30  C24 UNL     1      -5.634 -10.625  -0.282  1.00  0.00     0.090 A 
HETATM   31  C25 UNL     1      -5.386 -10.828  -1.709  1.00  0.00     0.283 A 
HETATM   32  O5  UNL     1      -5.588  -9.994  -2.570  1.00  0.00    -0.260 OA
HETATM   33  O6  UNL     1      -4.905 -12.087  -1.910  1.00  0.00    -0.314 OA
HETATM   34  C26 UNL     1      -4.819 -12.765  -0.655  1.00  0.00     0.216 A 
ENDBRANCH  22  29
BRANCH   9  35
HETATM   35  C9  UNL     1      -4.777  -8.761   6.813  1.00  0.00     0.245 C 
HETATM   36  O4  UNL     1      -3.572  -8.548   6.731  1.00  0.00    -0.306 OA
ENDBRANCH   9  35
BRANCH   5  37
HETATM   37  O2  UNL     1      -6.992  -7.915  11.621  1.00  0.00    -0.360 OA
HETATM   38  H9  UNL     1      -7.821  -7.419  11.484  1.00  0.00     0.213 HD
ENDBRANCH   5  37
BRANCH   4  39
HETATM   39  O1  UNL     1      -9.744  -8.767  11.620  1.00  0.00    -0.390 OA
HETATM   40  H8  UNL     1      -9.654  -9.028  10.680  1.00  0.00     0.210 HD
ENDBRANCH   4  39
TORSDOF 4
ENDMDL
MODEL 5
REMARK minimizedAffinity -10.5991755
REMARK CNNscore 0.399318993
REMARK CNNaffinity 6.80990744
REMARK  4 active torsions:
REMARK  status: ('A' for Active; 'I' for Inactive)
REMARK    1  A    between atoms: C4_4  and  O1_5 
REMARK    2  A    between atoms: C5_6  and  O2_7 
REMARK    3  A    between atoms: C8_11  and  C9_12 
REMARK    4  A    between atoms: C22_26  and  C23_27 
ROOT
HETATM    1  C1  UNL     1      -9.692   6.212  11.037  1.00  0.00     0.040 C 
HETATM    2  C2  UNL     1      -9.287   5.908  12.473  1.00  0.00     0.123 C 
HETATM    3  C3  UNL     1      -8.984   7.194  13.236  1.00  0.00     0.069 C 
HETATM    4  C4  UNL     1      -8.548   6.850  14.653  1.00  0.00     0.188 C 
HETATM    5  C5  UNL     1      -7.354   5.872  14.665  1.00  0.00     0.240 C 
HETATM    6  O3  UNL     1      -6.187   6.594  14.216  1.00  0.00    -0.341 OA
HETATM    7  C6  UNL     1      -5.065   5.698  14.081  1.00  0.00     0.156 C 
HETATM    8  C7  UNL     1      -3.861   6.510  13.592  1.00  0.00     0.056 C 
HETATM    9  C8  UNL     1      -2.598   5.658  13.292  1.00  0.00     0.043 C 
HETATM   10  C10 UNL     1      -2.969   4.409  12.487  1.00  0.00    -0.065 C 
HETATM   11  C11 UNL     1      -2.268   3.993  11.415  1.00  0.00    -0.022 C 
HETATM   12  C12 UNL     1      -1.046   4.673  10.877  1.00  0.00     0.035 C 
HETATM   13  C13 UNL     1      -0.440   5.674  11.862  1.00  0.00     0.030 C 
HETATM   14  C14 UNL     1      -1.545   6.548  12.534  1.00  0.00     0.012 C 
HETATM   15  C15 UNL     1      -0.959   7.707  13.410  1.00  0.00     0.007 C 
HETATM   16  C16 UNL     1       0.206   8.501  12.765  1.00  0.00     0.016 C 
HETATM   17  C17 UNL     1       1.266   7.524  12.252  1.00  0.00     0.023 C 
HETATM   18  C18 UNL     1       2.031   6.891  13.436  1.00  0.00     0.022 C 
HETATM   19  C19 UNL     1       0.532   6.613  11.194  1.00  0.00     0.077 C 
HETATM   20  C20 UNL     1       0.098   7.424   9.965  1.00  0.00     0.042 C 
HETATM   21  C21 UNL     1       1.366   8.254   9.804  1.00  0.00     0.047 C 
HETATM   22  C22 UNL     1       2.167   7.633  10.945  1.00  0.00     0.098 C 
HETATM   23  O7  UNL     1       1.892   6.123  10.835  1.00  0.00    -0.362 OA
HETATM   24  C27 UNL     1      -4.196   3.645  12.943  1.00  0.00     0.069 C 
HETATM   25  C28 UNL     1      -5.400   4.572  13.093  1.00  0.00     0.158 C 
HETATM   26  O8  UNL     1      -6.524   3.810  13.558  1.00  0.00    -0.347 OA
HETATM   27  C29 UNL     1      -7.674   4.662  13.723  1.00  0.00     0.325 C 
HETATM   28  O9  UNL     1      -8.129   5.077  12.427  1.00  0.00    -0.351 OA
ENDROOT
BRANCH  22  29
HETATM   29  C23 UNL     1       3.563   8.033  11.065  1.00  0.00    -0.015 A 
HETATM   30  C24 UNL     1       4.591   7.364  10.554  1.00  0.00     0.090 A 
HETATM   31  C25 UNL     1       5.787   8.112  10.938  1.00  0.00     0.283 A 
HETATM   32  O5  UNL     1       6.924   7.788  10.653  1.00  0.00    -0.260 OA
HETATM   33  O6  UNL     1       5.424   9.208  11.660  1.00  0.00    -0.314 OA
HETATM   34  C26 UNL     1       4.001   9.236  11.791  1.00  0.00     0.216 A 
ENDBRANCH  22  29
BRANCH   9  35
HETATM   35  C9  UNL     1      -1.976   5.130  14.594  1.00  0.00     0.245 C 
HETATM   36  O4  UNL     1      -0.901   5.504  15.053  1.00  0.00    -0.306 OA
ENDBRANCH   9  35
BRANCH   5  37
HETATM   37  O2  UNL     1      -7.134   5.456  16.014  1.00  0.00    -0.360 OA
HETATM   38  H9  UNL     1      -7.245   6.263  16.550  1.00  0.00     0.213 HD
ENDBRANCH   5  37
BRANCH   4  39
HETATM   39  O1  UNL     1      -8.193   8.053  15.354  1.00  0.00    -0.390 OA
HETATM   40  H8  UNL     1      -7.315   8.312  15.005  1.00  0.00     0.210 HD
ENDBRANCH   4  39
TORSDOF 4
ENDMDL
MODEL 6
REMARK minimizedAffinity -6.58505583
REMARK CNNscore 0.377441794
REMARK CNNaffinity 5.55072927
REMARK  4 active torsions:
REMARK  status: ('A' for Active; 'I' for Inactive)
REMARK    1  A    between atoms: C4_4  and  O1_5 
REMARK    2  A    between atoms: C5_6  and  O2_7 
REMARK    3  A    between atoms: C8_11  and  C9_12 
REMARK    4  A    between atoms: C22_26  and  C23_27 
ROOT
HETATM    1  C1  UNL     1     -12.016   8.003  13.731  1.00  0.00     0.040 C 
HETATM    2  C2  UNL     1     -12.338   9.236  14.565  1.00  0.00     0.123 C 
HETATM    3  C3  UNL     1     -11.157   9.614  15.454  1.00  0.00     0.069 C 
HETATM    4  C4  UNL     1     -11.528  10.825  16.298  1.00  0.00     0.188 C 
HETATM    5  C5  UNL     1     -12.816  10.585  17.113  1.00  0.00     0.240 C 
HETATM    6  O3  UNL     1     -12.506   9.640  18.160  1.00  0.00    -0.341 OA
HETATM    7  C6  UNL     1     -13.703   9.275  18.876  1.00  0.00     0.156 C 
HETATM    8  C7  UNL     1     -13.321   8.265  19.964  1.00  0.00     0.056 C 
HETATM    9  C8  UNL     1     -14.529   7.691  20.753  1.00  0.00     0.043 C 
HETATM   10  C10 UNL     1     -15.656   7.292  19.797  1.00  0.00    -0.065 C 
HETATM   11  C11 UNL     1     -16.328   6.129  19.902  1.00  0.00    -0.022 C 
HETATM   12  C12 UNL     1     -16.079   5.090  20.953  1.00  0.00     0.035 C 
HETATM   13  C13 UNL     1     -15.247   5.616  22.123  1.00  0.00     0.030 C 
HETATM   14  C14 UNL     1     -14.043   6.474  21.623  1.00  0.00     0.012 C 
HETATM   15  C15 UNL     1     -13.061   6.878  22.774  1.00  0.00     0.007 C 
HETATM   16  C16 UNL     1     -12.693   5.742  23.762  1.00  0.00     0.016 C 
HETATM   17  C17 UNL     1     -13.972   5.064  24.258  1.00  0.00     0.023 C 
HETATM   18  C18 UNL     1     -14.731   5.995  25.231  1.00  0.00     0.022 C 
HETATM   19  C19 UNL     1     -14.686   4.500  22.968  1.00  0.00     0.077 C 
HETATM   20  C20 UNL     1     -13.859   3.383  22.318  1.00  0.00     0.042 C 
HETATM   21  C21 UNL     1     -13.458   2.650  23.592  1.00  0.00     0.047 C 
HETATM   22  C22 UNL     1     -14.219   3.526  24.583  1.00  0.00     0.098 C 
HETATM   23  O7  UNL     1     -15.581   3.777  23.913  1.00  0.00    -0.362 OA
HETATM   24  C27 UNL     1     -15.988   8.271  18.689  1.00  0.00     0.069 C 
HETATM   25  C28 UNL     1     -14.736   8.673  17.913  1.00  0.00     0.158 C 
HETATM   26  O8  UNL     1     -15.096   9.624  16.901  1.00  0.00    -0.347 OA
HETATM   27  C29 UNL     1     -13.931  10.035  16.160  1.00  0.00     0.325 C 
HETATM   28  O9  UNL     1     -13.480   8.929  15.364  1.00  0.00    -0.351 OA
ENDROOT
BRANCH  22  29
HETATM   29  C23 UNL     1     -14.248   3.080  25.970  1.00  0.00    -0.015 A 
HETATM   30  C24 UNL     1     -13.215   2.557  26.621  1.00  0.00     0.090 A 
HETATM   31  C25 UNL     1     -13.705   2.235  27.960  1.00  0.00     0.283 A 
HETATM   32  O5  UNL     1     -13.033   1.727  28.837  1.00  0.00    -0.260 OA
HETATM   33  O6  UNL     1     -15.017   2.588  28.059  1.00  0.00    -0.314 OA
HETATM   34  C26 UNL     1     -15.451   3.142  26.815  1.00  0.00     0.216 A 
ENDBRANCH  22  29
BRANCH   9  35
HETATM   35  C9  UNL     1     -15.137   8.762  21.671  1.00  0.00     0.245 C 
HETATM   36  O4  UNL     1     -14.527   9.734  22.105  1.00  0.00    -0.306 OA
ENDBRANCH   9  35
BRANCH   5  37
HETATM   37  O2  UNL     1     -13.195  11.821  17.721  1.00  0.00    -0.360 OA
HETATM   38  H9  UNL     1     -12.360  12.217  18.033  1.00  0.00     0.213 HD
ENDBRANCH   5  37
BRANCH   4  39
HETATM   39  O1  UNL     1     -10.446  11.143  17.188  1.00  0.00    -0.390 OA
HETATM   40  H8  UNL     1     -10.484  10.470  17.898  1.00  0.00     0.210 HD
ENDBRANCH   4  39
TORSDOF 4
ENDMDL
MODEL 7
REMARK minimizedAffinity -7.9776659
REMARK CNNscore 0.350964487
REMARK CNNaffinity 5.96219492
REMARK  4 active torsions:
REMARK  status: ('A' for Active; 'I' for Inactive)
REMARK    1  A    between atoms: C4_4  and  O1_5 
REMARK    2  A    between atoms: C5_6  and  O2_7 
REMARK    3  A    between atoms: C8_11  and  C9_12 
REMARK    4  A    between atoms: C22_26  and  C23_27 
ROOT
HETATM    1  C1  UNL     1      -9.760 -11.920  11.026  1.00  0.00     0.040 C 
HETATM    2  C2  UNL     1      -9.163 -10.531  10.840  1.00  0.00     0.123 C 
HETATM    3  C3  UNL     1      -9.855  -9.791   9.699  1.00  0.00     0.069 C 
HETATM    4  C4  UNL     1      -9.209  -8.425   9.518  1.00  0.00     0.188 C 
HETATM    5  C5  UNL     1      -7.684  -8.535   9.301  1.00  0.00     0.240 C 
HETATM    6  O3  UNL     1      -7.465  -9.088   7.985  1.00  0.00    -0.341 OA
HETATM    7  C6  UNL     1      -6.060  -9.336   7.775  1.00  0.00     0.156 C 
HETATM    8  C7  UNL     1      -5.884  -9.932   6.374  1.00  0.00     0.056 C 
HETATM    9  C8  UNL     1      -4.428 -10.358   6.041  1.00  0.00     0.043 C 
HETATM   10  C10 UNL     1      -3.813 -11.133   7.210  1.00  0.00    -0.065 C 
HETATM   11  C11 UNL     1      -3.111 -12.270   7.045  1.00  0.00    -0.022 C 
HETATM   12  C12 UNL     1      -2.829 -12.918   5.723  1.00  0.00     0.035 C 
HETATM   13  C13 UNL     1      -3.092 -11.988   4.538  1.00  0.00     0.030 C 
HETATM   14  C14 UNL     1      -4.431 -11.206   4.716  1.00  0.00     0.012 C 
HETATM   15  C15 UNL     1      -4.831 -10.382   3.446  1.00  0.00     0.007 C 
HETATM   16  C16 UNL     1      -4.680 -11.129   2.096  1.00  0.00     0.016 C 
HETATM   17  C17 UNL     1      -3.283 -11.749   2.010  1.00  0.00     0.023 C 
HETATM   18  C18 UNL     1      -2.219 -10.648   1.798  1.00  0.00     0.022 C 
HETATM   19  C19 UNL     1      -3.178 -12.739   3.234  1.00  0.00     0.077 C 
HETATM   20  C20 UNL     1      -4.154 -13.914   3.085  1.00  0.00     0.042 C 
HETATM   21  C21 UNL     1      -3.926 -14.189   1.604  1.00  0.00     0.047 C 
HETATM   22  C22 UNL     1      -2.850 -13.134   1.360  1.00  0.00     0.098 C 
HETATM   23  O7  UNL     1      -1.929 -13.230   2.589  1.00  0.00    -0.362 OA
HETATM   24  C27 UNL     1      -4.042 -10.567   8.597  1.00  0.00     0.069 C 
HETATM   25  C28 UNL     1      -5.524 -10.296   8.846  1.00  0.00     0.158 C 
HETATM   26  O8  UNL     1      -5.684  -9.732  10.156  1.00  0.00    -0.347 OA
HETATM   27  C29 UNL     1      -7.073  -9.451  10.415  1.00  0.00     0.325 C 
HETATM   28  O9  UNL     1      -7.775 -10.694  10.554  1.00  0.00    -0.351 OA
ENDROOT
BRANCH  22  29
HETATM   29  C23 UNL     1      -2.199 -13.146   0.056  1.00  0.00    -0.015 A 
HETATM   30  C24 UNL     1      -2.829 -13.018  -1.107  1.00  0.00     0.090 A 
HETATM   31  C25 UNL     1      -1.794 -13.113  -2.136  1.00  0.00     0.283 A 
HETATM   32  O5  UNL     1      -2.002 -13.050  -3.332  1.00  0.00    -0.260 OA
HETATM   33  O6  UNL     1      -0.580 -13.287  -1.542  1.00  0.00    -0.314 OA
HETATM   34  C26 UNL     1      -0.749 -13.321  -0.124  1.00  0.00     0.216 A 
ENDBRANCH  22  29
BRANCH   9  35
HETATM   35  C9  UNL     1      -3.530  -9.126   5.855  1.00  0.00     0.245 C 
HETATM   36  O4  UNL     1      -3.125  -8.417   6.771  1.00  0.00    -0.306 OA
ENDBRANCH   9  35
BRANCH   5  37
HETATM   37  O2  UNL     1      -7.136  -7.216   9.332  1.00  0.00    -0.360 OA
HETATM   38  H9  UNL     1      -7.768  -6.665   8.834  1.00  0.00     0.213 HD
ENDBRANCH   5  37
BRANCH   4  39
HETATM   39  O1  UNL     1      -9.808  -7.752   8.400  1.00  0.00    -0.390 OA
HETATM   40  H8  UNL     1      -9.434  -8.182   7.603  1.00  0.00     0.210 HD
ENDBRANCH   4  39
TORSDOF 4
ENDMDL
MODEL 8
REMARK minimizedAffinity -6.67942858
REMARK CNNscore 0.343637347
REMARK CNNaffinity 5.3939414
REMARK  4 active torsions:
REMARK  status: ('A' for Active; 'I' for Inactive)
REMARK    1  A    between atoms: C4_4  and  O1_5 
REMARK    2  A    between atoms: C5_6  and  O2_7 
REMARK    3  A    between atoms: C8_11  and  C9_12 
REMARK    4  A    between atoms: C22_26  and  C23_27 
ROOT
HETATM    1  C1  UNL     1     -19.055  -5.876  14.196  1.00  0.00     0.040 C 
HETATM    2  C2  UNL     1     -17.613  -5.579  14.584  1.00  0.00     0.123 C 
HETATM    3  C3  UNL     1     -17.506  -5.259  16.072  1.00  0.00     0.069 C 
HETATM    4  C4  UNL     1     -16.060  -4.930  16.415  1.00  0.00     0.188 C 
HETATM    5  C5  UNL     1     -15.505  -3.791  15.534  1.00  0.00     0.240 C 
HETATM    6  O3  UNL     1     -16.142  -2.563  15.949  1.00  0.00    -0.341 OA
HETATM    7  C6  UNL     1     -15.761  -1.482  15.074  1.00  0.00     0.156 C 
HETATM    8  C7  UNL     1     -16.472  -0.210  15.548  1.00  0.00     0.056 C 
HETATM    9  C8  UNL     1     -16.246   1.026  14.634  1.00  0.00     0.043 C 
HETATM   10  C10 UNL     1     -16.413   0.642  13.161  1.00  0.00    -0.065 C 
HETATM   11  C11 UNL     1     -17.115   1.387  12.286  1.00  0.00    -0.022 C 
HETATM   12  C12 UNL     1     -17.807   2.674  12.620  1.00  0.00     0.035 C 
HETATM   13  C13 UNL     1     -17.348   3.266  13.954  1.00  0.00     0.030 C 
HETATM   14  C14 UNL     1     -17.242   2.167  15.056  1.00  0.00     0.012 C 
HETATM   15  C15 UNL     1     -16.955   2.755  16.479  1.00  0.00     0.007 C 
HETATM   16  C16 UNL     1     -17.798   3.996  16.867  1.00  0.00     0.016 C 
HETATM   17  C17 UNL     1     -17.719   5.036  15.747  1.00  0.00     0.023 C 
HETATM   18  C18 UNL     1     -16.320   5.692  15.721  1.00  0.00     0.022 C 
HETATM   19  C19 UNL     1     -18.294   4.325  14.461  1.00  0.00     0.077 C 
HETATM   20  C20 UNL     1     -19.787   4.010  14.620  1.00  0.00     0.042 C 
HETATM   21  C21 UNL     1     -20.212   5.326  15.261  1.00  0.00     0.047 C 
HETATM   22  C22 UNL     1     -18.854   6.022  15.225  1.00  0.00     0.098 C 
HETATM   23  O7  UNL     1     -18.279   5.678  13.840  1.00  0.00    -0.362 OA
HETATM   24  C27 UNL     1     -15.755  -0.647  12.714  1.00  0.00     0.069 C 
HETATM   25  C28 UNL     1     -16.144  -1.811  13.624  1.00  0.00     0.158 C 
HETATM   26  O8  UNL     1     -15.471  -2.998  13.181  1.00  0.00    -0.347 OA
HETATM   27  C29 UNL     1     -15.807  -4.112  14.031  1.00  0.00     0.325 C 
HETATM   28  O9  UNL     1     -17.180  -4.463  13.807  1.00  0.00    -0.351 OA
ENDROOT
BRANCH  22  29
HETATM   29  C23 UNL     1     -18.822   7.426  15.613  1.00  0.00    -0.015 A 
HETATM   30  C24 UNL     1     -18.566   8.435  14.788  1.00  0.00     0.090 A 
HETATM   31  C25 UNL     1     -18.615   9.645  15.608  1.00  0.00     0.283 A 
HETATM   32  O5  UNL     1     -18.417  10.770  15.190  1.00  0.00    -0.260 OA
HETATM   33  O6  UNL     1     -18.907   9.309  16.895  1.00  0.00    -0.314 OA
HETATM   34  C26 UNL     1     -19.057   7.891  16.989  1.00  0.00     0.216 A 
ENDBRANCH  22  29
BRANCH   9  35
HETATM   35  C9  UNL     1     -14.802   1.537  14.758  1.00  0.00     0.245 C 
HETATM   36  O4  UNL     1     -14.482   2.721  14.759  1.00  0.00    -0.306 OA
ENDBRANCH   9  35
BRANCH   5  37
HETATM   37  O2  UNL     1     -14.103  -3.677  15.786  1.00  0.00    -0.360 OA
HETATM   38  H9  UNL     1     -14.008  -3.781  16.751  1.00  0.00     0.213 HD
ENDBRANCH   5  37
BRANCH   4  39
HETATM   39  O1  UNL     1     -15.964  -4.560  17.800  1.00  0.00    -0.390 OA
HETATM   40  H8  UNL     1     -16.323  -3.650  17.854  1.00  0.00     0.210 HD
ENDBRANCH   4  39
TORSDOF 4
ENDMDL
MODEL 9
REMARK minimizedAffinity -7.60262823
REMARK CNNscore 0.343142569
REMARK CNNaffinity 6.1353035
REMARK  4 active torsions:
REMARK  status: ('A' for Active; 'I' for Inactive)
REMARK    1  A    between atoms: C4_4  and  O1_5 
REMARK    2  A    between atoms: C5_6  and  O2_7 
REMARK    3  A    between atoms: C8_11  and  C9_12 
REMARK    4  A    between atoms: C22_26  and  C23_27 
ROOT
HETATM    1  C1  UNL     1      -1.056  17.760  16.232  1.00  0.00     0.040 C 
HETATM    2  C2  UNL     1       0.250  16.980  16.154  1.00  0.00     0.123 C 
HETATM    3  C3  UNL     1       0.627  16.695  14.703  1.00  0.00     0.069 C 
HETATM    4  C4  UNL     1       1.913  15.883  14.666  1.00  0.00     0.188 C 
HETATM    5  C5  UNL     1       1.802  14.591  15.503  1.00  0.00     0.240 C 
HETATM    6  O3  UNL     1       0.920  13.687  14.802  1.00  0.00    -0.341 OA
HETATM    7  C6  UNL     1       0.672  12.511  15.600  1.00  0.00     0.156 C 
HETATM    8  C7  UNL     1      -0.276  11.595  14.819  1.00  0.00     0.056 C 
HETATM    9  C8  UNL     1      -0.726  10.330  15.600  1.00  0.00     0.043 C 
HETATM   10  C10 UNL     1      -1.132  10.696  17.031  1.00  0.00    -0.065 C 
HETATM   11  C11 UNL     1      -2.246  10.221  17.620  1.00  0.00    -0.022 C 
HETATM   12  C12 UNL     1      -3.219   9.280  16.977  1.00  0.00     0.035 C 
HETATM   13  C13 UNL     1      -2.656   8.609  15.723  1.00  0.00     0.030 C 
HETATM   14  C14 UNL     1      -1.902   9.635  14.820  1.00  0.00     0.012 C 
HETATM   15  C15 UNL     1      -1.470   9.033  13.440  1.00  0.00     0.007 C 
HETATM   16  C16 UNL     1      -2.550   8.189  12.716  1.00  0.00     0.016 C 
HETATM   17  C17 UNL     1      -3.121   7.152  13.686  1.00  0.00     0.023 C 
HETATM   18  C18 UNL     1      -2.083   6.039  13.953  1.00  0.00     0.022 C 
HETATM   19  C19 UNL     1      -3.736   7.977  14.882  1.00  0.00     0.077 C 
HETATM   20  C20 UNL     1      -4.940   8.810  14.423  1.00  0.00     0.042 C 
HETATM   21  C21 UNL     1      -5.601   7.756  13.542  1.00  0.00     0.047 C 
HETATM   22  C22 UNL     1      -4.615   6.620  13.805  1.00  0.00     0.098 C 
HETATM   23  O7  UNL     1      -4.341   6.687  15.317  1.00  0.00    -0.362 OA
HETATM   24  C27 UNL     1      -0.218  11.649  17.774  1.00  0.00     0.069 C 
HETATM   25  C28 UNL     1       0.059  12.905  16.951  1.00  0.00     0.158 C 
HETATM   26  O8  UNL     1       0.953  13.757  17.682  1.00  0.00    -0.347 OA
HETATM   27  C29 UNL     1       1.246  14.946  16.923  1.00  0.00     0.325 C 
HETATM   28  O9  UNL     1       0.063  15.757  16.865  1.00  0.00    -0.351 OA
ENDROOT
BRANCH  22  29
HETATM   29  C23 UNL     1      -4.959   5.312  13.263  1.00  0.00    -0.015 A 
HETATM   30  C24 UNL     1      -4.169   4.583  12.482  1.00  0.00     0.090 A 
HETATM   31  C25 UNL     1      -4.926   3.373  12.163  1.00  0.00     0.283 A 
HETATM   32  O5  UNL     1      -4.521   2.472  11.454  1.00  0.00    -0.260 OA
HETATM   33  O6  UNL     1      -6.142   3.424  12.776  1.00  0.00    -0.314 OA
HETATM   34  C26 UNL     1      -6.248   4.647  13.509  1.00  0.00     0.216 A 
ENDBRANCH  22  29
BRANCH   9  35
HETATM   35  C9  UNL     1       0.440   9.340  15.751  1.00  0.00     0.245 C 
HETATM   36  O4  UNL     1       0.525   8.497  16.638  1.00  0.00    -0.306 OA
ENDBRANCH   9  35
BRANCH   5  37
HETATM   37  O2  UNL     1       3.097  13.992  15.570  1.00  0.00    -0.360 OA
HETATM   38  H9  UNL     1       3.469  14.088  14.673  1.00  0.00     0.213 HD
ENDBRANCH   5  37
BRANCH   4  39
HETATM   39  O1  UNL     1       2.236  15.551  13.306  1.00  0.00    -0.390 OA
HETATM   40  H8  UNL     1       1.618  14.832  13.057  1.00  0.00     0.210 HD
ENDBRANCH   4  39
TORSDOF 4
ENDMDL
