MODEL 1
REMARK minimizedAffinity -9.53967285
REMARK CNNscore 0.397597104
REMARK CNNaffinity 7.38002014
REMARK  11 active torsions:
REMARK  status: ('A' for Active; 'I' for Inactive)
REMARK    1  A    between atoms: C3_3  and  O1_4 
REMARK    2  A    between atoms: N1_14  and  O2_16 
REMARK    3  A    between atoms: O2_16  and  C13_17 
REMARK    4  A    between atoms: C13_17  and  C14_18 
REMARK       I    between atoms: C14_18  and  N2_20 
REMARK    5  A    between atoms: N2_20  and  C15_21 
REMARK    6  A    between atoms: C15_21  and  C16_22 
REMARK    7  A    between atoms: C15_21  and  C17_25 
REMARK    8  A    between atoms: C16_22  and  O5_24 
REMARK    9  A    between atoms: C17_25  and  O6_26 
REMARK   10  A    between atoms: C17_25  and  C18_27 
REMARK   11  A    between atoms: C22_31  and  N3_32 
ROOT
HETATM    1  C1  UNL     1      -1.373   8.872  11.632  1.00  0.00     0.015 C 
HETATM    2  C2  UNL     1      -1.358   8.836  12.834  1.00  0.00    -0.078 C 
HETATM    3  C3  UNL     1      -1.305   8.800  14.313  1.00  0.00     0.128 C 
HETATM    4  C4  UNL     1      -0.516   7.566  14.771  1.00  0.00     0.052 C 
HETATM    5  C5  UNL     1      -1.551   6.452  14.720  1.00  0.00     0.010 C 
HETATM    6  C6  UNL     1      -2.795   7.095  15.342  1.00  0.00     0.002 C 
HETATM    7  C7  UNL     1      -4.148   6.401  15.054  1.00  0.00    -0.004 C 
HETATM    8  C8  UNL     1      -4.361   5.870  13.626  1.00  0.00     0.010 C 
HETATM    9  C9  UNL     1      -5.717   5.178  13.468  1.00  0.00     0.035 C 
HETATM   10  C10 UNL     1      -6.885   5.982  13.988  1.00  0.00    -0.069 C 
HETATM   11  C11 UNL     1      -8.009   6.084  13.256  1.00  0.00     0.030 C 
HETATM   12  C12 UNL     1      -9.243   6.714  13.799  1.00  0.00     0.032 C 
HETATM   13  N1  UNL     1     -10.268   6.833  13.002  1.00  0.00    -0.271 N 
ATOM     14  H1  UNL     1     -10.267   6.557  12.019  1.00  0.00     0.194 HD
HETATM   15  C24 UNL     1      -9.248   7.103  15.265  1.00  0.00     0.060 C 
HETATM   16  C25 UNL     1      -7.872   7.607  15.679  1.00  0.00     0.020 C 
HETATM   17  C26 UNL     1      -6.723   6.599  15.375  1.00  0.00    -0.016 C 
HETATM   18  C27 UNL     1      -6.810   5.464  16.429  1.00  0.00     0.020 C 
HETATM   19  C28 UNL     1      -5.322   7.320  15.480  1.00  0.00     0.002 C 
HETATM   20  C29 UNL     1      -5.268   8.677  14.728  1.00  0.00     0.007 C 
HETATM   21  C30 UNL     1      -3.901   9.099  14.184  1.00  0.00     0.014 C 
HETATM   22  C31 UNL     1      -2.703   8.625  15.024  1.00  0.00     0.003 C 
HETATM   23  C32 UNL     1      -2.721   9.416  16.362  1.00  0.00     0.020 C 
ENDROOT
BRANCH   3  24
HETATM   24  O1  UNL     1      -0.628   9.974  14.747  1.00  0.00    -0.377 OA
HETATM   25  H2  UNL     1       0.175  10.056  14.205  1.00  0.00     0.211 HD
ENDBRANCH   3  24
BRANCH  13  26
HETATM   26  O2  UNL     1     -11.370   7.388  13.664  1.00  0.00    -0.271 OA
BRANCH  26  27
HETATM   27  C13 UNL     1     -11.957   8.395  12.845  1.00  0.00     0.303 C 
BRANCH  27  28
HETATM   28  C14 UNL     1     -13.479   8.293  12.890  1.00  0.00     0.244 C 
HETATM   29  O3  UNL     1     -14.208   9.281  12.965  1.00  0.00    -0.271 OA
HETATM   30  N2  UNL     1     -13.973   7.012  12.822  1.00  0.00    -0.342 N 
HETATM   31  H16 UNL     1     -13.305   6.252  12.910  1.00  0.00     0.163 HD
BRANCH  30  32
HETATM   32  C15 UNL     1     -15.394   6.710  13.015  1.00  0.00     0.216 C 
BRANCH  32  33
HETATM   33  C16 UNL     1     -16.287   7.719  12.283  1.00  0.00     0.166 C 
HETATM   34  O4  UNL     1     -17.200   8.358  12.784  1.00  0.00    -0.648 OA
BRANCH  33  35
HETATM   35  O5  UNL     1     -15.964   7.929  10.988  1.00  0.00    -0.775 OA
HETATM   36  H18 UNL     1     -16.651   8.540  10.656  1.00  0.00     0.167 HD
ENDBRANCH  33  35
ENDBRANCH  32  33
BRANCH  32  37
HETATM   37  C17 UNL     1     -15.789   6.753  14.515  1.00  0.00     0.184 C 
BRANCH  37  38
HETATM   38  O6  UNL     1     -14.730   7.295  15.322  1.00  0.00    -0.388 OA
HETATM   39  H20 UNL     1     -14.851   6.969  16.231  1.00  0.00     0.210 HD
ENDBRANCH  37  38
BRANCH  37  40
HETATM   40  C18 UNL     1     -16.181   5.396  15.073  1.00  0.00    -0.025 A 
HETATM   41  C19 UNL     1     -17.224   5.296  16.012  1.00  0.00     0.010 A 
HETATM   42  C20 UNL     1     -17.596   4.054  16.536  1.00  0.00     0.003 A 
HETATM   43  C21 UNL     1     -16.934   2.893  16.133  1.00  0.00     0.036 A 
HETATM   44  C22 UNL     1     -15.893   2.983  15.198  1.00  0.00     0.103 A 
HETATM   45  C23 UNL     1     -15.513   4.225  14.668  1.00  0.00     0.045 A 
BRANCH  44  46
HETATM   46  N3  UNL     1     -15.193   1.762  14.773  1.00  0.00    -0.116 N 
HETATM   47  O7  UNL     1     -14.300   1.322  15.511  1.00  0.00    -0.532 OA
HETATM   48  O8  UNL     1     -15.542   1.239  13.704  1.00  0.00    -0.532 OA
ENDBRANCH  44  46
ENDBRANCH  37  40
ENDBRANCH  32  37
ENDBRANCH  30  32
ENDBRANCH  27  28
ENDBRANCH  26  27
ENDBRANCH  13  26
TORSDOF 11
ENDMDL
MODEL 2
REMARK minimizedAffinity -9.80708599
REMARK CNNscore 0.302022666
REMARK CNNaffinity 7.0164094
REMARK  11 active torsions:
REMARK  status: ('A' for Active; 'I' for Inactive)
REMARK    1  A    between atoms: C3_3  and  O1_4 
REMARK    2  A    between atoms: N1_14  and  O2_16 
REMARK    3  A    between atoms: O2_16  and  C13_17 
REMARK    4  A    between atoms: C13_17  and  C14_18 
REMARK       I    between atoms: C14_18  and  N2_20 
REMARK    5  A    between atoms: N2_20  and  C15_21 
REMARK    6  A    between atoms: C15_21  and  C16_22 
REMARK    7  A    between atoms: C15_21  and  C17_25 
REMARK    8  A    between atoms: C16_22  and  O5_24 
REMARK    9  A    between atoms: C17_25  and  O6_26 
REMARK   10  A    between atoms: C17_25  and  C18_27 
REMARK   11  A    between atoms: C22_31  and  N3_32 
ROOT
HETATM    1  C1  UNL     1      -6.009   3.646  12.088  1.00  0.00     0.015 C 
HETATM    2  C2  UNL     1      -6.518   4.249  12.994  1.00  0.00    -0.078 C 
HETATM    3  C3  UNL     1      -7.176   4.975  14.105  1.00  0.00     0.128 C 
HETATM    4  C4  UNL     1      -8.200   5.967  13.538  1.00  0.00     0.052 C 
HETATM    5  C5  UNL     1      -7.349   7.174  13.171  1.00  0.00     0.010 C 
HETATM    6  C6  UNL     1      -6.412   7.327  14.374  1.00  0.00     0.002 C 
HETATM    7  C7  UNL     1      -5.136   8.172  14.152  1.00  0.00    -0.004 C 
HETATM    8  C8  UNL     1      -4.410   7.985  12.808  1.00  0.00     0.010 C 
HETATM    9  C9  UNL     1      -3.183   8.892  12.688  1.00  0.00     0.035 C 
HETATM   10  C10 UNL     1      -2.258   8.840  13.881  1.00  0.00    -0.069 C 
HETATM   11  C11 UNL     1      -0.929   8.748  13.696  1.00  0.00     0.030 C 
HETATM   12  C12 UNL     1       0.031   8.871  14.827  1.00  0.00     0.032 C 
HETATM   13  N1  UNL     1       1.298   8.703  14.573  1.00  0.00    -0.271 N 
ATOM     14  H1  UNL     1       1.673   8.456  13.657  1.00  0.00     0.194 HD
HETATM   15  C24 UNL     1      -0.528   9.259  16.183  1.00  0.00     0.060 C 
HETATM   16  C25 UNL     1      -1.895   8.623  16.391  1.00  0.00     0.020 C 
HETATM   17  C26 UNL     1      -2.913   8.953  15.256  1.00  0.00    -0.016 C 
HETATM   18  C27 UNL     1      -3.376  10.419  15.459  1.00  0.00     0.020 C 
HETATM   19  C28 UNL     1      -4.155   7.982  15.338  1.00  0.00     0.002 C 
HETATM   20  C29 UNL     1      -3.763   6.489  15.502  1.00  0.00     0.007 C 
HETATM   21  C30 UNL     1      -4.739   5.462  14.924  1.00  0.00     0.014 C 
HETATM   22  C31 UNL     1      -6.216   5.889  14.961  1.00  0.00     0.003 C 
HETATM   23  C32 UNL     1      -6.670   5.890  16.448  1.00  0.00     0.020 C 
ENDROOT
BRANCH   3  24
HETATM   24  O1  UNL     1      -7.852   4.012  14.906  1.00  0.00    -0.377 OA
HETATM   25  H2  UNL     1      -8.351   3.438  14.300  1.00  0.00     0.211 HD
ENDBRANCH   3  24
BRANCH  13  26
HETATM   26  O2  UNL     1       2.081   8.904  15.717  1.00  0.00    -0.271 OA
BRANCH  26  27
HETATM   27  C13 UNL     1       2.927   7.775  15.916  1.00  0.00     0.303 C 
BRANCH  27  28
HETATM   28  C14 UNL     1       4.204   7.919  15.093  1.00  0.00     0.244 C 
HETATM   29  O3  UNL     1       5.240   8.393  15.554  1.00  0.00    -0.271 OA
HETATM   30  N2  UNL     1       4.110   7.460  13.800  1.00  0.00    -0.342 N 
HETATM   31  H16 UNL     1       3.184   7.222  13.458  1.00  0.00     0.163 HD
BRANCH  30  32
HETATM   32  C15 UNL     1       5.179   7.665  12.818  1.00  0.00     0.216 C 
BRANCH  32  33
HETATM   33  C16 UNL     1       5.122   9.072  12.212  1.00  0.00     0.166 C 
HETATM   34  O4  UNL     1       4.217   9.880  12.368  1.00  0.00    -0.648 OA
BRANCH  33  35
HETATM   35  O5  UNL     1       6.212   9.428  11.498  1.00  0.00    -0.775 OA
HETATM   36  H18 UNL     1       5.996  10.311  11.137  1.00  0.00     0.167 HD
ENDBRANCH  33  35
ENDBRANCH  32  33
BRANCH  32  37
HETATM   37  C17 UNL     1       5.078   6.656  11.643  1.00  0.00     0.184 C 
BRANCH  37  38
HETATM   38  O6  UNL     1       6.154   6.832  10.706  1.00  0.00    -0.388 OA
HETATM   39  H20 UNL     1       5.864   6.474   9.849  1.00  0.00     0.210 HD
ENDBRANCH  37  38
BRANCH  37  40
HETATM   40  C18 UNL     1       3.760   6.737  10.893  1.00  0.00    -0.025 A 
HETATM   41  C19 UNL     1       2.571   6.312  11.512  1.00  0.00     0.010 A 
HETATM   42  C20 UNL     1       1.349   6.378  10.835  1.00  0.00     0.003 A 
HETATM   43  C21 UNL     1       1.295   6.870   9.529  1.00  0.00     0.036 A 
HETATM   44  C22 UNL     1       2.475   7.296   8.904  1.00  0.00     0.103 A 
HETATM   45  C23 UNL     1       3.704   7.231   9.575  1.00  0.00     0.045 A 
BRANCH  44  46
HETATM   46  N3  UNL     1       2.420   7.812   7.529  1.00  0.00    -0.116 N 
HETATM   47  O7  UNL     1       1.997   7.054   6.644  1.00  0.00    -0.532 OA
HETATM   48  O8  UNL     1       2.794   8.979   7.335  1.00  0.00    -0.532 OA
ENDBRANCH  44  46
ENDBRANCH  37  40
ENDBRANCH  32  37
ENDBRANCH  30  32
ENDBRANCH  27  28
ENDBRANCH  26  27
ENDBRANCH  13  26
TORSDOF 11
ENDMDL
MODEL 3
REMARK minimizedAffinity -8.18392849
REMARK CNNscore 0.259040475
REMARK CNNaffinity 6.28616476
REMARK  11 active torsions:
REMARK  status: ('A' for Active; 'I' for Inactive)
REMARK    1  A    between atoms: C3_3  and  O1_4 
REMARK    2  A    between atoms: N1_14  and  O2_16 
REMARK    3  A    between atoms: O2_16  and  C13_17 
REMARK    4  A    between atoms: C13_17  and  C14_18 
REMARK       I    between atoms: C14_18  and  N2_20 
REMARK    5  A    between atoms: N2_20  and  C15_21 
REMARK    6  A    between atoms: C15_21  and  C16_22 
REMARK    7  A    between atoms: C15_21  and  C17_25 
REMARK    8  A    between atoms: C16_22  and  O5_24 
REMARK    9  A    between atoms: C17_25  and  O6_26 
REMARK   10  A    between atoms: C17_25  and  C18_27 
REMARK   11  A    between atoms: C22_31  and  N3_32 
ROOT
HETATM    1  C1  UNL     1       1.797   8.492   8.095  1.00  0.00     0.015 C 
HETATM    2  C2  UNL     1       2.421   7.815   8.868  1.00  0.00    -0.078 C 
HETATM    3  C3  UNL     1       3.209   6.968   9.793  1.00  0.00     0.128 C 
HETATM    4  C4  UNL     1       2.896   5.489   9.532  1.00  0.00     0.052 C 
HETATM    5  C5  UNL     1       1.613   5.261  10.318  1.00  0.00     0.010 C 
HETATM    6  C6  UNL     1       1.878   5.978  11.647  1.00  0.00     0.002 C 
HETATM    7  C7  UNL     1       0.638   6.320  12.506  1.00  0.00    -0.004 C 
HETATM    8  C8  UNL     1      -0.604   6.829  11.752  1.00  0.00     0.010 C 
HETATM    9  C9  UNL     1      -1.775   7.104  12.698  1.00  0.00     0.035 C 
HETATM   10  C10 UNL     1      -1.415   7.950  13.897  1.00  0.00    -0.069 C 
HETATM   11  C11 UNL     1      -2.215   8.964  14.269  1.00  0.00     0.030 C 
HETATM   12  C12 UNL     1      -1.998   9.710  15.538  1.00  0.00     0.032 C 
HETATM   13  N1  UNL     1      -2.779  10.723  15.791  1.00  0.00    -0.271 N 
ATOM     14  H1  UNL     1      -3.504  11.062  15.159  1.00  0.00     0.194 HD
HETATM   15  C24 UNL     1      -0.933   9.192  16.485  1.00  0.00     0.060 C 
HETATM   16  C25 UNL     1       0.247   8.640  15.697  1.00  0.00     0.020 C 
HETATM   17  C26 UNL     1      -0.154   7.547  14.660  1.00  0.00    -0.016 C 
HETATM   18  C27 UNL     1      -0.453   6.245  15.448  1.00  0.00     0.020 C 
HETATM   19  C28 UNL     1       1.029   7.298  13.644  1.00  0.00     0.002 C 
HETATM   20  C29 UNL     1       1.637   8.606  13.070  1.00  0.00     0.007 C 
HETATM   21  C30 UNL     1       2.241   8.517  11.667  1.00  0.00     0.014 C 
HETATM   22  C31 UNL     1       2.860   7.152  11.321  1.00  0.00     0.003 C 
HETATM   23  C32 UNL     1       4.143   6.984  12.182  1.00  0.00     0.020 C 
ENDROOT
BRANCH   3  24
HETATM   24  O1  UNL     1       4.586   7.208   9.526  1.00  0.00    -0.377 OA
HETATM   25  H2  UNL     1       4.700   7.161   8.562  1.00  0.00     0.211 HD
ENDBRANCH   3  24
BRANCH  13  26
HETATM   26  O2  UNL     1      -2.495  11.289  17.041  1.00  0.00    -0.271 OA
BRANCH  26  27
HETATM   27  C13 UNL     1      -1.354  12.135  16.929  1.00  0.00     0.303 C 
BRANCH  27  28
HETATM   28  C14 UNL     1      -0.337  11.799  18.016  1.00  0.00     0.244 C 
HETATM   29  O3  UNL     1      -0.626  11.145  19.016  1.00  0.00    -0.271 OA
HETATM   30  N2  UNL     1       0.933  12.270  17.782  1.00  0.00    -0.342 N 
HETATM   31  H16 UNL     1       1.052  12.921  17.011  1.00  0.00     0.163 HD
BRANCH  30  32
HETATM   32  C15 UNL     1       1.996  12.186  18.787  1.00  0.00     0.216 C 
BRANCH  32  33
HETATM   33  C16 UNL     1       2.904  10.975  18.544  1.00  0.00     0.166 C 
HETATM   34  O4  UNL     1       4.123  11.004  18.456  1.00  0.00    -0.648 OA
BRANCH  33  35
HETATM   35  O5  UNL     1       2.263   9.787  18.486  1.00  0.00    -0.775 OA
HETATM   36  H18 UNL     1       2.963   9.137  18.271  1.00  0.00     0.167 HD
ENDBRANCH  33  35
ENDBRANCH  32  33
BRANCH  32  37
HETATM   37  C17 UNL     1       1.419  12.046  20.221  1.00  0.00     0.184 C 
BRANCH  37  38
HETATM   38  O6  UNL     1       0.861  13.287  20.685  1.00  0.00    -0.388 OA
HETATM   39  H20 UNL     1       0.862  13.269  21.659  1.00  0.00     0.210 HD
ENDBRANCH  37  38
BRANCH  37  40
HETATM   40  C18 UNL     1       2.441  11.561  21.235  1.00  0.00    -0.025 A 
HETATM   41  C19 UNL     1       2.334  10.268  21.776  1.00  0.00     0.010 A 
HETATM   42  C20 UNL     1       3.265   9.806  22.712  1.00  0.00     0.003 A 
HETATM   43  C21 UNL     1       4.316  10.628  23.122  1.00  0.00     0.036 A 
HETATM   44  C22 UNL     1       4.430  11.919  22.589  1.00  0.00     0.103 A 
HETATM   45  C23 UNL     1       3.500  12.390  21.651  1.00  0.00     0.045 A 
BRANCH  44  46
HETATM   46  N3  UNL     1       5.535  12.787  23.022  1.00  0.00    -0.116 N 
HETATM   47  O7  UNL     1       6.624  12.252  23.275  1.00  0.00    -0.532 OA
HETATM   48  O8  UNL     1       5.315  14.005  23.101  1.00  0.00    -0.532 OA
ENDBRANCH  44  46
ENDBRANCH  37  40
ENDBRANCH  32  37
ENDBRANCH  30  32
ENDBRANCH  27  28
ENDBRANCH  26  27
ENDBRANCH  13  26
TORSDOF 11
ENDMDL
MODEL 4
REMARK minimizedAffinity -8.84792042
REMARK CNNscore 0.234436437
REMARK CNNaffinity 6.79659653
REMARK  11 active torsions:
REMARK  status: ('A' for Active; 'I' for Inactive)
REMARK    1  A    between atoms: C3_3  and  O1_4 
REMARK    2  A    between atoms: N1_14  and  O2_16 
REMARK    3  A    between atoms: O2_16  and  C13_17 
REMARK    4  A    between atoms: C13_17  and  C14_18 
REMARK       I    between atoms: C14_18  and  N2_20 
REMARK    5  A    between atoms: N2_20  and  C15_21 
REMARK    6  A    between atoms: C15_21  and  C16_22 
REMARK    7  A    between atoms: C15_21  and  C17_25 
REMARK    8  A    between atoms: C16_22  and  O5_24 
REMARK    9  A    between atoms: C17_25  and  O6_26 
REMARK   10  A    between atoms: C17_25  and  C18_27 
REMARK   11  A    between atoms: C22_31  and  N3_32 
ROOT
HETATM    1  C1  UNL     1      -5.822   3.368  12.152  1.00  0.00     0.015 C 
HETATM    2  C2  UNL     1      -6.403   4.011  12.985  1.00  0.00    -0.078 C 
HETATM    3  C3  UNL     1      -7.148   4.786  14.004  1.00  0.00     0.128 C 
HETATM    4  C4  UNL     1      -8.130   5.739  13.310  1.00  0.00     0.052 C 
HETATM    5  C5  UNL     1      -7.259   6.934  12.949  1.00  0.00     0.010 C 
HETATM    6  C6  UNL     1      -6.420   7.155  14.212  1.00  0.00     0.002 C 
HETATM    7  C7  UNL     1      -5.134   7.999  14.047  1.00  0.00    -0.004 C 
HETATM    8  C8  UNL     1      -4.305   7.752  12.774  1.00  0.00     0.010 C 
HETATM    9  C9  UNL     1      -3.077   8.663  12.704  1.00  0.00     0.035 C 
HETATM   10  C10 UNL     1      -2.247   8.678  13.965  1.00  0.00    -0.069 C 
HETATM   11  C11 UNL     1      -0.907   8.589  13.889  1.00  0.00     0.030 C 
HETATM   12  C12 UNL     1      -0.039   8.776  15.083  1.00  0.00     0.032 C 
HETATM   13  N1  UNL     1       1.245   8.607  14.936  1.00  0.00    -0.271 N 
ATOM     14  H1  UNL     1       1.691   8.318  14.066  1.00  0.00     0.194 HD
HETATM   15  C24 UNL     1      -0.702   9.226  16.371  1.00  0.00     0.060 C 
HETATM   16  C25 UNL     1      -2.079   8.590  16.504  1.00  0.00     0.020 C 
HETATM   17  C26 UNL     1      -3.007   8.854  15.278  1.00  0.00    -0.016 C 
HETATM   18  C27 UNL     1      -3.492  10.324  15.371  1.00  0.00     0.020 C 
HETATM   19  C28 UNL     1      -4.247   7.877  15.313  1.00  0.00     0.002 C 
HETATM   20  C29 UNL     1      -3.862   6.397  15.582  1.00  0.00     0.007 C 
HETATM   21  C30 UNL     1      -4.785   5.335  14.983  1.00  0.00     0.014 C 
HETATM   22  C31 UNL     1      -6.262   5.750  14.884  1.00  0.00     0.003 C 
HETATM   23  C32 UNL     1      -6.831   5.821  16.329  1.00  0.00     0.020 C 
ENDROOT
BRANCH   3  24
HETATM   24  O1  UNL     1      -7.880   3.859  14.797  1.00  0.00    -0.377 OA
HETATM   25  H2  UNL     1      -8.327   3.251  14.184  1.00  0.00     0.211 HD
ENDBRANCH   3  24
BRANCH  13  26
HETATM   26  O2  UNL     1       1.936   8.872  16.126  1.00  0.00    -0.271 OA
BRANCH  26  27
HETATM   27  C13 UNL     1       2.255  10.259  16.189  1.00  0.00     0.303 C 
BRANCH  27  28
HETATM   28  C14 UNL     1       2.759  10.624  17.582  1.00  0.00     0.244 C 
HETATM   29  O3  UNL     1       2.391  10.035  18.597  1.00  0.00    -0.271 OA
HETATM   30  N2  UNL     1       3.672  11.652  17.613  1.00  0.00    -0.342 N 
HETATM   31  H16 UNL     1       3.808  12.177  16.754  1.00  0.00     0.163 HD
BRANCH  30  32
HETATM   32  C15 UNL     1       4.139  12.246  18.868  1.00  0.00     0.216 C 
BRANCH  32  33
HETATM   33  C16 UNL     1       3.827  13.745  18.931  1.00  0.00     0.166 C 
HETATM   34  O4  UNL     1       3.171  14.302  19.800  1.00  0.00    -0.648 OA
BRANCH  33  35
HETATM   35  O5  UNL     1       4.393  14.485  17.952  1.00  0.00    -0.775 OA
HETATM   36  H18 UNL     1       4.055  15.392  18.097  1.00  0.00     0.167 HD
ENDBRANCH  33  35
ENDBRANCH  32  33
BRANCH  32  37
HETATM   37  C17 UNL     1       5.674  12.090  19.038  1.00  0.00     0.184 C 
BRANCH  37  38
HETATM   38  O6  UNL     1       6.151  10.883  18.419  1.00  0.00    -0.388 OA
HETATM   39  H20 UNL     1       6.989  10.639  18.849  1.00  0.00     0.210 HD
ENDBRANCH  37  38
BRANCH  37  40
HETATM   40  C18 UNL     1       6.122  12.103  20.490  1.00  0.00    -0.025 A 
HETATM   41  C19 UNL     1       5.196  11.836  21.514  1.00  0.00     0.010 A 
HETATM   42  C20 UNL     1       5.591  11.846  22.855  1.00  0.00     0.003 A 
HETATM   43  C21 UNL     1       6.917  12.122  23.195  1.00  0.00     0.036 A 
HETATM   44  C22 UNL     1       7.847  12.389  22.182  1.00  0.00     0.103 A 
HETATM   45  C23 UNL     1       7.459  12.383  20.834  1.00  0.00     0.045 A 
BRANCH  44  46
HETATM   46  N3  UNL     1       9.243  12.682  22.538  1.00  0.00    -0.116 N 
HETATM   47  O7  UNL     1       9.501  12.899  23.731  1.00  0.00    -0.532 OA
HETATM   48  O8  UNL     1      10.083  12.688  21.625  1.00  0.00    -0.532 OA
ENDBRANCH  44  46
ENDBRANCH  37  40
ENDBRANCH  32  37
ENDBRANCH  30  32
ENDBRANCH  27  28
ENDBRANCH  26  27
ENDBRANCH  13  26
TORSDOF 11
ENDMDL
MODEL 5
REMARK minimizedAffinity -8.32307339
REMARK CNNscore 0.216901317
REMARK CNNaffinity 6.40610647
REMARK  11 active torsions:
REMARK  status: ('A' for Active; 'I' for Inactive)
REMARK    1  A    between atoms: C3_3  and  O1_4 
REMARK    2  A    between atoms: N1_14  and  O2_16 
REMARK    3  A    between atoms: O2_16  and  C13_17 
REMARK    4  A    between atoms: C13_17  and  C14_18 
REMARK       I    between atoms: C14_18  and  N2_20 
REMARK    5  A    between atoms: N2_20  and  C15_21 
REMARK    6  A    between atoms: C15_21  and  C16_22 
REMARK    7  A    between atoms: C15_21  and  C17_25 
REMARK    8  A    between atoms: C16_22  and  O5_24 
REMARK    9  A    between atoms: C17_25  and  O6_26 
REMARK   10  A    between atoms: C17_25  and  C18_27 
REMARK   11  A    between atoms: C22_31  and  N3_32 
ROOT
HETATM    1  C1  UNL     1       1.541   7.185   7.161  1.00  0.00     0.015 C 
HETATM    2  C2  UNL     1       2.206   7.285   8.158  1.00  0.00    -0.078 C 
HETATM    3  C3  UNL     1       3.055   7.407   9.365  1.00  0.00     0.128 C 
HETATM    4  C4  UNL     1       3.811   6.093   9.599  1.00  0.00     0.052 C 
HETATM    5  C5  UNL     1       2.792   5.229  10.328  1.00  0.00     0.010 C 
HETATM    6  C6  UNL     1       2.178   6.192  11.350  1.00  0.00     0.002 C 
HETATM    7  C7  UNL     1       0.816   5.776  11.958  1.00  0.00    -0.004 C 
HETATM    8  C8  UNL     1      -0.204   5.145  10.995  1.00  0.00     0.010 C 
HETATM    9  C9  UNL     1      -1.497   4.747  11.711  1.00  0.00     0.035 C 
HETATM   10  C10 UNL     1      -2.085   5.838  12.575  1.00  0.00    -0.069 C 
HETATM   11  C11 UNL     1      -3.404   6.095  12.527  1.00  0.00     0.030 C 
HETATM   12  C12 UNL     1      -4.056   7.033  13.481  1.00  0.00     0.032 C 
HETATM   13  N1  UNL     1      -5.326   7.278  13.324  1.00  0.00    -0.271 N 
ATOM     14  H1  UNL     1      -5.895   6.899  12.567  1.00  0.00     0.194 HD
HETATM   15  C24 UNL     1      -3.211   7.579  14.617  1.00  0.00     0.060 C 
HETATM   16  C25 UNL     1      -1.785   7.819  14.143  1.00  0.00     0.020 C 
HETATM   17  C26 UNL     1      -1.118   6.559  13.512  1.00  0.00    -0.016 C 
HETATM   18  C27 UNL     1      -0.750   5.597  14.672  1.00  0.00     0.020 C 
HETATM   19  C28 UNL     1       0.186   6.969  12.722  1.00  0.00     0.002 C 
HETATM   20  C29 UNL     1      -0.018   8.188  11.782  1.00  0.00     0.007 C 
HETATM   21  C30 UNL     1       0.868   8.241  10.536  1.00  0.00     0.014 C 
HETATM   22  C31 UNL     1       2.263   7.619  10.714  1.00  0.00     0.003 C 
HETATM   23  C32 UNL     1       3.075   8.543  11.666  1.00  0.00     0.020 C 
ENDROOT
BRANCH   3  24
HETATM   24  O1  UNL     1       3.993   8.449   9.126  1.00  0.00    -0.377 OA
HETATM   25  H2  UNL     1       4.372   8.294   8.245  1.00  0.00     0.211 HD
ENDBRANCH   3  24
BRANCH  13  26
HETATM   26  O2  UNL     1      -5.811   8.129  14.325  1.00  0.00    -0.271 OA
BRANCH  26  27
HETATM   27  C13 UNL     1      -4.946   8.071  15.455  1.00  0.00     0.303 C 
BRANCH  27  28
HETATM   28  C14 UNL     1      -4.542   9.478  15.886  1.00  0.00     0.244 C 
HETATM   29  O3  UNL     1      -5.167  10.481  15.547  1.00  0.00    -0.271 OA
HETATM   30  N2  UNL     1      -3.433   9.536  16.697  1.00  0.00    -0.342 N 
HETATM   31  H16 UNL     1      -2.894   8.683  16.807  1.00  0.00     0.163 HD
BRANCH  30  32
HETATM   32  C15 UNL     1      -2.804  10.805  17.073  1.00  0.00     0.216 C 
BRANCH  32  33
HETATM   33  C16 UNL     1      -1.342  10.864  16.618  1.00  0.00     0.166 C 
HETATM   34  O4  UNL     1      -0.799  11.820  16.083  1.00  0.00    -0.648 OA
BRANCH  33  35
HETATM   35  O5  UNL     1      -0.613   9.762  16.903  1.00  0.00    -0.775 OA
HETATM   36  H18 UNL     1       0.263   9.933  16.501  1.00  0.00     0.167 HD
ENDBRANCH  33  35
ENDBRANCH  32  33
BRANCH  32  37
HETATM   37  C17 UNL     1      -2.814  11.015  18.611  1.00  0.00     0.184 C 
BRANCH  37  38
HETATM   38  O6  UNL     1      -3.686  10.076  19.264  1.00  0.00    -0.388 OA
HETATM   39  H20 UNL     1      -3.950  10.459  20.119  1.00  0.00     0.210 HD
ENDBRANCH  37  38
BRANCH  37  40
HETATM   40  C18 UNL     1      -3.215  12.421  19.023  1.00  0.00    -0.025 A 
HETATM   41  C19 UNL     1      -4.575  12.776  19.079  1.00  0.00     0.010 A 
HETATM   42  C20 UNL     1      -4.962  14.066  19.455  1.00  0.00     0.003 A 
HETATM   43  C21 UNL     1      -3.998  15.022  19.781  1.00  0.00     0.036 A 
HETATM   44  C22 UNL     1      -2.640  14.678  19.728  1.00  0.00     0.103 A 
HETATM   45  C23 UNL     1      -2.244  13.386  19.351  1.00  0.00     0.045 A 
BRANCH  44  46
HETATM   46  N3  UNL     1      -1.624  15.683  20.069  1.00  0.00    -0.116 N 
HETATM   47  O7  UNL     1      -1.365  15.858  21.269  1.00  0.00    -0.532 OA
HETATM   48  O8  UNL     1      -1.079  16.292  19.137  1.00  0.00    -0.532 OA
ENDBRANCH  44  46
ENDBRANCH  37  40
ENDBRANCH  32  37
ENDBRANCH  30  32
ENDBRANCH  27  28
ENDBRANCH  26  27
ENDBRANCH  13  26
TORSDOF 11
ENDMDL
MODEL 6
REMARK minimizedAffinity -8.13792706
REMARK CNNscore 0.204265401
REMARK CNNaffinity 5.40297937
REMARK  11 active torsions:
REMARK  status: ('A' for Active; 'I' for Inactive)
REMARK    1  A    between atoms: C3_3  and  O1_4 
REMARK    2  A    between atoms: N1_14  and  O2_16 
REMARK    3  A    between atoms: O2_16  and  C13_17 
REMARK    4  A    between atoms: C13_17  and  C14_18 
REMARK       I    between atoms: C14_18  and  N2_20 
REMARK    5  A    between atoms: N2_20  and  C15_21 
REMARK    6  A    between atoms: C15_21  and  C16_22 
REMARK    7  A    between atoms: C15_21  and  C17_25 
REMARK    8  A    between atoms: C16_22  and  O5_24 
REMARK    9  A    between atoms: C17_25  and  O6_26 
REMARK   10  A    between atoms: C17_25  and  C18_27 
REMARK   11  A    between atoms: C22_31  and  N3_32 
ROOT
HETATM    1  C1  UNL     1       7.078  18.020  20.673  1.00  0.00     0.015 C 
HETATM    2  C2  UNL     1       6.741  17.644  21.764  1.00  0.00    -0.078 C 
HETATM    3  C3  UNL     1       6.343  17.208  23.122  1.00  0.00     0.128 C 
HETATM    4  C4  UNL     1       7.568  16.661  23.868  1.00  0.00     0.052 C 
HETATM    5  C5  UNL     1       7.668  15.227  23.369  1.00  0.00     0.010 C 
HETATM    6  C6  UNL     1       6.215  14.739  23.399  1.00  0.00     0.002 C 
HETATM    7  C7  UNL     1       5.891  13.485  22.553  1.00  0.00    -0.004 C 
HETATM    8  C8  UNL     1       6.557  13.395  21.169  1.00  0.00     0.010 C 
HETATM    9  C9  UNL     1       6.188  12.102  20.438  1.00  0.00     0.035 C 
HETATM   10  C10 UNL     1       4.707  11.809  20.410  1.00  0.00    -0.069 C 
HETATM   11  C11 UNL     1       4.123  11.408  19.267  1.00  0.00     0.030 C 
HETATM   12  C12 UNL     1       2.711  10.940  19.229  1.00  0.00     0.032 C 
HETATM   13  N1  UNL     1       2.201  10.632  18.069  1.00  0.00    -0.271 N 
ATOM     14  H1  UNL     1       2.694  10.727  17.181  1.00  0.00     0.194 HD
HETATM   15  C24 UNL     1       1.988  10.781  20.553  1.00  0.00     0.060 C 
HETATM   16  C25 UNL     1       2.418  11.873  21.522  1.00  0.00     0.020 C 
HETATM   17  C26 UNL     1       3.961  11.942  21.736  1.00  0.00    -0.016 C 
HETATM   18  C27 UNL     1       4.358  10.747  22.643  1.00  0.00     0.020 C 
HETATM   19  C28 UNL     1       4.356  13.300  22.438  1.00  0.00     0.002 C 
HETATM   20  C29 UNL     1       3.692  14.546  21.790  1.00  0.00     0.007 C 
HETATM   21  C30 UNL     1       4.469  15.860  21.891  1.00  0.00     0.014 C 
HETATM   22  C31 UNL     1       5.324  16.003  23.161  1.00  0.00     0.003 C 
HETATM   23  C32 UNL     1       4.356  16.166  24.366  1.00  0.00     0.020 C 
ENDROOT
BRANCH   3  24
HETATM   24  O1  UNL     1       5.849  18.349  23.812  1.00  0.00    -0.377 OA
HETATM   25  H2  UNL     1       6.489  19.067  23.669  1.00  0.00     0.211 HD
ENDBRANCH   3  24
BRANCH  13  26
HETATM   26  O2  UNL     1       0.890  10.156  18.197  1.00  0.00    -0.271 OA
BRANCH  26  27
HETATM   27  C13 UNL     1       0.345   9.918  16.902  1.00  0.00     0.303 C 
BRANCH  27  28
HETATM   28  C14 UNL     1       1.138   8.828  16.187  1.00  0.00     0.244 C 
HETATM   29  O3  UNL     1       1.973   8.131  16.759  1.00  0.00    -0.271 OA
HETATM   30  N2  UNL     1       0.831   8.673  14.855  1.00  0.00    -0.342 N 
HETATM   31  H16 UNL     1       0.242   9.382  14.429  1.00  0.00     0.163 HD
BRANCH  30  32
HETATM   32  C15 UNL     1       1.602   7.792  13.973  1.00  0.00     0.216 C 
BRANCH  32  33
HETATM   33  C16 UNL     1       2.517   8.594  13.040  1.00  0.00     0.166 C 
HETATM   34  O4  UNL     1       3.536   8.176  12.509  1.00  0.00    -0.648 OA
BRANCH  33  35
HETATM   35  O5  UNL     1       2.092   9.846  12.764  1.00  0.00    -0.775 OA
HETATM   36  H18 UNL     1       2.803  10.235  12.216  1.00  0.00     0.167 HD
ENDBRANCH  33  35
ENDBRANCH  32  33
BRANCH  32  37
HETATM   37  C17 UNL     1       0.675   6.930  13.075  1.00  0.00     0.184 C 
BRANCH  37  38
HETATM   38  O6  UNL     1       0.833   5.528  13.351  1.00  0.00    -0.388 OA
HETATM   39  H20 UNL     1       0.549   5.034  12.562  1.00  0.00     0.210 HD
ENDBRANCH  37  38
BRANCH  37  40
HETATM   40  C18 UNL     1       0.893   7.161  11.589  1.00  0.00    -0.025 A 
HETATM   41  C19 UNL     1       0.162   8.158  10.918  1.00  0.00     0.010 A 
HETATM   42  C20 UNL     1       0.349   8.382   9.551  1.00  0.00     0.003 A 
HETATM   43  C21 UNL     1       1.268   7.616   8.832  1.00  0.00     0.036 A 
HETATM   44  C22 UNL     1       2.001   6.619   9.491  1.00  0.00     0.103 A 
HETATM   45  C23 UNL     1       1.818   6.387  10.862  1.00  0.00     0.045 A 
BRANCH  44  46
HETATM   46  N3  UNL     1       2.967   5.810   8.736  1.00  0.00    -0.116 N 
HETATM   47  O7  UNL     1       2.688   5.524   7.562  1.00  0.00    -0.532 OA
HETATM   48  O8  UNL     1       4.009   5.465   9.314  1.00  0.00    -0.532 OA
ENDBRANCH  44  46
ENDBRANCH  37  40
ENDBRANCH  32  37
ENDBRANCH  30  32
ENDBRANCH  27  28
ENDBRANCH  26  27
ENDBRANCH  13  26
TORSDOF 11
ENDMDL
MODEL 7
REMARK minimizedAffinity -10.0941792
REMARK CNNscore 0.181577697
REMARK CNNaffinity 7.03409386
REMARK  11 active torsions:
REMARK  status: ('A' for Active; 'I' for Inactive)
REMARK    1  A    between atoms: C3_3  and  O1_4 
REMARK    2  A    between atoms: N1_14  and  O2_16 
REMARK    3  A    between atoms: O2_16  and  C13_17 
REMARK    4  A    between atoms: C13_17  and  C14_18 
REMARK       I    between atoms: C14_18  and  N2_20 
REMARK    5  A    between atoms: N2_20  and  C15_21 
REMARK    6  A    between atoms: C15_21  and  C16_22 
REMARK    7  A    between atoms: C15_21  and  C17_25 
REMARK    8  A    between atoms: C16_22  and  O5_24 
REMARK    9  A    between atoms: C17_25  and  O6_26 
REMARK   10  A    between atoms: C17_25  and  C18_27 
REMARK   11  A    between atoms: C22_31  and  N3_32 
ROOT
HETATM    1  C1  UNL     1      -8.659   6.097  10.723  1.00  0.00     0.015 C 
HETATM    2  C2  UNL     1      -8.587   5.707  11.858  1.00  0.00    -0.078 C 
HETATM    3  C3  UNL     1      -8.532   5.223  13.256  1.00  0.00     0.128 C 
HETATM    4  C4  UNL     1      -9.187   6.254  14.185  1.00  0.00     0.052 C 
HETATM    5  C5  UNL     1      -8.072   7.262  14.426  1.00  0.00     0.010 C 
HETATM    6  C6  UNL     1      -6.842   6.380  14.668  1.00  0.00     0.002 C 
HETATM    7  C7  UNL     1      -5.463   7.063  14.513  1.00  0.00    -0.004 C 
HETATM    8  C8  UNL     1      -5.310   8.052  13.344  1.00  0.00     0.010 C 
HETATM    9  C9  UNL     1      -3.918   8.687  13.309  1.00  0.00     0.035 C 
HETATM   10  C10 UNL     1      -2.783   7.694  13.406  1.00  0.00    -0.069 C 
HETATM   11  C11 UNL     1      -1.725   7.800  12.582  1.00  0.00     0.030 C 
HETATM   12  C12 UNL     1      -0.510   6.960  12.754  1.00  0.00     0.032 C 
HETATM   13  N1  UNL     1       0.444   7.078  11.873  1.00  0.00    -0.271 N 
ATOM     14  H1  UNL     1       0.396   7.682  11.052  1.00  0.00     0.194 HD
HETATM   15  C24 UNL     1      -0.433   6.079  13.987  1.00  0.00     0.060 C 
HETATM   16  C25 UNL     1      -1.811   5.531  14.329  1.00  0.00     0.020 C 
HETATM   17  C26 UNL     1      -2.896   6.637  14.502  1.00  0.00    -0.016 C 
HETATM   18  C27 UNL     1      -2.645   7.323  15.871  1.00  0.00     0.020 C 
HETATM   19  C28 UNL     1      -4.339   5.995  14.481  1.00  0.00     0.002 C 
HETATM   20  C29 UNL     1      -4.553   4.995  13.314  1.00  0.00     0.007 C 
HETATM   21  C30 UNL     1      -5.984   4.860  12.789  1.00  0.00     0.014 C 
HETATM   22  C31 UNL     1      -7.078   5.067  13.849  1.00  0.00     0.003 C 
HETATM   23  C32 UNL     1      -7.029   3.856  14.822  1.00  0.00     0.020 C 
ENDROOT
BRANCH   3  24
HETATM   24  O1  UNL     1      -9.268   4.006  13.318  1.00  0.00    -0.377 OA
HETATM   25  H2  UNL     1     -10.111   4.161  12.859  1.00  0.00     0.211 HD
ENDBRANCH   3  24
BRANCH  13  26
HETATM   26  O2  UNL     1       1.543   6.271  12.196  1.00  0.00    -0.271 OA
BRANCH  26  27
HETATM   27  C13 UNL     1       2.150   5.798  10.998  1.00  0.00     0.303 C 
BRANCH  27  28
HETATM   28  C14 UNL     1       3.542   6.403  10.835  1.00  0.00     0.244 C 
HETATM   29  O3  UNL     1       4.065   6.577   9.736  1.00  0.00    -0.271 OA
HETATM   30  N2  UNL     1       4.158   6.754  12.013  1.00  0.00    -0.342 N 
HETATM   31  H16 UNL     1       3.722   6.443  12.875  1.00  0.00     0.163 HD
BRANCH  30  32
HETATM   32  C15 UNL     1       5.555   7.195  12.063  1.00  0.00     0.216 C 
BRANCH  32  33
HETATM   33  C16 UNL     1       6.444   6.347  11.147  1.00  0.00     0.166 C 
HETATM   34  O4  UNL     1       7.232   6.780  10.318  1.00  0.00    -0.648 OA
BRANCH  33  35
HETATM   35  O5  UNL     1       6.360   5.013  11.347  1.00  0.00    -0.775 OA
HETATM   36  H18 UNL     1       6.932   4.621  10.657  1.00  0.00     0.167 HD
ENDBRANCH  33  35
ENDBRANCH  32  33
BRANCH  32  37
HETATM   37  C17 UNL     1       6.138   7.085  13.498  1.00  0.00     0.184 C 
BRANCH  37  38
HETATM   38  O6  UNL     1       5.160   7.440  14.490  1.00  0.00    -0.388 OA
HETATM   39  H20 UNL     1       5.637   7.717  15.292  1.00  0.00     0.210 HD
ENDBRANCH  37  38
BRANCH  37  40
HETATM   40  C18 UNL     1       7.378   7.936  13.709  1.00  0.00    -0.025 A 
HETATM   41  C19 UNL     1       8.312   7.584  14.700  1.00  0.00     0.010 A 
HETATM   42  C20 UNL     1       9.458   8.357  14.909  1.00  0.00     0.003 A 
HETATM   43  C21 UNL     1       9.690   9.494  14.132  1.00  0.00     0.036 A 
HETATM   44  C22 UNL     1       8.765   9.853  13.142  1.00  0.00     0.103 A 
HETATM   45  C23 UNL     1       7.613   9.083  12.927  1.00  0.00     0.045 A 
BRANCH  44  46
HETATM   46  N3  UNL     1       9.007  11.050  12.324  1.00  0.00    -0.116 N 
HETATM   47  O7  UNL     1       8.150  11.946  12.345  1.00  0.00    -0.532 OA
HETATM   48  O8  UNL     1      10.058  11.098  11.667  1.00  0.00    -0.532 OA
ENDBRANCH  44  46
ENDBRANCH  37  40
ENDBRANCH  32  37
ENDBRANCH  30  32
ENDBRANCH  27  28
ENDBRANCH  26  27
ENDBRANCH  13  26
TORSDOF 11
ENDMDL
MODEL 8
REMARK minimizedAffinity -9.15841198
REMARK CNNscore 0.155438572
REMARK CNNaffinity 6.11847544
REMARK  11 active torsions:
REMARK  status: ('A' for Active; 'I' for Inactive)
REMARK    1  A    between atoms: C3_3  and  O1_4 
REMARK    2  A    between atoms: N1_14  and  O2_16 
REMARK    3  A    between atoms: O2_16  and  C13_17 
REMARK    4  A    between atoms: C13_17  and  C14_18 
REMARK       I    between atoms: C14_18  and  N2_20 
REMARK    5  A    between atoms: N2_20  and  C15_21 
REMARK    6  A    between atoms: C15_21  and  C16_22 
REMARK    7  A    between atoms: C15_21  and  C17_25 
REMARK    8  A    between atoms: C16_22  and  O5_24 
REMARK    9  A    between atoms: C17_25  and  O6_26 
REMARK   10  A    between atoms: C17_25  and  C18_27 
REMARK   11  A    between atoms: C22_31  and  N3_32 
ROOT
HETATM    1  C1  UNL     1      -0.246   8.379   8.731  1.00  0.00     0.015 C 
HETATM    2  C2  UNL     1       0.895   8.068   8.950  1.00  0.00    -0.078 C 
HETATM    3  C3  UNL     1       2.303   7.676   9.186  1.00  0.00     0.128 C 
HETATM    4  C4  UNL     1       2.433   6.148   9.109  1.00  0.00     0.052 C 
HETATM    5  C5  UNL     1       2.008   5.693  10.497  1.00  0.00     0.010 C 
HETATM    6  C6  UNL     1       2.719   6.682  11.428  1.00  0.00     0.002 C 
HETATM    7  C7  UNL     1       2.170   6.787  12.871  1.00  0.00    -0.004 C 
HETATM    8  C8  UNL     1       0.640   6.758  13.032  1.00  0.00     0.010 C 
HETATM    9  C9  UNL     1       0.217   6.837  14.500  1.00  0.00     0.035 C 
HETATM   10  C10 UNL     1       0.879   7.951  15.275  1.00  0.00    -0.069 C 
HETATM   11  C11 UNL     1       0.146   8.731  16.090  1.00  0.00     0.030 C 
HETATM   12  C12 UNL     1       0.777   9.722  17.004  1.00  0.00     0.032 C 
HETATM   13  N1  UNL     1      -0.008  10.484  17.712  1.00  0.00    -0.271 N 
ATOM     14  H1  UNL     1      -1.027  10.472  17.654  1.00  0.00     0.194 HD
HETATM   15  C24 UNL     1       2.290   9.723  17.103  1.00  0.00     0.060 C 
HETATM   16  C25 UNL     1       2.907   9.416  15.746  1.00  0.00     0.020 C 
HETATM   17  C26 UNL     1       2.392   8.086  15.115  1.00  0.00    -0.016 C 
HETATM   18  C27 UNL     1       3.071   6.917  15.875  1.00  0.00     0.020 C 
HETATM   19  C28 UNL     1       2.775   8.024  13.584  1.00  0.00     0.002 C 
HETATM   20  C29 UNL     1       2.446   9.329  12.810  1.00  0.00     0.007 C 
HETATM   21  C30 UNL     1       2.122   9.174  11.323  1.00  0.00     0.014 C 
HETATM   22  C31 UNL     1       2.856   8.017  10.624  1.00  0.00     0.003 C 
HETATM   23  C32 UNL     1       4.361   8.396  10.538  1.00  0.00     0.020 C 
ENDROOT
BRANCH   3  24
HETATM   24  O1  UNL     1       3.090   8.263   8.157  1.00  0.00    -0.377 OA
HETATM   25  H2  UNL     1       2.639   8.081   7.315  1.00  0.00     0.211 HD
ENDBRANCH   3  24
BRANCH  13  26
HETATM   26  O2  UNL     1       0.723  11.323  18.563  1.00  0.00    -0.271 OA
BRANCH  26  27
HETATM   27  C13 UNL     1       0.530  10.911  19.913  1.00  0.00     0.303 C 
BRANCH  27  28
HETATM   28  C14 UNL     1       1.871  10.580  20.563  1.00  0.00     0.244 C 
HETATM   29  O3  UNL     1       2.518   9.575  20.275  1.00  0.00    -0.271 OA
HETATM   30  N2  UNL     1       2.307  11.504  21.483  1.00  0.00    -0.342 N 
HETATM   31  H16 UNL     1       1.649  12.223  21.768  1.00  0.00     0.163 HD
BRANCH  30  32
HETATM   32  C15 UNL     1       3.486  11.274  22.323  1.00  0.00     0.216 C 
BRANCH  32  33
HETATM   33  C16 UNL     1       3.301  10.050  23.227  1.00  0.00     0.166 C 
HETATM   34  O4  UNL     1       2.736  10.042  24.311  1.00  0.00    -0.648 OA
BRANCH  33  35
HETATM   35  O5  UNL     1       3.768   8.890  22.715  1.00  0.00    -0.775 OA
HETATM   36  H18 UNL     1       3.630   8.231  23.425  1.00  0.00     0.167 HD
ENDBRANCH  33  35
ENDBRANCH  32  33
BRANCH  32  37
HETATM   37  C17 UNL     1       3.774  12.487  23.249  1.00  0.00     0.184 C 
BRANCH  37  38
HETATM   38  O6  UNL     1       2.827  13.547  23.036  1.00  0.00    -0.388 OA
HETATM   39  H20 UNL     1       3.239  14.378  23.328  1.00  0.00     0.210 HD
ENDBRANCH  37  38
BRANCH  37  40
HETATM   40  C18 UNL     1       5.177  13.047  23.085  1.00  0.00    -0.025 A 
HETATM   41  C19 UNL     1       5.381  14.438  23.073  1.00  0.00     0.010 A 
HETATM   42  C20 UNL     1       6.665  14.971  22.922  1.00  0.00     0.003 A 
HETATM   43  C21 UNL     1       7.765  14.123  22.780  1.00  0.00     0.036 A 
HETATM   44  C22 UNL     1       7.572  12.735  22.791  1.00  0.00     0.103 A 
HETATM   45  C23 UNL     1       6.287  12.193  22.940  1.00  0.00     0.045 A 
BRANCH  44  46
HETATM   46  N3  UNL     1       8.729  11.841  22.640  1.00  0.00    -0.116 N 
HETATM   47  O7  UNL     1       9.011  11.097  23.590  1.00  0.00    -0.532 OA
HETATM   48  O8  UNL     1       9.350  11.877  21.567  1.00  0.00    -0.532 OA
ENDBRANCH  44  46
ENDBRANCH  37  40
ENDBRANCH  32  37
ENDBRANCH  30  32
ENDBRANCH  27  28
ENDBRANCH  26  27
ENDBRANCH  13  26
TORSDOF 11
ENDMDL
MODEL 9
REMARK minimizedAffinity -8.84537792
REMARK CNNscore 0.145697013
REMARK CNNaffinity 5.26854563
REMARK  11 active torsions:
REMARK  status: ('A' for Active; 'I' for Inactive)
REMARK    1  A    between atoms: C3_3  and  O1_4 
REMARK    2  A    between atoms: N1_14  and  O2_16 
REMARK    3  A    between atoms: O2_16  and  C13_17 
REMARK    4  A    between atoms: C13_17  and  C14_18 
REMARK       I    between atoms: C14_18  and  N2_20 
REMARK    5  A    between atoms: N2_20  and  C15_21 
REMARK    6  A    between atoms: C15_21  and  C16_22 
REMARK    7  A    between atoms: C15_21  and  C17_25 
REMARK    8  A    between atoms: C16_22  and  O5_24 
REMARK    9  A    between atoms: C17_25  and  O6_26 
REMARK   10  A    between atoms: C17_25  and  C18_27 
REMARK   11  A    between atoms: C22_31  and  N3_32 
ROOT
HETATM    1  C1  UNL     1       3.067   7.738  13.684  1.00  0.00     0.015 C 
HETATM    2  C2  UNL     1       3.821   7.867  12.756  1.00  0.00    -0.078 C 
HETATM    3  C3  UNL     1       4.726   8.010  11.593  1.00  0.00     0.128 C 
HETATM    4  C4  UNL     1       5.275   6.633  11.195  1.00  0.00     0.052 C 
HETATM    5  C5  UNL     1       6.439   6.432  12.154  1.00  0.00     0.010 C 
HETATM    6  C6  UNL     1       7.140   7.794  12.152  1.00  0.00     0.002 C 
HETATM    7  C7  UNL     1       8.094   8.081  13.336  1.00  0.00    -0.004 C 
HETATM    8  C8  UNL     1       7.628   7.614  14.726  1.00  0.00     0.010 C 
HETATM    9  C9  UNL     1       8.663   7.922  15.811  1.00  0.00     0.035 C 
HETATM   10  C10 UNL     1       9.168   9.345  15.796  1.00  0.00    -0.069 C 
HETATM   11  C11 UNL     1       9.273  10.034  16.947  1.00  0.00     0.030 C 
HETATM   12  C12 UNL     1       9.927  11.369  17.006  1.00  0.00     0.032 C 
HETATM   13  N1  UNL     1       9.928  11.998  18.148  1.00  0.00    -0.271 N 
ATOM     14  H1  UNL     1       9.477  11.652  18.994  1.00  0.00     0.194 HD
HETATM   15  C24 UNL     1      10.615  11.870  15.750  1.00  0.00     0.060 C 
HETATM   16  C25 UNL     1       9.835  11.442  14.516  1.00  0.00     0.020 C 
HETATM   17  C26 UNL     1       9.588   9.904  14.438  1.00  0.00    -0.016 C 
HETATM   18  C27 UNL     1      10.929   9.239  14.028  1.00  0.00     0.020 C 
HETATM   19  C28 UNL     1       8.479   9.583  13.361  1.00  0.00     0.002 C 
HETATM   20  C29 UNL     1       7.218  10.479  13.486  1.00  0.00     0.007 C 
HETATM   21  C30 UNL     1       5.897   9.862  13.023  1.00  0.00     0.014 C 
HETATM   22  C31 UNL     1       6.029   8.858  11.865  1.00  0.00     0.003 C 
HETATM   23  C32 UNL     1       6.418   9.657  10.590  1.00  0.00     0.020 C 
ENDROOT
BRANCH   3  24
HETATM   24  O1  UNL     1       3.960   8.536  10.516  1.00  0.00    -0.377 OA
HETATM   25  H2  UNL     1       3.140   8.016  10.469  1.00  0.00     0.211 HD
ENDBRANCH   3  24
BRANCH  13  26
HETATM   26  O2  UNL     1      10.627  13.209  18.064  1.00  0.00    -0.271 OA
BRANCH  26  27
HETATM   27  C13 UNL     1      11.128  13.555  19.352  1.00  0.00     0.303 C 
BRANCH  27  28
HETATM   28  C14 UNL     1      10.271  12.918  20.442  1.00  0.00     0.244 C 
HETATM   29  O3  UNL     1      10.529  11.821  20.933  1.00  0.00    -0.271 OA
HETATM   30  N2  UNL     1       9.197  13.675  20.846  1.00  0.00    -0.342 N 
HETATM   31  H16 UNL     1       8.972  14.496  20.292  1.00  0.00     0.163 HD
BRANCH  30  32
HETATM   32  C15 UNL     1       8.175  13.158  21.761  1.00  0.00     0.216 C 
BRANCH  32  33
HETATM   33  C16 UNL     1       8.797  12.638  23.062  1.00  0.00     0.166 C 
HETATM   34  O4  UNL     1       9.255  13.331  23.960  1.00  0.00    -0.648 OA
BRANCH  33  35
HETATM   35  O5  UNL     1       8.764  11.296  23.212  1.00  0.00    -0.775 OA
HETATM   36  H18 UNL     1       9.244  11.127  24.048  1.00  0.00     0.167 HD
ENDBRANCH  33  35
ENDBRANCH  32  33
BRANCH  32  37
HETATM   37  C17 UNL     1       7.384  11.981  21.129  1.00  0.00     0.184 C 
BRANCH  37  38
HETATM   38  O6  UNL     1       7.456  12.011  19.694  1.00  0.00    -0.388 OA
HETATM   39  H20 UNL     1       6.686  11.527  19.347  1.00  0.00     0.210 HD
ENDBRANCH  37  38
BRANCH  37  40
HETATM   40  C18 UNL     1       5.923  11.947  21.544  1.00  0.00    -0.025 A 
HETATM   41  C19 UNL     1       5.441  12.865  22.494  1.00  0.00     0.010 A 
HETATM   42  C20 UNL     1       4.100  12.847  22.889  1.00  0.00     0.003 A 
HETATM   43  C21 UNL     1       3.219  11.913  22.341  1.00  0.00     0.036 A 
HETATM   44  C22 UNL     1       3.690  10.994  21.393  1.00  0.00     0.103 A 
HETATM   45  C23 UNL     1       5.034  11.005  20.993  1.00  0.00     0.045 A 
BRANCH  44  46
HETATM   46  N3  UNL     1       2.765  10.008  20.816  1.00  0.00    -0.116 N 
HETATM   47  O7  UNL     1       1.979   9.435  21.585  1.00  0.00    -0.532 OA
HETATM   48  O8  UNL     1       2.818   9.813  19.592  1.00  0.00    -0.532 OA
ENDBRANCH  44  46
ENDBRANCH  37  40
ENDBRANCH  32  37
ENDBRANCH  30  32
ENDBRANCH  27  28
ENDBRANCH  26  27
ENDBRANCH  13  26
TORSDOF 11
ENDMDL
