MODEL 1
REMARK minimizedAffinity -5.69023132
REMARK CNNscore 0.529942214
REMARK CNNaffinity 4.27249432
REMARK  5 active torsions:
REMARK  status: ('A' for Active; 'I' for Inactive)
REMARK    1  A    between atoms: C2_2  and  C11_13 
REMARK    2  A    between atoms: C3_3  and  C4_4 
REMARK    3  A    between atoms: C7_7  and  C8_8 
REMARK    4  A    between atoms: C8_8  and  O2_10 
REMARK    5  A    between atoms: C14_16  and  C15_17 
ROOT
HETATM    1  C1  UNL     1     -11.647 -10.999  21.480  1.00  0.00     0.049 C 
HETATM    2  C2  UNL     1     -10.138 -10.869  21.597  1.00  0.00    -0.044 C 
HETATM    3  C3  UNL     1      -9.383 -10.408  20.574  1.00  0.00     0.019 C 
ENDROOT
BRANCH   3   4
HETATM    4  C4  UNL     1      -9.889  -9.954  19.276  1.00  0.00    -0.036 A 
HETATM    5  C5  UNL     1     -10.670 -10.812  18.495  1.00  0.00     0.012 A 
HETATM    6  C6  UNL     1     -11.156 -10.389  17.254  1.00  0.00     0.019 A 
HETATM    7  C7  UNL     1     -10.860  -9.103  16.785  1.00  0.00     0.037 A 
HETATM    8  C9  UNL     1     -10.076  -8.245  17.566  1.00  0.00     0.019 A 
HETATM    9  C10 UNL     1      -9.591  -8.670  18.807  1.00  0.00     0.012 A 
BRANCH   7  10
HETATM   10  C8  UNL     1     -11.353  -8.609  15.477  1.00  0.00     0.176 C 
HETATM   11  O1  UNL     1     -11.350  -7.450  15.105  1.00  0.00    -0.646 OA
BRANCH  10  12
HETATM   12  O2  UNL     1     -11.828  -9.592  14.692  1.00  0.00    -0.773 OA
HETATM   13  H7  UNL     1     -12.111  -9.125  13.878  1.00  0.00     0.167 HD
ENDBRANCH  10  12
ENDBRANCH   7  10
ENDBRANCH   3   4
BRANCH   2  14
HETATM   14  C11 UNL     1      -9.426 -11.241  22.797  1.00  0.00     0.011 A 
HETATM   15  C12 UNL     1      -8.159 -10.883  23.228  1.00  0.00     0.020 A 
HETATM   16  C13 UNL     1      -7.806 -11.461  24.482  1.00  0.00     0.016 A 
HETATM   17  C14 UNL     1      -8.807 -12.261  24.992  1.00  0.00    -0.013 A 
HETATM   18  S1  UNL     1     -10.159 -12.302  23.942  1.00  0.00    -0.094 SA
BRANCH  17  19
HETATM   19  C15 UNL     1      -8.830 -13.047  26.282  1.00  0.00     0.017 C 
HETATM   20  C16 UNL     1      -8.198 -14.427  26.093  1.00  0.00     0.015 C 
HETATM   21  C17 UNL     1     -10.257 -13.174  26.819  1.00  0.00     0.015 C 
ENDBRANCH  17  19
ENDBRANCH   2  14
TORSDOF 5
ENDMDL
MODEL 2
REMARK minimizedAffinity -8.15188694
REMARK CNNscore 0.476906955
REMARK CNNaffinity 5.66737938
REMARK  5 active torsions:
REMARK  status: ('A' for Active; 'I' for Inactive)
REMARK    1  A    between atoms: C2_2  and  C11_13 
REMARK    2  A    between atoms: C3_3  and  C4_4 
REMARK    3  A    between atoms: C7_7  and  C8_8 
REMARK    4  A    between atoms: C8_8  and  O2_10 
REMARK    5  A    between atoms: C14_16  and  C15_17 
ROOT
HETATM    1  C1  UNL     1      -6.901   2.480  12.324  1.00  0.00     0.049 C 
HETATM    2  C2  UNL     1      -6.520   3.908  12.671  1.00  0.00    -0.044 C 
HETATM    3  C3  UNL     1      -5.245   4.348  12.567  1.00  0.00     0.019 C 
ENDROOT
BRANCH   3   4
HETATM    4  C4  UNL     1      -4.105   3.559  12.092  1.00  0.00    -0.036 A 
HETATM    5  C5  UNL     1      -2.916   4.202  11.731  1.00  0.00     0.012 A 
HETATM    6  C6  UNL     1      -1.824   3.458  11.274  1.00  0.00     0.019 A 
HETATM    7  C7  UNL     1      -1.916   2.064  11.173  1.00  0.00     0.037 A 
HETATM    8  C9  UNL     1      -3.108   1.422  11.532  1.00  0.00     0.019 A 
HETATM    9  C10 UNL     1      -4.198   2.167  11.989  1.00  0.00     0.012 A 
BRANCH   7  10
HETATM   10  C8  UNL     1      -0.785   1.232  10.695  1.00  0.00     0.176 C 
HETATM   11  O1  UNL     1      -0.873   0.118  10.214  1.00  0.00    -0.646 OA
BRANCH  10  12
HETATM   12  O2  UNL     1       0.407   1.837  10.843  1.00  0.00    -0.773 OA
HETATM   13  H7  UNL     1       1.046   1.182  10.491  1.00  0.00     0.167 HD
ENDBRANCH  10  12
ENDBRANCH   7  10
ENDBRANCH   3   4
BRANCH   2  14
HETATM   14  C11 UNL     1      -7.489   4.869  13.142  1.00  0.00     0.011 A 
HETATM   15  C12 UNL     1      -8.639   5.346  12.534  1.00  0.00     0.020 A 
HETATM   16  C13 UNL     1      -9.341   6.300  13.327  1.00  0.00     0.016 A 
HETATM   17  C14 UNL     1      -8.715   6.544  14.531  1.00  0.00    -0.013 A 
HETATM   18  S1  UNL     1      -7.283   5.618  14.682  1.00  0.00    -0.094 SA
BRANCH  17  19
HETATM   19  C15 UNL     1      -9.130   7.477  15.645  1.00  0.00     0.017 C 
HETATM   20  C16 UNL     1      -9.137   8.931  15.167  1.00  0.00     0.015 C 
HETATM   21  C17 UNL     1      -8.220   7.312  16.864  1.00  0.00     0.015 C 
ENDBRANCH  17  19
ENDBRANCH   2  14
TORSDOF 5
ENDMDL
MODEL 3
REMARK minimizedAffinity -6.07978296
REMARK CNNscore 0.457718998
REMARK CNNaffinity 4.0849576
REMARK  5 active torsions:
REMARK  status: ('A' for Active; 'I' for Inactive)
REMARK    1  A    between atoms: C2_2  and  C11_13 
REMARK    2  A    between atoms: C3_3  and  C4_4 
REMARK    3  A    between atoms: C7_7  and  C8_8 
REMARK    4  A    between atoms: C8_8  and  O2_10 
REMARK    5  A    between atoms: C14_16  and  C15_17 
ROOT
HETATM    1  C1  UNL     1     -12.232 -11.641  22.979  1.00  0.00     0.049 C 
HETATM    2  C2  UNL     1     -10.792 -11.857  23.408  1.00  0.00    -0.044 C 
HETATM    3  C3  UNL     1      -9.753 -11.485  22.625  1.00  0.00     0.019 C 
ENDROOT
BRANCH   3   4
HETATM    4  C4  UNL     1      -9.861 -10.816  21.326  1.00  0.00    -0.036 A 
HETATM    5  C5  UNL     1      -8.984  -9.775  21.005  1.00  0.00     0.012 A 
HETATM    6  C6  UNL     1      -9.080  -9.129  19.768  1.00  0.00     0.019 A 
HETATM    7  C7  UNL     1     -10.058  -9.520  18.845  1.00  0.00     0.037 A 
HETATM    8  C9  UNL     1     -10.938 -10.560  19.169  1.00  0.00     0.019 A 
HETATM    9  C10 UNL     1     -10.840 -11.205  20.405  1.00  0.00     0.012 A 
BRANCH   7  10
HETATM   10  C8  UNL     1     -10.199  -8.866  17.522  1.00  0.00     0.176 C 
HETATM   11  O1  UNL     1     -11.029  -8.026  17.226  1.00  0.00    -0.646 OA
BRANCH  10  12
HETATM   12  O2  UNL     1      -9.291  -9.295  16.628  1.00  0.00    -0.773 OA
HETATM   13  H7  UNL     1      -9.503  -8.786  15.818  1.00  0.00     0.167 HD
ENDBRANCH  10  12
ENDBRANCH   7  10
ENDBRANCH   3   4
BRANCH   2  14
HETATM   14  C11 UNL     1     -10.450 -12.483  24.664  1.00  0.00     0.011 A 
HETATM   15  C12 UNL     1     -11.101 -12.440  25.887  1.00  0.00     0.020 A 
HETATM   16  C13 UNL     1     -10.444 -13.196  26.901  1.00  0.00     0.016 A 
HETATM   17  C14 UNL     1      -9.295 -13.804  26.441  1.00  0.00    -0.013 A 
HETATM   18  S1  UNL     1      -9.025 -13.446  24.789  1.00  0.00    -0.094 SA
BRANCH  17  19
HETATM   19  C15 UNL     1      -8.321 -14.683  27.190  1.00  0.00     0.017 C 
HETATM   20  C16 UNL     1      -7.588 -15.627  26.235  1.00  0.00     0.015 C 
HETATM   21  C17 UNL     1      -9.032 -15.473  28.291  1.00  0.00     0.015 C 
ENDBRANCH  17  19
ENDBRANCH   2  14
TORSDOF 5
ENDMDL
MODEL 4
REMARK minimizedAffinity -5.4677186
REMARK CNNscore 0.42435354
REMARK CNNaffinity 4.3104043
REMARK  5 active torsions:
REMARK  status: ('A' for Active; 'I' for Inactive)
REMARK    1  A    between atoms: C2_2  and  C11_13 
REMARK    2  A    between atoms: C3_3  and  C4_4 
REMARK    3  A    between atoms: C7_7  and  C8_8 
REMARK    4  A    between atoms: C8_8  and  O2_10 
REMARK    5  A    between atoms: C14_16  and  C15_17 
ROOT
HETATM    1  C1  UNL     1       2.753  14.043  21.505  1.00  0.00     0.049 C 
HETATM    2  C2  UNL     1       2.667  12.671  20.861  1.00  0.00    -0.044 C 
HETATM    3  C3  UNL     1       3.750  11.866  20.754  1.00  0.00     0.019 C 
ENDROOT
BRANCH   3   4
HETATM    4  C4  UNL     1       5.093  12.172  21.254  1.00  0.00    -0.036 A 
HETATM    5  C5  UNL     1       5.413  11.914  22.591  1.00  0.00     0.012 A 
HETATM    6  C6  UNL     1       6.692  12.205  23.078  1.00  0.00     0.019 A 
HETATM    7  C7  UNL     1       7.657  12.759  22.230  1.00  0.00     0.037 A 
HETATM    8  C9  UNL     1       7.335  13.021  20.892  1.00  0.00     0.019 A 
HETATM    9  C10 UNL     1       6.057  12.729  20.407  1.00  0.00     0.012 A 
BRANCH   7  10
HETATM   10  C8  UNL     1       9.026  13.084  22.699  1.00  0.00     0.176 C 
HETATM   11  O1  UNL     1      10.054  12.917  22.070  1.00  0.00    -0.646 OA
BRANCH  10  12
HETATM   12  O2  UNL     1       9.043  13.605  23.939  1.00  0.00    -0.773 OA
HETATM   13  H7  UNL     1       9.994  13.767  24.111  1.00  0.00     0.167 HD
ENDBRANCH  10  12
ENDBRANCH   7  10
ENDBRANCH   3   4
BRANCH   2  14
HETATM   14  C11 UNL     1       1.434  12.154  20.316  1.00  0.00     0.011 A 
HETATM   15  C12 UNL     1       0.951  10.856  20.280  1.00  0.00     0.020 A 
HETATM   16  C13 UNL     1      -0.322  10.746  19.648  1.00  0.00     0.016 A 
HETATM   17  C14 UNL     1      -0.794  11.963  19.203  1.00  0.00    -0.013 A 
HETATM   18  S1  UNL     1       0.314  13.220  19.553  1.00  0.00    -0.094 SA
BRANCH  17  19
HETATM   19  C15 UNL     1      -2.088  12.275  18.488  1.00  0.00     0.017 C 
HETATM   20  C16 UNL     1      -2.726  13.551  19.043  1.00  0.00     0.015 C 
HETATM   21  C17 UNL     1      -3.062  11.098  18.581  1.00  0.00     0.015 C 
ENDBRANCH  17  19
ENDBRANCH   2  14
TORSDOF 5
ENDMDL
MODEL 5
REMARK minimizedAffinity -7.07812166
REMARK CNNscore 0.40522939
REMARK CNNaffinity 5.74413824
REMARK  5 active torsions:
REMARK  status: ('A' for Active; 'I' for Inactive)
REMARK    1  A    between atoms: C2_2  and  C11_13 
REMARK    2  A    between atoms: C3_3  and  C4_4 
REMARK    3  A    between atoms: C7_7  and  C8_8 
REMARK    4  A    between atoms: C8_8  and  O2_10 
REMARK    5  A    between atoms: C14_16  and  C15_17 
ROOT
HETATM    1  C1  UNL     1      -6.451   6.030  15.648  1.00  0.00     0.049 C 
HETATM    2  C2  UNL     1      -7.443   6.297  14.531  1.00  0.00    -0.044 C 
HETATM    3  C3  UNL     1      -7.280   5.773  13.294  1.00  0.00     0.019 C 
ENDROOT
BRANCH   3   4
HETATM    4  C4  UNL     1      -6.192   4.883  12.881  1.00  0.00    -0.036 A 
HETATM    5  C5  UNL     1      -4.863   5.274  13.072  1.00  0.00     0.012 A 
HETATM    6  C6  UNL     1      -3.817   4.432  12.679  1.00  0.00     0.019 A 
HETATM    7  C7  UNL     1      -4.096   3.194  12.089  1.00  0.00     0.037 A 
HETATM    8  C9  UNL     1      -5.428   2.804  11.896  1.00  0.00     0.019 A 
HETATM    9  C10 UNL     1      -6.471   3.646  12.289  1.00  0.00     0.012 A 
BRANCH   7  10
HETATM   10  C8  UNL     1      -3.023   2.267  11.657  1.00  0.00     0.176 C 
HETATM   11  O1  UNL     1      -1.866   2.570  11.432  1.00  0.00    -0.646 OA
BRANCH  10  12
HETATM   12  O2  UNL     1      -3.449   0.998  11.525  1.00  0.00    -0.773 OA
HETATM   13  H7  UNL     1      -2.648   0.511  11.240  1.00  0.00     0.167 HD
ENDBRANCH  10  12
ENDBRANCH   7  10
ENDBRANCH   3   4
BRANCH   2  14
HETATM   14  C11 UNL     1      -8.606   7.133  14.719  1.00  0.00     0.011 A 
HETATM   15  C12 UNL     1      -8.795   8.221  15.556  1.00  0.00     0.020 A 
HETATM   16  C13 UNL     1     -10.097   8.790  15.456  1.00  0.00     0.016 A 
HETATM   17  C14 UNL     1     -10.892   8.125  14.545  1.00  0.00    -0.013 A 
HETATM   18  S1  UNL     1     -10.049   6.819  13.828  1.00  0.00    -0.094 SA
BRANCH  17  19
HETATM   19  C15 UNL     1     -12.322   8.407  14.148  1.00  0.00     0.017 C 
HETATM   20  C16 UNL     1     -13.244   8.382  15.369  1.00  0.00     0.015 C 
HETATM   21  C17 UNL     1     -12.801   7.415  13.087  1.00  0.00     0.015 C 
ENDBRANCH  17  19
ENDBRANCH   2  14
TORSDOF 5
ENDMDL
MODEL 6
REMARK minimizedAffinity -7.70978785
REMARK CNNscore 0.348329753
REMARK CNNaffinity 5.611866
REMARK  5 active torsions:
REMARK  status: ('A' for Active; 'I' for Inactive)
REMARK    1  A    between atoms: C2_2  and  C11_13 
REMARK    2  A    between atoms: C3_3  and  C4_4 
REMARK    3  A    between atoms: C7_7  and  C8_8 
REMARK    4  A    between atoms: C8_8  and  O2_10 
REMARK    5  A    between atoms: C14_16  and  C15_17 
ROOT
HETATM    1  C1  UNL     1      -2.885   6.364  13.104  1.00  0.00     0.049 C 
HETATM    2  C2  UNL     1      -4.277   5.769  13.218  1.00  0.00    -0.044 C 
HETATM    3  C3  UNL     1      -4.553   4.518  12.781  1.00  0.00     0.019 C 
ENDROOT
BRANCH   3   4
HETATM    4  C4  UNL     1      -3.587   3.586  12.196  1.00  0.00    -0.036 A 
HETATM    5  C5  UNL     1      -2.338   4.053  11.772  1.00  0.00     0.012 A 
HETATM    6  C6  UNL     1      -1.410   3.171  11.210  1.00  0.00     0.019 A 
HETATM    7  C7  UNL     1      -1.727   1.815  11.065  1.00  0.00     0.037 A 
HETATM    8  C9  UNL     1      -2.979   1.349  11.486  1.00  0.00     0.019 A 
HETATM    9  C10 UNL     1      -3.905   2.231  12.049  1.00  0.00     0.012 A 
BRANCH   7  10
HETATM   10  C8  UNL     1      -0.776   0.842  10.476  1.00  0.00     0.176 C 
HETATM   11  O1  UNL     1      -0.067   0.072  11.097  1.00  0.00    -0.646 OA
BRANCH  10  12
HETATM   12  O2  UNL     1      -0.758   0.878   9.132  1.00  0.00    -0.773 OA
HETATM   13  H7  UNL     1      -0.098   0.195   8.889  1.00  0.00     0.167 HD
ENDBRANCH  10  12
ENDBRANCH   7  10
ENDBRANCH   3   4
BRANCH   2  14
HETATM   14  C11 UNL     1      -5.384   6.505  13.783  1.00  0.00     0.011 A 
HETATM   15  C12 UNL     1      -5.480   7.842  14.131  1.00  0.00     0.020 A 
HETATM   16  C13 UNL     1      -6.752   8.196  14.666  1.00  0.00     0.016 A 
HETATM   17  C14 UNL     1      -7.614   7.120  14.725  1.00  0.00    -0.013 A 
HETATM   18  S1  UNL     1      -6.866   5.697  14.136  1.00  0.00    -0.094 SA
BRANCH  17  19
HETATM   19  C15 UNL     1      -9.040   7.072  15.222  1.00  0.00     0.017 C 
HETATM   20  C16 UNL     1     -10.027   7.062  14.054  1.00  0.00     0.015 C 
HETATM   21  C17 UNL     1      -9.329   8.242  16.166  1.00  0.00     0.015 C 
ENDBRANCH  17  19
ENDBRANCH   2  14
TORSDOF 5
ENDMDL
MODEL 7
REMARK minimizedAffinity -5.77612352
REMARK CNNscore 0.340856791
REMARK CNNaffinity 3.91641974
REMARK  5 active torsions:
REMARK  status: ('A' for Active; 'I' for Inactive)
REMARK    1  A    between atoms: C2_2  and  C11_13 
REMARK    2  A    between atoms: C3_3  and  C4_4 
REMARK    3  A    between atoms: C7_7  and  C8_8 
REMARK    4  A    between atoms: C8_8  and  O2_10 
REMARK    5  A    between atoms: C14_16  and  C15_17 
ROOT
HETATM    1  C1  UNL     1      -3.308  -9.042   6.849  1.00  0.00     0.049 C 
HETATM    2  C2  UNL     1      -3.611 -10.529   6.899  1.00  0.00    -0.044 C 
HETATM    3  C3  UNL     1      -4.380 -11.065   7.875  1.00  0.00     0.019 C 
ENDROOT
BRANCH   3   4
HETATM    4  C4  UNL     1      -5.033 -10.320   8.954  1.00  0.00    -0.036 A 
HETATM    5  C5  UNL     1      -4.327 -10.030  10.126  1.00  0.00     0.012 A 
HETATM    6  C6  UNL     1      -4.942  -9.321  11.162  1.00  0.00     0.019 A 
HETATM    7  C7  UNL     1      -6.270  -8.900  11.033  1.00  0.00     0.037 A 
HETATM    8  C9  UNL     1      -6.979  -9.193   9.860  1.00  0.00     0.019 A 
HETATM    9  C10 UNL     1      -6.362  -9.901   8.825  1.00  0.00     0.012 A 
BRANCH   7  10
HETATM   10  C8  UNL     1      -6.966  -8.145  12.104  1.00  0.00     0.176 C 
HETATM   11  O1  UNL     1      -8.060  -8.409  12.568  1.00  0.00    -0.646 OA
BRANCH  10  12
HETATM   12  O2  UNL     1      -6.256  -7.091  12.545  1.00  0.00    -0.773 OA
HETATM   13  H7  UNL     1      -6.829  -6.697  13.236  1.00  0.00     0.167 HD
ENDBRANCH  10  12
ENDBRANCH   7  10
ENDBRANCH   3   4
BRANCH   2  14
HETATM   14  C11 UNL     1      -3.087 -11.454   5.922  1.00  0.00     0.011 A 
HETATM   15  C12 UNL     1      -3.155 -11.421   4.538  1.00  0.00     0.020 A 
HETATM   16  C13 UNL     1      -2.509 -12.528   3.916  1.00  0.00     0.016 A 
HETATM   17  C14 UNL     1      -1.957 -13.398   4.834  1.00  0.00    -0.013 A 
HETATM   18  S1  UNL     1      -2.235 -12.862   6.436  1.00  0.00    -0.094 SA
BRANCH  17  19
HETATM   19  C15 UNL     1      -1.195 -14.679   4.588  1.00  0.00     0.017 C 
HETATM   20  C16 UNL     1      -1.093 -15.509   5.870  1.00  0.00     0.015 C 
HETATM   21  C17 UNL     1       0.196 -14.387   4.020  1.00  0.00     0.015 C 
ENDBRANCH  17  19
ENDBRANCH   2  14
TORSDOF 5
ENDMDL
MODEL 8
REMARK minimizedAffinity -6.99185085
REMARK CNNscore 0.326574266
REMARK CNNaffinity 5.53193712
REMARK  5 active torsions:
REMARK  status: ('A' for Active; 'I' for Inactive)
REMARK    1  A    between atoms: C2_2  and  C11_13 
REMARK    2  A    between atoms: C3_3  and  C4_4 
REMARK    3  A    between atoms: C7_7  and  C8_8 
REMARK    4  A    between atoms: C8_8  and  O2_10 
REMARK    5  A    between atoms: C14_16  and  C15_17 
ROOT
HETATM    1  C1  UNL     1      -8.913   5.827  11.602  1.00  0.00     0.049 C 
HETATM    2  C2  UNL     1      -8.729   6.047  13.093  1.00  0.00    -0.044 C 
HETATM    3  C3  UNL     1      -7.681   5.516  13.766  1.00  0.00     0.019 C 
ENDROOT
BRANCH   3   4
HETATM    4  C4  UNL     1      -6.603   4.720  13.175  1.00  0.00    -0.036 A 
HETATM    5  C5  UNL     1      -6.897   3.500  12.557  1.00  0.00     0.012 A 
HETATM    6  C6  UNL     1      -5.874   2.732  11.993  1.00  0.00     0.019 A 
HETATM    7  C7  UNL     1      -4.548   3.178  12.046  1.00  0.00     0.037 A 
HETATM    8  C9  UNL     1      -4.254   4.398  12.668  1.00  0.00     0.019 A 
HETATM    9  C10 UNL     1      -5.277   5.165  13.231  1.00  0.00     0.012 A 
BRANCH   7  10
HETATM   10  C8  UNL     1      -3.430   2.399  11.462  1.00  0.00     0.176 C 
HETATM   11  O1  UNL     1      -2.424   2.864  10.958  1.00  0.00    -0.646 OA
BRANCH  10  12
HETATM   12  O2  UNL     1      -3.624   1.071  11.535  1.00  0.00    -0.773 OA
HETATM   13  H7  UNL     1      -2.821   0.694  11.119  1.00  0.00     0.167 HD
ENDBRANCH  10  12
ENDBRANCH   7  10
ENDBRANCH   3   4
BRANCH   2  14
HETATM   14  C11 UNL     1      -9.663   6.820  13.877  1.00  0.00     0.011 A 
HETATM   15  C12 UNL     1     -11.044   6.896  13.797  1.00  0.00     0.020 A 
HETATM   16  C13 UNL     1     -11.616   7.781  14.756  1.00  0.00     0.016 A 
HETATM   17  C14 UNL     1     -10.662   8.377  15.555  1.00  0.00    -0.013 A 
HETATM   18  S1  UNL     1      -9.088   7.858  15.129  1.00  0.00    -0.094 SA
BRANCH  17  19
HETATM   19  C15 UNL     1     -10.851   9.368  16.680  1.00  0.00     0.017 C 
HETATM   20  C16 UNL     1     -12.329   9.501  17.051  1.00  0.00     0.015 C 
HETATM   21  C17 UNL     1     -10.261  10.731  16.312  1.00  0.00     0.015 C 
ENDBRANCH  17  19
ENDBRANCH   2  14
TORSDOF 5
ENDMDL
MODEL 9
REMARK minimizedAffinity -5.46234035
REMARK CNNscore 0.326354861
REMARK CNNaffinity 4.25588608
REMARK  5 active torsions:
REMARK  status: ('A' for Active; 'I' for Inactive)
REMARK    1  A    between atoms: C2_2  and  C11_13 
REMARK    2  A    between atoms: C3_3  and  C4_4 
REMARK    3  A    between atoms: C7_7  and  C8_8 
REMARK    4  A    between atoms: C8_8  and  O2_10 
REMARK    5  A    between atoms: C14_16  and  C15_17 
ROOT
HETATM    1  C1  UNL     1       4.278  11.596  18.423  1.00  0.00     0.049 C 
HETATM    2  C2  UNL     1       3.259  11.548  19.548  1.00  0.00    -0.044 C 
HETATM    3  C3  UNL     1       3.623  11.685  20.844  1.00  0.00     0.019 C 
ENDROOT
BRANCH   3   4
HETATM    4  C4  UNL     1       4.985  11.925  21.327  1.00  0.00    -0.036 A 
HETATM    5  C5  UNL     1       5.989  12.291  20.424  1.00  0.00     0.012 A 
HETATM    6  C6  UNL     1       7.292  12.520  20.875  1.00  0.00     0.019 A 
HETATM    7  C7  UNL     1       7.601  12.380  22.233  1.00  0.00     0.037 A 
HETATM    8  C9  UNL     1       6.596  12.010  23.137  1.00  0.00     0.019 A 
HETATM    9  C10 UNL     1       5.293  11.782  22.684  1.00  0.00     0.012 A 
BRANCH   7  10
HETATM   10  C8  UNL     1       8.967  12.612  22.760  1.00  0.00     0.176 C 
HETATM   11  O1  UNL     1       9.245  13.181  23.800  1.00  0.00    -0.646 OA
BRANCH  10  12
HETATM   12  O2  UNL     1       9.927  12.120  21.956  1.00  0.00    -0.773 OA
HETATM   13  H7  UNL     1      10.759  12.343  22.424  1.00  0.00     0.167 HD
ENDBRANCH  10  12
ENDBRANCH   7  10
ENDBRANCH   3   4
BRANCH   2  14
HETATM   14  C11 UNL     1       1.851  11.340  19.300  1.00  0.00     0.011 A 
HETATM   15  C12 UNL     1       0.761  11.550  20.129  1.00  0.00     0.020 A 
HETATM   16  C13 UNL     1      -0.484  11.223  19.516  1.00  0.00     0.016 A 
HETATM   17  C14 UNL     1      -0.328  10.762  18.226  1.00  0.00    -0.013 A 
HETATM   18  S1  UNL     1       1.324  10.728  17.777  1.00  0.00    -0.094 SA
BRANCH  17  19
HETATM   19  C15 UNL     1      -1.386  10.315  17.243  1.00  0.00     0.017 C 
HETATM   20  C16 UNL     1      -2.641   9.832  17.973  1.00  0.00     0.015 C 
HETATM   21  C17 UNL     1      -0.845   9.224  16.316  1.00  0.00     0.015 C 
ENDBRANCH  17  19
ENDBRANCH   2  14
TORSDOF 5
ENDMDL
