MODEL 1
REMARK minimizedAffinity -10.0214148
REMARK  7 active torsions:
REMARK  status: ('A' for Active; 'I' for Inactive)
REMARK    1  A    between atoms: C16_17  and  O2_18 
REMARK    2  A    between atoms: O2_18  and  C17_19 
REMARK    3  A    between atoms: C17_19  and  C18_21 
REMARK    4  A    between atoms: C18_21  and  C19_22 
REMARK    5  A    between atoms: C19_22  and  C20_23 
REMARK       I    between atoms: C20_23  and  N1_25 
REMARK    6  A    between atoms: N1_25  and  C21_26 
REMARK    7  A    between atoms: C21_26  and  C22_27 
ROOT
HETATM    1  C1  UNL     1      -6.850   5.954  16.040  1.00  0.00     0.020 C 
HETATM    2  C2  UNL     1      -7.037   6.480  14.600  1.00  0.00    -0.016 C 
HETATM    3  C3  UNL     1      -7.513   7.961  14.664  1.00  0.00     0.022 C 
HETATM    4  C4  UNL     1      -8.974   8.122  15.061  1.00  0.00     0.084 C 
HETATM    5  C5  UNL     1      -9.852   7.331  14.131  1.00  0.00     0.149 C 
HETATM    6  O1  UNL     1     -10.983   7.695  13.824  1.00  0.00    -0.293 OA
HETATM    7  C6  UNL     1      -9.350   6.024  13.649  1.00  0.00     0.053 C 
HETATM    8  C7  UNL     1      -8.096   5.613  13.901  1.00  0.00    -0.068 C 
HETATM    9  C8  UNL     1      -7.668   4.225  13.489  1.00  0.00     0.035 C 
HETATM   10  C9  UNL     1      -6.383   4.243  12.673  1.00  0.00     0.010 C 
HETATM   11  C10 UNL     1      -5.256   4.972  13.418  1.00  0.00    -0.004 C 
HETATM   12  C11 UNL     1      -5.696   6.424  13.771  1.00  0.00     0.002 C 
HETATM   13  C12 UNL     1      -4.536   7.243  14.397  1.00  0.00     0.007 C 
HETATM   14  C13 UNL     1      -3.226   7.172  13.593  1.00  0.00     0.012 C 
HETATM   15  C14 UNL     1      -2.807   5.725  13.297  1.00  0.00    -0.013 C 
HETATM   16  C15 UNL     1      -2.374   5.034  14.614  1.00  0.00     0.018 C 
HETATM   17  C16 UNL     1      -1.711   5.565  12.216  1.00  0.00     0.140 C 
HETATM   18  C27 UNL     1      -1.936   4.135  11.674  1.00  0.00     0.034 C 
HETATM   19  C28 UNL     1      -3.374   3.743  12.048  1.00  0.00     0.008 C 
HETATM   20  C29 UNL     1      -3.982   5.040  12.569  1.00  0.00     0.001 C 
ENDROOT
BRANCH  17  21
HETATM   21  O2  UNL     1      -0.371   5.662  12.711  1.00  0.00    -0.315 OA
BRANCH  21  22
HETATM   22  C17 UNL     1       0.444   6.547  12.070  1.00  0.00     0.259 C 
HETATM   23  O3  UNL     1       1.666   6.506  12.061  1.00  0.00    -0.265 OA
BRANCH  22  24
HETATM   24  C18 UNL     1      -0.379   7.549  11.299  1.00  0.00     0.120 C 
BRANCH  24  25
HETATM   25  C19 UNL     1       0.485   8.526  10.512  1.00  0.00     0.112 C 
BRANCH  25  26
HETATM   26  C20 UNL     1       0.682   8.083   9.076  1.00  0.00     0.218 C 
HETATM   27  O4  UNL     1      -0.084   8.372   8.167  1.00  0.00    -0.274 OA
HETATM   28  N1  UNL     1       1.816   7.322   8.898  1.00  0.00    -0.357 N 
HETATM   29  H27 UNL     1       2.323   6.991   9.707  1.00  0.00     0.162 HD
BRANCH  28  30
HETATM   30  C21 UNL     1       2.129   6.728   7.615  1.00  0.00     0.162 C 
BRANCH  30  31
HETATM   31  C22 UNL     1       2.970   5.496   7.779  1.00  0.00    -0.025 A 
HETATM   32  C23 UNL     1       3.266   4.658   6.699  1.00  0.00     0.011 A 
HETATM   33  C24 UNL     1       4.059   3.531   6.898  1.00  0.00     0.018 A 
HETATM   34  C25 UNL     1       4.538   3.282   8.173  1.00  0.00     0.087 A 
HETATM   35  N2  UNL     1       4.283   4.071   9.238  1.00  0.00    -0.375 N 
HETATM   36  C26 UNL     1       3.505   5.157   9.020  1.00  0.00     0.096 A 
ATOM     37  H2  UNL     1       4.658   3.859  10.162  1.00  0.00     0.164 HD
ENDBRANCH  30  31
ENDBRANCH  28  30
ENDBRANCH  25  26
ENDBRANCH  24  25
ENDBRANCH  22  24
ENDBRANCH  21  22
ENDBRANCH  17  21
TORSDOF 7
ENDMDL
MODEL 2
REMARK minimizedAffinity -9.68660355
REMARK  7 active torsions:
REMARK  status: ('A' for Active; 'I' for Inactive)
REMARK    1  A    between atoms: C16_17  and  O2_18 
REMARK    2  A    between atoms: O2_18  and  C17_19 
REMARK    3  A    between atoms: C17_19  and  C18_21 
REMARK    4  A    between atoms: C18_21  and  C19_22 
REMARK    5  A    between atoms: C19_22  and  C20_23 
REMARK       I    between atoms: C20_23  and  N1_25 
REMARK    6  A    between atoms: N1_25  and  C21_26 
REMARK    7  A    between atoms: C21_26  and  C22_27 
ROOT
HETATM    1  C1  UNL     1      -6.819   5.919  16.007  1.00  0.00     0.020 C 
HETATM    2  C2  UNL     1      -7.047   6.478  14.586  1.00  0.00    -0.016 C 
HETATM    3  C3  UNL     1      -7.444   7.980  14.694  1.00  0.00     0.022 C 
HETATM    4  C4  UNL     1      -8.875   8.206  15.164  1.00  0.00     0.084 C 
HETATM    5  C5  UNL     1      -9.835   7.475  14.267  1.00  0.00     0.149 C 
HETATM    6  O1  UNL     1     -10.960   7.900  14.020  1.00  0.00    -0.293 OA
HETATM    7  C6  UNL     1      -9.423   6.154  13.742  1.00  0.00     0.053 C 
HETATM    8  C7  UNL     1      -8.180   5.677  13.927  1.00  0.00    -0.068 C 
HETATM    9  C8  UNL     1      -7.843   4.276  13.474  1.00  0.00     0.035 C 
HETATM   10  C9  UNL     1      -6.599   4.244  12.597  1.00  0.00     0.010 C 
HETATM   11  C10 UNL     1      -5.403   4.904  13.297  1.00  0.00    -0.004 C 
HETATM   12  C11 UNL     1      -5.752   6.370  13.692  1.00  0.00     0.002 C 
HETATM   13  C12 UNL     1      -4.524   7.119  14.272  1.00  0.00     0.007 C 
HETATM   14  C13 UNL     1      -3.259   6.997  13.405  1.00  0.00     0.012 C 
HETATM   15  C14 UNL     1      -2.928   5.537  13.068  1.00  0.00    -0.013 C 
HETATM   16  C15 UNL     1      -2.468   4.802  14.352  1.00  0.00     0.018 C 
HETATM   17  C16 UNL     1      -1.894   5.341  11.932  1.00  0.00     0.140 C 
HETATM   18  C27 UNL     1      -2.216   3.932  11.381  1.00  0.00     0.034 C 
HETATM   19  C28 UNL     1      -3.653   3.606  11.819  1.00  0.00     0.008 C 
HETATM   20  C29 UNL     1      -4.169   4.922  12.388  1.00  0.00     0.001 C 
ENDROOT
BRANCH  17  21
HETATM   21  O2  UNL     1      -0.529   5.362  12.363  1.00  0.00    -0.315 OA
BRANCH  21  22
HETATM   22  C17 UNL     1       0.384   5.789  11.446  1.00  0.00     0.259 C 
HETATM   23  O3  UNL     1       1.066   5.065  10.734  1.00  0.00    -0.265 OA
BRANCH  22  24
HETATM   24  C18 UNL     1       0.382   7.297  11.370  1.00  0.00     0.120 C 
BRANCH  24  25
HETATM   25  C19 UNL     1       0.099   7.807   9.964  1.00  0.00     0.112 C 
BRANCH  25  26
HETATM   26  C20 UNL     1       1.373   8.065   9.185  1.00  0.00     0.218 C 
HETATM   27  O4  UNL     1       1.397   8.307   7.986  1.00  0.00    -0.274 OA
HETATM   28  N1  UNL     1       2.505   8.004   9.967  1.00  0.00    -0.357 N 
HETATM   29  H27 UNL     1       2.435   7.652  10.912  1.00  0.00     0.162 HD
BRANCH  28  30
HETATM   30  C21 UNL     1       3.827   8.133   9.390  1.00  0.00     0.162 C 
BRANCH  30  31
HETATM   31  C22 UNL     1       4.889   7.735  10.372  1.00  0.00    -0.025 A 
HETATM   32  C23 UNL     1       5.880   8.630  10.787  1.00  0.00     0.011 A 
HETATM   33  C24 UNL     1       6.839   8.218  11.708  1.00  0.00     0.018 A 
HETATM   34  C25 UNL     1       6.771   6.923  12.192  1.00  0.00     0.087 A 
HETATM   35  N2  UNL     1       5.826   6.033  11.824  1.00  0.00    -0.375 N 
HETATM   36  C26 UNL     1       4.909   6.455  10.923  1.00  0.00     0.096 A 
ATOM     37  H2  UNL     1       5.804   5.088  12.206  1.00  0.00     0.164 HD
ENDBRANCH  30  31
ENDBRANCH  28  30
ENDBRANCH  25  26
ENDBRANCH  24  25
ENDBRANCH  22  24
ENDBRANCH  21  22
ENDBRANCH  17  21
TORSDOF 7
ENDMDL
MODEL 3
REMARK minimizedAffinity -9.68420506
REMARK  7 active torsions:
REMARK  status: ('A' for Active; 'I' for Inactive)
REMARK    1  A    between atoms: C16_17  and  O2_18 
REMARK    2  A    between atoms: O2_18  and  C17_19 
REMARK    3  A    between atoms: C17_19  and  C18_21 
REMARK    4  A    between atoms: C18_21  and  C19_22 
REMARK    5  A    between atoms: C19_22  and  C20_23 
REMARK       I    between atoms: C20_23  and  N1_25 
REMARK    6  A    between atoms: N1_25  and  C21_26 
REMARK    7  A    between atoms: C21_26  and  C22_27 
ROOT
HETATM    1  C1  UNL     1       4.064   6.855   9.856  1.00  0.00     0.020 C 
HETATM    2  C2  UNL     1       2.820   6.054   9.413  1.00  0.00    -0.016 C 
HETATM    3  C3  UNL     1       3.175   4.538   9.402  1.00  0.00     0.022 C 
HETATM    4  C4  UNL     1       4.040   4.116   8.221  1.00  0.00     0.084 C 
HETATM    5  C5  UNL     1       3.376   4.507   6.929  1.00  0.00     0.149 C 
HETATM    6  O1  UNL     1       3.489   3.843   5.903  1.00  0.00    -0.293 OA
HETATM    7  C6  UNL     1       2.635   5.788   6.892  1.00  0.00     0.053 C 
HETATM    8  C7  UNL     1       2.425   6.516   8.002  1.00  0.00    -0.068 C 
HETATM    9  C8  UNL     1       1.766   7.870   7.894  1.00  0.00     0.035 C 
HETATM   10  C9  UNL     1       0.582   8.006   8.841  1.00  0.00     0.010 C 
HETATM   11  C10 UNL     1       0.986   7.700  10.290  1.00  0.00    -0.004 C 
HETATM   12  C11 UNL     1       1.599   6.271  10.388  1.00  0.00     0.002 C 
HETATM   13  C12 UNL     1       1.888   5.866  11.857  1.00  0.00     0.007 C 
HETATM   14  C13 UNL     1       0.699   6.094  12.806  1.00  0.00     0.012 C 
HETATM   15  C14 UNL     1       0.147   7.523  12.708  1.00  0.00    -0.013 C 
HETATM   16  C15 UNL     1       1.180   8.517  13.296  1.00  0.00     0.018 C 
HETATM   17  C16 UNL     1      -1.242   7.739  13.356  1.00  0.00     0.140 C 
HETATM   18  C27 UNL     1      -1.815   8.960  12.600  1.00  0.00     0.034 C 
HETATM   19  C28 UNL     1      -1.032   9.069  11.282  1.00  0.00     0.008 C 
HETATM   20  C29 UNL     1      -0.221   7.780  11.231  1.00  0.00     0.001 C 
ENDROOT
BRANCH  17  21
HETATM   21  O2  UNL     1      -1.203   8.043  14.755  1.00  0.00    -0.315 OA
BRANCH  21  22
HETATM   22  C17 UNL     1      -2.353   7.819  15.451  1.00  0.00     0.259 C 
HETATM   23  O3  UNL     1      -2.645   8.333  16.521  1.00  0.00    -0.265 OA
BRANCH  22  24
HETATM   24  C18 UNL     1      -3.262   6.899  14.673  1.00  0.00     0.120 C 
BRANCH  24  25
HETATM   25  C19 UNL     1      -4.632   7.514  14.421  1.00  0.00     0.112 C 
BRANCH  25  26
HETATM   26  C20 UNL     1      -5.755   6.535  14.700  1.00  0.00     0.218 C 
HETATM   27  O4  UNL     1      -6.391   6.513  15.745  1.00  0.00    -0.274 OA
HETATM   28  N1  UNL     1      -5.991   5.673  13.652  1.00  0.00    -0.357 N 
HETATM   29  H27 UNL     1      -5.339   5.640  12.882  1.00  0.00     0.162 HD
BRANCH  28  30
HETATM   30  C21 UNL     1      -6.964   4.605  13.761  1.00  0.00     0.162 C 
BRANCH  30  31
HETATM   31  C22 UNL     1      -6.621   3.465  12.849  1.00  0.00    -0.025 A 
HETATM   32  C23 UNL     1      -5.507   3.507  12.004  1.00  0.00     0.011 A 
HETATM   33  C24 UNL     1      -5.224   2.420  11.182  1.00  0.00     0.018 A 
HETATM   34  C25 UNL     1      -6.061   1.319  11.237  1.00  0.00     0.087 A 
HETATM   35  N2  UNL     1      -7.139   1.236  12.045  1.00  0.00    -0.375 N 
HETATM   36  C26 UNL     1      -7.397   2.308  12.830  1.00  0.00     0.096 A 
ATOM     37  H2  UNL     1      -7.731   0.405  12.063  1.00  0.00     0.164 HD
ENDBRANCH  30  31
ENDBRANCH  28  30
ENDBRANCH  25  26
ENDBRANCH  24  25
ENDBRANCH  22  24
ENDBRANCH  21  22
ENDBRANCH  17  21
TORSDOF 7
ENDMDL
MODEL 4
REMARK minimizedAffinity -9.6528492
REMARK  7 active torsions:
REMARK  status: ('A' for Active; 'I' for Inactive)
REMARK    1  A    between atoms: C16_17  and  O2_18 
REMARK    2  A    between atoms: O2_18  and  C17_19 
REMARK    3  A    between atoms: C17_19  and  C18_21 
REMARK    4  A    between atoms: C18_21  and  C19_22 
REMARK    5  A    between atoms: C19_22  and  C20_23 
REMARK       I    between atoms: C20_23  and  N1_25 
REMARK    6  A    between atoms: N1_25  and  C21_26 
REMARK    7  A    between atoms: C21_26  and  C22_27 
ROOT
HETATM    1  C1  UNL     1      -7.219   6.479  16.314  1.00  0.00     0.020 C 
HETATM    2  C2  UNL     1      -7.389   7.001  14.871  1.00  0.00    -0.016 C 
HETATM    3  C3  UNL     1      -7.834   8.493  14.926  1.00  0.00     0.022 C 
HETATM    4  C4  UNL     1      -9.294   8.686  15.317  1.00  0.00     0.084 C 
HETATM    5  C5  UNL     1     -10.185   7.908  14.388  1.00  0.00     0.149 C 
HETATM    6  O1  UNL     1     -11.307   8.293  14.074  1.00  0.00    -0.293 OA
HETATM    7  C6  UNL     1      -9.708   6.588  13.914  1.00  0.00     0.053 C 
HETATM    8  C7  UNL     1      -8.463   6.153  14.173  1.00  0.00    -0.068 C 
HETATM    9  C8  UNL     1      -8.063   4.754  13.770  1.00  0.00     0.035 C 
HETATM   10  C9  UNL     1      -6.774   4.742  12.958  1.00  0.00     0.010 C 
HETATM   11  C10 UNL     1      -5.636   5.451  13.703  1.00  0.00    -0.004 C 
HETATM   12  C11 UNL     1      -6.047   6.914  14.048  1.00  0.00     0.002 C 
HETATM   13  C12 UNL     1      -4.872   7.712  14.673  1.00  0.00     0.007 C 
HETATM   14  C13 UNL     1      -3.561   7.610  13.875  1.00  0.00     0.012 C 
HETATM   15  C14 UNL     1      -3.171   6.153  13.588  1.00  0.00    -0.013 C 
HETATM   16  C15 UNL     1      -2.757   5.460  14.910  1.00  0.00     0.018 C 
HETATM   17  C16 UNL     1      -2.074   5.965  12.511  1.00  0.00     0.140 C 
HETATM   18  C27 UNL     1      -2.327   4.537  11.975  1.00  0.00     0.034 C 
HETATM   19  C28 UNL     1      -3.774   4.176  12.346  1.00  0.00     0.008 C 
HETATM   20  C29 UNL     1      -4.357   5.488  12.859  1.00  0.00     0.001 C 
ENDROOT
BRANCH  17  21
HETATM   21  O2  UNL     1      -0.735   6.037  13.011  1.00  0.00    -0.315 OA
BRANCH  21  22
HETATM   22  C17 UNL     1       0.128   6.822  12.306  1.00  0.00     0.259 C 
HETATM   23  O3  UNL     1       0.295   6.782  11.095  1.00  0.00    -0.265 OA
BRANCH  22  24
HETATM   24  C18 UNL     1       0.799   7.814  13.225  1.00  0.00     0.120 C 
BRANCH  24  25
HETATM   25  C19 UNL     1       2.159   7.329  13.708  1.00  0.00     0.112 C 
BRANCH  25  26
HETATM   26  C20 UNL     1       3.231   7.494  12.649  1.00  0.00     0.218 C 
HETATM   27  O4  UNL     1       3.979   8.460  12.585  1.00  0.00    -0.274 OA
HETATM   28  N1  UNL     1       3.280   6.440  11.763  1.00  0.00    -0.357 N 
HETATM   29  H27 UNL     1       2.542   5.749  11.774  1.00  0.00     0.162 HD
BRANCH  28  30
HETATM   30  C21 UNL     1       4.176   6.454  10.625  1.00  0.00     0.162 C 
BRANCH  30  31
HETATM   31  C22 UNL     1       3.445   6.811   9.364  1.00  0.00    -0.025 A 
HETATM   32  C23 UNL     1       2.996   5.833   8.471  1.00  0.00     0.011 A 
HETATM   33  C24 UNL     1       2.314   6.213   7.319  1.00  0.00     0.018 A 
HETATM   34  C25 UNL     1       2.095   7.563   7.099  1.00  0.00     0.087 A 
HETATM   35  N2  UNL     1       2.505   8.535   7.941  1.00  0.00    -0.375 N 
HETATM   36  C26 UNL     1       3.170   8.141   9.051  1.00  0.00     0.096 A 
ATOM     37  H2  UNL     1       2.320   9.520   7.749  1.00  0.00     0.164 HD
ENDBRANCH  30  31
ENDBRANCH  28  30
ENDBRANCH  25  26
ENDBRANCH  24  25
ENDBRANCH  22  24
ENDBRANCH  21  22
ENDBRANCH  17  21
TORSDOF 7
ENDMDL
MODEL 5
REMARK minimizedAffinity -9.64024353
REMARK  7 active torsions:
REMARK  status: ('A' for Active; 'I' for Inactive)
REMARK    1  A    between atoms: C16_17  and  O2_18 
REMARK    2  A    between atoms: O2_18  and  C17_19 
REMARK    3  A    between atoms: C17_19  and  C18_21 
REMARK    4  A    between atoms: C18_21  and  C19_22 
REMARK    5  A    between atoms: C19_22  and  C20_23 
REMARK       I    between atoms: C20_23  and  N1_25 
REMARK    6  A    between atoms: N1_25  and  C21_26 
REMARK    7  A    between atoms: C21_26  and  C22_27 
ROOT
HETATM    1  C1  UNL     1      -6.219   5.801  15.818  1.00  0.00     0.020 C 
HETATM    2  C2  UNL     1      -6.464   6.244  14.359  1.00  0.00    -0.016 C 
HETATM    3  C3  UNL     1      -7.161   7.636  14.367  1.00  0.00     0.022 C 
HETATM    4  C4  UNL     1      -8.635   7.585  14.746  1.00  0.00     0.084 C 
HETATM    5  C5  UNL     1      -9.369   6.638  13.837  1.00  0.00     0.149 C 
HETATM    6  O1  UNL     1     -10.539   6.814  13.507  1.00  0.00    -0.293 OA
HETATM    7  C6  UNL     1      -8.667   5.408  13.405  1.00  0.00     0.053 C 
HETATM    8  C7  UNL     1      -7.368   5.203  13.682  1.00  0.00    -0.068 C 
HETATM    9  C8  UNL     1      -6.728   3.883  13.322  1.00  0.00     0.035 C 
HETATM   10  C9  UNL     1      -5.450   4.071  12.517  1.00  0.00     0.010 C 
HETATM   11  C10 UNL     1      -4.458   4.987  13.245  1.00  0.00    -0.004 C 
HETATM   12  C11 UNL     1      -5.119   6.367  13.544  1.00  0.00     0.002 C 
HETATM   13  C12 UNL     1      -4.106   7.373  14.150  1.00  0.00     0.007 C 
HETATM   14  C13 UNL     1      -2.790   7.477  13.360  1.00  0.00     0.012 C 
HETATM   15  C14 UNL     1      -2.151   6.102  13.119  1.00  0.00    -0.013 C 
HETATM   16  C15 UNL     1      -1.635   5.530  14.462  1.00  0.00     0.018 C 
HETATM   17  C16 UNL     1      -1.028   6.076  12.053  1.00  0.00     0.140 C 
HETATM   18  C27 UNL     1      -1.025   4.611  11.559  1.00  0.00     0.034 C 
HETATM   19  C28 UNL     1      -2.392   4.016  11.934  1.00  0.00     0.008 C 
HETATM   20  C29 UNL     1      -3.197   5.221  12.405  1.00  0.00     0.001 C 
ENDROOT
BRANCH  17  21
HETATM   21  O2  UNL     1       0.274   6.393  12.555  1.00  0.00    -0.315 OA
BRANCH  21  22
HETATM   22  C17 UNL     1       0.662   7.694  12.442  1.00  0.00     0.259 C 
HETATM   23  O3  UNL     1       0.553   8.381  11.436  1.00  0.00    -0.265 OA
BRANCH  22  24
HETATM   24  C18 UNL     1       1.177   8.203  13.766  1.00  0.00     0.120 C 
BRANCH  24  25
HETATM   25  C19 UNL     1       2.584   7.706  14.070  1.00  0.00     0.112 C 
BRANCH  25  26
HETATM   26  C20 UNL     1       3.543   7.980  12.930  1.00  0.00     0.218 C 
HETATM   27  O4  UNL     1       4.017   9.083  12.693  1.00  0.00    -0.274 OA
HETATM   28  N1  UNL     1       3.832   6.857  12.186  1.00  0.00    -0.357 N 
HETATM   29  H27 UNL     1       3.296   6.013  12.335  1.00  0.00     0.162 HD
BRANCH  28  30
HETATM   30  C21 UNL     1       4.658   6.932  10.999  1.00  0.00     0.162 C 
BRANCH  30  31
HETATM   31  C22 UNL     1       3.824   7.162   9.773  1.00  0.00    -0.025 A 
HETATM   32  C23 UNL     1       3.768   8.410   9.145  1.00  0.00     0.011 A 
HETATM   33  C24 UNL     1       2.988   8.573   8.003  1.00  0.00     0.018 A 
HETATM   34  C25 UNL     1       2.293   7.477   7.520  1.00  0.00     0.087 A 
HETATM   35  N2  UNL     1       2.329   6.255   8.092  1.00  0.00    -0.375 N 
HETATM   36  C26 UNL     1       3.090   6.124   9.204  1.00  0.00     0.096 A 
ATOM     37  H2  UNL     1       1.808   5.468   7.705  1.00  0.00     0.164 HD
ENDBRANCH  30  31
ENDBRANCH  28  30
ENDBRANCH  25  26
ENDBRANCH  24  25
ENDBRANCH  22  24
ENDBRANCH  21  22
ENDBRANCH  17  21
TORSDOF 7
ENDMDL
MODEL 6
REMARK minimizedAffinity -9.49766731
REMARK  7 active torsions:
REMARK  status: ('A' for Active; 'I' for Inactive)
REMARK    1  A    between atoms: C16_17  and  O2_18 
REMARK    2  A    between atoms: O2_18  and  C17_19 
REMARK    3  A    between atoms: C17_19  and  C18_21 
REMARK    4  A    between atoms: C18_21  and  C19_22 
REMARK    5  A    between atoms: C19_22  and  C20_23 
REMARK       I    between atoms: C20_23  and  N1_25 
REMARK    6  A    between atoms: N1_25  and  C21_26 
REMARK    7  A    between atoms: C21_26  and  C22_27 
ROOT
HETATM    1  C1  UNL     1      -6.938   6.240  16.252  1.00  0.00     0.020 C 
HETATM    2  C2  UNL     1      -7.097   6.820  14.830  1.00  0.00    -0.016 C 
HETATM    3  C3  UNL     1      -7.402   8.343  14.939  1.00  0.00     0.022 C 
HETATM    4  C4  UNL     1      -8.827   8.656  15.376  1.00  0.00     0.084 C 
HETATM    5  C5  UNL     1      -9.809   7.990  14.452  1.00  0.00     0.149 C 
HETATM    6  O1  UNL     1     -10.899   8.486  14.182  1.00  0.00    -0.293 OA
HETATM    7  C6  UNL     1      -9.467   6.648  13.928  1.00  0.00     0.053 C 
HETATM    8  C7  UNL     1      -8.261   6.094  14.139  1.00  0.00    -0.068 C 
HETATM    9  C8  UNL     1      -8.001   4.678  13.685  1.00  0.00     0.035 C 
HETATM   10  C9  UNL     1      -6.741   4.574  12.837  1.00  0.00     0.010 C 
HETATM   11  C10 UNL     1      -5.523   5.154  13.569  1.00  0.00    -0.004 C 
HETATM   12  C11 UNL     1      -5.790   6.637  13.966  1.00  0.00     0.002 C 
HETATM   13  C12 UNL     1      -4.532   7.305  14.580  1.00  0.00     0.007 C 
HETATM   14  C13 UNL     1      -3.256   7.110  13.742  1.00  0.00     0.012 C 
HETATM   15  C14 UNL     1      -3.009   5.633  13.403  1.00  0.00    -0.013 C 
HETATM   16  C15 UNL     1      -2.626   4.865  14.693  1.00  0.00     0.018 C 
HETATM   17  C16 UNL     1      -1.962   5.379  12.291  1.00  0.00     0.140 C 
HETATM   18  C27 UNL     1      -2.358   3.997  11.723  1.00  0.00     0.034 C 
HETATM   19  C28 UNL     1      -3.822   3.758  12.124  1.00  0.00     0.008 C 
HETATM   20  C29 UNL     1      -4.269   5.101  12.690  1.00  0.00     0.001 C 
ENDROOT
BRANCH  17  21
HETATM   21  O2  UNL     1      -0.609   5.314  12.754  1.00  0.00    -0.315 OA
BRANCH  21  22
HETATM   22  C17 UNL     1       0.284   4.712  11.918  1.00  0.00     0.259 C 
HETATM   23  O3  UNL     1       0.112   3.644  11.348  1.00  0.00    -0.265 OA
BRANCH  22  24
HETATM   24  C18 UNL     1       1.495   5.592  11.727  1.00  0.00     0.120 C 
BRANCH  24  25
HETATM   25  C19 UNL     1       1.740   5.932  10.263  1.00  0.00     0.112 C 
BRANCH  25  26
HETATM   26  C20 UNL     1       3.218   5.988   9.932  1.00  0.00     0.218 C 
HETATM   27  O4  UNL     1       3.666   5.831   8.804  1.00  0.00    -0.274 OA
HETATM   28  N1  UNL     1       4.008   6.237  11.032  1.00  0.00    -0.357 N 
HETATM   29  H27 UNL     1       3.597   6.206  11.955  1.00  0.00     0.162 HD
BRANCH  28  30
HETATM   30  C21 UNL     1       5.453   6.237  10.937  1.00  0.00     0.162 C 
BRANCH  30  31
HETATM   31  C22 UNL     1       6.018   7.584  11.279  1.00  0.00    -0.025 A 
HETATM   32  C23 UNL     1       5.710   8.724  10.530  1.00  0.00     0.011 A 
HETATM   33  C24 UNL     1       6.252   9.954  10.892  1.00  0.00     0.018 A 
HETATM   34  C25 UNL     1       7.081  10.007  12.000  1.00  0.00     0.087 A 
HETATM   35  N2  UNL     1       7.394   8.932  12.753  1.00  0.00    -0.375 N 
HETATM   36  C26 UNL     1       6.860   7.747  12.377  1.00  0.00     0.096 A 
ATOM     37  H2  UNL     1       8.005   9.009  13.567  1.00  0.00     0.164 HD
ENDBRANCH  30  31
ENDBRANCH  28  30
ENDBRANCH  25  26
ENDBRANCH  24  25
ENDBRANCH  22  24
ENDBRANCH  21  22
ENDBRANCH  17  21
TORSDOF 7
ENDMDL
MODEL 7
REMARK minimizedAffinity -9.48673534
REMARK  7 active torsions:
REMARK  status: ('A' for Active; 'I' for Inactive)
REMARK    1  A    between atoms: C16_17  and  O2_18 
REMARK    2  A    between atoms: O2_18  and  C17_19 
REMARK    3  A    between atoms: C17_19  and  C18_21 
REMARK    4  A    between atoms: C18_21  and  C19_22 
REMARK    5  A    between atoms: C19_22  and  C20_23 
REMARK       I    between atoms: C20_23  and  N1_25 
REMARK    6  A    between atoms: N1_25  and  C21_26 
REMARK    7  A    between atoms: C21_26  and  C22_27 
ROOT
HETATM    1  C1  UNL     1      -6.632   5.726  15.867  1.00  0.00     0.020 C 
HETATM    2  C2  UNL     1      -6.826   6.212  14.414  1.00  0.00    -0.016 C 
HETATM    3  C3  UNL     1      -7.477   7.626  14.438  1.00  0.00     0.022 C 
HETATM    4  C4  UNL     1      -8.961   7.615  14.781  1.00  0.00     0.084 C 
HETATM    5  C5  UNL     1      -9.703   6.714  13.832  1.00  0.00     0.149 C 
HETATM    6  O1  UNL     1     -10.857   6.938  13.479  1.00  0.00    -0.293 OA
HETATM    7  C6  UNL     1      -9.031   5.472  13.387  1.00  0.00     0.053 C 
HETATM    8  C7  UNL     1      -7.747   5.217  13.691  1.00  0.00    -0.068 C 
HETATM    9  C8  UNL     1      -7.142   3.886  13.314  1.00  0.00     0.035 C 
HETATM   10  C9  UNL     1      -5.838   4.049  12.544  1.00  0.00     0.010 C 
HETATM   11  C10 UNL     1      -4.835   4.915  13.318  1.00  0.00    -0.004 C 
HETATM   12  C11 UNL     1      -5.458   6.308  13.635  1.00  0.00     0.002 C 
HETATM   13  C12 UNL     1      -4.428   7.266  14.289  1.00  0.00     0.007 C 
HETATM   14  C13 UNL     1      -3.090   7.345  13.534  1.00  0.00     0.012 C 
HETATM   15  C14 UNL     1      -2.491   5.955  13.274  1.00  0.00    -0.013 C 
HETATM   16  C15 UNL     1      -2.028   5.334  14.616  1.00  0.00     0.018 C 
HETATM   17  C16 UNL     1      -1.344   5.916  12.235  1.00  0.00     0.140 C 
HETATM   18  C27 UNL     1      -1.376   4.464  11.706  1.00  0.00     0.034 C 
HETATM   19  C28 UNL     1      -2.770   3.906  12.034  1.00  0.00     0.008 C 
HETATM   20  C29 UNL     1      -3.547   5.126  12.515  1.00  0.00     0.001 C 
ENDROOT
BRANCH  17  21
HETATM   21  O2  UNL     1      -0.044   6.178  12.776  1.00  0.00    -0.315 OA
BRANCH  21  22
HETATM   22  C17 UNL     1       0.703   7.110  12.121  1.00  0.00     0.259 C 
HETATM   23  O3  UNL     1       1.061   8.184  12.583  1.00  0.00    -0.265 OA
BRANCH  22  24
HETATM   24  C18 UNL     1       1.102   6.595  10.759  1.00  0.00     0.120 C 
BRANCH  24  25
HETATM   25  C19 UNL     1       2.128   5.474  10.840  1.00  0.00     0.112 C 
BRANCH  25  26
HETATM   26  C20 UNL     1       3.490   5.911  10.338  1.00  0.00     0.218 C 
HETATM   27  O4  UNL     1       3.790   5.968   9.153  1.00  0.00    -0.274 OA
HETATM   28  N1  UNL     1       4.358   6.243  11.355  1.00  0.00    -0.357 N 
HETATM   29  H27 UNL     1       4.105   6.032  12.310  1.00  0.00     0.162 HD
BRANCH  28  30
HETATM   30  C21 UNL     1       5.735   6.598  11.083  1.00  0.00     0.162 C 
BRANCH  30  31
HETATM   31  C22 UNL     1       6.298   7.462  12.172  1.00  0.00    -0.025 A 
HETATM   32  C23 UNL     1       6.434   6.997  13.484  1.00  0.00     0.011 A 
HETATM   33  C24 UNL     1       6.970   7.833  14.460  1.00  0.00     0.018 A 
HETATM   34  C25 UNL     1       7.363   9.108  14.089  1.00  0.00     0.087 A 
HETATM   35  N2  UNL     1       7.257   9.590  12.833  1.00  0.00    -0.375 N 
HETATM   36  C26 UNL     1       6.727   8.760  11.904  1.00  0.00     0.096 A 
ATOM     37  H2  UNL     1       7.562  10.533  12.595  1.00  0.00     0.164 HD
ENDBRANCH  30  31
ENDBRANCH  28  30
ENDBRANCH  25  26
ENDBRANCH  24  25
ENDBRANCH  22  24
ENDBRANCH  21  22
ENDBRANCH  17  21
TORSDOF 7
ENDMDL
MODEL 8
REMARK minimizedAffinity -9.32851505
REMARK  7 active torsions:
REMARK  status: ('A' for Active; 'I' for Inactive)
REMARK    1  A    between atoms: C16_17  and  O2_18 
REMARK    2  A    between atoms: O2_18  and  C17_19 
REMARK    3  A    between atoms: C17_19  and  C18_21 
REMARK    4  A    between atoms: C18_21  and  C19_22 
REMARK    5  A    between atoms: C19_22  and  C20_23 
REMARK       I    between atoms: C20_23  and  N1_25 
REMARK    6  A    between atoms: N1_25  and  C21_26 
REMARK    7  A    between atoms: C21_26  and  C22_27 
ROOT
HETATM    1  C1  UNL     1       0.662   5.861  13.308  1.00  0.00     0.020 C 
HETATM    2  C2  UNL     1       0.032   6.815  12.270  1.00  0.00    -0.016 C 
HETATM    3  C3  UNL     1       0.056   6.125  10.874  1.00  0.00     0.022 C 
HETATM    4  C4  UNL     1       1.432   6.099  10.223  1.00  0.00     0.084 C 
HETATM    5  C5  UNL     1       1.984   7.494  10.125  1.00  0.00     0.149 C 
HETATM    6  O1  UNL     1       2.709   7.853   9.201  1.00  0.00    -0.293 OA
HETATM    7  C6  UNL     1       1.703   8.430  11.238  1.00  0.00     0.053 C 
HETATM    8  C7  UNL     1       0.862   8.108  12.235  1.00  0.00    -0.068 C 
HETATM    9  C8  UNL     1       0.698   9.048  13.406  1.00  0.00     0.035 C 
HETATM   10  C9  UNL     1      -0.765   9.370  13.678  1.00  0.00     0.010 C 
HETATM   11  C10 UNL     1      -1.593   8.093  13.872  1.00  0.00    -0.004 C 
HETATM   12  C11 UNL     1      -1.463   7.171  12.623  1.00  0.00     0.002 C 
HETATM   13  C12 UNL     1      -2.398   5.937  12.716  1.00  0.00     0.007 C 
HETATM   14  C13 UNL     1      -3.852   6.287  13.076  1.00  0.00     0.012 C 
HETATM   15  C14 UNL     1      -3.940   7.165  14.333  1.00  0.00    -0.013 C 
HETATM   16  C15 UNL     1      -3.530   6.332  15.573  1.00  0.00     0.018 C 
HETATM   17  C16 UNL     1      -5.311   7.845  14.567  1.00  0.00     0.140 C 
HETATM   18  C27 UNL     1      -4.965   9.082  15.427  1.00  0.00     0.034 C 
HETATM   19  C28 UNL     1      -3.466   9.354  15.226  1.00  0.00     0.008 C 
HETATM   20  C29 UNL     1      -3.075   8.419  14.088  1.00  0.00     0.001 C 
ENDROOT
BRANCH  17  21
HETATM   21  O2  UNL     1      -6.257   7.041  15.280  1.00  0.00    -0.315 OA
BRANCH  21  22
HETATM   22  C17 UNL     1      -7.556   7.143  14.878  1.00  0.00     0.259 C 
HETATM   23  O3  UNL     1      -8.328   8.036  15.197  1.00  0.00    -0.265 OA
BRANCH  22  24
HETATM   24  C18 UNL     1      -7.891   6.033  13.912  1.00  0.00     0.120 C 
BRANCH  24  25
HETATM   25  C19 UNL     1      -7.469   4.665  14.431  1.00  0.00     0.112 C 
BRANCH  25  26
HETATM   26  C20 UNL     1      -7.433   3.625  13.329  1.00  0.00     0.218 C 
HETATM   27  O4  UNL     1      -8.422   3.023  12.933  1.00  0.00    -0.274 OA
HETATM   28  N1  UNL     1      -6.171   3.428  12.814  1.00  0.00    -0.357 N 
HETATM   29  H27 UNL     1      -5.376   3.840  13.282  1.00  0.00     0.162 HD
BRANCH  28  30
HETATM   30  C21 UNL     1      -5.916   2.409  11.817  1.00  0.00     0.162 C 
BRANCH  30  31
HETATM   31  C22 UNL     1      -4.495   2.463  11.339  1.00  0.00    -0.025 A 
HETATM   32  C23 UNL     1      -4.012   3.535  10.584  1.00  0.00     0.011 A 
HETATM   33  C24 UNL     1      -2.682   3.545  10.171  1.00  0.00     0.018 A 
HETATM   34  C25 UNL     1      -1.873   2.482  10.535  1.00  0.00     0.087 A 
HETATM   35  N2  UNL     1      -2.299   1.434  11.270  1.00  0.00    -0.375 N 
HETATM   36  C26 UNL     1      -3.597   1.445  11.654  1.00  0.00     0.096 A 
ATOM     37  H2  UNL     1      -1.673   0.670  11.525  1.00  0.00     0.164 HD
ENDBRANCH  30  31
ENDBRANCH  28  30
ENDBRANCH  25  26
ENDBRANCH  24  25
ENDBRANCH  22  24
ENDBRANCH  21  22
ENDBRANCH  17  21
TORSDOF 7
ENDMDL
MODEL 9
REMARK minimizedAffinity -9.0836544
REMARK  7 active torsions:
REMARK  status: ('A' for Active; 'I' for Inactive)
REMARK    1  A    between atoms: C16_17  and  O2_18 
REMARK    2  A    between atoms: O2_18  and  C17_19 
REMARK    3  A    between atoms: C17_19  and  C18_21 
REMARK    4  A    between atoms: C18_21  and  C19_22 
REMARK    5  A    between atoms: C19_22  and  C20_23 
REMARK       I    between atoms: C20_23  and  N1_25 
REMARK    6  A    between atoms: N1_25  and  C21_26 
REMARK    7  A    between atoms: C21_26  and  C22_27 
ROOT
HETATM    1  C1  UNL     1      -4.392   3.907  10.153  1.00  0.00     0.020 C 
HETATM    2  C2  UNL     1      -4.345   3.460  11.630  1.00  0.00    -0.016 C 
HETATM    3  C3  UNL     1      -4.331   1.903  11.684  1.00  0.00     0.022 C 
HETATM    4  C4  UNL     1      -5.681   1.264  11.387  1.00  0.00     0.084 C 
HETATM    5  C5  UNL     1      -6.727   1.810  12.319  1.00  0.00     0.149 C 
HETATM    6  O1  UNL     1      -7.672   1.134  12.717  1.00  0.00    -0.293 OA
HETATM    7  C6  UNL     1      -6.645   3.240  12.692  1.00  0.00     0.053 C 
HETATM    8  C7  UNL     1      -5.596   4.002  12.339  1.00  0.00    -0.068 C 
HETATM    9  C8  UNL     1      -5.613   5.482  12.641  1.00  0.00     0.035 C 
HETATM   10  C9  UNL     1      -4.356   5.928  13.377  1.00  0.00     0.010 C 
HETATM   11  C10 UNL     1      -3.088   5.533  12.609  1.00  0.00    -0.004 C 
HETATM   12  C11 UNL     1      -3.059   3.994  12.370  1.00  0.00     0.002 C 
HETATM   13  C12 UNL     1      -1.726   3.534  11.725  1.00  0.00     0.007 C 
HETATM   14  C13 UNL     1      -0.475   4.071  12.441  1.00  0.00     0.012 C 
HETATM   15  C14 UNL     1      -0.523   5.594  12.625  1.00  0.00    -0.013 C 
HETATM   16  C15 UNL     1      -0.383   6.285  11.245  1.00  0.00     0.018 C 
HETATM   17  C16 UNL     1       0.508   6.170  13.626  1.00  0.00     0.140 C 
HETATM   18  C27 UNL     1      -0.136   7.495  14.095  1.00  0.00     0.034 C 
HETATM   19  C28 UNL     1      -1.638   7.389  13.787  1.00  0.00     0.008 C 
HETATM   20  C29 UNL     1      -1.825   5.932  13.381  1.00  0.00     0.001 C 
ENDROOT
BRANCH  17  21
HETATM   21  O2  UNL     1       1.789   6.460  13.056  1.00  0.00    -0.315 OA
BRANCH  21  22
HETATM   22  C17 UNL     1       2.594   7.290  13.778  1.00  0.00     0.259 C 
HETATM   23  O3  UNL     1       2.671   7.318  14.998  1.00  0.00    -0.265 OA
BRANCH  22  24
HETATM   24  C18 UNL     1       3.444   8.127  12.853  1.00  0.00     0.120 C 
BRANCH  24  25
HETATM   25  C19 UNL     1       4.825   7.525  12.633  1.00  0.00     0.112 C 
BRANCH  25  26
HETATM   26  C20 UNL     1       4.920   6.787  11.313  1.00  0.00     0.218 C 
HETATM   27  O4  UNL     1       5.876   6.876  10.553  1.00  0.00    -0.274 OA
HETATM   28  N1  UNL     1       3.820   5.999  11.055  1.00  0.00    -0.357 N 
HETATM   29  H27 UNL     1       3.002   6.084  11.642  1.00  0.00     0.162 HD
BRANCH  28  30
HETATM   30  C21 UNL     1       3.682   5.286   9.802  1.00  0.00     0.162 C 
BRANCH  30  31
HETATM   31  C22 UNL     1       2.951   6.113   8.786  1.00  0.00    -0.025 A 
HETATM   32  C23 UNL     1       2.422   7.369   9.101  1.00  0.00     0.011 A 
HETATM   33  C24 UNL     1       1.760   8.103   8.121  1.00  0.00     0.018 A 
HETATM   34  C25 UNL     1       1.654   7.561   6.852  1.00  0.00     0.087 A 
HETATM   35  N2  UNL     1       2.158   6.358   6.506  1.00  0.00    -0.375 N 
HETATM   36  C26 UNL     1       2.792   5.660   7.477  1.00  0.00     0.096 A 
ATOM     37  H2  UNL     1       2.066   5.992   5.559  1.00  0.00     0.164 HD
ENDBRANCH  30  31
ENDBRANCH  28  30
ENDBRANCH  25  26
ENDBRANCH  24  25
ENDBRANCH  22  24
ENDBRANCH  21  22
ENDBRANCH  17  21
TORSDOF 7
ENDMDL
