MODEL 1
REMARK minimizedAffinity -7.53546762
REMARK CNNscore 0.756080747
REMARK CNNaffinity 6.30415773
REMARK  10 active torsions:
REMARK  status: ('A' for Active; 'I' for Inactive)
REMARK    1  A    between atoms: C2_2  and  O2_4 
REMARK    2  A    between atoms: O2_4  and  C3_5 
REMARK    3  A    between atoms: C3_5  and  C4_6 
REMARK    4  A    between atoms: C18_21  and  O4_22 
REMARK    5  A    between atoms: C21_25  and  O5_26 
REMARK    6  A    between atoms: C21_25  and  C22_27 
REMARK    7  A    between atoms: C22_27  and  O6_29 
REMARK    8  A    between atoms: C22_27  and  C24_30 
REMARK    9  A    between atoms: C28_34  and  C29_35 
REMARK   10  A    between atoms: C29_35  and  O7_36 
ROOT
HETATM    1  C4  UNL     1     -15.910  -2.722  14.731  1.00  0.00     0.047 C 
HETATM    2  C5  UNL     1     -14.755  -1.804  15.159  1.00  0.00     0.018 C 
HETATM    3  C6  UNL     1     -15.253  -0.390  15.519  1.00  0.00     0.007 C 
HETATM    4  C7  UNL     1     -16.112   0.296  14.413  1.00  0.00     0.013 C 
HETATM    5  C8  UNL     1     -17.213  -0.665  13.858  1.00  0.00     0.030 C 
HETATM    6  C9  UNL     1     -17.921  -0.036  12.647  1.00  0.00     0.035 C 
HETATM    7  C10 UNL     1     -18.316   1.384  12.889  1.00  0.00    -0.022 C 
HETATM    8  C11 UNL     1     -17.818   2.161  13.868  1.00  0.00    -0.064 C 
HETATM    9  C12 UNL     1     -18.315   3.583  14.025  1.00  0.00     0.062 C 
HETATM   10  C13 UNL     1     -17.197   4.550  14.263  1.00  0.00    -0.019 C 
HETATM   11  C14 UNL     1     -15.946   4.195  14.577  1.00  0.00     0.047 C 
HETATM   12  C15 UNL     1     -15.584   2.765  14.766  1.00  0.00     0.162 C 
HETATM   13  O3  UNL     1     -14.390   2.500  14.908  1.00  0.00    -0.292 OA
HETATM   14  C16 UNL     1     -16.714   1.699  14.835  1.00  0.00     0.048 C 
HETATM   15  C17 UNL     1     -17.264   1.680  16.275  1.00  0.00     0.029 C 
HETATM   16  C18 UNL     1     -16.621  -2.054  13.520  1.00  0.00     0.075 C 
HETATM   17  C19 UNL     1     -17.598  -3.132  13.069  1.00  0.00     0.042 C 
HETATM   18  C20 UNL     1     -16.775  -4.430  13.168  1.00  0.00     0.045 C 
HETATM   19  C21 UNL     1     -15.584  -4.163  14.160  1.00  0.00     0.103 C 
ENDROOT
BRANCH  19  20
HETATM   20  O5  UNL     1     -15.802  -5.132  15.229  1.00  0.00    -0.386 OA
HETATM   21  H27 UNL     1     -15.502  -5.986  14.844  1.00  0.00     0.210 HD
ENDBRANCH  19  20
BRANCH  19  22
HETATM   22  C22 UNL     1     -14.178  -4.605  13.556  1.00  0.00     0.113 C 
HETATM   23  C23 UNL     1     -13.010  -3.741  14.069  1.00  0.00     0.052 C 
BRANCH  22  24
HETATM   24  O6  UNL     1     -13.958  -5.900  14.244  1.00  0.00    -0.384 OA
HETATM   25  H31 UNL     1     -13.270  -6.365  13.721  1.00  0.00     0.210 HD
ENDBRANCH  22  24
BRANCH  22  26
HETATM   26  C24 UNL     1     -14.035  -4.917  12.023  1.00  0.00     0.173 C 
HETATM   27  C25 UNL     1     -15.165  -5.693  11.346  1.00  0.00     0.070 C 
HETATM   28  C26 UNL     1     -14.903  -5.772   9.862  1.00  0.00    -0.067 C 
HETATM   29  C27 UNL     1     -15.451  -6.996   9.182  1.00  0.00     0.044 C 
HETATM   30  C28 UNL     1     -14.240  -4.775   9.236  1.00  0.00     0.042 C 
HETATM   31  C30 UNL     1     -13.827  -3.567  10.001  1.00  0.00     0.292 C 
HETATM   32  O8  UNL     1     -13.394  -2.561   9.455  1.00  0.00    -0.260 OA
HETATM   33  O9  UNL     1     -13.978  -3.616  11.349  1.00  0.00    -0.309 OA
BRANCH  30  34
HETATM   34  C29 UNL     1     -13.912  -4.740   7.774  1.00  0.00     0.209 C 
BRANCH  34  35
HETATM   35  O7  UNL     1     -14.896  -3.971   7.090  1.00  0.00    -0.396 OA
HETATM   36  H40 UNL     1     -14.485  -3.661   6.264  1.00  0.00     0.209 HD
ENDBRANCH  34  35
ENDBRANCH  30  34
ENDBRANCH  22  26
ENDBRANCH  19  22
BRANCH   1  37
HETATM   37  C3  UNL     1     -16.894  -2.874  15.964  1.00  0.00     0.194 C 
BRANCH  37  38
HETATM   38  O2  UNL     1     -16.157  -3.139  17.172  1.00  0.00    -0.321 OA
BRANCH  38  39
HETATM   39  C2  UNL     1     -16.822  -2.836  18.317  1.00  0.00     0.254 C 
HETATM   40  C1  UNL     1     -18.253  -3.261  18.206  1.00  0.00     0.126 C 
HETATM   41  O1  UNL     1     -16.328  -2.324  19.313  1.00  0.00    -0.266 OA
ENDBRANCH  38  39
ENDBRANCH  37  38
ENDBRANCH   1  37
BRANCH  16  42
HETATM   42  O4  UNL     1     -15.698  -1.928  12.426  1.00  0.00    -0.388 OA
HETATM   43  H22 UNL     1     -15.419  -1.003  12.322  1.00  0.00     0.210 HD
ENDBRANCH  16  42
TORSDOF 10
ENDMDL
MODEL 2
REMARK minimizedAffinity -7.4074316
REMARK CNNscore 0.707271934
REMARK CNNaffinity 5.98300171
REMARK  10 active torsions:
REMARK  status: ('A' for Active; 'I' for Inactive)
REMARK    1  A    between atoms: C2_2  and  O2_4 
REMARK    2  A    between atoms: O2_4  and  C3_5 
REMARK    3  A    between atoms: C3_5  and  C4_6 
REMARK    4  A    between atoms: C18_21  and  O4_22 
REMARK    5  A    between atoms: C21_25  and  O5_26 
REMARK    6  A    between atoms: C21_25  and  C22_27 
REMARK    7  A    between atoms: C22_27  and  O6_29 
REMARK    8  A    between atoms: C22_27  and  C24_30 
REMARK    9  A    between atoms: C28_34  and  C29_35 
REMARK   10  A    between atoms: C29_35  and  O7_36 
ROOT
HETATM    1  C4  UNL     1     -15.521  -3.183  14.966  1.00  0.00     0.047 C 
HETATM    2  C5  UNL     1     -14.564  -2.139  15.560  1.00  0.00     0.018 C 
HETATM    3  C6  UNL     1     -15.234  -0.755  15.682  1.00  0.00     0.007 C 
HETATM    4  C7  UNL     1     -15.867  -0.223  14.359  1.00  0.00     0.013 C 
HETATM    5  C8  UNL     1     -16.739  -1.314  13.657  1.00  0.00     0.030 C 
HETATM    6  C9  UNL     1     -17.197  -0.830  12.271  1.00  0.00     0.035 C 
HETATM    7  C10 UNL     1     -17.740   0.561  12.300  1.00  0.00    -0.022 C 
HETATM    8  C11 UNL     1     -17.536   1.441  13.297  1.00  0.00    -0.064 C 
HETATM    9  C12 UNL     1     -18.159   2.819  13.220  1.00  0.00     0.062 C 
HETATM   10  C13 UNL     1     -17.198   3.897  13.618  1.00  0.00    -0.019 C 
HETATM   11  C14 UNL     1     -16.029   3.678  14.230  1.00  0.00     0.047 C 
HETATM   12  C15 UNL     1     -15.616   2.301  14.612  1.00  0.00     0.162 C 
HETATM   13  O3  UNL     1     -14.470   2.155  15.037  1.00  0.00    -0.292 OA
HETATM   14  C16 UNL     1     -16.651   1.145  14.519  1.00  0.00     0.048 C 
HETATM   15  C17 UNL     1     -17.511   1.169  15.798  1.00  0.00     0.029 C 
HETATM   16  C18 UNL     1     -15.985  -2.663  13.576  1.00  0.00     0.075 C 
HETATM   17  C19 UNL     1     -16.751  -3.851  13.012  1.00  0.00     0.042 C 
HETATM   18  C20 UNL     1     -15.880  -5.060  13.398  1.00  0.00     0.045 C 
HETATM   19  C21 UNL     1     -14.969  -4.622  14.604  1.00  0.00     0.103 C 
ENDROOT
BRANCH  19  20
HETATM   20  O5  UNL     1     -15.353  -5.536  15.675  1.00  0.00    -0.386 OA
HETATM   21  H27 UNL     1     -14.912  -6.383  15.439  1.00  0.00     0.210 HD
ENDBRANCH  19  20
BRANCH  19  22
HETATM   22  C22 UNL     1     -13.433  -4.974  14.365  1.00  0.00     0.113 C 
HETATM   23  C23 UNL     1     -12.859  -4.310  13.099  1.00  0.00     0.052 C 
BRANCH  22  24
HETATM   24  O6  UNL     1     -12.785  -4.212  15.460  1.00  0.00    -0.384 OA
HETATM   25  H31 UNL     1     -11.889  -4.599  15.558  1.00  0.00     0.210 HD
ENDBRANCH  22  24
BRANCH  22  26
HETATM   26  C24 UNL     1     -12.923  -6.451  14.525  1.00  0.00     0.173 C 
HETATM   27  C25 UNL     1     -11.744  -6.896  13.660  1.00  0.00     0.070 C 
HETATM   28  C26 UNL     1     -11.326  -8.290  14.057  1.00  0.00    -0.067 C 
HETATM   29  C27 UNL     1     -10.728  -9.115  12.951  1.00  0.00     0.044 C 
HETATM   30  C28 UNL     1     -11.479  -8.706  15.333  1.00  0.00     0.042 C 
HETATM   31  C30 UNL     1     -11.998  -7.765  16.361  1.00  0.00     0.292 C 
HETATM   32  O8  UNL     1     -11.982  -8.024  17.558  1.00  0.00    -0.260 OA
HETATM   33  O9  UNL     1     -12.473  -6.574  15.916  1.00  0.00    -0.309 OA
BRANCH  30  34
HETATM   34  C29 UNL     1     -11.110 -10.065  15.849  1.00  0.00     0.209 C 
BRANCH  34  35
HETATM   35  O7  UNL     1     -12.272 -10.704  16.364  1.00  0.00    -0.396 OA
HETATM   36  H40 UNL     1     -12.099 -11.661  16.343  1.00  0.00     0.209 HD
ENDBRANCH  34  35
ENDBRANCH  30  34
ENDBRANCH  22  26
ENDBRANCH  19  22
BRANCH   1  37
HETATM   37  C3  UNL     1     -16.746  -3.343  15.958  1.00  0.00     0.194 C 
BRANCH  37  38
HETATM   38  O2  UNL     1     -16.284  -3.591  17.299  1.00  0.00    -0.321 OA
BRANCH  38  39
HETATM   39  C2  UNL     1     -16.823  -2.775  18.243  1.00  0.00     0.254 C 
HETATM   40  C1  UNL     1     -18.228  -2.419  17.869  1.00  0.00     0.126 C 
HETATM   41  O1  UNL     1     -16.265  -2.407  19.268  1.00  0.00    -0.266 OA
ENDBRANCH  38  39
ENDBRANCH  37  38
ENDBRANCH   1  37
BRANCH  16  42
HETATM   42  O4  UNL     1     -14.849  -2.524  12.707  1.00  0.00    -0.388 OA
HETATM   43  H22 UNL     1     -14.623  -1.587  12.590  1.00  0.00     0.210 HD
ENDBRANCH  16  42
TORSDOF 10
ENDMDL
MODEL 3
REMARK minimizedAffinity -8.29397583
REMARK CNNscore 0.692694068
REMARK CNNaffinity 6.23172188
REMARK  10 active torsions:
REMARK  status: ('A' for Active; 'I' for Inactive)
REMARK    1  A    between atoms: C2_2  and  O2_4 
REMARK    2  A    between atoms: O2_4  and  C3_5 
REMARK    3  A    between atoms: C3_5  and  C4_6 
REMARK    4  A    between atoms: C18_21  and  O4_22 
REMARK    5  A    between atoms: C21_25  and  O5_26 
REMARK    6  A    between atoms: C21_25  and  C22_27 
REMARK    7  A    between atoms: C22_27  and  O6_29 
REMARK    8  A    between atoms: C22_27  and  C24_30 
REMARK    9  A    between atoms: C28_34  and  C29_35 
REMARK   10  A    between atoms: C29_35  and  O7_36 
ROOT
HETATM    1  C4  UNL     1      -1.231   8.814  15.232  1.00  0.00     0.047 C 
HETATM    2  C5  UNL     1      -0.637   9.762  14.180  1.00  0.00     0.018 C 
HETATM    3  C6  UNL     1      -0.770  11.239  14.604  1.00  0.00     0.007 C 
HETATM    4  C7  UNL     1      -2.220  11.678  14.976  1.00  0.00     0.013 C 
HETATM    5  C8  UNL     1      -2.903  10.656  15.941  1.00  0.00     0.030 C 
HETATM    6  C9  UNL     1      -4.385  11.011  16.144  1.00  0.00     0.035 C 
HETATM    7  C10 UNL     1      -4.592  12.462  16.431  1.00  0.00    -0.022 C 
HETATM    8  C11 UNL     1      -3.687  13.427  16.189  1.00  0.00    -0.064 C 
HETATM    9  C12 UNL     1      -4.007  14.864  16.545  1.00  0.00     0.062 C 
HETATM   10  C13 UNL     1      -3.610  15.816  15.460  1.00  0.00    -0.019 C 
HETATM   11  C14 UNL     1      -2.823  15.499  14.427  1.00  0.00     0.047 C 
HETATM   12  C15 UNL     1      -2.230  14.139  14.311  1.00  0.00     0.162 C 
HETATM   13  O3  UNL     1      -1.638  13.871  13.265  1.00  0.00    -0.292 OA
HETATM   14  C16 UNL     1      -2.329  13.163  15.517  1.00  0.00     0.048 C 
HETATM   15  C17 UNL     1      -1.191  13.502  16.500  1.00  0.00     0.029 C 
HETATM   16  C18 UNL     1      -2.722   9.205  15.435  1.00  0.00     0.075 C 
HETATM   17  C19 UNL     1      -3.244   8.089  16.329  1.00  0.00     0.042 C 
HETATM   18  C20 UNL     1      -2.604   6.821  15.737  1.00  0.00     0.045 C 
HETATM   19  C21 UNL     1      -1.344   7.268  14.906  1.00  0.00     0.103 C 
ENDROOT
BRANCH  19  20
HETATM   20  O5  UNL     1      -0.236   6.585  15.567  1.00  0.00    -0.386 OA
HETATM   21  H27 UNL     1      -0.310   5.654  15.259  1.00  0.00     0.210 HD
ENDBRANCH  19  20
BRANCH  19  22
HETATM   22  C22 UNL     1      -1.328   6.644  13.441  1.00  0.00     0.113 C 
HETATM   23  C23 UNL     1      -1.384   7.716  12.336  1.00  0.00     0.052 C 
BRANCH  22  24
HETATM   24  O6  UNL     1       0.066   6.147  13.350  1.00  0.00    -0.384 OA
HETATM   25  H31 UNL     1       0.071   5.506  12.607  1.00  0.00     0.210 HD
ENDBRANCH  22  24
BRANCH  22  26
HETATM   26  C24 UNL     1      -2.235   5.409  13.094  1.00  0.00     0.173 C 
HETATM   27  C25 UNL     1      -3.723   5.662  12.855  1.00  0.00     0.070 C 
HETATM   28  C26 UNL     1      -4.386   4.382  12.409  1.00  0.00    -0.067 C 
HETATM   29  C27 UNL     1      -5.834   4.247  12.792  1.00  0.00     0.044 C 
HETATM   30  C28 UNL     1      -3.689   3.469  11.698  1.00  0.00     0.042 C 
HETATM   31  C30 UNL     1      -2.285   3.757  11.299  1.00  0.00     0.292 C 
HETATM   32  O8  UNL     1      -1.671   3.058  10.504  1.00  0.00    -0.260 OA
HETATM   33  O9  UNL     1      -1.711   4.863  11.838  1.00  0.00    -0.309 OA
BRANCH  30  34
HETATM   34  C29 UNL     1      -4.231   2.161  11.205  1.00  0.00     0.209 C 
BRANCH  34  35
HETATM   35  O7  UNL     1      -3.378   1.106  11.637  1.00  0.00    -0.396 OA
HETATM   36  H40 UNL     1      -3.914   0.294  11.634  1.00  0.00     0.209 HD
ENDBRANCH  34  35
ENDBRANCH  30  34
ENDBRANCH  22  26
ENDBRANCH  19  22
BRANCH   1  37
HETATM   37  C3  UNL     1      -0.403   8.992  16.572  1.00  0.00     0.194 C 
BRANCH  37  38
HETATM   38  O2  UNL     1       0.758   9.812  16.346  1.00  0.00    -0.321 OA
BRANCH  38  39
HETATM   39  C2  UNL     1       1.911   9.315  16.868  1.00  0.00     0.254 C 
HETATM   40  C1  UNL     1       2.552   8.379  15.893  1.00  0.00     0.126 C 
HETATM   41  O1  UNL     1       2.382   9.610  17.958  1.00  0.00    -0.266 OA
ENDBRANCH  38  39
ENDBRANCH  37  38
ENDBRANCH   1  37
BRANCH  16  42
HETATM   42  O4  UNL     1      -3.438   9.037  14.199  1.00  0.00    -0.388 OA
HETATM   43  H22 UNL     1      -3.631   9.901  13.798  1.00  0.00     0.210 HD
ENDBRANCH  16  42
TORSDOF 10
ENDMDL
MODEL 4
REMARK minimizedAffinity -7.82258368
REMARK CNNscore 0.580705404
REMARK CNNaffinity 6.20060873
REMARK  10 active torsions:
REMARK  status: ('A' for Active; 'I' for Inactive)
REMARK    1  A    between atoms: C2_2  and  O2_4 
REMARK    2  A    between atoms: O2_4  and  C3_5 
REMARK    3  A    between atoms: C3_5  and  C4_6 
REMARK    4  A    between atoms: C18_21  and  O4_22 
REMARK    5  A    between atoms: C21_25  and  O5_26 
REMARK    6  A    between atoms: C21_25  and  C22_27 
REMARK    7  A    between atoms: C22_27  and  O6_29 
REMARK    8  A    between atoms: C22_27  and  C24_30 
REMARK    9  A    between atoms: C28_34  and  C29_35 
REMARK   10  A    between atoms: C29_35  and  O7_36 
ROOT
HETATM    1  C4  UNL     1     -13.147   8.306  14.104  1.00  0.00     0.047 C 
HETATM    2  C5  UNL     1     -12.831   6.813  13.928  1.00  0.00     0.018 C 
HETATM    3  C6  UNL     1     -14.113   5.979  13.729  1.00  0.00     0.007 C 
HETATM    4  C7  UNL     1     -15.195   6.180  14.834  1.00  0.00     0.013 C 
HETATM    5  C8  UNL     1     -15.439   7.695  15.134  1.00  0.00     0.030 C 
HETATM    6  C9  UNL     1     -16.367   7.863  16.349  1.00  0.00     0.035 C 
HETATM    7  C10 UNL     1     -17.570   6.981  16.277  1.00  0.00    -0.022 C 
HETATM    8  C11 UNL     1     -17.685   5.908  15.474  1.00  0.00    -0.064 C 
HETATM    9  C12 UNL     1     -18.968   5.102  15.477  1.00  0.00     0.062 C 
HETATM   10  C13 UNL     1     -18.709   3.627  15.492  1.00  0.00    -0.019 C 
HETATM   11  C14 UNL     1     -17.518   3.067  15.253  1.00  0.00     0.047 C 
HETATM   12  C15 UNL     1     -16.341   3.904  14.895  1.00  0.00     0.162 C 
HETATM   13  O3  UNL     1     -15.248   3.340  14.833  1.00  0.00    -0.292 OA
HETATM   14  C16 UNL     1     -16.552   5.407  14.563  1.00  0.00     0.048 C 
HETATM   15  C17 UNL     1     -16.990   5.514  13.089  1.00  0.00     0.029 C 
HETATM   16  C18 UNL     1     -14.101   8.448  15.323  1.00  0.00     0.075 C 
HETATM   17  C19 UNL     1     -14.176   9.956  15.516  1.00  0.00     0.042 C 
HETATM   18  C20 UNL     1     -12.723  10.420  15.311  1.00  0.00     0.045 C 
HETATM   19  C21 UNL     1     -11.979   9.304  14.489  1.00  0.00     0.103 C 
ENDROOT
BRANCH  19  20
HETATM   20  O5  UNL     1     -11.557   9.995  13.275  1.00  0.00    -0.386 OA
HETATM   21  H27 UNL     1     -10.781  10.529  13.559  1.00  0.00     0.210 HD
ENDBRANCH  19  20
BRANCH  19  22
HETATM   22  C22 UNL     1     -10.598   8.874  15.157  1.00  0.00     0.113 C 
HETATM   23  C23 UNL     1      -9.581  10.029  15.220  1.00  0.00     0.052 C 
BRANCH  22  24
HETATM   24  O6  UNL     1     -10.999   8.707  16.575  1.00  0.00    -0.384 OA
HETATM   25  H31 UNL     1     -10.288   8.174  16.991  1.00  0.00     0.210 HD
ENDBRANCH  22  24
BRANCH  22  26
HETATM   26  C24 UNL     1      -9.911   7.519  14.756  1.00  0.00     0.173 C 
HETATM   27  C25 UNL     1      -9.376   7.387  13.330  1.00  0.00     0.070 C 
HETATM   28  C26 UNL     1      -8.641   6.076  13.188  1.00  0.00    -0.067 C 
HETATM   29  C27 UNL     1      -8.671   5.475  11.810  1.00  0.00     0.044 C 
HETATM   30  C28 UNL     1      -8.000   5.540  14.249  1.00  0.00     0.042 C 
HETATM   31  C30 UNL     1      -7.964   6.276  15.541  1.00  0.00     0.292 C 
HETATM   32  O8  UNL     1      -7.248   5.933  16.473  1.00  0.00    -0.260 OA
HETATM   33  O9  UNL     1      -8.748   7.380  15.638  1.00  0.00    -0.309 OA
BRANCH  30  34
HETATM   34  C29 UNL     1      -7.244   4.245  14.237  1.00  0.00     0.209 C 
BRANCH  34  35
HETATM   35  O7  UNL     1      -8.121   3.191  13.857  1.00  0.00    -0.396 OA
HETATM   36  H40 UNL     1      -7.563   2.474  13.508  1.00  0.00     0.209 HD
ENDBRANCH  34  35
ENDBRANCH  30  34
ENDBRANCH  22  26
ENDBRANCH  19  22
BRANCH   1  37
HETATM   37  C3  UNL     1     -13.836   8.819  12.772  1.00  0.00     0.194 C 
BRANCH  37  38
HETATM   38  O2  UNL     1     -15.219   9.142  13.008  1.00  0.00    -0.321 OA
BRANCH  38  39
HETATM   39  C2  UNL     1     -16.047   8.875  11.964  1.00  0.00     0.254 C 
HETATM   40  C1  UNL     1     -17.341   9.607  12.137  1.00  0.00     0.126 C 
HETATM   41  O1  UNL     1     -15.775   8.169  11.003  1.00  0.00    -0.266 OA
ENDBRANCH  38  39
ENDBRANCH  37  38
ENDBRANCH   1  37
BRANCH  16  42
HETATM   42  O4  UNL     1     -13.445   7.967  16.508  1.00  0.00    -0.388 OA
HETATM   43  H22 UNL     1     -13.808   7.106  16.772  1.00  0.00     0.210 HD
ENDBRANCH  16  42
TORSDOF 10
ENDMDL
MODEL 5
REMARK minimizedAffinity -9.7132597
REMARK CNNscore 0.559987068
REMARK CNNaffinity 6.99606371
REMARK  10 active torsions:
REMARK  status: ('A' for Active; 'I' for Inactive)
REMARK    1  A    between atoms: C2_2  and  O2_4 
REMARK    2  A    between atoms: O2_4  and  C3_5 
REMARK    3  A    between atoms: C3_5  and  C4_6 
REMARK    4  A    between atoms: C18_21  and  O4_22 
REMARK    5  A    between atoms: C21_25  and  O5_26 
REMARK    6  A    between atoms: C21_25  and  C22_27 
REMARK    7  A    between atoms: C22_27  and  O6_29 
REMARK    8  A    between atoms: C22_27  and  C24_30 
REMARK    9  A    between atoms: C28_34  and  C29_35 
REMARK   10  A    between atoms: C29_35  and  O7_36 
ROOT
HETATM    1  C4  UNL     1      -1.440   7.290  14.335  1.00  0.00     0.047 C 
HETATM    2  C5  UNL     1      -0.877   5.872  14.160  1.00  0.00     0.018 C 
HETATM    3  C6  UNL     1       0.439   5.875  13.355  1.00  0.00     0.007 C 
HETATM    4  C7  UNL     1       0.353   6.600  11.977  1.00  0.00     0.013 C 
HETATM    5  C8  UNL     1      -0.344   7.994  12.100  1.00  0.00     0.030 C 
HETATM    6  C9  UNL     1      -0.583   8.605  10.710  1.00  0.00     0.035 C 
HETATM    7  C10 UNL     1       0.623   8.521   9.832  1.00  0.00    -0.022 C 
HETATM    8  C11 UNL     1       1.672   7.708  10.049  1.00  0.00    -0.064 C 
HETATM    9  C12 UNL     1       2.849   7.729   9.096  1.00  0.00     0.062 C 
HETATM   10  C13 UNL     1       3.320   6.352   8.748  1.00  0.00    -0.019 C 
HETATM   11  C14 UNL     1       2.951   5.241   9.396  1.00  0.00     0.047 C 
HETATM   12  C15 UNL     1       2.051   5.313  10.578  1.00  0.00     0.162 C 
HETATM   13  O3  UNL     1       1.634   4.248  11.033  1.00  0.00    -0.292 OA
HETATM   14  C16 UNL     1       1.735   6.698  11.208  1.00  0.00     0.048 C 
HETATM   15  C17 UNL     1       2.894   7.069  12.153  1.00  0.00     0.029 C 
HETATM   16  C18 UNL     1      -1.653   7.893  12.918  1.00  0.00     0.075 C 
HETATM   17  C19 UNL     1      -2.389   9.193  13.213  1.00  0.00     0.042 C 
HETATM   18  C20 UNL     1      -3.398   8.797  14.305  1.00  0.00     0.045 C 
HETATM   19  C21 UNL     1      -2.871   7.481  14.986  1.00  0.00     0.103 C 
ENDROOT
BRANCH  19  20
HETATM   20  O5  UNL     1      -2.684   7.866  16.382  1.00  0.00    -0.386 OA
HETATM   21  H27 UNL     1      -3.595   7.884  16.751  1.00  0.00     0.210 HD
ENDBRANCH  19  20
BRANCH  19  22
HETATM   22  C22 UNL     1      -3.989   6.350  15.072  1.00  0.00     0.113 C 
HETATM   23  C23 UNL     1      -3.541   5.019  14.438  1.00  0.00     0.052 C 
BRANCH  22  24
HETATM   24  O6  UNL     1      -3.983   6.043  16.524  1.00  0.00    -0.384 OA
HETATM   25  H31 UNL     1      -4.827   5.575  16.699  1.00  0.00     0.210 HD
ENDBRANCH  22  24
BRANCH  22  26
HETATM   26  C24 UNL     1      -5.483   6.683  14.722  1.00  0.00     0.173 C 
HETATM   27  C25 UNL     1      -6.234   5.714  13.808  1.00  0.00     0.070 C 
HETATM   28  C26 UNL     1      -7.679   6.137  13.704  1.00  0.00    -0.067 C 
HETATM   29  C27 UNL     1      -8.353   5.790  12.405  1.00  0.00     0.044 C 
HETATM   30  C28 UNL     1      -8.280   6.759  14.742  1.00  0.00     0.042 C 
HETATM   31  C30 UNL     1      -7.534   6.966  16.013  1.00  0.00     0.292 C 
HETATM   32  O8  UNL     1      -8.080   7.350  17.039  1.00  0.00    -0.260 OA
HETATM   33  O9  UNL     1      -6.208   6.679  15.997  1.00  0.00    -0.309 OA
BRANCH  30  34
HETATM   34  C29 UNL     1      -9.702   7.233  14.759  1.00  0.00     0.209 C 
BRANCH  34  35
HETATM   35  O7  UNL     1     -10.556   6.173  14.343  1.00  0.00    -0.396 OA
HETATM   36  H40 UNL     1     -11.439   6.367  14.704  1.00  0.00     0.209 HD
ENDBRANCH  34  35
ENDBRANCH  30  34
ENDBRANCH  22  26
ENDBRANCH  19  22
BRANCH   1  37
HETATM   37  C3  UNL     1      -0.386   8.134  15.165  1.00  0.00     0.194 C 
BRANCH  37  38
HETATM   38  O2  UNL     1       0.806   7.364  15.404  1.00  0.00    -0.321 OA
BRANCH  38  39
HETATM   39  C2  UNL     1       1.836   8.069  15.942  1.00  0.00     0.254 C 
HETATM   40  C1  UNL     1       2.348   9.066  14.949  1.00  0.00     0.126 C 
HETATM   41  O1  UNL     1       2.268   7.942  17.080  1.00  0.00    -0.266 OA
ENDBRANCH  38  39
ENDBRANCH  37  38
ENDBRANCH   1  37
BRANCH  16  42
HETATM   42  O4  UNL     1      -2.608   7.098  12.194  1.00  0.00    -0.388 OA
HETATM   43  H22 UNL     1      -2.162   6.565  11.515  1.00  0.00     0.210 HD
ENDBRANCH  16  42
TORSDOF 10
ENDMDL
MODEL 6
REMARK minimizedAffinity -8.51521969
REMARK CNNscore 0.547673941
REMARK CNNaffinity 6.52239084
REMARK  10 active torsions:
REMARK  status: ('A' for Active; 'I' for Inactive)
REMARK    1  A    between atoms: C2_2  and  O2_4 
REMARK    2  A    between atoms: O2_4  and  C3_5 
REMARK    3  A    between atoms: C3_5  and  C4_6 
REMARK    4  A    between atoms: C18_21  and  O4_22 
REMARK    5  A    between atoms: C21_25  and  O5_26 
REMARK    6  A    between atoms: C21_25  and  C22_27 
REMARK    7  A    between atoms: C22_27  and  O6_29 
REMARK    8  A    between atoms: C22_27  and  C24_30 
REMARK    9  A    between atoms: C28_34  and  C29_35 
REMARK   10  A    between atoms: C29_35  and  O7_36 
ROOT
HETATM    1  C4  UNL     1      -1.629   8.312  13.964  1.00  0.00     0.047 C 
HETATM    2  C5  UNL     1      -3.019   8.959  13.872  1.00  0.00     0.018 C 
HETATM    3  C6  UNL     1      -3.009  10.411  14.390  1.00  0.00     0.007 C 
HETATM    4  C7  UNL     1      -2.424  10.582  15.826  1.00  0.00     0.013 C 
HETATM    5  C8  UNL     1      -1.071   9.817  15.994  1.00  0.00     0.030 C 
HETATM    6  C9  UNL     1      -0.611   9.845  17.460  1.00  0.00     0.035 C 
HETATM    7  C10 UNL     1      -0.701  11.209  18.062  1.00  0.00    -0.022 C 
HETATM    8  C11 UNL     1      -1.423  12.224  17.554  1.00  0.00    -0.064 C 
HETATM    9  C12 UNL     1      -1.418  13.571  18.247  1.00  0.00     0.062 C 
HETATM   10  C13 UNL     1      -2.790  14.162  18.345  1.00  0.00    -0.019 C 
HETATM   11  C14 UNL     1      -3.855  13.713  17.673  1.00  0.00     0.047 C 
HETATM   12  C15 UNL     1      -3.729  12.585  16.711  1.00  0.00     0.162 C 
HETATM   13  O3  UNL     1      -4.770  12.129  16.239  1.00  0.00    -0.292 OA
HETATM   14  C16 UNL     1      -2.313  12.087  16.307  1.00  0.00     0.048 C 
HETATM   15  C17 UNL     1      -1.783  13.010  15.191  1.00  0.00     0.029 C 
HETATM   16  C18 UNL     1      -1.178   8.372  15.451  1.00  0.00     0.075 C 
HETATM   17  C19 UNL     1       0.096   7.537  15.449  1.00  0.00     0.042 C 
HETATM   18  C20 UNL     1      -0.257   6.341  14.547  1.00  0.00     0.045 C 
HETATM   19  C21 UNL     1      -1.468   6.771  13.639  1.00  0.00     0.103 C 
ENDROOT
BRANCH  19  20
HETATM   20  O5  UNL     1      -0.942   6.648  12.283  1.00  0.00    -0.386 OA
HETATM   21  H27 UNL     1      -0.947   5.680  12.109  1.00  0.00     0.210 HD
ENDBRANCH  19  20
BRANCH  19  22
HETATM   22  C22 UNL     1      -2.654   5.708  13.662  1.00  0.00     0.113 C 
HETATM   23  C23 UNL     1      -3.409   5.685  15.005  1.00  0.00     0.052 C 
BRANCH  22  24
HETATM   24  O6  UNL     1      -3.632   6.341  12.744  1.00  0.00    -0.384 OA
HETATM   25  H31 UNL     1      -4.252   5.627  12.483  1.00  0.00     0.210 HD
ENDBRANCH  22  24
BRANCH  22  26
HETATM   26  C24 UNL     1      -2.431   4.258  13.099  1.00  0.00     0.173 C 
HETATM   27  C25 UNL     1      -3.567   3.622  12.298  1.00  0.00     0.070 C 
HETATM   28  C26 UNL     1      -3.109   2.298  11.738  1.00  0.00    -0.067 C 
HETATM   29  C27 UNL     1      -4.194   1.273  11.558  1.00  0.00     0.044 C 
HETATM   30  C28 UNL     1      -1.810   2.111  11.417  1.00  0.00     0.042 C 
HETATM   31  C30 UNL     1      -0.845   3.235  11.554  1.00  0.00     0.292 C 
HETATM   32  O8  UNL     1       0.293   3.181  11.106  1.00  0.00    -0.260 OA
HETATM   33  O9  UNL     1      -1.292   4.353  12.180  1.00  0.00    -0.309 OA
BRANCH  30  34
HETATM   34  C29 UNL     1      -1.232   0.844  10.861  1.00  0.00     0.209 C 
BRANCH  34  35
HETATM   35  O7  UNL     1      -0.956   1.021   9.476  1.00  0.00    -0.396 OA
HETATM   36  H40 UNL     1      -0.275   0.366   9.241  1.00  0.00     0.209 HD
ENDBRANCH  34  35
ENDBRANCH  30  34
ENDBRANCH  22  26
ENDBRANCH  19  22
BRANCH   1  37
HETATM   37  C3  UNL     1      -0.646   9.134  13.032  1.00  0.00     0.194 C 
BRANCH  37  38
HETATM   38  O2  UNL     1      -1.154   9.195  11.686  1.00  0.00    -0.321 OA
BRANCH  38  39
HETATM   39  C2  UNL     1      -0.262   8.833  10.728  1.00  0.00     0.254 C 
HETATM   40  C1  UNL     1      -0.903   8.904   9.378  1.00  0.00     0.126 C 
HETATM   41  O1  UNL     1       0.907   8.526  10.924  1.00  0.00    -0.266 OA
ENDBRANCH  38  39
ENDBRANCH  37  38
ENDBRANCH   1  37
BRANCH  16  42
HETATM   42  O4  UNL     1      -2.095   7.622  16.265  1.00  0.00    -0.388 OA
HETATM   43  H22 UNL     1      -2.661   8.221  16.780  1.00  0.00     0.210 HD
ENDBRANCH  16  42
TORSDOF 10
ENDMDL
MODEL 7
REMARK minimizedAffinity -6.99974203
REMARK CNNscore 0.539191604
REMARK CNNaffinity 5.6012435
REMARK  10 active torsions:
REMARK  status: ('A' for Active; 'I' for Inactive)
REMARK    1  A    between atoms: C2_2  and  O2_4 
REMARK    2  A    between atoms: O2_4  and  C3_5 
REMARK    3  A    between atoms: C3_5  and  C4_6 
REMARK    4  A    between atoms: C18_21  and  O4_22 
REMARK    5  A    between atoms: C21_25  and  O5_26 
REMARK    6  A    between atoms: C21_25  and  C22_27 
REMARK    7  A    between atoms: C22_27  and  O6_29 
REMARK    8  A    between atoms: C22_27  and  C24_30 
REMARK    9  A    between atoms: C28_34  and  C29_35 
REMARK   10  A    between atoms: C29_35  and  O7_36 
ROOT
HETATM    1  C4  UNL     1      -1.095  10.004  15.389  1.00  0.00     0.047 C 
HETATM    2  C5  UNL     1      -0.766  11.205  14.489  1.00  0.00     0.018 C 
HETATM    3  C6  UNL     1      -0.816  12.533  15.271  1.00  0.00     0.007 C 
HETATM    4  C7  UNL     1      -2.148  12.781  16.044  1.00  0.00     0.013 C 
HETATM    5  C8  UNL     1      -2.583  11.522  16.863  1.00  0.00     0.030 C 
HETATM    6  C9  UNL     1      -3.984  11.724  17.463  1.00  0.00     0.035 C 
HETATM    7  C10 UNL     1      -4.136  13.054  18.126  1.00  0.00    -0.022 C 
HETATM    8  C11 UNL     1      -3.320  14.105  17.930  1.00  0.00    -0.064 C 
HETATM    9  C12 UNL     1      -3.567  15.398  18.679  1.00  0.00     0.062 C 
HETATM   10  C13 UNL     1      -3.438  16.598  17.793  1.00  0.00    -0.019 C 
HETATM   11  C14 UNL     1      -2.902  16.578  16.567  1.00  0.00     0.047 C 
HETATM   12  C15 UNL     1      -2.336  15.323  16.004  1.00  0.00     0.162 C 
HETATM   13  O3  UNL     1      -1.995  15.340  14.822  1.00  0.00    -0.292 OA
HETATM   14  C16 UNL     1      -2.148  14.091  16.934  1.00  0.00     0.048 C 
HETATM   15  C17 UNL     1      -0.820  14.268  17.698  1.00  0.00     0.029 C 
HETATM   16  C18 UNL     1      -2.506  10.241  15.999  1.00  0.00     0.075 C 
HETATM   17  C19 UNL     1      -2.798   8.918  16.693  1.00  0.00     0.042 C 
HETATM   18  C20 UNL     1      -2.295   7.864  15.690  1.00  0.00     0.045 C 
HETATM   19  C21 UNL     1      -1.262   8.570  14.736  1.00  0.00     0.103 C 
ENDROOT
BRANCH  19  20
HETATM   20  O5  UNL     1      -0.026   7.827  14.957  1.00  0.00    -0.386 OA
HETATM   21  H27 UNL     1      -0.157   6.989  14.460  1.00  0.00     0.210 HD
ENDBRANCH  19  20
BRANCH  19  22
HETATM   22  C22 UNL     1      -1.573   8.302  13.197  1.00  0.00     0.113 C 
HETATM   23  C23 UNL     1      -2.841   7.453  12.984  1.00  0.00     0.052 C 
BRANCH  22  24
HETATM   24  O6  UNL     1      -1.997   9.650  12.745  1.00  0.00    -0.384 OA
HETATM   25  H31 UNL     1      -1.928   9.635  11.767  1.00  0.00     0.210 HD
ENDBRANCH  22  24
BRANCH  22  26
HETATM   26  C24 UNL     1      -0.421   7.877  12.218  1.00  0.00     0.173 C 
HETATM   27  C25 UNL     1      -0.216   6.384  11.964  1.00  0.00     0.070 C 
HETATM   28  C26 UNL     1       0.840   6.194  10.902  1.00  0.00    -0.067 C 
HETATM   29  C27 UNL     1       1.639   4.925  11.018  1.00  0.00     0.044 C 
HETATM   30  C28 UNL     1       0.996   7.117   9.928  1.00  0.00     0.042 C 
HETATM   31  C30 UNL     1       0.081   8.288   9.866  1.00  0.00     0.292 C 
HETATM   32  O8  UNL     1       0.054   9.050   8.908  1.00  0.00    -0.260 OA
HETATM   33  O9  UNL     1      -0.759   8.466  10.917  1.00  0.00    -0.309 OA
BRANCH  30  34
HETATM   34  C29 UNL     1       2.009   7.046   8.825  1.00  0.00     0.209 C 
BRANCH  34  35
HETATM   35  O7  UNL     1       3.245   7.582   9.287  1.00  0.00    -0.396 OA
HETATM   36  H40 UNL     1       3.942   7.202   8.724  1.00  0.00     0.209 HD
ENDBRANCH  34  35
ENDBRANCH  30  34
ENDBRANCH  22  26
ENDBRANCH  19  22
BRANCH   1  37
HETATM   37  C3  UNL     1       0.013   9.922  16.518  1.00  0.00     0.194 C 
BRANCH  37  38
HETATM   38  O2  UNL     1       1.328  10.073  15.951  1.00  0.00    -0.321 OA
BRANCH  38  39
HETATM   39  C2  UNL     1       2.341   9.651  16.753  1.00  0.00     0.254 C 
HETATM   40  C1  UNL     1       3.117  10.827  17.258  1.00  0.00     0.126 C 
HETATM   41  O1  UNL     1       2.573   8.488  17.054  1.00  0.00    -0.266 OA
ENDBRANCH  38  39
ENDBRANCH  37  38
ENDBRANCH   1  37
BRANCH  16  42
HETATM   42  O4  UNL     1      -3.481  10.316  14.946  1.00  0.00    -0.388 OA
HETATM   43  H22 UNL     1      -3.770  11.234  14.814  1.00  0.00     0.210 HD
ENDBRANCH  16  42
TORSDOF 10
ENDMDL
MODEL 8
REMARK minimizedAffinity -8.6538744
REMARK CNNscore 0.515063345
REMARK CNNaffinity 6.30005789
REMARK  10 active torsions:
REMARK  status: ('A' for Active; 'I' for Inactive)
REMARK    1  A    between atoms: C2_2  and  O2_4 
REMARK    2  A    between atoms: O2_4  and  C3_5 
REMARK    3  A    between atoms: C3_5  and  C4_6 
REMARK    4  A    between atoms: C18_21  and  O4_22 
REMARK    5  A    between atoms: C21_25  and  O5_26 
REMARK    6  A    between atoms: C21_25  and  C22_27 
REMARK    7  A    between atoms: C22_27  and  O6_29 
REMARK    8  A    between atoms: C22_27  and  C24_30 
REMARK    9  A    between atoms: C28_34  and  C29_35 
REMARK   10  A    between atoms: C29_35  and  O7_36 
ROOT
HETATM    1  C4  UNL     1      -0.762   7.776  14.089  1.00  0.00     0.047 C 
HETATM    2  C5  UNL     1       0.196   7.646  15.282  1.00  0.00     0.018 C 
HETATM    3  C6  UNL     1      -0.294   8.458  16.499  1.00  0.00     0.007 C 
HETATM    4  C7  UNL     1      -0.588   9.960  16.198  1.00  0.00     0.013 C 
HETATM    5  C8  UNL     1      -1.450  10.132  14.905  1.00  0.00     0.030 C 
HETATM    6  C9  UNL     1      -1.570  11.618  14.529  1.00  0.00     0.035 C 
HETATM    7  C10 UNL     1      -1.917  12.479  15.698  1.00  0.00    -0.022 C 
HETATM    8  C11 UNL     1      -1.789  12.110  16.985  1.00  0.00    -0.064 C 
HETATM    9  C12 UNL     1      -2.196  13.068  18.086  1.00  0.00     0.062 C 
HETATM   10  C13 UNL     1      -1.192  13.114  19.196  1.00  0.00    -0.019 C 
HETATM   11  C14 UNL     1      -0.200  12.231  19.353  1.00  0.00     0.047 C 
HETATM   12  C15 UNL     1      -0.054  11.075  18.427  1.00  0.00     0.162 C 
HETATM   13  O3  UNL     1       0.961  10.389  18.540  1.00  0.00    -0.292 OA
HETATM   14  C16 UNL     1      -1.198  10.759  17.423  1.00  0.00     0.048 C 
HETATM   15  C17 UNL     1      -2.273   9.941  18.166  1.00  0.00     0.029 C 
HETATM   16  C18 UNL     1      -0.882   9.286  13.741  1.00  0.00     0.075 C 
HETATM   17  C19 UNL     1      -1.680   9.270  12.444  1.00  0.00     0.042 C 
HETATM   18  C20 UNL     1      -1.067   8.097  11.658  1.00  0.00     0.045 C 
HETATM   19  C21 UNL     1      -0.349   7.154  12.692  1.00  0.00     0.103 C 
ENDROOT
BRANCH  19  20
HETATM   20  O5  UNL     1      -1.048   5.881  12.540  1.00  0.00    -0.386 OA
HETATM   21  H27 UNL     1      -0.687   5.507  11.705  1.00  0.00     0.210 HD
ENDBRANCH  19  20
BRANCH  19  22
HETATM   22  C22 UNL     1       1.142   6.799  12.260  1.00  0.00     0.113 C 
HETATM   23  C23 UNL     1       2.185   7.744  12.887  1.00  0.00     0.052 C 
BRANCH  22  24
HETATM   24  O6  UNL     1       1.364   5.529  12.992  1.00  0.00    -0.384 OA
HETATM   25  H31 UNL     1       2.136   5.105  12.560  1.00  0.00     0.210 HD
ENDBRANCH  22  24
BRANCH  22  26
HETATM   26  C24 UNL     1       1.479   6.481  10.759  1.00  0.00     0.173 C 
HETATM   27  C25 UNL     1       2.099   7.594   9.916  1.00  0.00     0.070 C 
HETATM   28  C26 UNL     1       2.467   7.052   8.557  1.00  0.00    -0.067 C 
HETATM   29  C27 UNL     1       2.416   8.052   7.436  1.00  0.00     0.044 C 
HETATM   30  C28 UNL     1       2.831   5.758   8.419  1.00  0.00     0.042 C 
HETATM   31  C30 UNL     1       2.933   4.886   9.621  1.00  0.00     0.292 C 
HETATM   32  O8  UNL     1       3.434   3.770   9.581  1.00  0.00    -0.260 OA
HETATM   33  O9  UNL     1       2.468   5.397  10.789  1.00  0.00    -0.309 OA
BRANCH  30  34
HETATM   34  C29 UNL     1       3.211   5.100   7.126  1.00  0.00     0.209 C 
BRANCH  34  35
HETATM   35  O7  UNL     1       3.364   3.701   7.338  1.00  0.00    -0.396 OA
HETATM   36  H40 UNL     1       3.242   3.272   6.473  1.00  0.00     0.209 HD
ENDBRANCH  34  35
ENDBRANCH  30  34
ENDBRANCH  22  26
ENDBRANCH  19  22
BRANCH   1  37
HETATM   37  C3  UNL     1      -2.163   7.172  14.520  1.00  0.00     0.194 C 
BRANCH  37  38
HETATM   38  O2  UNL     1      -3.164   8.205  14.579  1.00  0.00    -0.321 OA
BRANCH  38  39
HETATM   39  C2  UNL     1      -4.302   7.852  15.234  1.00  0.00     0.254 C 
HETATM   40  C1  UNL     1      -4.376   6.364  15.366  1.00  0.00     0.126 C 
HETATM   41  O1  UNL     1      -5.133   8.629  15.685  1.00  0.00    -0.266 OA
ENDBRANCH  38  39
ENDBRANCH  37  38
ENDBRANCH   1  37
BRANCH  16  42
HETATM   42  O4  UNL     1       0.406   9.799  13.362  1.00  0.00    -0.388 OA
HETATM   43  H22 UNL     1       0.773  10.353  14.070  1.00  0.00     0.210 HD
ENDBRANCH  16  42
TORSDOF 10
ENDMDL
MODEL 9
REMARK minimizedAffinity -8.47920799
REMARK CNNscore 0.509266078
REMARK CNNaffinity 5.74111176
REMARK  10 active torsions:
REMARK  status: ('A' for Active; 'I' for Inactive)
REMARK    1  A    between atoms: C2_2  and  O2_4 
REMARK    2  A    between atoms: O2_4  and  C3_5 
REMARK    3  A    between atoms: C3_5  and  C4_6 
REMARK    4  A    between atoms: C18_21  and  O4_22 
REMARK    5  A    between atoms: C21_25  and  O5_26 
REMARK    6  A    between atoms: C21_25  and  C22_27 
REMARK    7  A    between atoms: C22_27  and  O6_29 
REMARK    8  A    between atoms: C22_27  and  C24_30 
REMARK    9  A    between atoms: C28_34  and  C29_35 
REMARK   10  A    between atoms: C29_35  and  O7_36 
ROOT
HETATM    1  C4  UNL     1       3.935  11.433  20.369  1.00  0.00     0.047 C 
HETATM    2  C5  UNL     1       5.261  11.575  19.606  1.00  0.00     0.018 C 
HETATM    3  C6  UNL     1       6.380  12.135  20.507  1.00  0.00     0.007 C 
HETATM    4  C7  UNL     1       6.023  13.471  21.230  1.00  0.00     0.013 C 
HETATM    5  C8  UNL     1       4.613  13.403  21.902  1.00  0.00     0.030 C 
HETATM    6  C9  UNL     1       4.206  14.783  22.445  1.00  0.00     0.035 C 
HETATM    7  C10 UNL     1       5.300  15.438  23.222  1.00  0.00    -0.022 C 
HETATM    8  C11 UNL     1       6.596  15.080  23.169  1.00  0.00    -0.064 C 
HETATM    9  C12 UNL     1       7.612  15.810  24.024  1.00  0.00     0.062 C 
HETATM   10  C13 UNL     1       8.860  16.136  23.264  1.00  0.00    -0.019 C 
HETATM   11  C14 UNL     1       9.175  15.619  22.071  1.00  0.00     0.047 C 
HETATM   12  C15 UNL     1       8.294  14.611  21.422  1.00  0.00     0.162 C 
HETATM   13  O3  UNL     1       8.566  14.288  20.265  1.00  0.00    -0.292 OA
HETATM   14  C16 UNL     1       7.133  13.979  22.239  1.00  0.00     0.048 C 
HETATM   15  C17 UNL     1       7.714  12.828  23.083  1.00  0.00     0.029 C 
HETATM   16  C18 UNL     1       3.557  12.835  20.925  1.00  0.00     0.075 C 
HETATM   17  C19 UNL     1       2.154  12.610  21.474  1.00  0.00     0.042 C 
HETATM   18  C20 UNL     1       1.482  11.732  20.403  1.00  0.00     0.045 C 
HETATM   19  C21 UNL     1       2.624  11.035  19.576  1.00  0.00     0.103 C 
ENDROOT
BRANCH  19  20
HETATM   20  O5  UNL     1       2.382   9.611  19.789  1.00  0.00    -0.386 OA
HETATM   21  H27 UNL     1       1.615   9.407  19.208  1.00  0.00     0.210 HD
ENDBRANCH  19  20
BRANCH  19  22
HETATM   22  C22 UNL     1       2.425  11.202  18.004  1.00  0.00     0.113 C 
HETATM   23  C23 UNL     1       2.723  12.632  17.514  1.00  0.00     0.052 C 
BRANCH  22  24
HETATM   24  O6  UNL     1       3.576  10.426  17.480  1.00  0.00    -0.384 OA
HETATM   25  H31 UNL     1       3.366  10.242  16.540  1.00  0.00     0.210 HD
ENDBRANCH  22  24
BRANCH  22  26
HETATM   26  C24 UNL     1       1.159  10.599  17.295  1.00  0.00     0.173 C 
HETATM   27  C25 UNL     1       0.671  11.275  16.014  1.00  0.00     0.070 C 
HETATM   28  C26 UNL     1      -0.463  10.473  15.423  1.00  0.00    -0.067 C 
HETATM   29  C27 UNL     1      -1.472  11.272  14.646  1.00  0.00     0.044 C 
HETATM   30  C28 UNL     1      -0.505   9.133  15.590  1.00  0.00     0.042 C 
HETATM   31  C30 UNL     1       0.604   8.441  16.302  1.00  0.00     0.292 C 
HETATM   32  O8  UNL     1       0.713   7.222  16.320  1.00  0.00    -0.260 OA
HETATM   33  O9  UNL     1       1.522   9.229  16.917  1.00  0.00    -0.309 OA
BRANCH  30  34
HETATM   34  C29 UNL     1      -1.577   8.229  15.060  1.00  0.00     0.209 C 
BRANCH  34  35
HETATM   35  O7  UNL     1      -2.080   7.424  16.120  1.00  0.00    -0.396 OA
HETATM   36  H40 UNL     1      -2.973   7.140  15.856  1.00  0.00     0.209 HD
ENDBRANCH  34  35
ENDBRANCH  30  34
ENDBRANCH  22  26
ENDBRANCH  19  22
BRANCH   1  37
HETATM   37  C3  UNL     1       4.157  10.390  21.542  1.00  0.00     0.194 C 
BRANCH  37  38
HETATM   38  O2  UNL     1       3.386   9.196  21.312  1.00  0.00    -0.321 OA
BRANCH  38  39
HETATM   39  C2  UNL     1       2.676   8.766  22.387  1.00  0.00     0.254 C 
HETATM   40  C1  UNL     1       3.044   9.567  23.597  1.00  0.00     0.126 C 
HETATM   41  O1  UNL     1       1.832   7.880  22.374  1.00  0.00    -0.266 OA
ENDBRANCH  38  39
ENDBRANCH  37  38
ENDBRANCH   1  37
BRANCH  16  42
HETATM   42  O4  UNL     1       3.370  13.753  19.834  1.00  0.00    -0.388 OA
HETATM   43  H22 UNL     1       4.120  14.368  19.776  1.00  0.00     0.210 HD
ENDBRANCH  16  42
TORSDOF 10
ENDMDL
