MODEL 1
REMARK minimizedAffinity -9.97506046
REMARK  6 active torsions:
REMARK  status: ('A' for Active; 'I' for Inactive)
REMARK    1  A    between atoms: C2_2  and  C30_32 
REMARK    2  A    between atoms: C3_3  and  C4_4 
REMARK    3  A    between atoms: C4_4  and  C5_5 
REMARK    4  A    between atoms: C5_5  and  C6_6 
REMARK    5  A    between atoms: C6_6  and  C8_8 
REMARK    6  A    between atoms: C30_32  and  O4_34 
ROOT
HETATM    1  C8  UNL     1      -5.072   6.943  14.589  1.00  0.00    -0.002 C 
HETATM    2  C9  UNL     1      -5.429   8.109  13.624  1.00  0.00     0.007 C 
HETATM    3  C10 UNL     1      -4.121   8.536  12.929  1.00  0.00     0.015 C 
HETATM    4  C11 UNL     1      -2.999   7.912  13.778  1.00  0.00    -0.005 C 
HETATM    5  C12 UNL     1      -2.764   8.859  14.999  1.00  0.00     0.021 C 
HETATM    6  C13 UNL     1      -1.617   7.702  13.183  1.00  0.00    -0.000 C 
HETATM    7  C14 UNL     1      -0.790   6.709  13.594  1.00  0.00    -0.060 C 
HETATM    8  C15 UNL     1      -1.300   5.694  14.642  1.00  0.00     0.036 C 
HETATM    9  C16 UNL     1      -2.749   5.846  15.161  1.00  0.00     0.015 C 
HETATM   10  C17 UNL     1      -3.651   6.515  14.118  1.00  0.00    -0.028 C 
HETATM   11  C18 UNL     1      -3.755   5.574  12.882  1.00  0.00     0.016 C 
HETATM   12  C19 UNL     1       0.699   6.568  13.132  1.00  0.00    -0.014 C 
HETATM   13  C20 UNL     1       1.547   6.827  14.410  1.00  0.00     0.020 C 
HETATM   14  C21 UNL     1       1.010   5.126  12.634  1.00  0.00     0.021 C 
HETATM   15  C22 UNL     1       0.855   4.960  11.133  1.00  0.00     0.080 C 
HETATM   16  C23 UNL     1       1.869   5.813  10.407  1.00  0.00     0.135 C 
HETATM   17  O1  UNL     1       2.338   5.435   9.331  1.00  0.00    -0.297 OA
HETATM   18  C24 UNL     1       2.274   7.149  11.046  1.00  0.00     0.018 C 
HETATM   19  C25 UNL     1       3.634   6.953  11.745  1.00  0.00     0.023 C 
HETATM   20  C26 UNL     1       2.520   8.172   9.910  1.00  0.00     0.023 C 
HETATM   21  C27 UNL     1       1.142   7.638  12.036  1.00  0.00     0.020 C 
HETATM   22  C28 UNL     1      -0.058   8.185  11.247  1.00  0.00     0.090 C 
HETATM   23  C29 UNL     1      -1.136   8.666  12.167  1.00  0.00     0.157 C 
HETATM   24  O2  UNL     1      -1.632   9.782  12.047  1.00  0.00    -0.293 OA
ENDROOT
BRANCH   1  25
HETATM   25  C6  UNL     1      -6.238   5.935  14.813  1.00  0.00    -0.014 C 
HETATM   26  C7  UNL     1      -6.827   5.851  16.226  1.00  0.00     0.010 C 
BRANCH  25  27
HETATM   27  C5  UNL     1      -7.359   6.123  13.766  1.00  0.00     0.008 C 
BRANCH  27  28
HETATM   28  C4  UNL     1      -7.640   4.860  12.943  1.00  0.00     0.028 C 
BRANCH  28  29
HETATM   29  C3  UNL     1      -6.370   4.287  12.374  1.00  0.00    -0.013 C 
HETATM   30  C2  UNL     1      -6.112   3.014  12.015  1.00  0.00     0.008 C 
HETATM   31  C1  UNL     1      -4.815   2.623  11.366  1.00  0.00     0.055 C 
BRANCH  30  32
HETATM   32  C30 UNL     1      -7.052   1.883  12.189  1.00  0.00     0.171 C 
HETATM   33  O3  UNL     1      -8.008   1.873  12.945  1.00  0.00    -0.646 OA
BRANCH  32  34
HETATM   34  O4  UNL     1      -6.819   0.863  11.350  1.00  0.00    -0.773 OA
HETATM   35  H44 UNL     1      -7.535   0.227  11.556  1.00  0.00     0.167 HD
ENDBRANCH  32  34
ENDBRANCH  30  32
ENDBRANCH  28  29
ENDBRANCH  27  28
ENDBRANCH  25  27
ENDBRANCH   1  25
TORSDOF 6
ENDMDL
MODEL 2
REMARK minimizedAffinity -9.25137997
REMARK  6 active torsions:
REMARK  status: ('A' for Active; 'I' for Inactive)
REMARK    1  A    between atoms: C2_2  and  C30_32 
REMARK    2  A    between atoms: C3_3  and  C4_4 
REMARK    3  A    between atoms: C4_4  and  C5_5 
REMARK    4  A    between atoms: C5_5  and  C6_6 
REMARK    5  A    between atoms: C6_6  and  C8_8 
REMARK    6  A    between atoms: C30_32  and  O4_34 
ROOT
HETATM    1  C8  UNL     1      -3.016   8.159  15.271  1.00  0.00    -0.002 C 
HETATM    2  C9  UNL     1      -2.147   9.283  15.903  1.00  0.00     0.007 C 
HETATM    3  C10 UNL     1      -0.786   9.263  15.178  1.00  0.00     0.015 C 
HETATM    4  C11 UNL     1      -0.745   7.906  14.451  1.00  0.00    -0.005 C 
HETATM    5  C12 UNL     1      -0.302   6.836  15.500  1.00  0.00     0.021 C 
HETATM    6  C13 UNL     1       0.191   7.699  13.273  1.00  0.00    -0.000 C 
HETATM    7  C14 UNL     1      -0.084   6.830  12.268  1.00  0.00    -0.060 C 
HETATM    8  C15 UNL     1      -1.439   6.087  12.269  1.00  0.00     0.036 C 
HETATM    9  C16 UNL     1      -2.435   6.387  13.413  1.00  0.00     0.015 C 
HETATM   10  C17 UNL     1      -2.244   7.804  13.967  1.00  0.00    -0.028 C 
HETATM   11  C18 UNL     1      -2.592   8.822  12.842  1.00  0.00     0.016 C 
HETATM   12  C19 UNL     1       0.929   6.462  11.133  1.00  0.00    -0.014 C 
HETATM   13  C20 UNL     1       1.276   4.964  11.369  1.00  0.00     0.020 C 
HETATM   14  C21 UNL     1       0.281   6.589   9.723  1.00  0.00     0.021 C 
HETATM   15  C22 UNL     1       0.518   7.937   9.069  1.00  0.00     0.080 C 
HETATM   16  C23 UNL     1       1.992   8.135   8.801  1.00  0.00     0.135 C 
HETATM   17  O1  UNL     1       2.360   8.783   7.820  1.00  0.00    -0.297 OA
HETATM   18  C24 UNL     1       2.992   7.516   9.788  1.00  0.00     0.018 C 
HETATM   19  C25 UNL     1       3.531   6.212   9.170  1.00  0.00     0.023 C 
HETATM   20  C26 UNL     1       4.206   8.469   9.906  1.00  0.00     0.023 C 
HETATM   21  C27 UNL     1       2.293   7.286  11.189  1.00  0.00     0.020 C 
HETATM   22  C28 UNL     1       2.129   8.623  11.930  1.00  0.00     0.090 C 
HETATM   23  C29 UNL     1       1.482   8.425  13.265  1.00  0.00     0.157 C 
HETATM   24  O2  UNL     1       1.970   8.889  14.290  1.00  0.00    -0.293 OA
ENDROOT
BRANCH   1  25
HETATM   25  C6  UNL     1      -4.545   8.453  15.307  1.00  0.00    -0.014 C 
HETATM   26  C7  UNL     1      -4.970   9.917  15.477  1.00  0.00     0.010 C 
BRANCH  25  27
HETATM   27  C5  UNL     1      -5.274   7.810  14.105  1.00  0.00     0.008 C 
BRANCH  27  28
HETATM   28  C4  UNL     1      -6.114   6.587  14.489  1.00  0.00     0.028 C 
BRANCH  28  29
HETATM   29  C3  UNL     1      -5.689   5.369  13.714  1.00  0.00    -0.013 C 
HETATM   30  C2  UNL     1      -6.448   4.546  12.963  1.00  0.00     0.008 C 
HETATM   31  C1  UNL     1      -5.847   3.422  12.169  1.00  0.00     0.055 C 
BRANCH  30  32
HETATM   32  C30 UNL     1      -7.917   4.657  12.815  1.00  0.00     0.171 C 
HETATM   33  O3  UNL     1      -8.497   5.529  12.192  1.00  0.00    -0.646 OA
BRANCH  32  34
HETATM   34  O4  UNL     1      -8.586   3.630  13.360  1.00  0.00    -0.773 OA
HETATM   35  H44 UNL     1      -9.522   3.825  13.144  1.00  0.00     0.167 HD
ENDBRANCH  32  34
ENDBRANCH  30  32
ENDBRANCH  28  29
ENDBRANCH  27  28
ENDBRANCH  25  27
ENDBRANCH   1  25
TORSDOF 6
ENDMDL
MODEL 3
REMARK minimizedAffinity -9.103755
REMARK  6 active torsions:
REMARK  status: ('A' for Active; 'I' for Inactive)
REMARK    1  A    between atoms: C2_2  and  C30_32 
REMARK    2  A    between atoms: C3_3  and  C4_4 
REMARK    3  A    between atoms: C4_4  and  C5_5 
REMARK    4  A    between atoms: C5_5  and  C6_6 
REMARK    5  A    between atoms: C6_6  and  C8_8 
REMARK    6  A    between atoms: C30_32  and  O4_34 
ROOT
HETATM    1  C8  UNL     1       0.910   7.078  11.696  1.00  0.00    -0.002 C 
HETATM    2  C9  UNL     1       0.622   5.949  10.666  1.00  0.00     0.007 C 
HETATM    3  C10 UNL     1      -0.704   5.283  11.085  1.00  0.00     0.015 C 
HETATM    4  C11 UNL     1      -0.939   5.747  12.534  1.00  0.00    -0.005 C 
HETATM    5  C12 UNL     1      -0.081   4.825  13.458  1.00  0.00     0.021 C 
HETATM    6  C13 UNL     1      -2.334   5.702  13.134  1.00  0.00    -0.000 C 
HETATM    7  C14 UNL     1      -2.740   6.561  14.103  1.00  0.00    -0.060 C 
HETATM    8  C15 UNL     1      -1.784   7.688  14.553  1.00  0.00     0.036 C 
HETATM    9  C16 UNL     1      -0.406   7.798  13.858  1.00  0.00     0.015 C 
HETATM   10  C17 UNL     1      -0.453   7.245  12.429  1.00  0.00    -0.028 C 
HETATM   11  C18 UNL     1      -1.409   8.140  11.587  1.00  0.00     0.016 C 
HETATM   12  C19 UNL     1      -4.101   6.435  14.864  1.00  0.00    -0.014 C 
HETATM   13  C20 UNL     1      -3.715   6.091  16.332  1.00  0.00     0.020 C 
HETATM   14  C21 UNL     1      -4.878   7.784  14.875  1.00  0.00     0.021 C 
HETATM   15  C22 UNL     1      -5.881   7.911  13.743  1.00  0.00     0.080 C 
HETATM   16  C23 UNL     1      -6.969   6.874  13.890  1.00  0.00     0.135 C 
HETATM   17  O1  UNL     1      -8.117   7.125  13.519  1.00  0.00    -0.297 OA
HETATM   18  C24 UNL     1      -6.591   5.517  14.500  1.00  0.00     0.018 C 
HETATM   19  C25 UNL     1      -7.034   5.514  15.976  1.00  0.00     0.023 C 
HETATM   20  C26 UNL     1      -7.430   4.422  13.798  1.00  0.00     0.023 C 
HETATM   21  C27 UNL     1      -5.039   5.262  14.327  1.00  0.00     0.020 C 
HETATM   22  C28 UNL     1      -4.718   4.889  12.871  1.00  0.00     0.090 C 
HETATM   23  C29 UNL     1      -3.255   4.631  12.689  1.00  0.00     0.157 C 
HETATM   24  O2  UNL     1      -2.847   3.608  12.148  1.00  0.00    -0.293 OA
ENDROOT
BRANCH   1  25
HETATM   25  C6  UNL     1       1.717   8.273  11.106  1.00  0.00    -0.014 C 
HETATM   26  C7  UNL     1       2.730   8.956  12.032  1.00  0.00     0.010 C 
BRANCH  25  27
HETATM   27  C5  UNL     1       2.375   7.903   9.757  1.00  0.00     0.008 C 
BRANCH  27  28
HETATM   28  C4  UNL     1       2.946   6.481   9.731  1.00  0.00     0.028 C 
BRANCH  28  29
HETATM   29  C3  UNL     1       2.960   5.926   8.332  1.00  0.00    -0.013 C 
HETATM   30  C2  UNL     1       3.438   4.739   7.907  1.00  0.00     0.008 C 
HETATM   31  C1  UNL     1       3.286   4.291   6.481  1.00  0.00     0.055 C 
BRANCH  30  32
HETATM   32  C30 UNL     1       4.128   3.752   8.767  1.00  0.00     0.171 C 
HETATM   33  O3  UNL     1       5.298   3.424   8.663  1.00  0.00    -0.646 OA
BRANCH  32  34
HETATM   34  O4  UNL     1       3.366   3.295   9.772  1.00  0.00    -0.773 OA
HETATM   35  H44 UNL     1       3.967   2.698  10.264  1.00  0.00     0.167 HD
ENDBRANCH  32  34
ENDBRANCH  30  32
ENDBRANCH  28  29
ENDBRANCH  27  28
ENDBRANCH  25  27
ENDBRANCH   1  25
TORSDOF 6
ENDMDL
MODEL 4
REMARK minimizedAffinity -9.06739235
REMARK  6 active torsions:
REMARK  status: ('A' for Active; 'I' for Inactive)
REMARK    1  A    between atoms: C2_2  and  C30_32 
REMARK    2  A    between atoms: C3_3  and  C4_4 
REMARK    3  A    between atoms: C4_4  and  C5_5 
REMARK    4  A    between atoms: C5_5  and  C6_6 
REMARK    5  A    between atoms: C6_6  and  C8_8 
REMARK    6  A    between atoms: C30_32  and  O4_34 
ROOT
HETATM    1  C8  UNL     1      -5.173   6.580  14.532  1.00  0.00    -0.002 C 
HETATM    2  C9  UNL     1      -5.597   7.704  13.544  1.00  0.00     0.007 C 
HETATM    3  C10 UNL     1      -4.316   8.197  12.842  1.00  0.00     0.015 C 
HETATM    4  C11 UNL     1      -3.160   7.658  13.705  1.00  0.00    -0.005 C 
HETATM    5  C12 UNL     1      -2.987   8.641  14.908  1.00  0.00     0.021 C 
HETATM    6  C13 UNL     1      -1.767   7.521  13.116  1.00  0.00    -0.000 C 
HETATM    7  C14 UNL     1      -0.881   6.588  13.548  1.00  0.00    -0.060 C 
HETATM    8  C15 UNL     1      -1.332   5.564  14.613  1.00  0.00     0.036 C 
HETATM    9  C16 UNL     1      -2.788   5.637  15.127  1.00  0.00     0.015 C 
HETATM   10  C17 UNL     1      -3.727   6.231  14.071  1.00  0.00    -0.028 C 
HETATM   11  C18 UNL     1      -3.771   5.261  12.853  1.00  0.00     0.016 C 
HETATM   12  C19 UNL     1       0.614   6.529  13.090  1.00  0.00    -0.014 C 
HETATM   13  C20 UNL     1       1.442   6.864  14.365  1.00  0.00     0.020 C 
HETATM   14  C21 UNL     1       1.014   5.100  12.620  1.00  0.00     0.021 C 
HETATM   15  C22 UNL     1       0.873   4.896  11.123  1.00  0.00     0.080 C 
HETATM   16  C23 UNL     1       1.834   5.795  10.381  1.00  0.00     0.135 C 
HETATM   17  O1  UNL     1       2.328   5.426   9.314  1.00  0.00    -0.297 OA
HETATM   18  C24 UNL     1       2.156   7.165  10.995  1.00  0.00     0.018 C 
HETATM   19  C25 UNL     1       3.523   7.065  11.700  1.00  0.00     0.023 C 
HETATM   20  C26 UNL     1       2.342   8.179   9.840  1.00  0.00     0.023 C 
HETATM   21  C27 UNL     1       0.994   7.603  11.974  1.00  0.00     0.020 C 
HETATM   22  C28 UNL     1      -0.235   8.061  11.173  1.00  0.00     0.090 C 
HETATM   23  C29 UNL     1      -1.342   8.493  12.083  1.00  0.00     0.157 C 
HETATM   24  O2  UNL     1      -1.905   9.575  11.940  1.00  0.00    -0.293 OA
ENDROOT
BRANCH   1  25
HETATM   25  C6  UNL     1      -6.276   5.507  14.773  1.00  0.00    -0.014 C 
HETATM   26  C7  UNL     1      -7.154   5.677  16.019  1.00  0.00     0.010 C 
BRANCH  25  27
HETATM   27  C5  UNL     1      -7.150   5.299  13.515  1.00  0.00     0.008 C 
BRANCH  27  28
HETATM   28  C4  UNL     1      -8.367   6.229  13.460  1.00  0.00     0.028 C 
BRANCH  28  29
HETATM   29  C3  UNL     1      -8.507   7.018  14.734  1.00  0.00    -0.013 C 
HETATM   30  C2  UNL     1      -9.593   7.664  15.203  1.00  0.00     0.008 C 
HETATM   31  C1  UNL     1      -9.597   8.329  16.551  1.00  0.00     0.055 C 
BRANCH  30  32
HETATM   32  C30 UNL     1     -10.882   7.778  14.484  1.00  0.00     0.171 C 
HETATM   33  O3  UNL     1     -11.742   6.916  14.441  1.00  0.00    -0.646 OA
BRANCH  32  34
HETATM   34  O4  UNL     1     -11.083   8.988  13.940  1.00  0.00    -0.773 OA
HETATM   35  H44 UNL     1     -11.978   8.917  13.547  1.00  0.00     0.167 HD
ENDBRANCH  32  34
ENDBRANCH  30  32
ENDBRANCH  28  29
ENDBRANCH  27  28
ENDBRANCH  25  27
ENDBRANCH   1  25
TORSDOF 6
ENDMDL
MODEL 5
REMARK minimizedAffinity -9.03321743
REMARK  6 active torsions:
REMARK  status: ('A' for Active; 'I' for Inactive)
REMARK    1  A    between atoms: C2_2  and  C30_32 
REMARK    2  A    between atoms: C3_3  and  C4_4 
REMARK    3  A    between atoms: C4_4  and  C5_5 
REMARK    4  A    between atoms: C5_5  and  C6_6 
REMARK    5  A    between atoms: C6_6  and  C8_8 
REMARK    6  A    between atoms: C30_32  and  O4_34 
ROOT
HETATM    1  C8  UNL     1      -1.422   6.546  12.316  1.00  0.00    -0.002 C 
HETATM    2  C9  UNL     1      -0.976   5.392  11.375  1.00  0.00     0.007 C 
HETATM    3  C10 UNL     1       0.529   5.589  11.099  1.00  0.00     0.015 C 
HETATM    4  C11 UNL     1       0.824   7.037  11.535  1.00  0.00    -0.005 C 
HETATM    5  C12 UNL     1       0.394   7.968  10.356  1.00  0.00     0.021 C 
HETATM    6  C13 UNL     1       2.245   7.460  11.862  1.00  0.00    -0.000 C 
HETATM    7  C14 UNL     1       2.525   8.449  12.749  1.00  0.00    -0.060 C 
HETATM    8  C15 UNL     1       1.364   9.108  13.526  1.00  0.00     0.036 C 
HETATM    9  C16 UNL     1      -0.072   8.594  13.271  1.00  0.00     0.015 C 
HETATM   10  C17 UNL     1      -0.072   7.125  12.831  1.00  0.00    -0.028 C 
HETATM   11  C18 UNL     1       0.470   6.261  14.007  1.00  0.00     0.016 C 
HETATM   12  C19 UNL     1       3.959   9.030  12.982  1.00  0.00    -0.014 C 
HETATM   13  C20 UNL     1       3.892  10.495  12.464  1.00  0.00     0.020 C 
HETATM   14  C21 UNL     1       4.322   9.071  14.495  1.00  0.00     0.021 C 
HETATM   15  C22 UNL     1       5.081   7.845  14.967  1.00  0.00     0.080 C 
HETATM   16  C23 UNL     1       6.426   7.768  14.282  1.00  0.00     0.135 C 
HETATM   17  O1  UNL     1       7.395   7.288  14.874  1.00  0.00    -0.297 OA
HETATM   18  C24 UNL     1       6.530   8.293  12.843  1.00  0.00     0.018 C 
HETATM   19  C25 UNL     1       7.157   9.700  12.890  1.00  0.00     0.023 C 
HETATM   20  C26 UNL     1       7.536   7.400  12.076  1.00  0.00     0.023 C 
HETATM   21  C27 UNL     1       5.104   8.282  12.161  1.00  0.00     0.020 C 
HETATM   22  C28 UNL     1       4.701   6.846  11.789  1.00  0.00     0.090 C 
HETATM   23  C29 UNL     1       3.358   6.815  11.128  1.00  0.00     0.157 C 
HETATM   24  O2  UNL     1       3.180   6.236  10.061  1.00  0.00    -0.293 OA
ENDROOT
BRANCH   1  25
HETATM   25  C6  UNL     1      -2.604   6.166  13.257  1.00  0.00    -0.014 C 
HETATM   26  C7  UNL     1      -3.822   7.097  13.258  1.00  0.00     0.010 C 
BRANCH  25  27
HETATM   27  C5  UNL     1      -3.041   4.698  13.054  1.00  0.00     0.008 C 
BRANCH  27  28
HETATM   28  C4  UNL     1      -4.545   4.541  12.798  1.00  0.00     0.028 C 
BRANCH  28  29
HETATM   29  C3  UNL     1      -4.836   3.291  12.013  1.00  0.00    -0.013 C 
HETATM   30  C2  UNL     1      -5.954   2.537  12.024  1.00  0.00     0.008 C 
HETATM   31  C1  UNL     1      -6.125   1.365  11.100  1.00  0.00     0.055 C 
BRANCH  30  32
HETATM   32  C30 UNL     1      -7.121   2.774  12.903  1.00  0.00     0.171 C 
HETATM   33  O3  UNL     1      -7.189   3.630  13.767  1.00  0.00    -0.646 OA
BRANCH  32  34
HETATM   34  O4  UNL     1      -8.180   2.007  12.600  1.00  0.00    -0.773 OA
HETATM   35  H44 UNL     1      -8.869   2.308  13.228  1.00  0.00     0.167 HD
ENDBRANCH  32  34
ENDBRANCH  30  32
ENDBRANCH  28  29
ENDBRANCH  27  28
ENDBRANCH  25  27
ENDBRANCH   1  25
TORSDOF 6
ENDMDL
MODEL 6
REMARK minimizedAffinity -9.023242
REMARK  6 active torsions:
REMARK  status: ('A' for Active; 'I' for Inactive)
REMARK    1  A    between atoms: C2_2  and  C30_32 
REMARK    2  A    between atoms: C3_3  and  C4_4 
REMARK    3  A    between atoms: C4_4  and  C5_5 
REMARK    4  A    between atoms: C5_5  and  C6_6 
REMARK    5  A    between atoms: C6_6  and  C8_8 
REMARK    6  A    between atoms: C30_32  and  O4_34 
ROOT
HETATM    1  C8  UNL     1      -2.501   8.908  15.685  1.00  0.00    -0.002 C 
HETATM    2  C9  UNL     1      -1.431   9.889  16.242  1.00  0.00     0.007 C 
HETATM    3  C10 UNL     1      -0.145   9.670  15.420  1.00  0.00     0.015 C 
HETATM    4  C11 UNL     1      -0.359   8.324  14.702  1.00  0.00    -0.005 C 
HETATM    5  C12 UNL     1      -0.005   7.196  15.724  1.00  0.00     0.021 C 
HETATM    6  C13 UNL     1       0.445   7.985  13.459  1.00  0.00    -0.000 C 
HETATM    7  C14 UNL     1      -0.029   7.169  12.484  1.00  0.00    -0.060 C 
HETATM    8  C15 UNL     1      -1.475   6.636  12.590  1.00  0.00     0.036 C 
HETATM    9  C16 UNL     1      -2.329   7.077  13.802  1.00  0.00     0.015 C 
HETATM   10  C17 UNL     1      -1.889   8.447  14.330  1.00  0.00    -0.028 C 
HETATM   11  C18 UNL     1      -2.165   9.510  13.226  1.00  0.00     0.016 C 
HETATM   12  C19 UNL     1       0.832   6.659  11.281  1.00  0.00    -0.014 C 
HETATM   13  C20 UNL     1       0.970   5.125  11.501  1.00  0.00     0.020 C 
HETATM   14  C21 UNL     1       0.108   6.886   9.921  1.00  0.00     0.021 C 
HETATM   15  C22 UNL     1       0.493   8.186   9.242  1.00  0.00     0.080 C 
HETATM   16  C23 UNL     1       1.956   8.164   8.865  1.00  0.00     0.135 C 
HETATM   17  O1  UNL     1       2.343   8.754   7.854  1.00  0.00    -0.297 OA
HETATM   18  C24 UNL     1       2.923   7.401   9.780  1.00  0.00     0.018 C 
HETATM   19  C25 UNL     1       3.216   6.032   9.134  1.00  0.00     0.023 C 
HETATM   20  C26 UNL     1       4.270   8.162   9.801  1.00  0.00     0.023 C 
HETATM   21  C27 UNL     1       2.304   7.272  11.229  1.00  0.00     0.020 C 
HETATM   22  C28 UNL     1       2.395   8.615  11.970  1.00  0.00     0.090 C 
HETATM   23  C29 UNL     1       1.826   8.511  13.351  1.00  0.00     0.157 C 
HETATM   24  O2  UNL     1       2.452   8.894  14.334  1.00  0.00    -0.293 OA
ENDROOT
BRANCH   1  25
HETATM   25  C6  UNL     1      -3.963   9.427  15.830  1.00  0.00    -0.014 C 
HETATM   26  C7  UNL     1      -4.153  10.937  16.017  1.00  0.00     0.010 C 
BRANCH  25  27
HETATM   27  C5  UNL     1      -4.867   8.900  14.693  1.00  0.00     0.008 C 
BRANCH  27  28
HETATM   28  C4  UNL     1      -5.973   7.958  15.183  1.00  0.00     0.028 C 
BRANCH  28  29
HETATM   29  C3  UNL     1      -6.055   6.723  14.327  1.00  0.00    -0.013 C 
HETATM   30  C2  UNL     1      -6.886   5.669  14.455  1.00  0.00     0.008 C 
HETATM   31  C1  UNL     1      -6.905   4.552  13.451  1.00  0.00     0.055 C 
BRANCH  30  32
HETATM   32  C30 UNL     1      -7.864   5.496  15.552  1.00  0.00     0.171 C 
HETATM   33  O3  UNL     1      -8.639   6.351  15.944  1.00  0.00    -0.646 OA
BRANCH  32  34
HETATM   34  O4  UNL     1      -7.903   4.247  16.039  1.00  0.00    -0.773 OA
HETATM   35  H44 UNL     1      -8.614   4.285  16.712  1.00  0.00     0.167 HD
ENDBRANCH  32  34
ENDBRANCH  30  32
ENDBRANCH  28  29
ENDBRANCH  27  28
ENDBRANCH  25  27
ENDBRANCH   1  25
TORSDOF 6
ENDMDL
MODEL 7
REMARK minimizedAffinity -9.02243328
REMARK  6 active torsions:
REMARK  status: ('A' for Active; 'I' for Inactive)
REMARK    1  A    between atoms: C2_2  and  C30_32 
REMARK    2  A    between atoms: C3_3  and  C4_4 
REMARK    3  A    between atoms: C4_4  and  C5_5 
REMARK    4  A    between atoms: C5_5  and  C6_6 
REMARK    5  A    between atoms: C6_6  and  C8_8 
REMARK    6  A    between atoms: C30_32  and  O4_34 
ROOT
HETATM    1  C8  UNL     1       3.194   7.189  11.492  1.00  0.00    -0.002 C 
HETATM    2  C9  UNL     1       2.920   8.719  11.484  1.00  0.00     0.007 C 
HETATM    3  C10 UNL     1       1.401   8.907  11.671  1.00  0.00     0.015 C 
HETATM    4  C11 UNL     1       0.792   7.523  11.377  1.00  0.00    -0.005 C 
HETATM    5  C12 UNL     1       0.675   7.392   9.825  1.00  0.00     0.021 C 
HETATM    6  C13 UNL     1      -0.590   7.171  11.898  1.00  0.00    -0.000 C 
HETATM    7  C14 UNL     1      -0.956   5.898  12.191  1.00  0.00    -0.060 C 
HETATM    8  C15 UNL     1       0.095   4.771  12.081  1.00  0.00     0.036 C 
HETATM    9  C16 UNL     1       1.533   5.153  11.658  1.00  0.00     0.015 C 
HETATM   10  C17 UNL     1       1.872   6.594  12.058  1.00  0.00    -0.028 C 
HETATM   11  C18 UNL     1       1.863   6.687  13.612  1.00  0.00     0.016 C 
HETATM   12  C19 UNL     1      -2.417   5.475  12.562  1.00  0.00    -0.014 C 
HETATM   13  C20 UNL     1      -2.891   4.577  11.382  1.00  0.00     0.020 C 
HETATM   14  C21 UNL     1      -2.454   4.618  13.861  1.00  0.00     0.021 C 
HETATM   15  C22 UNL     1      -2.705   5.435  15.115  1.00  0.00     0.080 C 
HETATM   16  C23 UNL     1      -4.080   6.060  15.064  1.00  0.00     0.135 C 
HETATM   17  O1  UNL     1      -4.721   6.230  16.102  1.00  0.00    -0.297 OA
HETATM   18  C24 UNL     1      -4.630   6.474  13.692  1.00  0.00     0.018 C 
HETATM   19  C25 UNL     1      -5.617   5.388  13.223  1.00  0.00     0.023 C 
HETATM   20  C26 UNL     1      -5.467   7.763  13.877  1.00  0.00     0.023 C 
HETATM   21  C27 UNL     1      -3.437   6.695  12.677  1.00  0.00     0.020 C 
HETATM   22  C28 UNL     1      -2.718   8.020  12.979  1.00  0.00     0.090 C 
HETATM   23  C29 UNL     1      -1.593   8.254  12.020  1.00  0.00     0.157 C 
HETATM   24  O2  UNL     1      -1.479   9.313  11.410  1.00  0.00    -0.293 OA
ENDROOT
BRANCH   1  25
HETATM   25  C6  UNL     1       4.604   6.807  12.033  1.00  0.00    -0.014 C 
HETATM   26  C7  UNL     1       5.617   6.262  11.019  1.00  0.00     0.010 C 
BRANCH  25  27
HETATM   27  C5  UNL     1       5.225   7.956  12.859  1.00  0.00     0.008 C 
BRANCH  27  28
HETATM   28  C4  UNL     1       6.059   7.468  14.049  1.00  0.00     0.028 C 
BRANCH  28  29
HETATM   29  C3  UNL     1       7.524   7.735  13.834  1.00  0.00    -0.013 C 
HETATM   30  C2  UNL     1       8.471   7.996  14.756  1.00  0.00     0.008 C 
HETATM   31  C1  UNL     1       9.919   8.146  14.382  1.00  0.00     0.055 C 
BRANCH  30  32
HETATM   32  C30 UNL     1       8.217   8.143  16.207  1.00  0.00     0.171 C 
HETATM   33  O3  UNL     1       7.327   8.813  16.701  1.00  0.00    -0.646 OA
BRANCH  32  34
HETATM   34  O4  UNL     1       9.013   7.375  16.968  1.00  0.00    -0.773 OA
HETATM   35  H44 UNL     1       8.697   7.549  17.879  1.00  0.00     0.167 HD
ENDBRANCH  32  34
ENDBRANCH  30  32
ENDBRANCH  28  29
ENDBRANCH  27  28
ENDBRANCH  25  27
ENDBRANCH   1  25
TORSDOF 6
ENDMDL
MODEL 8
REMARK minimizedAffinity -8.87548065
REMARK  6 active torsions:
REMARK  status: ('A' for Active; 'I' for Inactive)
REMARK    1  A    between atoms: C2_2  and  C30_32 
REMARK    2  A    between atoms: C3_3  and  C4_4 
REMARK    3  A    between atoms: C4_4  and  C5_5 
REMARK    4  A    between atoms: C5_5  and  C6_6 
REMARK    5  A    between atoms: C6_6  and  C8_8 
REMARK    6  A    between atoms: C30_32  and  O4_34 
ROOT
HETATM    1  C8  UNL     1       2.067   7.575  11.046  1.00  0.00    -0.002 C 
HETATM    2  C9  UNL     1       2.778   6.359  10.387  1.00  0.00     0.007 C 
HETATM    3  C10 UNL     1       4.275   6.465  10.739  1.00  0.00     0.015 C 
HETATM    4  C11 UNL     1       4.465   7.913  11.229  1.00  0.00    -0.005 C 
HETATM    5  C12 UNL     1       4.607   8.813   9.960  1.00  0.00     0.021 C 
HETATM    6  C13 UNL     1       5.659   8.276  12.094  1.00  0.00    -0.000 C 
HETATM    7  C14 UNL     1       5.623   9.286  13.000  1.00  0.00    -0.060 C 
HETATM    8  C15 UNL     1       4.293  10.039  13.230  1.00  0.00     0.036 C 
HETATM    9  C16 UNL     1       3.051   9.589  12.426  1.00  0.00     0.015 C 
HETATM   10  C17 UNL     1       3.131   8.105  12.052  1.00  0.00    -0.028 C 
HETATM   11  C18 UNL     1       3.097   7.266  13.362  1.00  0.00     0.016 C 
HETATM   12  C19 UNL     1       6.877   9.800  13.781  1.00  0.00    -0.014 C 
HETATM   13  C20 UNL     1       7.120  11.244  13.253  1.00  0.00     0.020 C 
HETATM   14  C21 UNL     1       6.603   9.889  15.311  1.00  0.00     0.021 C 
HETATM   15  C22 UNL     1       7.027   8.647  16.072  1.00  0.00     0.080 C 
HETATM   16  C23 UNL     1       8.525   8.469  15.990  1.00  0.00     0.135 C 
HETATM   17  O1  UNL     1       9.140   7.966  16.932  1.00  0.00    -0.297 OA
HETATM   18  C24 UNL     1       9.233   8.925  14.706  1.00  0.00     0.018 C 
HETATM   19  C25 UNL     1       9.879  10.298  14.976  1.00  0.00     0.023 C 
HETATM   20  C26 UNL     1      10.401   7.948  14.428  1.00  0.00     0.023 C 
HETATM   21  C27 UNL     1       8.203   8.959  13.507  1.00  0.00     0.020 C 
HETATM   22  C28 UNL     1       7.891   7.531  13.030  1.00  0.00     0.090 C 
HETATM   23  C29 UNL     1       6.928   7.542  11.885  1.00  0.00     0.157 C 
HETATM   24  O2  UNL     1       7.156   6.926  10.848  1.00  0.00    -0.293 OA
ENDROOT
BRANCH   1  25
HETATM   25  C6  UNL     1       0.584   7.299  11.436  1.00  0.00    -0.014 C 
HETATM   26  C7  UNL     1      -0.390   8.480  11.354  1.00  0.00     0.010 C 
BRANCH  25  27
HETATM   27  C5  UNL     1       0.019   6.073  10.685  1.00  0.00     0.008 C 
BRANCH  27  28
HETATM   28  C4  UNL     1      -0.288   4.885  11.605  1.00  0.00     0.028 C 
BRANCH  28  29
HETATM   29  C3  UNL     1      -1.724   4.454  11.477  1.00  0.00    -0.013 C 
HETATM   30  C2  UNL     1      -2.211   3.212  11.282  1.00  0.00     0.008 C 
HETATM   31  C1  UNL     1      -3.687   2.935  11.274  1.00  0.00     0.055 C 
BRANCH  30  32
HETATM   32  C30 UNL     1      -1.381   2.004  11.080  1.00  0.00     0.171 C 
HETATM   33  O3  UNL     1      -0.163   1.970  11.132  1.00  0.00    -0.646 OA
BRANCH  32  34
HETATM   34  O4  UNL     1      -2.101   0.883  10.922  1.00  0.00    -0.773 OA
HETATM   35  H44 UNL     1      -1.421   0.181  10.846  1.00  0.00     0.167 HD
ENDBRANCH  32  34
ENDBRANCH  30  32
ENDBRANCH  28  29
ENDBRANCH  27  28
ENDBRANCH  25  27
ENDBRANCH   1  25
TORSDOF 6
ENDMDL
MODEL 9
REMARK minimizedAffinity -8.63376904
REMARK  6 active torsions:
REMARK  status: ('A' for Active; 'I' for Inactive)
REMARK    1  A    between atoms: C2_2  and  C30_32 
REMARK    2  A    between atoms: C3_3  and  C4_4 
REMARK    3  A    between atoms: C4_4  and  C5_5 
REMARK    4  A    between atoms: C5_5  and  C6_6 
REMARK    5  A    between atoms: C6_6  and  C8_8 
REMARK    6  A    between atoms: C30_32  and  O4_34 
ROOT
HETATM    1  C8  UNL     1      -2.433   5.236  13.151  1.00  0.00    -0.002 C 
HETATM    2  C9  UNL     1      -3.932   5.303  12.744  1.00  0.00     0.007 C 
HETATM    3  C10 UNL     1      -4.542   6.523  13.461  1.00  0.00     0.015 C 
HETATM    4  C11 UNL     1      -3.524   6.886  14.559  1.00  0.00    -0.005 C 
HETATM    5  C12 UNL     1      -3.790   5.930  15.766  1.00  0.00     0.021 C 
HETATM    6  C13 UNL     1      -3.517   8.279  15.164  1.00  0.00    -0.000 C 
HETATM    7  C14 UNL     1      -2.393   8.852  15.662  1.00  0.00    -0.060 C 
HETATM    8  C15 UNL     1      -1.048   8.103  15.529  1.00  0.00     0.036 C 
HETATM    9  C16 UNL     1      -1.043   6.734  14.809  1.00  0.00     0.015 C 
HETATM   10  C17 UNL     1      -2.174   6.637  13.780  1.00  0.00    -0.028 C 
HETATM   11  C18 UNL     1      -1.911   7.688  12.661  1.00  0.00     0.016 C 
HETATM   12  C19 UNL     1      -2.380  10.205  16.447  1.00  0.00    -0.014 C 
HETATM   13  C20 UNL     1      -1.968   9.829  17.899  1.00  0.00     0.020 C 
HETATM   14  C21 UNL     1      -1.309  11.185  15.883  1.00  0.00     0.021 C 
HETATM   15  C22 UNL     1      -1.858  12.149  14.849  1.00  0.00     0.080 C 
HETATM   16  C23 UNL     1      -2.879  13.066  15.481  1.00  0.00     0.135 C 
HETATM   17  O1  UNL     1      -3.004  14.224  15.077  1.00  0.00    -0.297 OA
HETATM   18  C24 UNL     1      -3.744  12.504  16.618  1.00  0.00     0.018 C 
HETATM   19  C25 UNL     1      -3.159  12.999  17.956  1.00  0.00     0.023 C 
HETATM   20  C26 UNL     1      -5.154  13.133  16.508  1.00  0.00     0.023 C 
HETATM   21  C27 UNL     1      -3.800  10.927  16.523  1.00  0.00     0.020 C 
HETATM   22  C28 UNL     1      -4.727  10.494  15.375  1.00  0.00     0.090 C 
HETATM   23  C29 UNL     1      -4.805   9.002  15.276  1.00  0.00     0.157 C 
HETATM   24  O2  UNL     1      -5.883   8.417  15.234  1.00  0.00    -0.293 OA
ENDROOT
BRANCH   1  25
HETATM   25  C6  UNL     1      -1.515   4.605  12.062  1.00  0.00    -0.014 C 
HETATM   26  C7  UNL     1      -2.200   4.045  10.810  1.00  0.00     0.010 C 
BRANCH  25  27
HETATM   27  C5  UNL     1      -0.361   5.556  11.672  1.00  0.00     0.008 C 
BRANCH  27  28
HETATM   28  C4  UNL     1       0.975   4.834  11.458  1.00  0.00     0.028 C 
BRANCH  28  29
HETATM   29  C3  UNL     1       2.099   5.815  11.263  1.00  0.00    -0.013 C 
HETATM   30  C2  UNL     1       3.078   5.793  10.337  1.00  0.00     0.008 C 
HETATM   31  C1  UNL     1       4.076   6.910  10.215  1.00  0.00     0.055 C 
BRANCH  30  32
HETATM   32  C30 UNL     1       3.274   4.714   9.343  1.00  0.00     0.171 C 
HETATM   33  O3  UNL     1       3.387   4.877   8.140  1.00  0.00    -0.646 OA
BRANCH  32  34
HETATM   34  O4  UNL     1       3.419   3.500   9.896  1.00  0.00    -0.773 OA
HETATM   35  H44 UNL     1       3.580   2.915   9.127  1.00  0.00     0.167 HD
ENDBRANCH  32  34
ENDBRANCH  30  32
ENDBRANCH  28  29
ENDBRANCH  27  28
ENDBRANCH  25  27
ENDBRANCH   1  25
TORSDOF 6
ENDMDL
