MODEL 1
REMARK minimizedAffinity -9.63236427
REMARK  5 active torsions:
REMARK  status: ('A' for Active; 'I' for Inactive)
REMARK    1  A    between atoms: C2_2  and  C4_4 
REMARK    2  A    between atoms: C7_7  and  C8_8 
REMARK    3  A    between atoms: C8_8  and  O2_10 
REMARK    4  A    between atoms: C22_25  and  C24_27 
REMARK    5  A    between atoms: C24_27  and  O4_28 
ROOT
HETATM    1  C4  UNL     1       0.474  52.533 -23.043  1.00  0.00     0.019 C 
HETATM    2  C5  UNL     1       1.025  53.505 -24.122  1.00  0.00     0.011 C 
HETATM    3  C6  UNL     1      -0.082  53.685 -25.174  1.00  0.00     0.021 C 
HETATM    4  C7  UNL     1      -0.937  52.423 -25.033  1.00  0.00     0.050 C 
HETATM    5  C9  UNL     1      -2.376  52.548 -25.556  1.00  0.00     0.022 C 
HETATM    6  C10 UNL     1      -3.214  51.316 -25.149  1.00  0.00     0.011 C 
HETATM    7  C11 UNL     1      -3.231  51.011 -23.608  1.00  0.00    -0.032 C 
HETATM    8  C12 UNL     1      -4.049  52.181 -22.962  1.00  0.00     0.016 C 
HETATM    9  C13 UNL     1      -1.743  51.013 -23.064  1.00  0.00     0.000 C 
HETATM   10  C14 UNL     1      -1.690  50.728 -21.559  1.00  0.00     0.006 C 
HETATM   11  C15 UNL     1      -2.377  49.409 -21.191  1.00  0.00     0.006 C 
HETATM   12  C16 UNL     1      -3.833  49.332 -21.701  1.00  0.00     0.003 C 
HETATM   13  C17 UNL     1      -4.671  48.123 -21.098  1.00  0.00    -0.035 C 
HETATM   14  C18 UNL     1      -4.002  46.750 -21.344  1.00  0.00     0.016 C 
HETATM   15  C19 UNL     1      -4.741  48.311 -19.537  1.00  0.00     0.017 C 
HETATM   16  C20 UNL     1      -6.027  47.834 -18.869  1.00  0.00     0.080 C 
HETATM   17  C21 UNL     1      -6.686  46.740 -19.667  1.00  0.00     0.137 C 
HETATM   18  O3  UNL     1      -6.853  45.621 -19.182  1.00  0.00    -0.297 OA
HETATM   19  C22 UNL     1      -7.129  47.107 -21.090  1.00  0.00     0.042 C 
HETATM   20  C23 UNL     1      -7.199  45.825 -21.942  1.00  0.00     0.026 C 
HETATM   21  C25 UNL     1      -6.136  48.192 -21.662  1.00  0.00     0.012 C 
HETATM   22  C26 UNL     1      -6.164  48.295 -23.198  1.00  0.00     0.007 C 
HETATM   23  C27 UNL     1      -5.399  49.523 -23.698  1.00  0.00     0.011 C 
HETATM   24  C28 UNL     1      -3.909  49.568 -23.263  1.00  0.00    -0.032 C 
HETATM   25  C29 UNL     1      -3.177  48.440 -24.048  1.00  0.00     0.016 C 
HETATM   26  C30 UNL     1      -0.988  52.291 -23.493  1.00  0.00     0.017 C 
ENDROOT
BRANCH   4  27
HETATM   27  C8  UNL     1      -0.240  51.331 -25.859  1.00  0.00     0.149 C 
HETATM   28  O1  UNL     1       0.957  51.290 -26.111  1.00  0.00    -0.649 OA
BRANCH  27  29
HETATM   29  O2  UNL     1      -1.025  50.337 -26.299  1.00  0.00    -0.776 OA
HETATM   30  H11 UNL     1      -0.408  49.744 -26.777  1.00  0.00     0.167 HD
ENDBRANCH  27  29
ENDBRANCH   4  27
BRANCH   1  31
HETATM   31  C2  UNL     1       0.747  53.078 -21.647  1.00  0.00    -0.088 C 
HETATM   32  C1  UNL     1       0.389  52.486 -20.496  1.00  0.00     0.014 C 
HETATM   33  C3  UNL     1       1.480  54.396 -21.619  1.00  0.00     0.043 C 
ENDBRANCH   1  31
BRANCH  19  34
HETATM   34  C24 UNL     1      -8.542  47.741 -20.989  1.00  0.00     0.181 C 
BRANCH  34  35
HETATM   35  O4  UNL     1      -8.772  48.432 -19.770  1.00  0.00    -0.400 OA
HETATM   36  H37 UNL     1      -8.755  47.792 -19.037  1.00  0.00     0.209 HD
ENDBRANCH  34  35
ENDBRANCH  19  34
TORSDOF 5
ENDMDL
MODEL 2
REMARK minimizedAffinity -9.48210335
REMARK  5 active torsions:
REMARK  status: ('A' for Active; 'I' for Inactive)
REMARK    1  A    between atoms: C2_2  and  C4_4 
REMARK    2  A    between atoms: C7_7  and  C8_8 
REMARK    3  A    between atoms: C8_8  and  O2_10 
REMARK    4  A    between atoms: C22_25  and  C24_27 
REMARK    5  A    between atoms: C24_27  and  O4_28 
ROOT
HETATM    1  C4  UNL     1      -1.630  49.277 -16.846  1.00  0.00     0.019 C 
HETATM    2  C5  UNL     1      -2.134  48.149 -15.904  1.00  0.00     0.011 C 
HETATM    3  C6  UNL     1      -2.676  47.023 -16.801  1.00  0.00     0.021 C 
HETATM    4  C7  UNL     1      -3.035  47.731 -18.111  1.00  0.00     0.050 C 
HETATM    5  C9  UNL     1      -3.098  46.822 -19.347  1.00  0.00     0.022 C 
HETATM    6  C10 UNL     1      -3.224  47.662 -20.637  1.00  0.00     0.011 C 
HETATM    7  C11 UNL     1      -2.104  48.747 -20.828  1.00  0.00    -0.032 C 
HETATM    8  C12 UNL     1      -0.788  47.943 -21.100  1.00  0.00     0.016 C 
HETATM    9  C13 UNL     1      -1.968  49.592 -19.495  1.00  0.00     0.000 C 
HETATM   10  C14 UNL     1      -0.883  50.667 -19.613  1.00  0.00     0.006 C 
HETATM   11  C15 UNL     1      -1.119  51.604 -20.801  1.00  0.00     0.006 C 
HETATM   12  C16 UNL     1      -1.272  50.847 -22.138  1.00  0.00     0.003 C 
HETATM   13  C17 UNL     1      -1.225  51.781 -23.424  1.00  0.00    -0.035 C 
HETATM   14  C18 UNL     1      -2.285  52.907 -23.386  1.00  0.00     0.016 C 
HETATM   15  C19 UNL     1       0.179  52.491 -23.458  1.00  0.00     0.017 C 
HETATM   16  C20 UNL     1       0.756  52.753 -24.846  1.00  0.00     0.080 C 
HETATM   17  C21 UNL     1      -0.333  52.880 -25.877  1.00  0.00     0.137 C 
HETATM   18  O3  UNL     1      -0.479  53.924 -26.514  1.00  0.00    -0.297 OA
HETATM   19  C22 UNL     1      -1.226  51.648 -26.081  1.00  0.00     0.042 C 
HETATM   20  C23 UNL     1      -2.582  52.099 -26.656  1.00  0.00     0.026 C 
HETATM   21  C25 UNL     1      -1.345  50.881 -24.707  1.00  0.00     0.012 C 
HETATM   22  C26 UNL     1      -2.556  49.933 -24.642  1.00  0.00     0.007 C 
HETATM   23  C27 UNL     1      -2.492  49.016 -23.417  1.00  0.00     0.011 C 
HETATM   24  C28 UNL     1      -2.426  49.768 -22.059  1.00  0.00    -0.032 C 
HETATM   25  C29 UNL     1      -3.818  50.433 -21.844  1.00  0.00     0.016 C 
HETATM   26  C30 UNL     1      -1.819  48.674 -18.260  1.00  0.00     0.017 C 
ENDROOT
BRANCH   4  27
HETATM   27  C8  UNL     1      -4.434  48.333 -17.910  1.00  0.00     0.149 C 
HETATM   28  O1  UNL     1      -4.818  49.400 -18.372  1.00  0.00    -0.649 OA
BRANCH  27  29
HETATM   29  O2  UNL     1      -5.294  47.594 -17.195  1.00  0.00    -0.776 OA
HETATM   30  H11 UNL     1      -6.118  48.126 -17.194  1.00  0.00     0.167 HD
ENDBRANCH  27  29
ENDBRANCH   4  27
BRANCH   1  31
HETATM   31  C2  UNL     1      -0.250  49.754 -16.413  1.00  0.00    -0.088 C 
HETATM   32  C1  UNL     1       0.229  51.000 -16.572  1.00  0.00     0.014 C 
HETATM   33  C3  UNL     1       0.606  48.696 -15.764  1.00  0.00     0.043 C 
ENDBRANCH   1  31
BRANCH  19  34
HETATM   34  C24 UNL     1      -0.513  50.720 -27.100  1.00  0.00     0.181 C 
BRANCH  34  35
HETATM   35  O4  UNL     1       0.213  51.421 -28.100  1.00  0.00    -0.400 OA
HETATM   36  H37 UNL     1      -0.413  51.926 -28.647  1.00  0.00     0.209 HD
ENDBRANCH  34  35
ENDBRANCH  19  34
TORSDOF 5
ENDMDL
MODEL 3
REMARK minimizedAffinity -9.22157478
REMARK  5 active torsions:
REMARK  status: ('A' for Active; 'I' for Inactive)
REMARK    1  A    between atoms: C2_2  and  C4_4 
REMARK    2  A    between atoms: C7_7  and  C8_8 
REMARK    3  A    between atoms: C8_8  and  O2_10 
REMARK    4  A    between atoms: C22_25  and  C24_27 
REMARK    5  A    between atoms: C24_27  and  O4_28 
ROOT
HETATM    1  C4  UNL     1      -4.353  48.668 -18.040  1.00  0.00     0.019 C 
HETATM    2  C5  UNL     1      -5.197  47.500 -17.461  1.00  0.00     0.011 C 
HETATM    3  C6  UNL     1      -5.420  46.495 -18.605  1.00  0.00     0.021 C 
HETATM    4  C7  UNL     1      -5.264  47.337 -19.874  1.00  0.00     0.050 C 
HETATM    5  C9  UNL     1      -4.911  46.546 -21.142  1.00  0.00     0.022 C 
HETATM    6  C10 UNL     1      -4.540  47.502 -22.297  1.00  0.00     0.011 C 
HETATM    7  C11 UNL     1      -3.391  48.521 -21.966  1.00  0.00    -0.032 C 
HETATM    8  C12 UNL     1      -2.092  47.655 -21.840  1.00  0.00     0.016 C 
HETATM    9  C13 UNL     1      -3.713  49.235 -20.589  1.00  0.00     0.000 C 
HETATM   10  C14 UNL     1      -2.622  50.240 -20.203  1.00  0.00     0.006 C 
HETATM   11  C15 UNL     1      -2.387  51.291 -21.292  1.00  0.00     0.006 C 
HETATM   12  C16 UNL     1      -2.077  50.665 -22.669  1.00  0.00     0.003 C 
HETATM   13  C17 UNL     1      -1.543  51.702 -23.750  1.00  0.00    -0.035 C 
HETATM   14  C18 UNL     1      -2.509  52.890 -23.968  1.00  0.00     0.016 C 
HETATM   15  C19 UNL     1      -0.197  52.314 -23.212  1.00  0.00     0.017 C 
HETATM   16  C20 UNL     1       0.845  52.657 -24.272  1.00  0.00     0.080 C 
HETATM   17  C21 UNL     1       0.201  52.947 -25.601  1.00  0.00     0.137 C 
HETATM   18  O3  UNL     1       0.327  54.050 -26.134  1.00  0.00    -0.297 OA
HETATM   19  C22 UNL     1      -0.600  51.801 -26.235  1.00  0.00     0.042 C 
HETATM   20  C23 UNL     1      -1.646  52.392 -27.199  1.00  0.00     0.026 C 
HETATM   21  C25 UNL     1      -1.227  50.927 -25.080  1.00  0.00     0.012 C 
HETATM   22  C26 UNL     1      -2.412  50.062 -25.546  1.00  0.00     0.007 C 
HETATM   23  C27 UNL     1      -2.820  49.040 -24.482  1.00  0.00     0.011 C 
HETATM   24  C28 UNL     1      -3.218  49.664 -23.117  1.00  0.00    -0.032 C 
HETATM   25  C29 UNL     1      -4.572  50.402 -23.336  1.00  0.00     0.016 C 
HETATM   26  C30 UNL     1      -4.044  48.205 -19.485  1.00  0.00     0.017 C 
ENDROOT
BRANCH   4  27
HETATM   27  C8  UNL     1      -6.622  48.014 -20.116  1.00  0.00     0.149 C 
HETATM   28  O1  UNL     1      -6.865  49.200 -19.931  1.00  0.00    -0.649 OA
BRANCH  27  29
HETATM   29  O2  UNL     1      -7.592  47.226 -20.602  1.00  0.00    -0.776 OA
HETATM   30  H11 UNL     1      -8.357  47.831 -20.704  1.00  0.00     0.167 HD
ENDBRANCH  27  29
ENDBRANCH   4  27
BRANCH   1  31
HETATM   31  C2  UNL     1      -3.204  49.010 -17.101  1.00  0.00    -0.088 C 
HETATM   32  C1  UNL     1      -3.007  50.202 -16.513  1.00  0.00     0.014 C 
HETATM   33  C3  UNL     1      -2.237  47.880 -16.853  1.00  0.00     0.043 C 
ENDBRANCH   1  31
BRANCH  19  34
HETATM   34  C24 UNL     1       0.399  50.919 -27.030  1.00  0.00     0.181 C 
BRANCH  34  35
HETATM   35  O4  UNL     1       1.182  51.645 -27.966  1.00  0.00    -0.400 OA
HETATM   36  H37 UNL     1       0.596  52.006 -28.654  1.00  0.00     0.209 HD
ENDBRANCH  34  35
ENDBRANCH  19  34
TORSDOF 5
ENDMDL
MODEL 4
REMARK minimizedAffinity -9.02408028
REMARK  5 active torsions:
REMARK  status: ('A' for Active; 'I' for Inactive)
REMARK    1  A    between atoms: C2_2  and  C4_4 
REMARK    2  A    between atoms: C7_7  and  C8_8 
REMARK    3  A    between atoms: C8_8  and  O2_10 
REMARK    4  A    between atoms: C22_25  and  C24_27 
REMARK    5  A    between atoms: C24_27  and  O4_28 
ROOT
HETATM    1  C4  UNL     1      -0.727  51.188 -25.985  1.00  0.00     0.019 C 
HETATM    2  C5  UNL     1      -1.449  51.345 -27.352  1.00  0.00     0.011 C 
HETATM    3  C6  UNL     1      -2.958  51.397 -27.060  1.00  0.00     0.021 C 
HETATM    4  C7  UNL     1      -3.101  50.683 -25.713  1.00  0.00     0.050 C 
HETATM    5  C9  UNL     1      -4.371  51.030 -24.922  1.00  0.00     0.022 C 
HETATM    6  C10 UNL     1      -4.298  50.454 -23.491  1.00  0.00     0.011 C 
HETATM    7  C11 UNL     1      -3.028  50.881 -22.673  1.00  0.00    -0.032 C 
HETATM    8  C12 UNL     1      -3.210  52.411 -22.391  1.00  0.00     0.016 C 
HETATM    9  C13 UNL     1      -1.736  50.634 -23.556  1.00  0.00     0.000 C 
HETATM   10  C14 UNL     1      -0.456  51.039 -22.815  1.00  0.00     0.006 C 
HETATM   11  C15 UNL     1      -0.312  50.324 -21.469  1.00  0.00     0.006 C 
HETATM   12  C16 UNL     1      -1.543  50.513 -20.556  1.00  0.00     0.003 C 
HETATM   13  C17 UNL     1      -1.319  50.041 -19.054  1.00  0.00    -0.035 C 
HETATM   14  C18 UNL     1      -0.867  48.565 -18.952  1.00  0.00     0.016 C 
HETATM   15  C19 UNL     1      -0.157  50.907 -18.441  1.00  0.00     0.017 C 
HETATM   16  C20 UNL     1      -0.280  51.223 -16.954  1.00  0.00     0.080 C 
HETATM   17  C21 UNL     1      -1.086  50.174 -16.235  1.00  0.00     0.137 C 
HETATM   18  O3  UNL     1      -0.585  49.506 -15.330  1.00  0.00    -0.297 OA
HETATM   19  C22 UNL     1      -2.541  50.001 -16.692  1.00  0.00     0.042 C 
HETATM   20  C23 UNL     1      -3.014  48.578 -16.339  1.00  0.00     0.026 C 
HETATM   21  C25 UNL     1      -2.627  50.332 -18.233  1.00  0.00     0.012 C 
HETATM   22  C26 UNL     1      -3.882  49.752 -18.911  1.00  0.00     0.007 C 
HETATM   23  C27 UNL     1      -4.069  50.309 -20.325  1.00  0.00     0.011 C 
HETATM   24  C28 UNL     1      -2.872  50.048 -21.279  1.00  0.00    -0.032 C 
HETATM   25  C29 UNL     1      -2.857  48.520 -21.576  1.00  0.00     0.016 C 
HETATM   26  C30 UNL     1      -1.883  51.266 -24.958  1.00  0.00     0.017 C 
ENDROOT
BRANCH   4  27
HETATM   27  C8  UNL     1      -3.145  49.178 -26.020  1.00  0.00     0.149 C 
HETATM   28  O1  UNL     1      -3.152  48.685 -27.140  1.00  0.00    -0.649 OA
BRANCH  27  29
HETATM   29  O2  UNL     1      -3.141  48.362 -24.956  1.00  0.00    -0.776 OA
HETATM   30  H11 UNL     1      -3.153  47.464 -25.349  1.00  0.00     0.167 HD
ENDBRANCH  27  29
ENDBRANCH   4  27
BRANCH   1  31
HETATM   31  C2  UNL     1       0.435  52.167 -25.882  1.00  0.00    -0.088 C 
HETATM   32  C1  UNL     1       0.341  53.451 -25.497  1.00  0.00     0.014 C 
HETATM   33  C3  UNL     1       1.778  51.591 -26.260  1.00  0.00     0.043 C 
ENDBRANCH   1  31
BRANCH  19  34
HETATM   34  C24 UNL     1      -3.398  51.038 -15.920  1.00  0.00     0.181 C 
BRANCH  34  35
HETATM   35  O4  UNL     1      -3.445  50.811 -14.519  1.00  0.00    -0.400 OA
HETATM   36  H37 UNL     1      -3.900  49.967 -14.352  1.00  0.00     0.209 HD
ENDBRANCH  34  35
ENDBRANCH  19  34
TORSDOF 5
ENDMDL
MODEL 5
REMARK minimizedAffinity -8.99348354
REMARK  5 active torsions:
REMARK  status: ('A' for Active; 'I' for Inactive)
REMARK    1  A    between atoms: C2_2  and  C4_4 
REMARK    2  A    between atoms: C7_7  and  C8_8 
REMARK    3  A    between atoms: C8_8  and  O2_10 
REMARK    4  A    between atoms: C22_25  and  C24_27 
REMARK    5  A    between atoms: C24_27  and  O4_28 
ROOT
HETATM    1  C4  UNL     1      -7.010  48.767 -20.489  1.00  0.00     0.019 C 
HETATM    2  C5  UNL     1      -8.139  47.707 -20.603  1.00  0.00     0.011 C 
HETATM    3  C6  UNL     1      -7.903  46.936 -21.913  1.00  0.00     0.021 C 
HETATM    4  C7  UNL     1      -7.090  47.907 -22.773  1.00  0.00     0.050 C 
HETATM    5  C9  UNL     1      -6.267  47.253 -23.894  1.00  0.00     0.022 C 
HETATM    6  C10 UNL     1      -5.307  48.279 -24.536  1.00  0.00     0.011 C 
HETATM    7  C11 UNL     1      -4.349  49.006 -23.526  1.00  0.00    -0.032 C 
HETATM    8  C12 UNL     1      -3.353  47.903 -23.031  1.00  0.00     0.016 C 
HETATM    9  C13 UNL     1      -5.202  49.563 -22.313  1.00  0.00     0.000 C 
HETATM   10  C14 UNL     1      -4.321  50.280 -21.283  1.00  0.00     0.006 C 
HETATM   11  C15 UNL     1      -3.502  51.413 -21.907  1.00  0.00     0.006 C 
HETATM   12  C16 UNL     1      -2.650  50.945 -23.107  1.00  0.00     0.003 C 
HETATM   13  C17 UNL     1      -1.573  52.007 -23.595  1.00  0.00    -0.035 C 
HETATM   14  C18 UNL     1      -2.201  53.374 -23.956  1.00  0.00     0.016 C 
HETATM   15  C19 UNL     1      -0.579  52.273 -22.404  1.00  0.00     0.017 C 
HETATM   16  C20 UNL     1       0.866  52.562 -22.799  1.00  0.00     0.080 C 
HETATM   17  C21 UNL     1       0.949  53.155 -24.181  1.00  0.00     0.137 C 
HETATM   18  O3  UNL     1       1.418  54.280 -24.356  1.00  0.00    -0.297 OA
HETATM   19  C22 UNL     1       0.425  52.283 -25.329  1.00  0.00     0.042 C 
HETATM   20  C23 UNL     1       0.014  53.190 -26.505  1.00  0.00     0.026 C 
HETATM   21  C25 UNL     1      -0.753  51.385 -24.783  1.00  0.00     0.012 C 
HETATM   22  C26 UNL     1      -1.664  50.833 -25.894  1.00  0.00     0.007 C 
HETATM   23  C27 UNL     1      -2.622  49.764 -25.361  1.00  0.00     0.011 C 
HETATM   24  C28 UNL     1      -3.545  50.250 -24.211  1.00  0.00    -0.032 C 
HETATM   25  C29 UNL     1      -4.559  51.251 -24.839  1.00  0.00     0.016 C 
HETATM   26  C30 UNL     1      -6.111  48.467 -21.714  1.00  0.00     0.017 C 
ENDROOT
BRANCH   4  27
HETATM   27  C8  UNL     1      -8.102  48.854 -23.436  1.00  0.00     0.149 C 
HETATM   28  O1  UNL     1      -9.092  48.504 -24.066  1.00  0.00    -0.649 OA
BRANCH  27  29
HETATM   29  O2  UNL     1      -7.877  50.165 -23.267  1.00  0.00    -0.776 OA
HETATM   30  H11 UNL     1      -8.622  50.594 -23.737  1.00  0.00     0.167 HD
ENDBRANCH  27  29
ENDBRANCH   4  27
BRANCH   1  31
HETATM   31  C2  UNL     1      -6.403  48.750 -19.092  1.00  0.00    -0.088 C 
HETATM   32  C1  UNL     1      -5.093  48.853 -18.810  1.00  0.00     0.014 C 
HETATM   33  C3  UNL     1      -7.404  48.598 -17.974  1.00  0.00     0.043 C 
ENDBRANCH   1  31
BRANCH  19  34
HETATM   34  C24 UNL     1       1.584  51.352 -25.773  1.00  0.00     0.181 C 
BRANCH  34  35
HETATM   35  O4  UNL     1       2.682  52.044 -26.351  1.00  0.00    -0.400 OA
HETATM   36  H37 UNL     1       2.391  52.459 -27.181  1.00  0.00     0.209 HD
ENDBRANCH  34  35
ENDBRANCH  19  34
TORSDOF 5
ENDMDL
MODEL 6
REMARK minimizedAffinity -8.80595779
REMARK  5 active torsions:
REMARK  status: ('A' for Active; 'I' for Inactive)
REMARK    1  A    between atoms: C2_2  and  C4_4 
REMARK    2  A    between atoms: C7_7  and  C8_8 
REMARK    3  A    between atoms: C8_8  and  O2_10 
REMARK    4  A    between atoms: C22_25  and  C24_27 
REMARK    5  A    between atoms: C24_27  and  O4_28 
ROOT
HETATM    1  C4  UNL     1      -0.627  52.090 -22.902  1.00  0.00     0.019 C 
HETATM    2  C5  UNL     1       0.660  52.409 -22.093  1.00  0.00     0.011 C 
HETATM    3  C6  UNL     1       0.790  51.325 -21.009  1.00  0.00     0.021 C 
HETATM    4  C7  UNL     1      -0.642  50.817 -20.818  1.00  0.00     0.050 C 
HETATM    5  C9  UNL     1      -0.759  49.410 -20.212  1.00  0.00     0.022 C 
HETATM    6  C10 UNL     1      -2.215  48.902 -20.289  1.00  0.00     0.011 C 
HETATM    7  C11 UNL     1      -2.842  48.916 -21.729  1.00  0.00    -0.032 C 
HETATM    8  C12 UNL     1      -2.076  47.807 -22.527  1.00  0.00     0.016 C 
HETATM    9  C13 UNL     1      -2.598  50.337 -22.386  1.00  0.00     0.000 C 
HETATM   10  C14 UNL     1      -3.182  50.414 -23.801  1.00  0.00     0.006 C 
HETATM   11  C15 UNL     1      -4.675  50.075 -23.834  1.00  0.00     0.006 C 
HETATM   12  C16 UNL     1      -4.991  48.703 -23.199  1.00  0.00     0.003 C 
HETATM   13  C17 UNL     1      -6.469  48.184 -23.471  1.00  0.00    -0.035 C 
HETATM   14  C18 UNL     1      -7.551  49.188 -23.009  1.00  0.00     0.016 C 
HETATM   15  C19 UNL     1      -6.647  48.020 -25.026  1.00  0.00     0.017 C 
HETATM   16  C20 UNL     1      -7.555  46.877 -25.472  1.00  0.00     0.080 C 
HETATM   17  C21 UNL     1      -8.576  46.545 -24.416  1.00  0.00     0.137 C 
HETATM   18  O3  UNL     1      -9.780  46.653 -24.648  1.00  0.00    -0.297 OA
HETATM   19  C22 UNL     1      -8.027  46.067 -23.064  1.00  0.00     0.042 C 
HETATM   20  C23 UNL     1      -9.071  46.353 -21.968  1.00  0.00     0.026 C 
HETATM   21  C25 UNL     1      -6.636  46.768 -22.810  1.00  0.00     0.012 C 
HETATM   22  C26 UNL     1      -6.212  46.761 -21.330  1.00  0.00     0.007 C 
HETATM   23  C27 UNL     1      -4.756  47.203 -21.156  1.00  0.00     0.011 C 
HETATM   24  C28 UNL     1      -4.446  48.618 -21.715  1.00  0.00    -0.032 C 
HETATM   25  C29 UNL     1      -5.165  49.638 -20.783  1.00  0.00     0.016 C 
HETATM   26  C30 UNL     1      -1.114  50.754 -22.290  1.00  0.00     0.017 C 
ENDROOT
BRANCH   4  27
HETATM   27  C8  UNL     1      -1.325  51.795 -19.851  1.00  0.00     0.149 C 
HETATM   28  O1  UNL     1      -2.522  51.818 -19.596  1.00  0.00    -0.649 OA
BRANCH  27  29
HETATM   29  O2  UNL     1      -0.516  52.661 -19.224  1.00  0.00    -0.776 OA
HETATM   30  H11 UNL     1      -1.122  53.175 -18.650  1.00  0.00     0.167 HD
ENDBRANCH  27  29
ENDBRANCH   4  27
BRANCH   1  31
HETATM   31  C2  UNL     1      -0.349  52.172 -24.397  1.00  0.00    -0.088 C 
HETATM   32  C1  UNL     1      -0.244  51.123 -25.229  1.00  0.00     0.014 C 
HETATM   33  C3  UNL     1      -0.183  53.574 -24.930  1.00  0.00     0.043 C 
ENDBRANCH   1  31
BRANCH  19  34
HETATM   34  C24 UNL     1      -7.793  44.537 -23.171  1.00  0.00     0.181 C 
BRANCH  34  35
HETATM   35  O4  UNL     1      -6.712  44.068 -22.377  1.00  0.00    -0.400 OA
HETATM   36  H37 UNL     1      -5.884  44.451 -22.716  1.00  0.00     0.209 HD
ENDBRANCH  34  35
ENDBRANCH  19  34
TORSDOF 5
ENDMDL
MODEL 7
REMARK minimizedAffinity -8.75331783
REMARK  5 active torsions:
REMARK  status: ('A' for Active; 'I' for Inactive)
REMARK    1  A    between atoms: C2_2  and  C4_4 
REMARK    2  A    between atoms: C7_7  and  C8_8 
REMARK    3  A    between atoms: C8_8  and  O2_10 
REMARK    4  A    between atoms: C22_25  and  C24_27 
REMARK    5  A    between atoms: C24_27  and  O4_28 
ROOT
HETATM    1  C4  UNL     1       0.100  53.136 -25.105  1.00  0.00     0.019 C 
HETATM    2  C5  UNL     1      -0.020  53.767 -26.520  1.00  0.00     0.011 C 
HETATM    3  C6  UNL     1      -1.446  53.480 -27.020  1.00  0.00     0.021 C 
HETATM    4  C7  UNL     1      -1.876  52.243 -26.228  1.00  0.00     0.050 C 
HETATM    5  C9  UNL     1      -3.394  52.036 -26.114  1.00  0.00     0.022 C 
HETATM    6  C10 UNL     1      -3.718  50.914 -25.103  1.00  0.00     0.011 C 
HETATM    7  C11 UNL     1      -3.098  51.117 -23.674  1.00  0.00    -0.032 C 
HETATM    8  C12 UNL     1      -3.867  52.334 -23.056  1.00  0.00     0.016 C 
HETATM    9  C13 UNL     1      -1.558  51.455 -23.820  1.00  0.00     0.000 C 
HETATM   10  C14 UNL     1      -0.892  51.672 -22.457  1.00  0.00     0.006 C 
HETATM   11  C15 UNL     1      -1.076  50.472 -21.522  1.00  0.00     0.006 C 
HETATM   12  C16 UNL     1      -2.558  50.078 -21.339  1.00  0.00     0.003 C 
HETATM   13  C17 UNL     1      -2.815  49.039 -20.163  1.00  0.00    -0.035 C 
HETATM   14  C18 UNL     1      -1.987  47.742 -20.319  1.00  0.00     0.016 C 
HETATM   15  C19 UNL     1      -2.349  49.707 -18.816  1.00  0.00     0.017 C 
HETATM   16  C20 UNL     1      -3.154  49.329 -17.576  1.00  0.00     0.080 C 
HETATM   17  C21 UNL     1      -3.790  47.973 -17.728  1.00  0.00     0.137 C 
HETATM   18  O3  UNL     1      -3.507  47.055 -16.958  1.00  0.00    -0.297 OA
HETATM   19  C22 UNL     1      -4.796  47.816 -18.877  1.00  0.00     0.042 C 
HETATM   20  C23 UNL     1      -4.878  46.330 -19.275  1.00  0.00     0.026 C 
HETATM   21  C25 UNL     1      -4.358  48.765 -20.061  1.00  0.00     0.012 C 
HETATM   22  C26 UNL     1      -4.971  48.368 -21.417  1.00  0.00     0.007 C 
HETATM   23  C27 UNL     1      -4.746  49.450 -22.477  1.00  0.00     0.011 C 
HETATM   24  C28 UNL     1      -3.253  49.793 -22.732  1.00  0.00    -0.032 C 
HETATM   25  C29 UNL     1      -2.622  48.561 -23.445  1.00  0.00     0.016 C 
HETATM   26  C30 UNL     1      -1.327  52.604 -24.827  1.00  0.00     0.017 C 
ENDROOT
BRANCH   4  27
HETATM   27  C8  UNL     1      -1.300  51.028 -26.971  1.00  0.00     0.149 C 
HETATM   28  O1  UNL     1      -0.463  50.255 -26.522  1.00  0.00    -0.649 OA
BRANCH  27  29
HETATM   29  O2  UNL     1      -1.796  50.800 -28.196  1.00  0.00    -0.776 OA
HETATM   30  H11 UNL     1      -1.328  49.992 -28.493  1.00  0.00     0.167 HD
ENDBRANCH  27  29
ENDBRANCH   4  27
BRANCH   1  31
HETATM   31  C2  UNL     1       0.734  54.123 -24.135  1.00  0.00    -0.088 C 
HETATM   32  C1  UNL     1       1.290  53.807 -22.953  1.00  0.00     0.014 C 
HETATM   33  C3  UNL     1       0.701  55.561 -24.589  1.00  0.00     0.043 C 
ENDBRANCH   1  31
BRANCH  19  34
HETATM   34  C24 UNL     1      -6.178  48.290 -18.355  1.00  0.00     0.181 C 
BRANCH  34  35
HETATM   35  O4  UNL     1      -6.466  47.860 -17.032  1.00  0.00    -0.400 OA
HETATM   36  H37 UNL     1      -6.539  46.890 -17.026  1.00  0.00     0.209 HD
ENDBRANCH  34  35
ENDBRANCH  19  34
TORSDOF 5
ENDMDL
MODEL 8
REMARK minimizedAffinity -8.52081871
REMARK  5 active torsions:
REMARK  status: ('A' for Active; 'I' for Inactive)
REMARK    1  A    between atoms: C2_2  and  C4_4 
REMARK    2  A    between atoms: C7_7  and  C8_8 
REMARK    3  A    between atoms: C8_8  and  O2_10 
REMARK    4  A    between atoms: C22_25  and  C24_27 
REMARK    5  A    between atoms: C24_27  and  O4_28 
ROOT
HETATM    1  C4  UNL     1      -5.881  48.158 -23.334  1.00  0.00     0.019 C 
HETATM    2  C5  UNL     1      -5.865  48.224 -24.886  1.00  0.00     0.011 C 
HETATM    3  C6  UNL     1      -4.429  48.584 -25.306  1.00  0.00     0.021 C 
HETATM    4  C7  UNL     1      -3.849  49.290 -24.077  1.00  0.00     0.050 C 
HETATM    5  C9  UNL     1      -2.315  49.294 -23.991  1.00  0.00     0.022 C 
HETATM    6  C10 UNL     1      -1.847  49.807 -22.611  1.00  0.00     0.011 C 
HETATM    7  C11 UNL     1      -2.449  49.036 -21.383  1.00  0.00    -0.032 C 
HETATM    8  C12 UNL     1      -1.801  47.611 -21.429  1.00  0.00     0.016 C 
HETATM    9  C13 UNL     1      -4.020  48.932 -21.555  1.00  0.00     0.000 C 
HETATM   10  C14 UNL     1      -4.671  48.181 -20.388  1.00  0.00     0.006 C 
HETATM   11  C15 UNL     1      -4.336  48.810 -19.032  1.00  0.00     0.006 C 
HETATM   12  C16 UNL     1      -2.816  48.952 -18.798  1.00  0.00     0.003 C 
HETATM   13  C17 UNL     1      -2.419  49.323 -17.304  1.00  0.00    -0.035 C 
HETATM   14  C18 UNL     1      -3.106  50.616 -16.805  1.00  0.00     0.016 C 
HETATM   15  C19 UNL     1      -2.920  48.162 -16.367  1.00  0.00     0.017 C 
HETATM   16  C20 UNL     1      -2.048  47.871 -15.149  1.00  0.00     0.080 C 
HETATM   17  C21 UNL     1      -1.274  49.090 -14.725  1.00  0.00     0.137 C 
HETATM   18  O3  UNL     1      -1.437  49.582 -13.608  1.00  0.00    -0.297 OA
HETATM   19  C22 UNL     1      -0.287  49.662 -15.752  1.00  0.00     0.042 C 
HETATM   20  C23 UNL     1      -0.055  51.156 -15.450  1.00  0.00     0.026 C 
HETATM   21  C25 UNL     1      -0.853  49.390 -17.199  1.00  0.00     0.012 C 
HETATM   22  C26 UNL     1      -0.236  50.302 -18.276  1.00  0.00     0.007 C 
HETATM   23  C27 UNL     1      -0.602  49.838 -19.688  1.00  0.00     0.011 C 
HETATM   24  C28 UNL     1      -2.129  49.774 -19.963  1.00  0.00    -0.032 C 
HETATM   25  C29 UNL     1      -2.642  51.244 -20.005  1.00  0.00     0.016 C 
HETATM   26  C30 UNL     1      -4.399  48.385 -22.950  1.00  0.00     0.017 C 
ENDROOT
BRANCH   4  27
HETATM   27  C8  UNL     1      -4.310  50.754 -24.158  1.00  0.00     0.149 C 
HETATM   28  O1  UNL     1      -4.703  51.425 -23.213  1.00  0.00    -0.649 OA
BRANCH  27  29
HETATM   29  O2  UNL     1      -4.234  51.326 -25.368  1.00  0.00    -0.776 OA
HETATM   30  H11 UNL     1      -4.546  52.243 -25.214  1.00  0.00     0.167 HD
ENDBRANCH  27  29
ENDBRANCH   4  27
BRANCH   1  31
HETATM   31  C2  UNL     1      -6.593  46.897 -22.863  1.00  0.00    -0.088 C 
HETATM   32  C1  UNL     1      -7.619  46.299 -23.493  1.00  0.00     0.014 C 
HETATM   33  C3  UNL     1      -6.062  46.319 -21.575  1.00  0.00     0.043 C 
ENDBRANCH   1  31
BRANCH  19  34
HETATM   34  C24 UNL     1       1.049  48.889 -15.595  1.00  0.00     0.181 C 
BRANCH  34  35
HETATM   35  O4  UNL     1       0.881  47.493 -15.395  1.00  0.00    -0.400 OA
HETATM   36  H37 UNL     1       0.431  47.349 -14.544  1.00  0.00     0.209 HD
ENDBRANCH  34  35
ENDBRANCH  19  34
TORSDOF 5
ENDMDL
MODEL 9
REMARK minimizedAffinity -8.50945568
REMARK  5 active torsions:
REMARK  status: ('A' for Active; 'I' for Inactive)
REMARK    1  A    between atoms: C2_2  and  C4_4 
REMARK    2  A    between atoms: C7_7  and  C8_8 
REMARK    3  A    between atoms: C8_8  and  O2_10 
REMARK    4  A    between atoms: C22_25  and  C24_27 
REMARK    5  A    between atoms: C24_27  and  O4_28 
ROOT
HETATM    1  C4  UNL     1      -5.767  47.617 -26.936  1.00  0.00     0.019 C 
HETATM    2  C5  UNL     1      -7.095  47.512 -27.736  1.00  0.00     0.011 C 
HETATM    3  C6  UNL     1      -8.223  47.976 -26.798  1.00  0.00     0.021 C 
HETATM    4  C7  UNL     1      -7.657  47.747 -25.394  1.00  0.00     0.050 C 
HETATM    5  C9  UNL     1      -8.310  48.582 -24.283  1.00  0.00     0.022 C 
HETATM    6  C10 UNL     1      -7.512  48.459 -22.967  1.00  0.00     0.011 C 
HETATM    7  C11 UNL     1      -5.990  48.824 -23.083  1.00  0.00    -0.032 C 
HETATM    8  C12 UNL     1      -5.951  50.370 -23.335  1.00  0.00     0.016 C 
HETATM    9  C13 UNL     1      -5.363  48.049 -24.314  1.00  0.00     0.000 C 
HETATM   10  C14 UNL     1      -3.874  48.369 -24.488  1.00  0.00     0.006 C 
HETATM   11  C15 UNL     1      -3.065  48.076 -23.221  1.00  0.00     0.006 C 
HETATM   12  C16 UNL     1      -3.625  48.793 -21.974  1.00  0.00     0.003 C 
HETATM   13  C17 UNL     1      -2.659  48.755 -20.712  1.00  0.00    -0.035 C 
HETATM   14  C18 UNL     1      -2.264  47.316 -20.303  1.00  0.00     0.016 C 
HETATM   15  C19 UNL     1      -1.323  49.490 -21.101  1.00  0.00     0.017 C 
HETATM   16  C20 UNL     1      -0.636  50.255 -19.974  1.00  0.00     0.080 C 
HETATM   17  C21 UNL     1      -0.974  49.671 -18.628  1.00  0.00     0.137 C 
HETATM   18  O3  UNL     1      -0.092  49.212 -17.902  1.00  0.00    -0.297 OA
HETATM   19  C22 UNL     1      -2.456  49.690 -18.231  1.00  0.00     0.042 C 
HETATM   20  C23 UNL     1      -2.714  48.576 -17.197  1.00  0.00     0.026 C 
HETATM   21  C25 UNL     1      -3.330  49.555 -19.538  1.00  0.00     0.012 C 
HETATM   22  C26 UNL     1      -4.770  49.087 -19.262  1.00  0.00     0.007 C 
HETATM   23  C27 UNL     1      -5.657  49.222 -20.503  1.00  0.00     0.011 C 
HETATM   24  C28 UNL     1      -5.148  48.434 -21.740  1.00  0.00    -0.032 C 
HETATM   25  C29 UNL     1      -5.337  46.921 -21.420  1.00  0.00     0.016 C 
HETATM   26  C30 UNL     1      -6.207  48.249 -25.593  1.00  0.00     0.017 C 
ENDROOT
BRANCH   4  27
HETATM   27  C8  UNL     1      -7.900  46.267 -25.063  1.00  0.00     0.149 C 
HETATM   28  O1  UNL     1      -8.050  45.372 -25.885  1.00  0.00    -0.649 OA
BRANCH  27  29
HETATM   29  O2  UNL     1      -7.913  45.952 -23.760  1.00  0.00    -0.776 OA
HETATM   30  H11 UNL     1      -8.060  44.983 -23.753  1.00  0.00     0.167 HD
ENDBRANCH  27  29
ENDBRANCH   4  27
BRANCH   1  31
HETATM   31  C2  UNL     1      -4.696  48.305 -27.773  1.00  0.00    -0.088 C 
HETATM   32  C1  UNL     1      -4.863  48.772 -29.021  1.00  0.00     0.014 C 
HETATM   33  C3  UNL     1      -3.356  48.438 -27.092  1.00  0.00     0.043 C 
ENDBRANCH   1  31
BRANCH  19  34
HETATM   34  C24 UNL     1      -2.748  51.072 -17.587  1.00  0.00     0.181 C 
BRANCH  34  35
HETATM   35  O4  UNL     1      -2.719  52.150 -18.511  1.00  0.00    -0.400 OA
HETATM   36  H37 UNL     1      -1.813  52.244 -18.856  1.00  0.00     0.209 HD
ENDBRANCH  34  35
ENDBRANCH  19  34
TORSDOF 5
ENDMDL
