MODEL 1
REMARK minimizedAffinity -9.49318981
REMARK  5 active torsions:
REMARK  status: ('A' for Active; 'I' for Inactive)
REMARK       I    between atoms: C1_2  and  N1_3 
REMARK       I    between atoms: C1_2  and  N2_11 
REMARK    1  A    between atoms: N1_3  and  C2_4 
REMARK    2  A    between atoms: C2_4  and  C3_5 
REMARK    3  A    between atoms: N2_11  and  C9_12 
REMARK    4  A    between atoms: C9_12  and  C10_13 
REMARK    5  A    between atoms: C13_17  and  C14_18 
ROOT
HETATM    1  C10 UNL     1      -4.061  49.929 -23.209  1.00  0.00     0.158 C 
HETATM    2  C11 UNL     1      -3.311  49.021 -24.182  1.00  0.00     0.163 C 
HETATM    3  N3  UNL     1      -4.264  48.575 -25.172  1.00  0.00    -0.340 N 
HETATM    4  C12 UNL     1      -4.115  48.413 -26.512  1.00  0.00     0.122 A 
HETATM    5  C13 UNL     1      -5.365  48.027 -26.956  1.00  0.00     0.059 A 
HETATM    6  N4  UNL     1      -6.254  47.977 -25.896  1.00  0.00    -0.342 N 
ATOM      7  H4  UNL     1      -7.242  47.727 -25.933  1.00  0.00     0.167 HD
HETATM    8  C23 UNL     1      -5.560  48.319 -24.829  1.00  0.00     0.108 A 
HETATM    9  C24 UNL     1      -6.005  48.407 -23.410  1.00  0.00     0.245 C 
HETATM   10  O4  UNL     1      -5.206  49.304 -22.607  1.00  0.00    -0.375 OA
ENDROOT
BRANCH   1  11
HETATM   11  C9  UNL     1      -3.152  50.491 -22.094  1.00  0.00     0.157 C 
BRANCH  11  12
HETATM   12  N2  UNL     1      -1.801  50.891 -22.486  1.00  0.00    -0.341 N 
HETATM   13  C1  UNL     1      -1.566  52.022 -23.229  1.00  0.00     0.316 C 
HETATM   14  O1  UNL     1      -2.412  52.854 -23.513  1.00  0.00    -0.247 OA
HETATM   15  N1  UNL     1      -0.239  52.148 -23.550  1.00  0.00    -0.339 N 
HETATM   16  H1  UNL     1       0.357  51.341 -23.474  1.00  0.00     0.164 HD
HETATM   17  H9  UNL     1      -1.176  50.128 -22.703  1.00  0.00     0.164 HD
BRANCH  15  18
HETATM   18  C2  UNL     1       0.230  53.231 -24.386  1.00  0.00     0.162 C 
BRANCH  18  19
HETATM   19  C3  UNL     1       0.613  52.728 -25.753  1.00  0.00    -0.040 A 
HETATM   20  C4  UNL     1       1.745  51.916 -25.917  1.00  0.00     0.009 A 
HETATM   21  C5  UNL     1       2.111  51.454 -27.185  1.00  0.00     0.001 A 
HETATM   22  C6  UNL     1       1.357  51.809 -28.301  1.00  0.00     0.000 A 
HETATM   23  C7  UNL     1       0.237  52.627 -28.152  1.00  0.00     0.001 A 
HETATM   24  C8  UNL     1      -0.134  53.087 -26.884  1.00  0.00     0.009 A 
ENDBRANCH  18  19
ENDBRANCH  15  18
ENDBRANCH  11  12
ENDBRANCH   1  11
BRANCH   5  25
HETATM   25  C14 UNL     1      -5.742  47.691 -28.323  1.00  0.00    -0.005 A 
HETATM   26  C15 UNL     1      -6.747  46.738 -28.544  1.00  0.00     0.017 A 
HETATM   27  C16 UNL     1      -7.125  46.383 -29.842  1.00  0.00     0.040 A 
HETATM   28  C17 UNL     1      -6.511  46.981 -30.942  1.00  0.00     0.102 A 
HETATM   29  O2  UNL     1      -6.990  46.576 -32.163  1.00  0.00    -0.348 OA
HETATM   30  C21 UNL     1      -5.478  47.906 -30.738  1.00  0.00     0.102 A 
HETATM   31  C18 UNL     1      -7.023  47.625 -33.131  1.00  0.00     0.178 C 
HETATM   32  C19 UNL     1      -5.684  47.770 -33.838  1.00  0.00     0.053 C 
HETATM   33  C20 UNL     1      -4.522  47.692 -32.866  1.00  0.00     0.178 C 
HETATM   34  O3  UNL     1      -4.749  48.520 -31.726  1.00  0.00    -0.348 OA
HETATM   35  C22 UNL     1      -5.122  48.276 -29.434  1.00  0.00     0.053 A 
ENDBRANCH   5  25
TORSDOF 5
ENDMDL
MODEL 2
REMARK minimizedAffinity -9.21633244
REMARK  5 active torsions:
REMARK  status: ('A' for Active; 'I' for Inactive)
REMARK       I    between atoms: C1_2  and  N1_3 
REMARK       I    between atoms: C1_2  and  N2_11 
REMARK    1  A    between atoms: N1_3  and  C2_4 
REMARK    2  A    between atoms: C2_4  and  C3_5 
REMARK    3  A    between atoms: N2_11  and  C9_12 
REMARK    4  A    between atoms: C9_12  and  C10_13 
REMARK    5  A    between atoms: C13_17  and  C14_18 
ROOT
HETATM    1  C10 UNL     1      -0.112  51.884 -14.007  1.00  0.00     0.158 C 
HETATM    2  C11 UNL     1       1.129  52.130 -14.864  1.00  0.00     0.163 C 
HETATM    3  N3  UNL     1       0.754  51.890 -16.238  1.00  0.00    -0.340 N 
HETATM    4  C12 UNL     1       1.102  52.563 -17.365  1.00  0.00     0.122 A 
HETATM    5  C13 UNL     1       0.405  51.931 -18.377  1.00  0.00     0.059 A 
HETATM    6  N4  UNL     1      -0.365  50.905 -17.856  1.00  0.00    -0.342 N 
ATOM      7  H4  UNL     1      -0.981  50.276 -18.371  1.00  0.00     0.167 HD
HETATM    8  C23 UNL     1      -0.137  50.907 -16.558  1.00  0.00     0.108 A 
HETATM    9  C24 UNL     1      -0.679  49.998 -15.509  1.00  0.00     0.245 C 
HETATM   10  O4  UNL     1      -0.684  50.578 -14.186  1.00  0.00    -0.375 OA
ENDROOT
BRANCH   1  11
HETATM   11  C9  UNL     1       0.145  52.118 -12.502  1.00  0.00     0.157 C 
BRANCH  11  12
HETATM   12  N2  UNL     1       1.326  52.903 -12.151  1.00  0.00    -0.341 N 
HETATM   13  C1  UNL     1       1.281  53.897 -11.203  1.00  0.00     0.316 C 
HETATM   14  O1  UNL     1       0.323  54.129 -10.485  1.00  0.00    -0.247 OA
HETATM   15  N1  UNL     1       2.480  54.554 -11.104  1.00  0.00    -0.339 N 
HETATM   16  H1  UNL     1       3.147  54.464 -11.852  1.00  0.00     0.164 HD
HETATM   17  H9  UNL     1       1.949  53.107 -12.919  1.00  0.00     0.164 HD
BRANCH  15  18
HETATM   18  C2  UNL     1       2.645  55.683 -10.214  1.00  0.00     0.162 C 
BRANCH  18  19
HETATM   19  C3  UNL     1       3.991  55.643  -9.539  1.00  0.00    -0.040 A 
HETATM   20  C4  UNL     1       5.062  54.961 -10.134  1.00  0.00     0.009 A 
HETATM   21  C5  UNL     1       6.311  54.911  -9.507  1.00  0.00     0.001 A 
HETATM   22  C6  UNL     1       6.497  55.534  -8.275  1.00  0.00     0.000 A 
HETATM   23  C7  UNL     1       5.436  56.205  -7.667  1.00  0.00     0.001 A 
HETATM   24  C8  UNL     1       4.188  56.259  -8.294  1.00  0.00     0.009 A 
ENDBRANCH  18  19
ENDBRANCH  15  18
ENDBRANCH  11  12
ENDBRANCH   1  11
BRANCH   5  25
HETATM   25  C14 UNL     1       0.450  52.244 -19.799  1.00  0.00    -0.005 A 
HETATM   26  C15 UNL     1       1.147  53.382 -20.230  1.00  0.00     0.017 A 
HETATM   27  C16 UNL     1       1.201  53.720 -21.585  1.00  0.00     0.040 A 
HETATM   28  C17 UNL     1       0.567  52.920 -22.535  1.00  0.00     0.102 A 
HETATM   29  O2  UNL     1       0.719  53.335 -23.834  1.00  0.00    -0.348 OA
HETATM   30  C21 UNL     1      -0.166  51.801 -22.116  1.00  0.00     0.102 A 
HETATM   31  C18 UNL     1       0.832  52.254 -24.760  1.00  0.00     0.178 C 
HETATM   32  C19 UNL     1      -0.535  51.757 -25.204  1.00  0.00     0.053 C 
HETATM   33  C20 UNL     1      -1.498  51.639 -24.037  1.00  0.00     0.178 C 
HETATM   34  O3  UNL     1      -0.889  50.968 -22.935  1.00  0.00    -0.348 OA
HETATM   35  C22 UNL     1      -0.196  51.455 -20.759  1.00  0.00     0.053 A 
ENDBRANCH   5  25
TORSDOF 5
ENDMDL
MODEL 3
REMARK minimizedAffinity -9.10385418
REMARK  5 active torsions:
REMARK  status: ('A' for Active; 'I' for Inactive)
REMARK       I    between atoms: C1_2  and  N1_3 
REMARK       I    between atoms: C1_2  and  N2_11 
REMARK    1  A    between atoms: N1_3  and  C2_4 
REMARK    2  A    between atoms: C2_4  and  C3_5 
REMARK    3  A    between atoms: N2_11  and  C9_12 
REMARK    4  A    between atoms: C9_12  and  C10_13 
REMARK    5  A    between atoms: C13_17  and  C14_18 
ROOT
HETATM    1  C10 UNL     1       0.255  51.316 -17.023  1.00  0.00     0.158 C 
HETATM    2  C11 UNL     1      -0.997  51.461 -17.888  1.00  0.00     0.163 C 
HETATM    3  N3  UNL     1      -0.555  51.724 -19.238  1.00  0.00    -0.340 N 
HETATM    4  C12 UNL     1      -1.042  51.262 -20.418  1.00  0.00     0.122 A 
HETATM    5  C13 UNL     1      -0.197  51.791 -21.374  1.00  0.00     0.059 A 
HETATM    6  N4  UNL     1       0.794  52.546 -20.770  1.00  0.00    -0.342 N 
ATOM      7  H4  UNL     1       1.553  53.047 -21.231  1.00  0.00     0.167 HD
HETATM    8  C23 UNL     1       0.554  52.483 -19.475  1.00  0.00     0.108 A 
HETATM    9  C24 UNL     1       1.289  53.132 -18.353  1.00  0.00     0.245 C 
HETATM   10  O4  UNL     1       1.133  52.451 -17.088  1.00  0.00    -0.375 OA
ENDROOT
BRANCH   1  11
HETATM   11  C9  UNL     1      -0.072  51.018 -15.543  1.00  0.00     0.157 C 
BRANCH  11  12
HETATM   12  N2  UNL     1       0.806  51.618 -14.541  1.00  0.00    -0.341 N 
HETATM   13  C1  UNL     1       0.314  52.181 -13.389  1.00  0.00     0.316 C 
HETATM   14  O1  UNL     1      -0.850  52.120 -13.029  1.00  0.00    -0.247 OA
HETATM   15  N1  UNL     1       1.310  52.757 -12.643  1.00  0.00    -0.339 N 
HETATM   16  H1  UNL     1       2.192  52.958 -13.084  1.00  0.00     0.164 HD
HETATM   17  H9  UNL     1       1.613  52.099 -14.912  1.00  0.00     0.164 HD
BRANCH  15  18
HETATM   18  C2  UNL     1       1.014  53.468 -11.419  1.00  0.00     0.162 C 
BRANCH  18  19
HETATM   19  C3  UNL     1       2.233  54.195 -10.911  1.00  0.00    -0.040 A 
HETATM   20  C4  UNL     1       2.237  55.595 -10.826  1.00  0.00     0.009 A 
HETATM   21  C5  UNL     1       3.368  56.276 -10.367  1.00  0.00     0.001 A 
HETATM   22  C6  UNL     1       4.508  55.565  -9.997  1.00  0.00     0.000 A 
HETATM   23  C7  UNL     1       4.519  54.173 -10.089  1.00  0.00     0.001 A 
HETATM   24  C8  UNL     1       3.388  53.490 -10.546  1.00  0.00     0.009 A 
ENDBRANCH  18  19
ENDBRANCH  15  18
ENDBRANCH  11  12
ENDBRANCH   1  11
BRANCH   5  25
HETATM   25  C14 UNL     1      -0.299  51.628 -22.818  1.00  0.00    -0.005 A 
HETATM   26  C15 UNL     1      -1.356  50.877 -23.352  1.00  0.00     0.017 A 
HETATM   27  C16 UNL     1      -1.478  50.689 -24.731  1.00  0.00     0.040 A 
HETATM   28  C17 UNL     1      -0.550  51.258 -25.603  1.00  0.00     0.102 A 
HETATM   29  O2  UNL     1      -0.793  51.032 -26.935  1.00  0.00    -0.348 OA
HETATM   30  C21 UNL     1       0.534  51.979 -25.083  1.00  0.00     0.102 A 
HETATM   31  C18 UNL     1      -0.451  52.142 -27.765  1.00  0.00     0.178 C 
HETATM   32  C19 UNL     1       1.020  52.114 -28.152  1.00  0.00     0.053 C 
HETATM   33  C20 UNL     1       1.907  51.769 -26.970  1.00  0.00     0.178 C 
HETATM   34  O3  UNL     1       1.551  52.535 -25.820  1.00  0.00    -0.348 OA
HETATM   35  C22 UNL     1       0.636  52.183 -23.701  1.00  0.00     0.053 A 
ENDBRANCH   5  25
TORSDOF 5
ENDMDL
MODEL 4
REMARK minimizedAffinity -8.95704174
REMARK  5 active torsions:
REMARK  status: ('A' for Active; 'I' for Inactive)
REMARK       I    between atoms: C1_2  and  N1_3 
REMARK       I    between atoms: C1_2  and  N2_11 
REMARK    1  A    between atoms: N1_3  and  C2_4 
REMARK    2  A    between atoms: C2_4  and  C3_5 
REMARK    3  A    between atoms: N2_11  and  C9_12 
REMARK    4  A    between atoms: C9_12  and  C10_13 
REMARK    5  A    between atoms: C13_17  and  C14_18 
ROOT
HETATM    1  C10 UNL     1      -2.956  50.346 -17.482  1.00  0.00     0.158 C 
HETATM    2  C11 UNL     1      -1.576  50.033 -18.059  1.00  0.00     0.163 C 
HETATM    3  N3  UNL     1      -1.634  50.303 -19.477  1.00  0.00    -0.340 N 
HETATM    4  C12 UNL     1      -0.712  50.877 -20.292  1.00  0.00     0.122 A 
HETATM    5  C13 UNL     1      -1.327  50.933 -21.528  1.00  0.00     0.059 A 
HETATM    6  N4  UNL     1      -2.608  50.415 -21.447  1.00  0.00    -0.342 N 
ATOM      7  H4  UNL     1      -3.289  50.335 -22.203  1.00  0.00     0.167 HD
HETATM    8  C23 UNL     1      -2.768  50.046 -20.192  1.00  0.00     0.108 A 
HETATM    9  C24 UNL     1      -3.946  49.400 -19.547  1.00  0.00     0.245 C 
HETATM   10  O4  UNL     1      -4.022  49.625 -18.122  1.00  0.00    -0.375 OA
ENDROOT
BRANCH   1  11
HETATM   11  C9  UNL     1      -3.034  50.111 -15.958  1.00  0.00     0.157 C 
BRANCH  11  12
HETATM   12  N2  UNL     1      -3.175  51.296 -15.116  1.00  0.00    -0.341 N 
HETATM   13  C1  UNL     1      -3.081  51.229 -13.746  1.00  0.00     0.316 C 
HETATM   14  O1  UNL     1      -2.747  50.236 -13.121  1.00  0.00    -0.247 OA
HETATM   15  N1  UNL     1      -3.333  52.443 -13.163  1.00  0.00    -0.339 N 
HETATM   16  H1  UNL     1      -3.801  53.153 -13.702  1.00  0.00     0.164 HD
HETATM   17  H9  UNL     1      -3.848  51.974 -15.440  1.00  0.00     0.164 HD
BRANCH  15  18
HETATM   18  C2  UNL     1      -3.354  52.594 -11.724  1.00  0.00     0.162 C 
BRANCH  18  19
HETATM   19  C3  UNL     1      -2.163  53.385 -11.249  1.00  0.00    -0.040 A 
HETATM   20  C4  UNL     1      -2.340  54.498 -10.414  1.00  0.00     0.009 A 
HETATM   21  C5  UNL     1      -1.240  55.242  -9.978  1.00  0.00     0.001 A 
HETATM   22  C6  UNL     1       0.046  54.886 -10.379  1.00  0.00     0.000 A 
HETATM   23  C7  UNL     1       0.233  53.788 -11.219  1.00  0.00     0.001 A 
HETATM   24  C8  UNL     1      -0.866  53.041 -11.654  1.00  0.00     0.009 A 
ENDBRANCH  18  19
ENDBRANCH  15  18
ENDBRANCH  11  12
ENDBRANCH   1  11
BRANCH   5  25
HETATM   25  C14 UNL     1      -0.752  51.434 -22.769  1.00  0.00    -0.005 A 
HETATM   26  C15 UNL     1       0.101  52.546 -22.731  1.00  0.00     0.017 A 
HETATM   27  C16 UNL     1       0.660  53.061 -23.904  1.00  0.00     0.040 A 
HETATM   28  C17 UNL     1       0.384  52.468 -25.135  1.00  0.00     0.102 A 
HETATM   29  O2  UNL     1       1.017  53.041 -26.209  1.00  0.00    -0.348 OA
HETATM   30  C21 UNL     1      -0.498  51.379 -25.194  1.00  0.00     0.102 A 
HETATM   31  C18 UNL     1       1.415  52.093 -27.199  1.00  0.00     0.178 C 
HETATM   32  C19 UNL     1       0.285  51.800 -28.174  1.00  0.00     0.053 C 
HETATM   33  C20 UNL     1      -1.042  51.617 -27.461  1.00  0.00     0.178 C 
HETATM   34  O3  UNL     1      -0.906  50.743 -26.340  1.00  0.00    -0.348 OA
HETATM   35  C22 UNL     1      -1.036  50.853 -24.012  1.00  0.00     0.053 A 
ENDBRANCH   5  25
TORSDOF 5
ENDMDL
MODEL 5
REMARK minimizedAffinity -8.92989063
REMARK  5 active torsions:
REMARK  status: ('A' for Active; 'I' for Inactive)
REMARK       I    between atoms: C1_2  and  N1_3 
REMARK       I    between atoms: C1_2  and  N2_11 
REMARK    1  A    between atoms: N1_3  and  C2_4 
REMARK    2  A    between atoms: C2_4  and  C3_5 
REMARK    3  A    between atoms: N2_11  and  C9_12 
REMARK    4  A    between atoms: C9_12  and  C10_13 
REMARK    5  A    between atoms: C13_17  and  C14_18 
ROOT
HETATM    1  C10 UNL     1      -4.172  48.081 -22.709  1.00  0.00     0.158 C 
HETATM    2  C11 UNL     1      -5.441  48.545 -23.423  1.00  0.00     0.163 C 
HETATM    3  N3  UNL     1      -5.205  48.416 -24.842  1.00  0.00    -0.340 N 
HETATM    4  C12 UNL     1      -6.037  47.992 -25.827  1.00  0.00     0.122 A 
HETATM    5  C13 UNL     1      -5.263  48.018 -26.971  1.00  0.00     0.059 A 
HETATM    6  N4  UNL     1      -3.978  48.434 -26.668  1.00  0.00    -0.342 N 
ATOM      7  H4  UNL     1      -3.197  48.542 -27.316  1.00  0.00     0.167 HD
HETATM    8  C23 UNL     1      -3.971  48.664 -25.370  1.00  0.00     0.108 A 
HETATM    9  C24 UNL     1      -2.859  49.158 -24.511  1.00  0.00     0.245 C 
HETATM   10  O4  UNL     1      -2.991  48.786 -23.121  1.00  0.00    -0.375 OA
ENDROOT
BRANCH   1  11
HETATM   11  C9  UNL     1      -4.291  48.156 -21.171  1.00  0.00     0.157 C 
BRANCH  11  12
HETATM   12  N2  UNL     1      -3.121  48.641 -20.443  1.00  0.00    -0.341 N 
HETATM   13  C1  UNL     1      -3.039  49.931 -19.978  1.00  0.00     0.316 C 
HETATM   14  O1  UNL     1      -3.955  50.737 -20.001  1.00  0.00    -0.247 OA
HETATM   15  N1  UNL     1      -1.819  50.185 -19.406  1.00  0.00    -0.339 N 
HETATM   16  H1  UNL     1      -1.051  49.565 -19.604  1.00  0.00     0.164 HD
HETATM   17  H9  UNL     1      -2.237  48.270 -20.759  1.00  0.00     0.164 HD
BRANCH  15  18
HETATM   18  C2  UNL     1      -1.485  51.501 -18.906  1.00  0.00     0.162 C 
BRANCH  18  19
HETATM   19  C3  UNL     1      -0.538  52.207 -19.841  1.00  0.00    -0.040 A 
HETATM   20  C4  UNL     1      -0.300  51.696 -21.126  1.00  0.00     0.009 A 
HETATM   21  C5  UNL     1       0.586  52.340 -21.995  1.00  0.00     0.001 A 
HETATM   22  C6  UNL     1       1.249  53.495 -21.585  1.00  0.00     0.000 A 
HETATM   23  C7  UNL     1       1.029  54.005 -20.305  1.00  0.00     0.001 A 
HETATM   24  C8  UNL     1       0.142  53.364 -19.436  1.00  0.00     0.009 A 
ENDBRANCH  18  19
ENDBRANCH  15  18
ENDBRANCH  11  12
ENDBRANCH   1  11
BRANCH   5  25
HETATM   25  C14 UNL     1      -5.689  47.685 -28.324  1.00  0.00    -0.005 A 
HETATM   26  C15 UNL     1      -6.720  46.752 -28.510  1.00  0.00     0.017 A 
HETATM   27  C16 UNL     1      -7.146  46.400 -29.793  1.00  0.00     0.040 A 
HETATM   28  C17 UNL     1      -6.555  46.982 -30.915  1.00  0.00     0.102 A 
HETATM   29  O2  UNL     1      -7.080  46.582 -32.118  1.00  0.00    -0.348 OA
HETATM   30  C21 UNL     1      -5.498  47.887 -30.747  1.00  0.00     0.102 A 
HETATM   31  C18 UNL     1      -7.122  47.629 -33.089  1.00  0.00     0.178 C 
HETATM   32  C19 UNL     1      -5.804  47.744 -33.838  1.00  0.00     0.053 C 
HETATM   33  C20 UNL     1      -4.613  47.645 -32.903  1.00  0.00     0.178 C 
HETATM   34  O3  UNL     1      -4.787  48.482 -31.760  1.00  0.00    -0.348 OA
HETATM   35  C22 UNL     1      -5.092  48.253 -29.457  1.00  0.00     0.053 A 
ENDBRANCH   5  25
TORSDOF 5
ENDMDL
MODEL 6
REMARK minimizedAffinity -8.89054203
REMARK  5 active torsions:
REMARK  status: ('A' for Active; 'I' for Inactive)
REMARK       I    between atoms: C1_2  and  N1_3 
REMARK       I    between atoms: C1_2  and  N2_11 
REMARK    1  A    between atoms: N1_3  and  C2_4 
REMARK    2  A    between atoms: C2_4  and  C3_5 
REMARK    3  A    between atoms: N2_11  and  C9_12 
REMARK    4  A    between atoms: C9_12  and  C10_13 
REMARK    5  A    between atoms: C13_17  and  C14_18 
ROOT
HETATM    1  C10 UNL     1       0.497  51.307 -17.408  1.00  0.00     0.158 C 
HETATM    2  C11 UNL     1      -0.790  51.284 -18.231  1.00  0.00     0.163 C 
HETATM    3  N3  UNL     1      -0.435  51.624 -19.589  1.00  0.00    -0.340 N 
HETATM    4  C12 UNL     1      -0.891  51.111 -20.761  1.00  0.00     0.122 A 
HETATM    5  C13 UNL     1      -0.161  51.767 -21.734  1.00  0.00     0.059 A 
HETATM    6  N4  UNL     1       0.733  52.647 -21.148  1.00  0.00    -0.342 N 
ATOM      7  H4  UNL     1       1.398  53.256 -21.624  1.00  0.00     0.167 HD
HETATM    8  C23 UNL     1       0.547  52.535 -19.848  1.00  0.00     0.108 A 
HETATM    9  C24 UNL     1       1.219  53.267 -18.738  1.00  0.00     0.245 C 
HETATM   10  O4  UNL     1       1.203  52.556 -17.481  1.00  0.00    -0.375 OA
ENDROOT
BRANCH   1  11
HETATM   11  C9  UNL     1       0.264  50.948 -15.924  1.00  0.00     0.157 C 
BRANCH  11  12
HETATM   12  N2  UNL     1       0.753  51.901 -14.931  1.00  0.00    -0.341 N 
HETATM   13  C1  UNL     1       0.632  51.670 -13.582  1.00  0.00     0.316 C 
HETATM   14  O1  UNL     1       0.244  50.623 -13.089  1.00  0.00    -0.247 OA
HETATM   15  N1  UNL     1       1.079  52.736 -12.845  1.00  0.00    -0.339 N 
HETATM   16  H1  UNL     1       1.183  53.630 -13.297  1.00  0.00     0.164 HD
HETATM   17  H9  UNL     1       0.649  52.873 -15.184  1.00  0.00     0.164 HD
BRANCH  15  18
HETATM   18  C2  UNL     1       0.986  52.742 -11.401  1.00  0.00     0.162 C 
BRANCH  18  19
HETATM   19  C3  UNL     1      -0.274  53.430 -10.946  1.00  0.00    -0.040 A 
HETATM   20  C4  UNL     1      -1.493  52.737 -10.929  1.00  0.00     0.009 A 
HETATM   21  C5  UNL     1      -2.668  53.373 -10.518  1.00  0.00     0.001 A 
HETATM   22  C6  UNL     1      -2.637  54.711 -10.129  1.00  0.00     0.000 A 
HETATM   23  C7  UNL     1      -1.432  55.414 -10.153  1.00  0.00     0.001 A 
HETATM   24  C8  UNL     1      -0.256  54.779 -10.561  1.00  0.00     0.009 A 
ENDBRANCH  18  19
ENDBRANCH  15  18
ENDBRANCH  11  12
ENDBRANCH   1  11
BRANCH   5  25
HETATM   25  C14 UNL     1      -0.286  51.609 -23.177  1.00  0.00    -0.005 A 
HETATM   26  C15 UNL     1      -1.345  50.850 -23.696  1.00  0.00     0.017 A 
HETATM   27  C16 UNL     1      -1.489  50.667 -25.074  1.00  0.00     0.040 A 
HETATM   28  C17 UNL     1      -0.581  51.247 -25.959  1.00  0.00     0.102 A 
HETATM   29  O2  UNL     1      -0.845  51.026 -27.287  1.00  0.00    -0.348 OA
HETATM   30  C21 UNL     1       0.505  51.976 -25.454  1.00  0.00     0.102 A 
HETATM   31  C18 UNL     1      -0.527  52.142 -28.118  1.00  0.00     0.178 C 
HETATM   32  C19 UNL     1       0.937  52.129 -28.530  1.00  0.00     0.053 C 
HETATM   33  C20 UNL     1       1.847  51.786 -27.366  1.00  0.00     0.178 C 
HETATM   34  O3  UNL     1       1.504  52.544 -26.206  1.00  0.00    -0.348 OA
HETATM   35  C22 UNL     1       0.629  52.176 -24.073  1.00  0.00     0.053 A 
ENDBRANCH   5  25
TORSDOF 5
ENDMDL
MODEL 7
REMARK minimizedAffinity -8.87737274
REMARK  5 active torsions:
REMARK  status: ('A' for Active; 'I' for Inactive)
REMARK       I    between atoms: C1_2  and  N1_3 
REMARK       I    between atoms: C1_2  and  N2_11 
REMARK    1  A    between atoms: N1_3  and  C2_4 
REMARK    2  A    between atoms: C2_4  and  C3_5 
REMARK    3  A    between atoms: N2_11  and  C9_12 
REMARK    4  A    between atoms: C9_12  and  C10_13 
REMARK    5  A    between atoms: C13_17  and  C14_18 
ROOT
HETATM    1  C10 UNL     1      -3.076  50.657 -21.935  1.00  0.00     0.158 C 
HETATM    2  C11 UNL     1      -3.293  51.421 -20.629  1.00  0.00     0.163 C 
HETATM    3  N3  UNL     1      -2.274  50.983 -19.704  1.00  0.00    -0.340 N 
HETATM    4  C12 UNL     1      -1.550  51.698 -18.805  1.00  0.00     0.122 A 
HETATM    5  C13 UNL     1      -0.689  50.776 -18.241  1.00  0.00     0.059 A 
HETATM    6  N4  UNL     1      -0.884  49.530 -18.810  1.00  0.00    -0.342 N 
ATOM      7  H4  UNL     1      -0.385  48.668 -18.590  1.00  0.00     0.167 HD
HETATM    8  C23 UNL     1      -1.847  49.687 -19.696  1.00  0.00     0.108 A 
HETATM    9  C24 UNL     1      -2.481  48.670 -20.582  1.00  0.00     0.245 C 
HETATM   10  O4  UNL     1      -3.078  49.230 -21.773  1.00  0.00    -0.375 OA
ENDROOT
BRANCH   1  11
HETATM   11  C9  UNL     1      -4.098  51.040 -23.028  1.00  0.00     0.157 C 
BRANCH  11  12
HETATM   12  N2  UNL     1      -3.634  51.949 -24.074  1.00  0.00    -0.341 N 
HETATM   13  C1  UNL     1      -3.128  51.487 -25.265  1.00  0.00     0.316 C 
HETATM   14  O1  UNL     1      -3.140  50.319 -25.618  1.00  0.00    -0.247 OA
HETATM   15  N1  UNL     1      -2.676  52.514 -26.053  1.00  0.00    -0.339 N 
HETATM   16  H1  UNL     1      -2.501  53.410 -25.630  1.00  0.00     0.164 HD
HETATM   17  H9  UNL     1      -3.180  52.787 -23.741  1.00  0.00     0.164 HD
BRANCH  15  18
HETATM   18  C2  UNL     1      -2.041  52.257 -27.327  1.00  0.00     0.162 C 
BRANCH  18  19
HETATM   19  C3  UNL     1      -0.559  52.050 -27.157  1.00  0.00    -0.040 A 
HETATM   20  C4  UNL     1       0.010  52.028 -25.875  1.00  0.00     0.009 A 
HETATM   21  C5  UNL     1       1.386  51.846 -25.710  1.00  0.00     0.001 A 
HETATM   22  C6  UNL     1       2.208  51.695 -26.826  1.00  0.00     0.000 A 
HETATM   23  C7  UNL     1       1.655  51.728 -28.106  1.00  0.00     0.001 A 
HETATM   24  C8  UNL     1       0.278  51.906 -28.272  1.00  0.00     0.009 A 
ENDBRANCH  18  19
ENDBRANCH  15  18
ENDBRANCH  11  12
ENDBRANCH   1  11
BRANCH   5  25
HETATM   25  C14 UNL     1       0.286  51.022 -17.186  1.00  0.00    -0.005 A 
HETATM   26  C15 UNL     1       1.093  52.167 -17.249  1.00  0.00     0.017 A 
HETATM   27  C16 UNL     1       2.047  52.428 -16.262  1.00  0.00     0.040 A 
HETATM   28  C17 UNL     1       2.206  51.552 -15.188  1.00  0.00     0.102 A 
HETATM   29  O2  UNL     1       3.149  51.931 -14.267  1.00  0.00    -0.348 OA
HETATM   30  C21 UNL     1       1.434  50.383 -15.132  1.00  0.00     0.102 A 
HETATM   31  C18 UNL     1       2.789  51.602 -12.925  1.00  0.00     0.178 C 
HETATM   32  C19 UNL     1       3.193  50.178 -12.576  1.00  0.00     0.053 C 
HETATM   33  C20 UNL     1       2.862  49.207 -13.694  1.00  0.00     0.178 C 
HETATM   34  O3  UNL     1       1.532  49.407 -14.170  1.00  0.00    -0.348 OA
HETATM   35  C22 UNL     1       0.463  50.141 -16.111  1.00  0.00     0.053 A 
ENDBRANCH   5  25
TORSDOF 5
ENDMDL
MODEL 8
REMARK minimizedAffinity -8.82656574
REMARK  5 active torsions:
REMARK  status: ('A' for Active; 'I' for Inactive)
REMARK       I    between atoms: C1_2  and  N1_3 
REMARK       I    between atoms: C1_2  and  N2_11 
REMARK    1  A    between atoms: N1_3  and  C2_4 
REMARK    2  A    between atoms: C2_4  and  C3_5 
REMARK    3  A    between atoms: N2_11  and  C9_12 
REMARK    4  A    between atoms: C9_12  and  C10_13 
REMARK    5  A    between atoms: C13_17  and  C14_18 
ROOT
HETATM    1  C10 UNL     1      -2.068  50.839 -24.467  1.00  0.00     0.158 C 
HETATM    2  C11 UNL     1      -1.687  50.348 -25.863  1.00  0.00     0.163 C 
HETATM    3  N3  UNL     1      -2.789  49.554 -26.352  1.00  0.00    -0.340 N 
HETATM    4  C12 UNL     1      -3.329  49.488 -27.597  1.00  0.00     0.122 A 
HETATM    5  C13 UNL     1      -4.391  48.613 -27.469  1.00  0.00     0.059 A 
HETATM    6  N4  UNL     1      -4.494  48.177 -26.159  1.00  0.00    -0.342 N 
ATOM      7  H4  UNL     1      -5.187  47.531 -25.779  1.00  0.00     0.167 HD
HETATM    8  C23 UNL     1      -3.514  48.767 -25.505  1.00  0.00     0.108 A 
HETATM    9  C24 UNL     1      -3.134  48.639 -24.071  1.00  0.00     0.245 C 
HETATM   10  O4  UNL     1      -2.410  49.779 -23.559  1.00  0.00    -0.375 OA
ENDROOT
BRANCH   1  11
HETATM   11  C9  UNL     1      -0.975  51.720 -23.824  1.00  0.00     0.157 C 
BRANCH  11  12
HETATM   12  N2  UNL     1      -1.126  52.025 -22.403  1.00  0.00    -0.341 N 
HETATM   13  C1  UNL     1      -0.079  52.490 -21.645  1.00  0.00     0.316 C 
HETATM   14  O1  UNL     1       1.009  52.817 -22.090  1.00  0.00    -0.247 OA
HETATM   15  N1  UNL     1      -0.430  52.621 -20.326  1.00  0.00    -0.339 N 
HETATM   16  H1  UNL     1      -1.251  52.145 -19.992  1.00  0.00     0.164 HD
HETATM   17  H9  UNL     1      -1.747  51.409 -21.897  1.00  0.00     0.164 HD
BRANCH  15  18
HETATM   18  C2  UNL     1       0.536  53.034 -19.331  1.00  0.00     0.162 C 
BRANCH  18  19
HETATM   19  C3  UNL     1       0.580  52.056 -18.186  1.00  0.00    -0.040 A 
HETATM   20  C4  UNL     1      -0.149  50.860 -18.249  1.00  0.00     0.009 A 
HETATM   21  C5  UNL     1      -0.121  49.952 -17.186  1.00  0.00     0.001 A 
HETATM   22  C6  UNL     1       0.628  50.237 -16.047  1.00  0.00     0.000 A 
HETATM   23  C7  UNL     1       1.348  51.429 -15.967  1.00  0.00     0.001 A 
HETATM   24  C8  UNL     1       1.323  52.336 -17.031  1.00  0.00     0.009 A 
ENDBRANCH  18  19
ENDBRANCH  15  18
ENDBRANCH  11  12
ENDBRANCH   1  11
BRANCH   5  25
HETATM   25  C14 UNL     1      -5.289  48.167 -28.526  1.00  0.00    -0.005 A 
HETATM   26  C15 UNL     1      -6.445  47.449 -28.189  1.00  0.00     0.017 A 
HETATM   27  C16 UNL     1      -7.321  46.995 -29.178  1.00  0.00     0.040 A 
HETATM   28  C17 UNL     1      -7.062  47.258 -30.523  1.00  0.00     0.102 A 
HETATM   29  O2  UNL     1      -8.011  46.792 -31.397  1.00  0.00    -0.348 OA
HETATM   30  C21 UNL     1      -5.890  47.941 -30.879  1.00  0.00     0.102 A 
HETATM   31  C18 UNL     1      -8.224  47.658 -32.512  1.00  0.00     0.178 C 
HETATM   32  C19 UNL     1      -7.229  47.380 -33.629  1.00  0.00     0.053 C 
HETATM   33  C20 UNL     1      -5.822  47.186 -33.096  1.00  0.00     0.178 C 
HETATM   34  O3  UNL     1      -5.481  48.210 -32.162  1.00  0.00    -0.348 OA
HETATM   35  C22 UNL     1      -5.029  48.415 -29.881  1.00  0.00     0.053 A 
ENDBRANCH   5  25
TORSDOF 5
ENDMDL
MODEL 9
REMARK minimizedAffinity -8.80901051
REMARK  5 active torsions:
REMARK  status: ('A' for Active; 'I' for Inactive)
REMARK       I    between atoms: C1_2  and  N1_3 
REMARK       I    between atoms: C1_2  and  N2_11 
REMARK    1  A    between atoms: N1_3  and  C2_4 
REMARK    2  A    between atoms: C2_4  and  C3_5 
REMARK    3  A    between atoms: N2_11  and  C9_12 
REMARK    4  A    between atoms: C9_12  and  C10_13 
REMARK    5  A    between atoms: C13_17  and  C14_18 
ROOT
HETATM    1  C10 UNL     1       0.484  52.826 -22.627  1.00  0.00     0.158 C 
HETATM    2  C11 UNL     1       0.807  53.864 -21.552  1.00  0.00     0.163 C 
HETATM    3  N3  UNL     1       0.742  53.191 -20.276  1.00  0.00    -0.340 N 
HETATM    4  C12 UNL     1       1.539  53.319 -19.184  1.00  0.00     0.122 A 
HETATM    5  C13 UNL     1       1.048  52.391 -18.285  1.00  0.00     0.059 A 
HETATM    6  N4  UNL     1      -0.018  51.706 -18.842  1.00  0.00    -0.342 N 
ATOM      7  H4  UNL     1      -0.567  50.964 -18.406  1.00  0.00     0.167 HD
HETATM    8  C23 UNL     1      -0.177  52.208 -20.050  1.00  0.00     0.108 A 
HETATM    9  C24 UNL     1      -1.194  51.863 -21.082  1.00  0.00     0.245 C 
HETATM   10  O4  UNL     1      -0.778  52.170 -22.431  1.00  0.00    -0.375 OA
ENDROOT
BRANCH   1  11
HETATM   11  C9  UNL     1       0.530  53.412 -24.056  1.00  0.00     0.157 C 
BRANCH  11  12
HETATM   12  N2  UNL     1      -0.703  53.339 -24.836  1.00  0.00    -0.341 N 
HETATM   13  C1  UNL     1      -0.914  52.353 -25.770  1.00  0.00     0.316 C 
HETATM   14  O1  UNL     1      -0.182  51.392 -25.942  1.00  0.00    -0.247 OA
HETATM   15  N1  UNL     1      -2.097  52.536 -26.439  1.00  0.00    -0.339 N 
HETATM   16  H1  UNL     1      -2.539  53.439 -26.405  1.00  0.00     0.164 HD
HETATM   17  H9  UNL     1      -1.098  54.231 -25.097  1.00  0.00     0.164 HD
BRANCH  15  18
HETATM   18  C2  UNL     1      -2.494  51.654 -27.514  1.00  0.00     0.162 C 
BRANCH  18  19
HETATM   19  C3  UNL     1      -3.288  50.487 -26.987  1.00  0.00    -0.040 A 
HETATM   20  C4  UNL     1      -3.602  50.404 -25.622  1.00  0.00     0.009 A 
HETATM   21  C5  UNL     1      -4.329  49.318 -25.125  1.00  0.00     0.001 A 
HETATM   22  C6  UNL     1      -4.741  48.302 -25.984  1.00  0.00     0.000 A 
HETATM   23  C7  UNL     1      -4.425  48.368 -27.341  1.00  0.00     0.001 A 
HETATM   24  C8  UNL     1      -3.700  49.455 -27.841  1.00  0.00     0.009 A 
ENDBRANCH  18  19
ENDBRANCH  15  18
ENDBRANCH  11  12
ENDBRANCH   1  11
BRANCH   5  25
HETATM   25  C14 UNL     1       1.530  52.144 -16.932  1.00  0.00    -0.005 A 
HETATM   26  C15 UNL     1       2.854  52.471 -16.604  1.00  0.00     0.017 A 
HETATM   27  C16 UNL     1       3.353  52.236 -15.320  1.00  0.00     0.040 A 
HETATM   28  C17 UNL     1       2.535  51.679 -14.338  1.00  0.00     0.102 A 
HETATM   29  O2  UNL     1       3.127  51.527 -13.109  1.00  0.00    -0.348 OA
HETATM   30  C21 UNL     1       1.221  51.311 -14.662  1.00  0.00     0.102 A 
HETATM   31  C18 UNL     1       2.231  51.758 -12.021  1.00  0.00     0.178 C 
HETATM   32  C19 UNL     1       1.451  50.502 -11.668  1.00  0.00     0.053 C 
HETATM   33  C20 UNL     1       0.947  49.784 -12.906  1.00  0.00     0.178 C 
HETATM   34  O3  UNL     1       0.332  50.697 -13.814  1.00  0.00    -0.348 OA
HETATM   35  C22 UNL     1       0.720  51.572 -15.943  1.00  0.00     0.053 A 
ENDBRANCH   5  25
TORSDOF 5
ENDMDL
