MODEL 1
REMARK minimizedAffinity -8.27970219
REMARK  13 active torsions:
REMARK  status: ('A' for Active; 'I' for Inactive)
REMARK    1  A    between atoms: C4_4  and  C5_5 
REMARK    2  A    between atoms: C5_5  and  C6_6 
REMARK    3  A    between atoms: C6_6  and  C7_7 
REMARK    4  A    between atoms: C9_9  and  C10_10 
REMARK    5  A    between atoms: C11_11  and  C12_12 
REMARK    6  A    between atoms: C14_14  and  C15_15 
REMARK    7  A    between atoms: C18_18  and  O1_19 
REMARK    8  A    between atoms: C19_21  and  C20_22 
REMARK    9  A    between atoms: C20_22  and  C21_23 
REMARK   10  A    between atoms: C21_23  and  C22_24 
REMARK   11  A    between atoms: C22_24  and  O3_25 
REMARK   12  A    between atoms: C24_27  and  C26_29 
REMARK   13  A    between atoms: C29_33  and  O5_35 
ROOT
HETATM    1  C15 UNL     1      -1.688   9.564  16.563  1.00  0.00     0.149 C 
HETATM    2  C16 UNL     1      -1.378   8.399  15.618  1.00  0.00     0.054 C 
HETATM    3  C17 UNL     1      -1.840   8.878  14.214  1.00  0.00     0.050 C 
HETATM    4  C18 UNL     1      -1.612  10.389  14.396  1.00  0.00     0.270 C 
HETATM    5  O2  UNL     1      -1.968  10.705  15.741  1.00  0.00    -0.351 OA
HETATM    6  C19 UNL     1      -0.911   8.223  13.107  1.00  0.00     0.032 C 
HETATM    7  C23 UNL     1      -1.186   6.705  13.049  1.00  0.00    -0.066 C 
HETATM    8  C24 UNL     1      -0.241   5.744  13.199  1.00  0.00    -0.021 C 
HETATM    9  C25 UNL     1      -0.513   4.267  13.196  1.00  0.00     0.052 C 
HETATM   10  C27 UNL     1      -2.638   6.378  12.769  1.00  0.00     0.038 C 
HETATM   11  C28 UNL     1      -3.574   7.013  13.790  1.00  0.00     0.042 C 
HETATM   12  C29 UNL     1      -3.364   8.536  13.957  1.00  0.00     0.067 C 
HETATM   13  C30 UNL     1      -4.370   9.024  15.015  1.00  0.00     0.047 C 
ENDROOT
BRANCH   4  14
HETATM   14  O1  UNL     1      -0.242  10.739  14.288  1.00  0.00    -0.370 OA
HETATM   15  H26 UNL     1      -0.229  11.697  14.463  1.00  0.00     0.212 HD
ENDBRANCH   4  14
BRANCH   6  16
HETATM   16  C20 UNL     1      -0.968   8.757  11.648  1.00  0.00     0.012 C 
BRANCH  16  17
HETATM   17  C21 UNL     1       0.287   8.621  10.780  1.00  0.00     0.027 C 
BRANCH  17  18
HETATM   18  C22 UNL     1       0.042   8.148   9.350  1.00  0.00     0.164 C 
BRANCH  18  19
HETATM   19  O3  UNL     1      -0.473   9.201   8.548  1.00  0.00    -0.401 OA
HETATM   20  H34 UNL     1      -1.449   9.190   8.672  1.00  0.00     0.209 HD
ENDBRANCH  18  19
ENDBRANCH  17  18
ENDBRANCH  16  17
ENDBRANCH   6  16
BRANCH  12  21
HETATM   21  O5  UNL     1      -3.769   9.178  12.739  1.00  0.00    -0.389 OA
HETATM   22  H46 UNL     1      -4.704   8.966  12.568  1.00  0.00     0.210 HD
ENDBRANCH  12  21
BRANCH   1  23
HETATM   23  C14 UNL     1      -0.548   9.905  17.483  1.00  0.00     0.011 C 
HETATM   24  C12 UNL     1      -0.499  10.834  18.463  1.00  0.00    -0.063 C 
HETATM   25  C13 UNL     1      -1.642  11.751  18.820  1.00  0.00     0.048 C 
BRANCH  24  26
HETATM   26  C11 UNL     1       0.736  10.957  19.243  1.00  0.00     0.006 C 
HETATM   27  C10 UNL     1       0.927  10.537  20.505  1.00  0.00     0.001 C 
BRANCH  27  28
HETATM   28  C9  UNL     1       2.201  10.652  21.183  1.00  0.00     0.002 C 
HETATM   29  C7  UNL     1       2.772   9.727  21.981  1.00  0.00    -0.084 C 
HETATM   30  C8  UNL     1       2.125   8.433  22.403  1.00  0.00     0.043 C 
BRANCH  29  31
HETATM   31  C6  UNL     1       4.163   9.969  22.550  1.00  0.00     0.037 C 
BRANCH  31  32
HETATM   32  C5  UNL     1       4.470  11.439  22.888  1.00  0.00     0.031 C 
BRANCH  32  33
HETATM   33  C4  UNL     1       5.945  11.730  22.992  1.00  0.00    -0.024 C 
HETATM   34  C2  UNL     1       6.566  12.927  23.021  1.00  0.00    -0.091 C 
HETATM   35  C1  UNL     1       5.890  14.268  22.954  1.00  0.00     0.042 C 
HETATM   36  C3  UNL     1       8.067  13.002  23.139  1.00  0.00     0.042 C 
ENDBRANCH  32  33
ENDBRANCH  31  32
ENDBRANCH  29  31
ENDBRANCH  27  28
ENDBRANCH  24  26
ENDBRANCH   1  23
BRANCH   8  37
HETATM   37  C26 UNL     1       1.208   6.078  13.340  1.00  0.00     0.265 C 
HETATM   38  O4  UNL     1       1.975   6.170  12.389  1.00  0.00    -0.302 OA
ENDBRANCH   8  37
TORSDOF 13
ENDMDL
MODEL 2
REMARK minimizedAffinity -7.92121553
REMARK  13 active torsions:
REMARK  status: ('A' for Active; 'I' for Inactive)
REMARK    1  A    between atoms: C4_4  and  C5_5 
REMARK    2  A    between atoms: C5_5  and  C6_6 
REMARK    3  A    between atoms: C6_6  and  C7_7 
REMARK    4  A    between atoms: C9_9  and  C10_10 
REMARK    5  A    between atoms: C11_11  and  C12_12 
REMARK    6  A    between atoms: C14_14  and  C15_15 
REMARK    7  A    between atoms: C18_18  and  O1_19 
REMARK    8  A    between atoms: C19_21  and  C20_22 
REMARK    9  A    between atoms: C20_22  and  C21_23 
REMARK   10  A    between atoms: C21_23  and  C22_24 
REMARK   11  A    between atoms: C22_24  and  O3_25 
REMARK   12  A    between atoms: C24_27  and  C26_29 
REMARK   13  A    between atoms: C29_33  and  O5_35 
ROOT
HETATM    1  C15 UNL     1       0.758   6.094  10.913  1.00  0.00     0.149 C 
HETATM    2  C16 UNL     1       1.772   6.547  11.968  1.00  0.00     0.054 C 
HETATM    3  C17 UNL     1       2.501   7.766  11.338  1.00  0.00     0.050 C 
HETATM    4  C18 UNL     1       1.359   8.286  10.448  1.00  0.00     0.270 C 
HETATM    5  O2  UNL     1       0.673   7.143   9.938  1.00  0.00    -0.351 OA
HETATM    6  C19 UNL     1       2.921   8.774  12.489  1.00  0.00     0.032 C 
HETATM    7  C23 UNL     1       4.030   8.129  13.348  1.00  0.00    -0.066 C 
HETATM    8  C24 UNL     1       3.962   7.955  14.690  1.00  0.00    -0.021 C 
HETATM    9  C25 UNL     1       5.016   7.280  15.521  1.00  0.00     0.052 C 
HETATM   10  C27 UNL     1       5.245   7.727  12.538  1.00  0.00     0.038 C 
HETATM   11  C28 UNL     1       4.887   6.781  11.399  1.00  0.00     0.042 C 
HETATM   12  C29 UNL     1       3.756   7.313  10.487  1.00  0.00     0.067 C 
HETATM   13  C30 UNL     1       3.509   6.253   9.399  1.00  0.00     0.047 C 
ENDROOT
BRANCH   4  14
HETATM   14  O1  UNL     1       0.383   8.997  11.191  1.00  0.00    -0.370 OA
HETATM   15  H26 UNL     1      -0.293   9.230  10.530  1.00  0.00     0.212 HD
ENDBRANCH   4  14
BRANCH   6  16
HETATM   16  C20 UNL     1       3.404  10.203  12.112  1.00  0.00     0.012 C 
BRANCH  16  17
HETATM   17  C21 UNL     1       4.350  10.923  13.079  1.00  0.00     0.027 C 
BRANCH  17  18
HETATM   18  C22 UNL     1       5.713  11.295  12.502  1.00  0.00     0.164 C 
BRANCH  18  19
HETATM   19  O3  UNL     1       5.806  10.915  11.136  1.00  0.00    -0.401 OA
HETATM   20  H34 UNL     1       6.108   9.978  11.130  1.00  0.00     0.209 HD
ENDBRANCH  18  19
ENDBRANCH  17  18
ENDBRANCH  16  17
ENDBRANCH   6  16
BRANCH  12  21
HETATM   21  O5  UNL     1       4.256   8.458   9.780  1.00  0.00    -0.389 OA
HETATM   22  H46 UNL     1       5.034   8.191   9.259  1.00  0.00     0.210 HD
ENDBRANCH  12  21
BRANCH   1  23
HETATM   23  C14 UNL     1      -0.616   5.848  11.472  1.00  0.00     0.011 C 
HETATM   24  C12 UNL     1      -1.194   4.676  11.814  1.00  0.00    -0.063 C 
HETATM   25  C13 UNL     1      -0.527   3.330  11.678  1.00  0.00     0.048 C 
BRANCH  24  26
HETATM   26  C11 UNL     1      -2.553   4.705  12.365  1.00  0.00     0.006 C 
HETATM   27  C10 UNL     1      -3.615   4.026  11.900  1.00  0.00     0.001 C 
BRANCH  27  28
HETATM   28  C9  UNL     1      -4.913   4.072  12.540  1.00  0.00     0.002 C 
HETATM   29  C7  UNL     1      -5.921   3.192  12.375  1.00  0.00    -0.084 C 
HETATM   30  C8  UNL     1      -5.915   2.046  11.396  1.00  0.00     0.043 C 
BRANCH  29  31
HETATM   31  C6  UNL     1      -7.197   3.336  13.192  1.00  0.00     0.037 C 
BRANCH  31  32
HETATM   32  C5  UNL     1      -8.072   4.543  12.806  1.00  0.00     0.031 C 
BRANCH  32  33
HETATM   33  C4  UNL     1      -7.957   5.694  13.773  1.00  0.00    -0.024 C 
HETATM   34  C2  UNL     1      -8.882   6.623  14.089  1.00  0.00    -0.091 C 
HETATM   35  C1  UNL     1     -10.272   6.705  13.522  1.00  0.00     0.042 C 
HETATM   36  C3  UNL     1      -8.567   7.697  15.099  1.00  0.00     0.042 C 
ENDBRANCH  32  33
ENDBRANCH  31  32
ENDBRANCH  29  31
ENDBRANCH  27  28
ENDBRANCH  24  26
ENDBRANCH   1  23
BRANCH   8  37
HETATM   37  C26 UNL     1       2.817   8.476  15.496  1.00  0.00     0.265 C 
HETATM   38  O4  UNL     1       2.464   7.985  16.562  1.00  0.00    -0.302 OA
ENDBRANCH   8  37
TORSDOF 13
ENDMDL
MODEL 3
REMARK minimizedAffinity -7.83054256
REMARK  13 active torsions:
REMARK  status: ('A' for Active; 'I' for Inactive)
REMARK    1  A    between atoms: C4_4  and  C5_5 
REMARK    2  A    between atoms: C5_5  and  C6_6 
REMARK    3  A    between atoms: C6_6  and  C7_7 
REMARK    4  A    between atoms: C9_9  and  C10_10 
REMARK    5  A    between atoms: C11_11  and  C12_12 
REMARK    6  A    between atoms: C14_14  and  C15_15 
REMARK    7  A    between atoms: C18_18  and  O1_19 
REMARK    8  A    between atoms: C19_21  and  C20_22 
REMARK    9  A    between atoms: C20_22  and  C21_23 
REMARK   10  A    between atoms: C21_23  and  C22_24 
REMARK   11  A    between atoms: C22_24  and  O3_25 
REMARK   12  A    between atoms: C24_27  and  C26_29 
REMARK   13  A    between atoms: C29_33  and  O5_35 
ROOT
HETATM    1  C15 UNL     1      -2.029   9.571  16.239  1.00  0.00     0.149 C 
HETATM    2  C16 UNL     1      -1.578   8.431  15.321  1.00  0.00     0.054 C 
HETATM    3  C17 UNL     1      -2.065   8.832  13.901  1.00  0.00     0.050 C 
HETATM    4  C18 UNL     1      -2.006  10.362  14.058  1.00  0.00     0.270 C 
HETATM    5  O2  UNL     1      -2.417  10.661  15.391  1.00  0.00    -0.351 OA
HETATM    6  C19 UNL     1      -1.050   8.263  12.821  1.00  0.00     0.032 C 
HETATM    7  C23 UNL     1      -1.158   6.723  12.788  1.00  0.00    -0.066 C 
HETATM    8  C24 UNL     1      -0.116   5.875  12.971  1.00  0.00    -0.021 C 
HETATM    9  C25 UNL     1      -0.226   4.377  12.992  1.00  0.00     0.052 C 
HETATM   10  C27 UNL     1      -2.560   6.235  12.493  1.00  0.00     0.038 C 
HETATM   11  C28 UNL     1      -3.577   6.782  13.486  1.00  0.00     0.042 C 
HETATM   12  C29 UNL     1      -3.537   8.322  13.628  1.00  0.00     0.067 C 
HETATM   13  C30 UNL     1      -4.609   8.714  14.660  1.00  0.00     0.047 C 
ENDROOT
BRANCH   4  14
HETATM   14  O1  UNL     1      -0.681  10.858  13.964  1.00  0.00    -0.370 OA
HETATM   15  H26 UNL     1      -0.775  11.814  14.121  1.00  0.00     0.212 HD
ENDBRANCH   4  14
BRANCH   6  16
HETATM   16  C20 UNL     1      -1.141   8.763  11.352  1.00  0.00     0.012 C 
BRANCH  16  17
HETATM   17  C21 UNL     1      -0.101   8.249  10.350  1.00  0.00     0.027 C 
BRANCH  17  18
HETATM   18  C22 UNL     1      -0.317   8.687   8.905  1.00  0.00     0.164 C 
BRANCH  18  19
HETATM   19  O3  UNL     1       0.923   8.940   8.260  1.00  0.00    -0.401 OA
HETATM   20  H34 UNL     1       1.153   9.875   8.462  1.00  0.00     0.209 HD
ENDBRANCH  18  19
ENDBRANCH  17  18
ENDBRANCH  16  17
ENDBRANCH   6  16
BRANCH  12  21
HETATM   21  O5  UNL     1      -3.989   8.894  12.391  1.00  0.00    -0.389 OA
HETATM   22  H46 UNL     1      -4.893   8.578  12.211  1.00  0.00     0.210 HD
ENDBRANCH  12  21
BRANCH   1  23
HETATM   23  C14 UNL     1      -0.949  10.051  17.170  1.00  0.00     0.011 C 
HETATM   24  C12 UNL     1      -1.003  11.034  18.094  1.00  0.00    -0.063 C 
HETATM   25  C13 UNL     1      -2.222  11.880  18.363  1.00  0.00     0.048 C 
BRANCH  24  26
HETATM   26  C11 UNL     1       0.194  11.297  18.900  1.00  0.00     0.006 C 
HETATM   27  C10 UNL     1       0.383  10.944  20.183  1.00  0.00     0.001 C 
BRANCH  27  28
HETATM   28  C9  UNL     1       1.621  11.197  20.889  1.00  0.00     0.002 C 
HETATM   29  C7  UNL     1       2.119  12.403  21.229  1.00  0.00    -0.084 C 
HETATM   30  C8  UNL     1       1.519  13.727  20.833  1.00  0.00     0.043 C 
BRANCH  29  31
HETATM   31  C6  UNL     1       3.397  12.493  22.052  1.00  0.00     0.037 C 
BRANCH  31  32
HETATM   32  C5  UNL     1       4.322  11.268  21.932  1.00  0.00     0.031 C 
BRANCH  32  33
HETATM   33  C4  UNL     1       3.582   9.956  21.990  1.00  0.00    -0.024 C 
HETATM   34  C2  UNL     1       2.958   9.388  23.042  1.00  0.00    -0.091 C 
HETATM   35  C1  UNL     1       2.867   9.968  24.426  1.00  0.00     0.042 C 
HETATM   36  C3  UNL     1       2.262   8.060  22.887  1.00  0.00     0.042 C 
ENDBRANCH  32  33
ENDBRANCH  31  32
ENDBRANCH  29  31
ENDBRANCH  27  28
ENDBRANCH  24  26
ENDBRANCH   1  23
BRANCH   8  37
HETATM   37  C26 UNL     1       1.285   6.367  13.128  1.00  0.00     0.265 C 
HETATM   38  O4  UNL     1       2.110   6.353  12.222  1.00  0.00    -0.302 OA
ENDBRANCH   8  37
TORSDOF 13
ENDMDL
MODEL 4
REMARK minimizedAffinity -7.80387735
REMARK  13 active torsions:
REMARK  status: ('A' for Active; 'I' for Inactive)
REMARK    1  A    between atoms: C4_4  and  C5_5 
REMARK    2  A    between atoms: C5_5  and  C6_6 
REMARK    3  A    between atoms: C6_6  and  C7_7 
REMARK    4  A    between atoms: C9_9  and  C10_10 
REMARK    5  A    between atoms: C11_11  and  C12_12 
REMARK    6  A    between atoms: C14_14  and  C15_15 
REMARK    7  A    between atoms: C18_18  and  O1_19 
REMARK    8  A    between atoms: C19_21  and  C20_22 
REMARK    9  A    between atoms: C20_22  and  C21_23 
REMARK   10  A    between atoms: C21_23  and  C22_24 
REMARK   11  A    between atoms: C22_24  and  O3_25 
REMARK   12  A    between atoms: C24_27  and  C26_29 
REMARK   13  A    between atoms: C29_33  and  O5_35 
ROOT
HETATM    1  C15 UNL     1       0.452   8.756  14.396  1.00  0.00     0.149 C 
HETATM    2  C16 UNL     1       1.670   8.736  13.467  1.00  0.00     0.054 C 
HETATM    3  C17 UNL     1       2.903   8.851  14.406  1.00  0.00     0.050 C 
HETATM    4  C18 UNL     1       2.312   8.166  15.651  1.00  0.00     0.270 C 
HETATM    5  O2  UNL     1       0.941   8.552  15.729  1.00  0.00    -0.351 OA
HETATM    6  C19 UNL     1       4.123   8.065  13.764  1.00  0.00     0.032 C 
HETATM    7  C23 UNL     1       4.597   8.812  12.499  1.00  0.00    -0.066 C 
HETATM    8  C24 UNL     1       4.690   8.255  11.266  1.00  0.00    -0.021 C 
HETATM    9  C25 UNL     1       5.099   8.992  10.023  1.00  0.00     0.052 C 
HETATM   10  C27 UNL     1       4.989  10.248  12.773  1.00  0.00     0.038 C 
HETATM   11  C28 UNL     1       3.858  11.037  13.419  1.00  0.00     0.042 C 
HETATM   12  C29 UNL     1       3.279  10.363  14.685  1.00  0.00     0.067 C 
HETATM   13  C30 UNL     1       2.154  11.270  15.213  1.00  0.00     0.047 C 
ENDROOT
BRANCH   4  14
HETATM   14  O1  UNL     1       2.288   6.754  15.522  1.00  0.00    -0.370 OA
HETATM   15  H26 UNL     1       1.860   6.450  16.342  1.00  0.00     0.212 HD
ENDBRANCH   4  14
BRANCH   6  16
HETATM   16  C20 UNL     1       5.383   7.777  14.628  1.00  0.00     0.012 C 
BRANCH  16  17
HETATM   17  C21 UNL     1       6.563   7.059  13.964  1.00  0.00     0.027 C 
BRANCH  17  18
HETATM   18  C22 UNL     1       7.865   7.854  13.914  1.00  0.00     0.164 C 
BRANCH  18  19
HETATM   19  O3  UNL     1       8.132   8.308  12.595  1.00  0.00    -0.401 OA
HETATM   20  H34 UNL     1       8.613   7.578  12.144  1.00  0.00     0.209 HD
ENDBRANCH  18  19
ENDBRANCH  17  18
ENDBRANCH  16  17
ENDBRANCH   6  16
BRANCH  12  21
HETATM   21  O5  UNL     1       4.287  10.394  15.706  1.00  0.00    -0.389 OA
HETATM   22  H46 UNL     1       4.531  11.321  15.879  1.00  0.00     0.210 HD
ENDBRANCH  12  21
BRANCH   1  23
HETATM   23  C14 UNL     1      -0.553   7.681  14.085  1.00  0.00     0.011 C 
HETATM   24  C12 UNL     1      -1.554   7.695  13.179  1.00  0.00    -0.063 C 
HETATM   25  C13 UNL     1      -1.865   8.861  12.274  1.00  0.00     0.048 C 
BRANCH  24  26
HETATM   26  C11 UNL     1      -2.393   6.498  13.051  1.00  0.00     0.006 C 
HETATM   27  C10 UNL     1      -1.962   5.243  12.840  1.00  0.00     0.001 C 
BRANCH  27  28
HETATM   28  C9  UNL     1      -2.859   4.108  12.780  1.00  0.00     0.002 C 
HETATM   29  C7  UNL     1      -3.112   3.341  11.701  1.00  0.00    -0.084 C 
HETATM   30  C8  UNL     1      -2.579   3.598  10.315  1.00  0.00     0.043 C 
BRANCH  29  31
HETATM   31  C6  UNL     1      -4.019   2.125  11.829  1.00  0.00     0.037 C 
BRANCH  31  32
HETATM   32  C5  UNL     1      -5.424   2.310  11.225  1.00  0.00     0.031 C 
BRANCH  32  33
HETATM   33  C4  UNL     1      -6.060   3.627  11.591  1.00  0.00    -0.024 C 
HETATM   34  C2  UNL     1      -6.944   3.889  12.576  1.00  0.00    -0.091 C 
HETATM   35  C1  UNL     1      -7.497   2.885  13.549  1.00  0.00     0.042 C 
HETATM   36  C3  UNL     1      -7.457   5.292  12.783  1.00  0.00     0.042 C 
ENDBRANCH  32  33
ENDBRANCH  31  32
ENDBRANCH  29  31
ENDBRANCH  27  28
ENDBRANCH  24  26
ENDBRANCH   1  23
BRANCH   8  37
HETATM   37  C26 UNL     1       4.428   6.803  11.034  1.00  0.00     0.265 C 
HETATM   38  O4  UNL     1       4.455   6.282   9.925  1.00  0.00    -0.302 OA
ENDBRANCH   8  37
TORSDOF 13
ENDMDL
MODEL 5
REMARK minimizedAffinity -7.67604208
REMARK  13 active torsions:
REMARK  status: ('A' for Active; 'I' for Inactive)
REMARK    1  A    between atoms: C4_4  and  C5_5 
REMARK    2  A    between atoms: C5_5  and  C6_6 
REMARK    3  A    between atoms: C6_6  and  C7_7 
REMARK    4  A    between atoms: C9_9  and  C10_10 
REMARK    5  A    between atoms: C11_11  and  C12_12 
REMARK    6  A    between atoms: C14_14  and  C15_15 
REMARK    7  A    between atoms: C18_18  and  O1_19 
REMARK    8  A    between atoms: C19_21  and  C20_22 
REMARK    9  A    between atoms: C20_22  and  C21_23 
REMARK   10  A    between atoms: C21_23  and  C22_24 
REMARK   11  A    between atoms: C22_24  and  O3_25 
REMARK   12  A    between atoms: C24_27  and  C26_29 
REMARK   13  A    between atoms: C29_33  and  O5_35 
ROOT
HETATM    1  C15 UNL     1       1.002   6.267  11.343  1.00  0.00     0.149 C 
HETATM    2  C16 UNL     1       2.327   6.617  12.027  1.00  0.00     0.054 C 
HETATM    3  C17 UNL     1       2.923   7.785  11.193  1.00  0.00     0.050 C 
HETATM    4  C18 UNL     1       1.607   8.412  10.698  1.00  0.00     0.270 C 
HETATM    5  O2  UNL     1       0.705   7.337  10.436  1.00  0.00    -0.351 OA
HETATM    6  C19 UNL     1       3.761   8.735  12.148  1.00  0.00     0.032 C 
HETATM    7  C23 UNL     1       5.025   7.986  12.624  1.00  0.00    -0.066 C 
HETATM    8  C24 UNL     1       5.363   7.794  13.923  1.00  0.00    -0.021 C 
HETATM    9  C25 UNL     1       6.563   7.021  14.390  1.00  0.00     0.052 C 
HETATM   10  C27 UNL     1       5.891   7.503  11.480  1.00  0.00     0.038 C 
HETATM   11  C28 UNL     1       5.120   6.611  10.516  1.00  0.00     0.042 C 
HETATM   12  C29 UNL     1       3.810   7.248   9.997  1.00  0.00     0.067 C 
HETATM   13  C30 UNL     1       3.151   6.232   9.048  1.00  0.00     0.047 C 
ENDROOT
BRANCH   4  14
HETATM   14  O1  UNL     1       0.973   9.185  11.703  1.00  0.00    -0.370 OA
HETATM   15  H26 UNL     1       0.147   9.485  11.283  1.00  0.00     0.212 HD
ENDBRANCH   4  14
BRANCH   6  16
HETATM   16  C20 UNL     1       4.219  10.127  11.629  1.00  0.00     0.012 C 
BRANCH  16  17
HETATM   17  C21 UNL     1       5.115  10.976  12.537  1.00  0.00     0.027 C 
BRANCH  17  18
HETATM   18  C22 UNL     1       4.711  12.442  12.665  1.00  0.00     0.164 C 
BRANCH  18  19
HETATM   19  O3  UNL     1       5.327  13.228  11.654  1.00  0.00    -0.401 OA
HETATM   20  H34 UNL     1       6.209  13.487  12.006  1.00  0.00     0.209 HD
ENDBRANCH  18  19
ENDBRANCH  17  18
ENDBRANCH  16  17
ENDBRANCH   6  16
BRANCH  12  21
HETATM   21  O5  UNL     1       4.158   8.362   9.161  1.00  0.00    -0.389 OA
HETATM   22  H46 UNL     1       4.711   8.043   8.426  1.00  0.00     0.210 HD
ENDBRANCH  12  21
BRANCH   1  23
HETATM   23  C14 UNL     1      -0.146   6.122  12.304  1.00  0.00     0.011 C 
HETATM   24  C12 UNL     1      -1.226   5.316  12.217  1.00  0.00    -0.063 C 
HETATM   25  C13 UNL     1      -1.491   4.372  11.071  1.00  0.00     0.048 C 
BRANCH  24  26
HETATM   26  C11 UNL     1      -2.204   5.344  13.309  1.00  0.00     0.006 C 
HETATM   27  C10 UNL     1      -3.499   5.690  13.210  1.00  0.00     0.001 C 
BRANCH  27  28
HETATM   28  C9  UNL     1      -4.411   5.638  14.333  1.00  0.00     0.002 C 
HETATM   29  C7  UNL     1      -5.408   6.505  14.598  1.00  0.00    -0.084 C 
HETATM   30  C8  UNL     1      -5.688   7.763  13.817  1.00  0.00     0.043 C 
BRANCH  29  31
HETATM   31  C6  UNL     1      -6.337   6.258  15.779  1.00  0.00     0.037 C 
BRANCH  31  32
HETATM   32  C5  UNL     1      -7.689   5.622  15.407  1.00  0.00     0.031 C 
BRANCH  32  33
HETATM   33  C4  UNL     1      -7.550   4.287  14.720  1.00  0.00    -0.024 C 
HETATM   34  C2  UNL     1      -7.703   3.994  13.413  1.00  0.00    -0.091 C 
HETATM   35  C1  UNL     1      -8.057   4.974  12.329  1.00  0.00     0.042 C 
HETATM   36  C3  UNL     1      -7.508   2.582  12.923  1.00  0.00     0.042 C 
ENDBRANCH  32  33
ENDBRANCH  31  32
ENDBRANCH  29  31
ENDBRANCH  27  28
ENDBRANCH  24  26
ENDBRANCH   1  23
BRANCH   8  37
HETATM   37  C26 UNL     1       4.572   8.391  15.041  1.00  0.00     0.265 C 
HETATM   38  O4  UNL     1       3.784   7.750  15.726  1.00  0.00    -0.302 OA
ENDBRANCH   8  37
TORSDOF 13
ENDMDL
MODEL 6
REMARK minimizedAffinity -7.55388451
REMARK  13 active torsions:
REMARK  status: ('A' for Active; 'I' for Inactive)
REMARK    1  A    between atoms: C4_4  and  C5_5 
REMARK    2  A    between atoms: C5_5  and  C6_6 
REMARK    3  A    between atoms: C6_6  and  C7_7 
REMARK    4  A    between atoms: C9_9  and  C10_10 
REMARK    5  A    between atoms: C11_11  and  C12_12 
REMARK    6  A    between atoms: C14_14  and  C15_15 
REMARK    7  A    between atoms: C18_18  and  O1_19 
REMARK    8  A    between atoms: C19_21  and  C20_22 
REMARK    9  A    between atoms: C20_22  and  C21_23 
REMARK   10  A    between atoms: C21_23  and  C22_24 
REMARK   11  A    between atoms: C22_24  and  O3_25 
REMARK   12  A    between atoms: C24_27  and  C26_29 
REMARK   13  A    between atoms: C29_33  and  O5_35 
ROOT
HETATM    1  C15 UNL     1      -0.077   7.830  15.133  1.00  0.00     0.149 C 
HETATM    2  C16 UNL     1       1.001   7.576  14.074  1.00  0.00     0.054 C 
HETATM    3  C17 UNL     1       0.234   7.455  12.729  1.00  0.00     0.050 C 
HETATM    4  C18 UNL     1      -0.957   8.374  13.056  1.00  0.00     0.270 C 
HETATM    5  O2  UNL     1      -1.281   8.164  14.430  1.00  0.00    -0.351 OA
HETATM    6  C19 UNL     1       1.151   7.995  11.553  1.00  0.00     0.032 C 
HETATM    7  C23 UNL     1       2.336   7.027  11.350  1.00  0.00    -0.066 C 
HETATM    8  C24 UNL     1       3.642   7.387  11.395  1.00  0.00    -0.021 C 
HETATM    9  C25 UNL     1       4.798   6.439  11.250  1.00  0.00     0.052 C 
HETATM   10  C27 UNL     1       1.896   5.608  11.056  1.00  0.00     0.038 C 
HETATM   11  C28 UNL     1       0.984   5.055  12.144  1.00  0.00     0.042 C 
HETATM   12  C29 UNL     1      -0.227   5.965  12.458  1.00  0.00     0.067 C 
HETATM   13  C30 UNL     1      -1.040   5.278  13.569  1.00  0.00     0.047 C 
ENDROOT
BRANCH   4  14
HETATM   14  O1  UNL     1      -0.612   9.746  12.968  1.00  0.00    -0.370 OA
HETATM   15  H26 UNL     1      -1.424  10.211  13.235  1.00  0.00     0.212 HD
ENDBRANCH   4  14
BRANCH   6  16
HETATM   16  C20 UNL     1       0.525   8.256  10.155  1.00  0.00     0.012 C 
BRANCH  16  17
HETATM   17  C21 UNL     1       1.167   7.579   8.939  1.00  0.00     0.027 C 
BRANCH  17  18
HETATM   18  C22 UNL     1       2.039   8.484   8.074  1.00  0.00     0.164 C 
BRANCH  18  19
HETATM   19  O3  UNL     1       2.216   7.931   6.777  1.00  0.00    -0.401 OA
HETATM   20  H34 UNL     1       2.987   7.323   6.840  1.00  0.00     0.209 HD
ENDBRANCH  18  19
ENDBRANCH  17  18
ENDBRANCH  16  17
ENDBRANCH   6  16
BRANCH  12  21
HETATM   21  O5  UNL     1      -1.092   5.964  11.312  1.00  0.00    -0.389 OA
HETATM   22  H46 UNL     1      -1.374   5.049  11.133  1.00  0.00     0.210 HD
ENDBRANCH  12  21
BRANCH   1  23
HETATM   23  C14 UNL     1       0.259   8.958  16.069  1.00  0.00     0.011 C 
HETATM   24  C12 UNL     1      -0.560   9.646  16.894  1.00  0.00    -0.063 C 
HETATM   25  C13 UNL     1      -2.042   9.396  17.021  1.00  0.00     0.048 C 
BRANCH  24  26
HETATM   26  C11 UNL     1       0.023  10.698  17.733  1.00  0.00     0.006 C 
HETATM   27  C10 UNL     1      -0.297  10.968  19.010  1.00  0.00     0.001 C 
BRANCH  27  28
HETATM   28  C9  UNL     1       0.369  11.995  19.783  1.00  0.00     0.002 C 
HETATM   29  C7  UNL     1       1.421  11.823  20.608  1.00  0.00    -0.084 C 
HETATM   30  C8  UNL     1       2.032  10.492  20.962  1.00  0.00     0.043 C 
BRANCH  29  31
HETATM   31  C6  UNL     1       2.062  13.028  21.282  1.00  0.00     0.037 C 
BRANCH  31  32
HETATM   32  C5  UNL     1       2.639  12.745  22.682  1.00  0.00     0.031 C 
BRANCH  32  33
HETATM   33  C4  UNL     1       4.130  12.958  22.764  1.00  0.00    -0.024 C 
HETATM   34  C2  UNL     1       5.102  12.040  22.938  1.00  0.00    -0.091 C 
HETATM   35  C1  UNL     1       4.893  10.558  23.089  1.00  0.00     0.042 C 
HETATM   36  C3  UNL     1       6.548  12.463  22.983  1.00  0.00     0.042 C 
ENDBRANCH  32  33
ENDBRANCH  31  32
ENDBRANCH  29  31
ENDBRANCH  27  28
ENDBRANCH  24  26
ENDBRANCH   1  23
BRANCH   8  37
HETATM   37  C26 UNL     1       4.063   8.812  11.552  1.00  0.00     0.265 C 
HETATM   38  O4  UNL     1       4.670   9.232  12.529  1.00  0.00    -0.302 OA
ENDBRANCH   8  37
TORSDOF 13
ENDMDL
MODEL 7
REMARK minimizedAffinity -7.4795866
REMARK  13 active torsions:
REMARK  status: ('A' for Active; 'I' for Inactive)
REMARK    1  A    between atoms: C4_4  and  C5_5 
REMARK    2  A    between atoms: C5_5  and  C6_6 
REMARK    3  A    between atoms: C6_6  and  C7_7 
REMARK    4  A    between atoms: C9_9  and  C10_10 
REMARK    5  A    between atoms: C11_11  and  C12_12 
REMARK    6  A    between atoms: C14_14  and  C15_15 
REMARK    7  A    between atoms: C18_18  and  O1_19 
REMARK    8  A    between atoms: C19_21  and  C20_22 
REMARK    9  A    between atoms: C20_22  and  C21_23 
REMARK   10  A    between atoms: C21_23  and  C22_24 
REMARK   11  A    between atoms: C22_24  and  O3_25 
REMARK   12  A    between atoms: C24_27  and  C26_29 
REMARK   13  A    between atoms: C29_33  and  O5_35 
ROOT
HETATM    1  C15 UNL     1       2.135   9.626  15.157  1.00  0.00     0.149 C 
HETATM    2  C16 UNL     1       0.698   9.293  14.742  1.00  0.00     0.054 C 
HETATM    3  C17 UNL     1       0.772   7.876  14.109  1.00  0.00     0.050 C 
HETATM    4  C18 UNL     1       1.965   7.325  14.911  1.00  0.00     0.270 C 
HETATM    5  O2  UNL     1       2.882   8.404  15.089  1.00  0.00    -0.351 OA
HETATM    6  C19 UNL     1      -0.589   7.109  14.384  1.00  0.00     0.032 C 
HETATM    7  C23 UNL     1      -1.720   7.778  13.573  1.00  0.00    -0.066 C 
HETATM    8  C24 UNL     1      -2.869   8.260  14.106  1.00  0.00    -0.021 C 
HETATM    9  C25 UNL     1      -3.947   8.959  13.328  1.00  0.00     0.052 C 
HETATM   10  C27 UNL     1      -1.436   7.817  12.086  1.00  0.00     0.038 C 
HETATM   11  C28 UNL     1      -0.120   8.518  11.773  1.00  0.00     0.042 C 
HETATM   12  C29 UNL     1       1.085   7.950  12.559  1.00  0.00     0.067 C 
HETATM   13  C30 UNL     1       2.326   8.757  12.141  1.00  0.00     0.047 C 
ENDROOT
BRANCH   4  14
HETATM   14  O1  UNL     1       1.593   6.940  16.224  1.00  0.00    -0.370 OA
HETATM   15  H26 UNL     1       2.430   6.655  16.632  1.00  0.00     0.212 HD
ENDBRANCH   4  14
BRANCH   6  16
HETATM   16  C20 UNL     1      -0.671   5.580  14.115  1.00  0.00     0.012 C 
BRANCH  16  17
HETATM   17  C21 UNL     1       0.371   4.956  13.180  1.00  0.00     0.027 C 
BRANCH  17  18
HETATM   18  C22 UNL     1      -0.171   3.918  12.201  1.00  0.00     0.164 C 
BRANCH  18  19
HETATM   19  O3  UNL     1       0.735   3.714  11.126  1.00  0.00    -0.401 OA
HETATM   20  H34 UNL     1       0.520   4.397  10.451  1.00  0.00     0.209 HD
ENDBRANCH  18  19
ENDBRANCH  17  18
ENDBRANCH  16  17
ENDBRANCH   6  16
BRANCH  12  21
HETATM   21  O5  UNL     1       1.336   6.617  12.088  1.00  0.00    -0.389 OA
HETATM   22  H46 UNL     1       1.521   6.652  11.132  1.00  0.00     0.210 HD
ENDBRANCH  12  21
BRANCH   1  23
HETATM   23  C14 UNL     1       2.241  10.175  16.552  1.00  0.00     0.011 C 
HETATM   24  C12 UNL     1       1.260  10.388  17.456  1.00  0.00    -0.063 C 
HETATM   25  C13 UNL     1      -0.200  10.107  17.205  1.00  0.00     0.048 C 
BRANCH  24  26
HETATM   26  C11 UNL     1       1.630  10.918  18.772  1.00  0.00     0.006 C 
HETATM   27  C10 UNL     1       2.605  10.453  19.573  1.00  0.00     0.001 C 
BRANCH  27  28
HETATM   28  C9  UNL     1       2.939  11.072  20.838  1.00  0.00     0.002 C 
HETATM   29  C7  UNL     1       3.001  10.462  22.038  1.00  0.00    -0.084 C 
HETATM   30  C8  UNL     1       2.621   9.027  22.298  1.00  0.00     0.043 C 
BRANCH  29  31
HETATM   31  C6  UNL     1       3.456  11.241  23.264  1.00  0.00     0.037 C 
BRANCH  31  32
HETATM   32  C5  UNL     1       4.492  12.342  22.974  1.00  0.00     0.031 C 
BRANCH  32  33
HETATM   33  C4  UNL     1       5.917  11.852  23.042  1.00  0.00    -0.024 C 
HETATM   34  C2  UNL     1       7.054  12.575  23.091  1.00  0.00    -0.091 C 
HETATM   35  C1  UNL     1       7.140  14.076  23.088  1.00  0.00     0.042 C 
HETATM   36  C3  UNL     1       8.391  11.884  23.165  1.00  0.00     0.042 C 
ENDBRANCH  32  33
ENDBRANCH  31  32
ENDBRANCH  29  31
ENDBRANCH  27  28
ENDBRANCH  24  26
ENDBRANCH   1  23
BRANCH   8  37
HETATM   37  C26 UNL     1      -3.197   8.095  15.554  1.00  0.00     0.265 C 
HETATM   38  O4  UNL     1      -4.114   8.688  16.109  1.00  0.00    -0.302 OA
ENDBRANCH   8  37
TORSDOF 13
ENDMDL
MODEL 8
REMARK minimizedAffinity -7.45565224
REMARK  13 active torsions:
REMARK  status: ('A' for Active; 'I' for Inactive)
REMARK    1  A    between atoms: C4_4  and  C5_5 
REMARK    2  A    between atoms: C5_5  and  C6_6 
REMARK    3  A    between atoms: C6_6  and  C7_7 
REMARK    4  A    between atoms: C9_9  and  C10_10 
REMARK    5  A    between atoms: C11_11  and  C12_12 
REMARK    6  A    between atoms: C14_14  and  C15_15 
REMARK    7  A    between atoms: C18_18  and  O1_19 
REMARK    8  A    between atoms: C19_21  and  C20_22 
REMARK    9  A    between atoms: C20_22  and  C21_23 
REMARK   10  A    between atoms: C21_23  and  C22_24 
REMARK   11  A    between atoms: C22_24  and  O3_25 
REMARK   12  A    between atoms: C24_27  and  C26_29 
REMARK   13  A    between atoms: C29_33  and  O5_35 
ROOT
HETATM    1  C15 UNL     1       0.115   7.161  14.348  1.00  0.00     0.149 C 
HETATM    2  C16 UNL     1       1.309   7.039  13.396  1.00  0.00     0.054 C 
HETATM    3  C17 UNL     1       0.694   7.022  11.969  1.00  0.00     0.050 C 
HETATM    4  C18 UNL     1      -0.560   7.872  12.245  1.00  0.00     0.270 C 
HETATM    5  O2  UNL     1      -1.020   7.524  13.551  1.00  0.00    -0.351 OA
HETATM    6  C19 UNL     1       1.710   7.698  10.954  1.00  0.00     0.032 C 
HETATM    7  C23 UNL     1       2.947   6.788  10.796  1.00  0.00    -0.066 C 
HETATM    8  C24 UNL     1       4.226   7.180  11.016  1.00  0.00    -0.021 C 
HETATM    9  C25 UNL     1       5.426   6.284  10.914  1.00  0.00     0.052 C 
HETATM   10  C27 UNL     1       2.596   5.390  10.329  1.00  0.00     0.038 C 
HETATM   11  C28 UNL     1       1.597   4.711  11.256  1.00  0.00     0.042 C 
HETATM   12  C29 UNL     1       0.324   5.552  11.516  1.00  0.00     0.067 C 
HETATM   13  C30 UNL     1      -0.575   4.740  12.465  1.00  0.00     0.047 C 
ENDROOT
BRANCH   4  14
HETATM   14  O1  UNL     1      -0.261   9.255  12.320  1.00  0.00    -0.370 OA
HETATM   15  H26 UNL     1      -1.116   9.669  12.537  1.00  0.00     0.212 HD
ENDBRANCH   4  14
BRANCH   6  16
HETATM   16  C20 UNL     1       1.226   8.070   9.525  1.00  0.00     0.012 C 
BRANCH  16  17
HETATM   17  C21 UNL     1       2.268   8.126   8.403  1.00  0.00     0.027 C 
BRANCH  17  18
HETATM   18  C22 UNL     1       1.852   7.461   7.094  1.00  0.00     0.164 C 
BRANCH  18  19
HETATM   19  O3  UNL     1       2.370   6.141   7.008  1.00  0.00    -0.401 OA
HETATM   20  H34 UNL     1       3.274   6.224   6.627  1.00  0.00     0.209 HD
ENDBRANCH  18  19
ENDBRANCH  17  18
ENDBRANCH  16  17
ENDBRANCH   6  16
BRANCH  12  21
HETATM   21  O5  UNL     1      -0.414   5.633  10.287  1.00  0.00    -0.389 OA
HETATM   22  H46 UNL     1      -0.639   4.731   9.996  1.00  0.00     0.210 HD
ENDBRANCH  12  21
BRANCH   1  23
HETATM   23  C14 UNL     1       0.305   8.205  15.414  1.00  0.00     0.011 C 
HETATM   24  C12 UNL     1      -0.626   8.804  16.188  1.00  0.00    -0.063 C 
HETATM   25  C13 UNL     1      -2.105   8.522  16.108  1.00  0.00     0.048 C 
BRANCH  24  26
HETATM   26  C11 UNL     1      -0.177   9.786  17.181  1.00  0.00     0.006 C 
HETATM   27  C10 UNL     1      -0.893  10.254  18.217  1.00  0.00     0.001 C 
BRANCH  27  28
HETATM   28  C9  UNL     1      -0.351  11.186  19.184  1.00  0.00     0.002 C 
HETATM   29  C7  UNL     1       0.947  11.513  19.343  1.00  0.00    -0.084 C 
HETATM   30  C8  UNL     1       2.095  10.876  18.603  1.00  0.00     0.043 C 
BRANCH  29  31
HETATM   31  C6  UNL     1       1.343  12.582  20.352  1.00  0.00     0.037 C 
BRANCH  31  32
HETATM   32  C5  UNL     1       2.416  12.140  21.363  1.00  0.00     0.031 C 
BRANCH  32  33
HETATM   33  C4  UNL     1       2.263  10.706  21.804  1.00  0.00    -0.024 C 
HETATM   34  C2  UNL     1       3.096   9.966  22.564  1.00  0.00    -0.091 C 
HETATM   35  C1  UNL     1       4.398  10.435  23.151  1.00  0.00     0.042 C 
HETATM   36  C3  UNL     1       2.750   8.538  22.902  1.00  0.00     0.042 C 
ENDBRANCH  32  33
ENDBRANCH  31  32
ENDBRANCH  29  31
ENDBRANCH  27  28
ENDBRANCH  24  26
ENDBRANCH   1  23
BRANCH   8  37
HETATM   37  C26 UNL     1       4.571   8.596  11.346  1.00  0.00     0.265 C 
HETATM   38  O4  UNL     1       5.605   9.141  10.979  1.00  0.00    -0.302 OA
ENDBRANCH   8  37
TORSDOF 13
ENDMDL
MODEL 9
REMARK minimizedAffinity -7.39273119
REMARK  13 active torsions:
REMARK  status: ('A' for Active; 'I' for Inactive)
REMARK    1  A    between atoms: C4_4  and  C5_5 
REMARK    2  A    between atoms: C5_5  and  C6_6 
REMARK    3  A    between atoms: C6_6  and  C7_7 
REMARK    4  A    between atoms: C9_9  and  C10_10 
REMARK    5  A    between atoms: C11_11  and  C12_12 
REMARK    6  A    between atoms: C14_14  and  C15_15 
REMARK    7  A    between atoms: C18_18  and  O1_19 
REMARK    8  A    between atoms: C19_21  and  C20_22 
REMARK    9  A    between atoms: C20_22  and  C21_23 
REMARK   10  A    between atoms: C21_23  and  C22_24 
REMARK   11  A    between atoms: C22_24  and  O3_25 
REMARK   12  A    between atoms: C24_27  and  C26_29 
REMARK   13  A    between atoms: C29_33  and  O5_35 
ROOT
HETATM    1  C15 UNL     1       3.207   5.631  10.767  1.00  0.00     0.149 C 
HETATM    2  C16 UNL     1       3.657   6.657  11.812  1.00  0.00     0.054 C 
HETATM    3  C17 UNL     1       4.723   7.530  11.095  1.00  0.00     0.050 C 
HETATM    4  C18 UNL     1       4.190   7.414   9.655  1.00  0.00     0.270 C 
HETATM    5  O2  UNL     1       3.699   6.084   9.498  1.00  0.00    -0.351 OA
HETATM    6  C19 UNL     1       4.669   9.005  11.677  1.00  0.00     0.032 C 
HETATM    7  C23 UNL     1       5.174   8.992  13.136  1.00  0.00    -0.066 C 
HETATM    8  C24 UNL     1       4.471   9.456  14.198  1.00  0.00    -0.021 C 
HETATM    9  C25 UNL     1       4.938   9.396  15.625  1.00  0.00     0.052 C 
HETATM   10  C27 UNL     1       6.574   8.431  13.271  1.00  0.00     0.038 C 
HETATM   11  C28 UNL     1       6.685   7.025  12.695  1.00  0.00     0.042 C 
HETATM   12  C29 UNL     1       6.172   6.910  11.240  1.00  0.00     0.067 C 
HETATM   13  C30 UNL     1       6.345   5.444  10.808  1.00  0.00     0.047 C 
ENDROOT
BRANCH   4  14
HETATM   14  O1  UNL     1       3.065   8.248   9.434  1.00  0.00    -0.370 OA
HETATM   15  H26 UNL     1       2.803   8.052   8.517  1.00  0.00     0.212 HD
ENDBRANCH   4  14
BRANCH   6  16
HETATM   16  C20 UNL     1       5.423  10.146  10.938  1.00  0.00     0.012 C 
BRANCH  16  17
HETATM   17  C21 UNL     1       6.016  11.281  11.779  1.00  0.00     0.027 C 
BRANCH  17  18
HETATM   18  C22 UNL     1       7.503  11.545  11.562  1.00  0.00     0.164 C 
BRANCH  18  19
HETATM   19  O3  UNL     1       8.124  10.447  10.908  1.00  0.00    -0.401 OA
HETATM   20  H34 UNL     1       8.385   9.817  11.616  1.00  0.00     0.209 HD
ENDBRANCH  18  19
ENDBRANCH  17  18
ENDBRANCH  16  17
ENDBRANCH   6  16
BRANCH  12  21
HETATM   21  O5  UNL     1       7.065   7.651  10.395  1.00  0.00    -0.389 OA
HETATM   22  H46 UNL     1       7.962   7.282  10.484  1.00  0.00     0.210 HD
ENDBRANCH  12  21
BRANCH   1  23
HETATM   23  C14 UNL     1       1.712   5.487  10.677  1.00  0.00     0.011 C 
HETATM   24  C12 UNL     1       0.791   5.588  11.659  1.00  0.00    -0.063 C 
HETATM   25  C13 UNL     1       1.119   5.867  13.105  1.00  0.00     0.048 C 
BRANCH  24  26
HETATM   26  C11 UNL     1      -0.623   5.427  11.305  1.00  0.00     0.006 C 
HETATM   27  C10 UNL     1      -1.338   4.292  11.380  1.00  0.00     0.001 C 
BRANCH  27  28
HETATM   28  C9  UNL     1      -2.749   4.234  11.060  1.00  0.00     0.002 C 
HETATM   29  C7  UNL     1      -3.571   3.181  11.240  1.00  0.00    -0.084 C 
HETATM   30  C8  UNL     1      -3.136   1.818  11.715  1.00  0.00     0.043 C 
BRANCH  29  31
HETATM   31  C6  UNL     1      -5.056   3.314  10.932  1.00  0.00     0.037 C 
BRANCH  31  32
HETATM   32  C5  UNL     1      -5.977   3.203  12.160  1.00  0.00     0.031 C 
BRANCH  32  33
HETATM   33  C4  UNL     1      -7.109   4.199  12.147  1.00  0.00    -0.024 C 
HETATM   34  C2  UNL     1      -7.714   4.798  13.193  1.00  0.00    -0.091 C 
HETATM   35  C1  UNL     1      -7.372   4.589  14.642  1.00  0.00     0.042 C 
HETATM   36  C3  UNL     1      -8.832   5.782  12.962  1.00  0.00     0.042 C 
ENDBRANCH  32  33
ENDBRANCH  31  32
ENDBRANCH  29  31
ENDBRANCH  27  28
ENDBRANCH  24  26
ENDBRANCH   1  23
BRANCH   8  37
HETATM   37  C26 UNL     1       3.148  10.129  14.037  1.00  0.00     0.265 C 
HETATM   38  O4  UNL     1       2.084   9.524  13.998  1.00  0.00    -0.302 OA
ENDBRANCH   8  37
TORSDOF 13
ENDMDL
