MODEL 1
REMARK minimizedAffinity -7.58942604
REMARK CNNscore 0.545580685
REMARK CNNaffinity 6.10136414
REMARK  13 active torsions:
REMARK  status: ('A' for Active; 'I' for Inactive)
REMARK    1  A    between atoms: C3_3  and  O1_4 
REMARK    2  A    between atoms: N1_14  and  O2_16 
REMARK    3  A    between atoms: O2_16  and  C13_17 
REMARK    4  A    between atoms: C13_17  and  C14_18 
REMARK       I    between atoms: C14_18  and  N2_20 
REMARK    5  A    between atoms: N2_20  and  C15_21 
REMARK    6  A    between atoms: C15_21  and  C16_22 
REMARK    7  A    between atoms: C15_21  and  C21_32 
REMARK       I    between atoms: C16_22  and  N3_24 
REMARK    8  A    between atoms: N3_24  and  C17_25 
REMARK    9  A    between atoms: C17_25  and  C18_26 
REMARK   10  A    between atoms: C17_25  and  C19_28 
REMARK   11  A    between atoms: C18_26  and  S1_27 
REMARK   12  A    between atoms: C19_28  and  C20_29 
REMARK   13  A    between atoms: C20_29  and  O6_31 
ROOT
HETATM    1  C1  UNL     1       1.269  52.499 -21.182  1.00  0.00     0.015 C 
HETATM    2  C2  UNL     1       0.295  51.846 -20.922  1.00  0.00    -0.078 C 
HETATM    3  C3  UNL     1      -0.888  51.040 -20.585  1.00  0.00     0.128 C 
HETATM    4  C4  UNL     1      -1.735  51.684 -19.457  1.00  0.00     0.052 C 
HETATM    5  C5  UNL     1      -3.202  51.293 -19.735  1.00  0.00     0.010 C 
HETATM    6  C6  UNL     1      -3.120  50.330 -20.916  1.00  0.00     0.002 C 
HETATM    7  C7  UNL     1      -4.392  49.973 -21.700  1.00  0.00    -0.004 C 
HETATM    8  C8  UNL     1      -5.265  51.170 -22.125  1.00  0.00     0.010 C 
HETATM    9  C9  UNL     1      -5.928  51.005 -23.487  1.00  0.00     0.035 C 
HETATM   10  C10 UNL     1      -6.399  49.591 -23.645  1.00  0.00    -0.069 C 
HETATM   11  C11 UNL     1      -7.714  49.302 -23.691  1.00  0.00     0.030 C 
HETATM   12  C12 UNL     1      -8.200  47.902 -23.784  1.00  0.00     0.032 C 
HETATM   13  N1  UNL     1      -9.474  47.709 -23.984  1.00  0.00    -0.271 N 
ATOM     14  H1  UNL     1     -10.171  48.451 -24.038  1.00  0.00     0.194 HD
HETATM   15  C24 UNL     1      -7.189  46.774 -23.662  1.00  0.00     0.060 C 
HETATM   16  C25 UNL     1      -5.872  47.237 -23.049  1.00  0.00     0.020 C 
HETATM   17  C26 UNL     1      -5.301  48.533 -23.689  1.00  0.00    -0.016 C 
HETATM   18  C27 UNL     1      -4.960  48.255 -25.170  1.00  0.00     0.020 C 
HETATM   19  C28 UNL     1      -4.031  48.971 -22.847  1.00  0.00     0.002 C 
HETATM   20  C29 UNL     1      -2.798  49.434 -23.669  1.00  0.00     0.007 C 
HETATM   21  C30 UNL     1      -1.580  49.778 -22.791  1.00  0.00     0.014 C 
HETATM   22  C31 UNL     1      -1.917  50.852 -21.744  1.00  0.00     0.003 C 
HETATM   23  C32 UNL     1      -2.160  52.202 -22.470  1.00  0.00     0.020 C 
ENDROOT
BRANCH   3  24
HETATM   24  O1  UNL     1      -0.434  49.768 -20.116  1.00  0.00    -0.377 OA
HETATM   25  H2  UNL     1       0.234  49.940 -19.428  1.00  0.00     0.211 HD
ENDBRANCH   3  24
BRANCH  13  26
HETATM   26  O2  UNL     1      -9.755  46.338 -24.113  1.00  0.00    -0.271 OA
BRANCH  26  27
HETATM   27  C13 UNL     1     -10.298  46.088 -25.400  1.00  0.00     0.303 C 
BRANCH  27  28
HETATM   28  C14 UNL     1     -11.515  45.179 -25.275  1.00  0.00     0.244 C 
HETATM   29  O3  UNL     1     -11.581  44.204 -24.528  1.00  0.00    -0.271 OA
HETATM   30  N2  UNL     1     -12.578  45.545 -26.080  1.00  0.00    -0.346 N 
HETATM   31  H16 UNL     1     -12.622  46.502 -26.411  1.00  0.00     0.163 HD
BRANCH  30  32
HETATM   32  C15 UNL     1     -13.815  44.753 -26.126  1.00  0.00     0.180 C 
BRANCH  32  33
HETATM   33  C16 UNL     1     -14.938  45.604 -25.478  1.00  0.00     0.241 C 
HETATM   34  O4  UNL     1     -14.922  46.833 -25.430  1.00  0.00    -0.271 OA
HETATM   35  N3  UNL     1     -15.964  44.849 -24.944  1.00  0.00    -0.353 N 
HETATM   36  H18 UNL     1     -15.788  43.846 -24.852  1.00  0.00     0.163 HD
BRANCH  35  37
HETATM   37  C17 UNL     1     -17.048  45.440 -24.153  1.00  0.00     0.103 C 
BRANCH  37  38
HETATM   38  C18 UNL     1     -16.962  45.020 -22.666  1.00  0.00     0.096 C 
BRANCH  38  39
HETATM   39  S1  UNL     1     -16.596  46.394 -21.518  1.00  0.00    -0.180 SA
HETATM   40  H22 UNL     1     -16.642  45.665 -20.392  1.00  0.00     0.101 HD
ENDBRANCH  38  39
ENDBRANCH  37  38
BRANCH  37  41
HETATM   41  C19 UNL     1     -18.397  45.118 -24.812  1.00  0.00     0.136 C 
BRANCH  41  42
HETATM   42  C20 UNL     1     -19.242  46.347 -24.992  1.00  0.00     0.141 C 
HETATM   43  O5  UNL     1     -20.435  46.391 -25.241  1.00  0.00    -0.650 OA
BRANCH  42  44
HETATM   44  O6  UNL     1     -18.537  47.480 -24.816  1.00  0.00    -0.776 OA
HETATM   45  H25 UNL     1     -19.190  48.200 -24.938  1.00  0.00     0.167 HD
ENDBRANCH  42  44
ENDBRANCH  41  42
ENDBRANCH  37  41
ENDBRANCH  35  37
ENDBRANCH  32  33
BRANCH  32  46
HETATM   46  C21 UNL     1     -14.149  44.332 -27.577  1.00  0.00     0.009 C 
HETATM   47  C22 UNL     1     -14.870  45.452 -28.339  1.00  0.00     0.012 C 
HETATM   48  C23 UNL     1     -12.879  43.957 -28.350  1.00  0.00     0.012 C 
ENDBRANCH  32  46
ENDBRANCH  30  32
ENDBRANCH  27  28
ENDBRANCH  26  27
ENDBRANCH  13  26
TORSDOF 13
ENDMDL
MODEL 2
REMARK minimizedAffinity -7.65330887
REMARK CNNscore 0.454387814
REMARK CNNaffinity 6.5422864
REMARK  13 active torsions:
REMARK  status: ('A' for Active; 'I' for Inactive)
REMARK    1  A    between atoms: C3_3  and  O1_4 
REMARK    2  A    between atoms: N1_14  and  O2_16 
REMARK    3  A    between atoms: O2_16  and  C13_17 
REMARK    4  A    between atoms: C13_17  and  C14_18 
REMARK       I    between atoms: C14_18  and  N2_20 
REMARK    5  A    between atoms: N2_20  and  C15_21 
REMARK    6  A    between atoms: C15_21  and  C16_22 
REMARK    7  A    between atoms: C15_21  and  C21_32 
REMARK       I    between atoms: C16_22  and  N3_24 
REMARK    8  A    between atoms: N3_24  and  C17_25 
REMARK    9  A    between atoms: C17_25  and  C18_26 
REMARK   10  A    between atoms: C17_25  and  C19_28 
REMARK   11  A    between atoms: C18_26  and  S1_27 
REMARK   12  A    between atoms: C19_28  and  C20_29 
REMARK   13  A    between atoms: C20_29  and  O6_31 
ROOT
HETATM    1  C1  UNL     1       0.358  53.850 -25.196  1.00  0.00     0.015 C 
HETATM    2  C2  UNL     1      -0.570  53.114 -25.399  1.00  0.00    -0.078 C 
HETATM    3  C3  UNL     1      -1.707  52.221 -25.667  1.00  0.00     0.128 C 
HETATM    4  C4  UNL     1      -1.311  51.021 -26.567  1.00  0.00     0.052 C 
HETATM    5  C5  UNL     1      -2.204  49.839 -26.136  1.00  0.00     0.010 C 
HETATM    6  C6  UNL     1      -3.167  50.442 -25.117  1.00  0.00     0.002 C 
HETATM    7  C7  UNL     1      -3.999  49.520 -24.213  1.00  0.00    -0.004 C 
HETATM    8  C8  UNL     1      -3.212  48.395 -23.513  1.00  0.00     0.010 C 
HETATM    9  C9  UNL     1      -3.699  48.077 -22.104  1.00  0.00     0.035 C 
HETATM   10  C10 UNL     1      -5.196  48.133 -22.069  1.00  0.00    -0.069 C 
HETATM   11  C11 UNL     1      -5.924  47.016 -21.874  1.00  0.00     0.030 C 
HETATM   12  C12 UNL     1      -7.409  47.041 -21.898  1.00  0.00     0.032 C 
HETATM   13  N1  UNL     1      -8.044  45.959 -21.546  1.00  0.00    -0.271 N 
ATOM     14  H1  UNL     1      -7.595  45.078 -21.295  1.00  0.00     0.194 HD
HETATM   15  C24 UNL     1      -8.105  48.326 -22.311  1.00  0.00     0.060 C 
HETATM   16  C25 UNL     1      -7.171  49.286 -23.040  1.00  0.00     0.020 C 
HETATM   17  C26 UNL     1      -5.810  49.506 -22.322  1.00  0.00    -0.016 C 
HETATM   18  C27 UNL     1      -6.064  50.179 -20.955  1.00  0.00     0.020 C 
HETATM   19  C28 UNL     1      -4.899  50.390 -23.272  1.00  0.00     0.002 C 
HETATM   20  C29 UNL     1      -4.102  51.529 -22.581  1.00  0.00     0.007 C 
HETATM   21  C30 UNL     1      -3.293  52.388 -23.571  1.00  0.00     0.014 C 
HETATM   22  C31 UNL     1      -2.325  51.535 -24.407  1.00  0.00     0.003 C 
HETATM   23  C32 UNL     1      -1.201  50.998 -23.482  1.00  0.00     0.020 C 
ENDROOT
BRANCH   3  24
HETATM   24  O1  UNL     1      -2.704  52.975 -26.360  1.00  0.00    -0.377 OA
HETATM   25  H2  UNL     1      -2.261  53.415 -27.107  1.00  0.00     0.211 HD
ENDBRANCH   3  24
BRANCH  13  26
HETATM   26  O2  UNL     1      -9.434  46.171 -21.560  1.00  0.00    -0.271 OA
BRANCH  26  27
HETATM   27  C13 UNL     1     -10.018  45.385 -22.588  1.00  0.00     0.303 C 
BRANCH  27  28
HETATM   28  C14 UNL     1     -11.410  44.935 -22.159  1.00  0.00     0.244 C 
HETATM   29  O3  UNL     1     -11.756  43.761 -22.041  1.00  0.00    -0.271 OA
HETATM   30  N2  UNL     1     -12.282  45.975 -21.894  1.00  0.00    -0.346 N 
HETATM   31  H16 UNL     1     -11.892  46.884 -21.674  1.00  0.00     0.163 HD
BRANCH  30  32
HETATM   32  C15 UNL     1     -13.681  45.727 -21.516  1.00  0.00     0.180 C 
BRANCH  32  33
HETATM   33  C16 UNL     1     -14.070  46.784 -20.450  1.00  0.00     0.241 C 
HETATM   34  O4  UNL     1     -13.620  47.928 -20.426  1.00  0.00    -0.271 OA
HETATM   35  N3  UNL     1     -14.970  46.315 -19.511  1.00  0.00    -0.353 N 
HETATM   36  H18 UNL     1     -15.123  45.304 -19.496  1.00  0.00     0.163 HD
BRANCH  35  37
HETATM   37  C17 UNL     1     -15.354  47.095 -18.331  1.00  0.00     0.103 C 
BRANCH  37  38
HETATM   38  C18 UNL     1     -16.149  48.365 -18.722  1.00  0.00     0.096 C 
BRANCH  38  39
HETATM   39  S1  UNL     1     -15.705  49.854 -17.760  1.00  0.00    -0.180 SA
HETATM   40  H22 UNL     1     -16.539  50.694 -18.392  1.00  0.00     0.101 HD
ENDBRANCH  38  39
ENDBRANCH  37  38
BRANCH  37  41
HETATM   41  C19 UNL     1     -14.109  47.381 -17.479  1.00  0.00     0.136 C 
BRANCH  41  42
HETATM   42  C20 UNL     1     -13.768  46.227 -16.580  1.00  0.00     0.141 C 
HETATM   43  O5  UNL     1     -13.191  45.198 -16.888  1.00  0.00    -0.650 OA
BRANCH  42  44
HETATM   44  O6  UNL     1     -14.149  46.444 -15.307  1.00  0.00    -0.776 OA
HETATM   45  H25 UNL     1     -13.859  45.643 -14.822  1.00  0.00     0.167 HD
ENDBRANCH  42  44
ENDBRANCH  41  42
ENDBRANCH  37  41
ENDBRANCH  35  37
ENDBRANCH  32  33
BRANCH  32  46
HETATM   46  C21 UNL     1     -14.604  45.764 -22.757  1.00  0.00     0.009 C 
HETATM   47  C22 UNL     1     -15.825  44.851 -22.580  1.00  0.00     0.012 C 
HETATM   48  C23 UNL     1     -15.099  47.189 -23.036  1.00  0.00     0.012 C 
ENDBRANCH  32  46
ENDBRANCH  30  32
ENDBRANCH  27  28
ENDBRANCH  26  27
ENDBRANCH  13  26
TORSDOF 13
ENDMDL
MODEL 3
REMARK minimizedAffinity -8.04108715
REMARK CNNscore 0.398294985
REMARK CNNaffinity 6.33126593
REMARK  13 active torsions:
REMARK  status: ('A' for Active; 'I' for Inactive)
REMARK    1  A    between atoms: C3_3  and  O1_4 
REMARK    2  A    between atoms: N1_14  and  O2_16 
REMARK    3  A    between atoms: O2_16  and  C13_17 
REMARK    4  A    between atoms: C13_17  and  C14_18 
REMARK       I    between atoms: C14_18  and  N2_20 
REMARK    5  A    between atoms: N2_20  and  C15_21 
REMARK    6  A    between atoms: C15_21  and  C16_22 
REMARK    7  A    between atoms: C15_21  and  C21_32 
REMARK       I    between atoms: C16_22  and  N3_24 
REMARK    8  A    between atoms: N3_24  and  C17_25 
REMARK    9  A    between atoms: C17_25  and  C18_26 
REMARK   10  A    between atoms: C17_25  and  C19_28 
REMARK   11  A    between atoms: C18_26  and  S1_27 
REMARK   12  A    between atoms: C19_28  and  C20_29 
REMARK   13  A    between atoms: C20_29  and  O6_31 
ROOT
HETATM    1  C1  UNL     1       0.343  53.484 -25.309  1.00  0.00     0.015 C 
HETATM    2  C2  UNL     1      -0.625  52.793 -25.476  1.00  0.00    -0.078 C 
HETATM    3  C3  UNL     1      -1.813  51.955 -25.701  1.00  0.00     0.128 C 
HETATM    4  C4  UNL     1      -1.504  50.728 -26.598  1.00  0.00     0.052 C 
HETATM    5  C5  UNL     1      -2.442  49.596 -26.128  1.00  0.00     0.010 C 
HETATM    6  C6  UNL     1      -3.343  50.258 -25.089  1.00  0.00     0.002 C 
HETATM    7  C7  UNL     1      -4.193  49.388 -24.151  1.00  0.00    -0.004 C 
HETATM    8  C8  UNL     1      -3.443  48.231 -23.461  1.00  0.00     0.010 C 
HETATM    9  C9  UNL     1      -3.904  47.954 -22.034  1.00  0.00     0.035 C 
HETATM   10  C10 UNL     1      -5.395  48.084 -21.957  1.00  0.00    -0.069 C 
HETATM   11  C11 UNL     1      -6.171  47.007 -21.728  1.00  0.00     0.030 C 
HETATM   12  C12 UNL     1      -7.653  47.107 -21.710  1.00  0.00     0.032 C 
HETATM   13  N1  UNL     1      -8.331  46.061 -21.327  1.00  0.00    -0.271 N 
ATOM     14  H1  UNL     1      -7.919  45.162 -21.079  1.00  0.00     0.194 HD
HETATM   15  C24 UNL     1      -8.296  48.421 -22.118  1.00  0.00     0.060 C 
HETATM   16  C25 UNL     1      -7.337  49.326 -22.884  1.00  0.00     0.020 C 
HETATM   17  C26 UNL     1      -5.947  49.484 -22.209  1.00  0.00    -0.016 C 
HETATM   18  C27 UNL     1      -6.127  50.183 -20.843  1.00  0.00     0.020 C 
HETATM   19  C28 UNL     1      -5.021  50.311 -23.194  1.00  0.00     0.002 C 
HETATM   20  C29 UNL     1      -4.148  51.416 -22.540  1.00  0.00     0.007 C 
HETATM   21  C30 UNL     1      -3.326  52.224 -23.563  1.00  0.00     0.014 C 
HETATM   22  C31 UNL     1      -2.427  51.315 -24.416  1.00  0.00     0.003 C 
HETATM   23  C32 UNL     1      -1.305  50.731 -23.518  1.00  0.00     0.020 C 
ENDROOT
BRANCH   3  24
HETATM   24  O1  UNL     1      -2.791  52.751 -26.374  1.00  0.00    -0.377 OA
HETATM   25  H2  UNL     1      -2.348  53.161 -27.138  1.00  0.00     0.211 HD
ENDBRANCH   3  24
BRANCH  13  26
HETATM   26  O2  UNL     1      -9.708  46.342 -21.304  1.00  0.00    -0.271 OA
BRANCH  26  27
HETATM   27  C13 UNL     1     -10.170  46.319 -19.962  1.00  0.00     0.303 C 
BRANCH  27  28
HETATM   28  C14 UNL     1     -11.240  47.387 -19.771  1.00  0.00     0.244 C 
HETATM   29  O3  UNL     1     -11.014  48.544 -19.419  1.00  0.00    -0.271 OA
HETATM   30  N2  UNL     1     -12.525  46.952 -20.038  1.00  0.00    -0.346 N 
HETATM   31  H16 UNL     1     -12.643  46.138 -20.629  1.00  0.00     0.163 HD
BRANCH  30  32
HETATM   32  C15 UNL     1     -13.688  47.834 -19.858  1.00  0.00     0.180 C 
BRANCH  32  33
HETATM   33  C16 UNL     1     -14.708  47.494 -20.976  1.00  0.00     0.241 C 
HETATM   34  O4  UNL     1     -14.654  47.958 -22.113  1.00  0.00    -0.271 OA
HETATM   35  N3  UNL     1     -15.702  46.624 -20.570  1.00  0.00    -0.353 N 
HETATM   36  H18 UNL     1     -15.777  46.460 -19.564  1.00  0.00     0.163 HD
BRANCH  35  37
HETATM   37  C17 UNL     1     -16.850  46.290 -21.417  1.00  0.00     0.103 C 
BRANCH  37  38
HETATM   38  C18 UNL     1     -18.110  45.980 -20.573  1.00  0.00     0.096 C 
BRANCH  38  39
HETATM   39  S1  UNL     1     -18.643  47.352 -19.489  1.00  0.00    -0.180 SA
HETATM   40  H22 UNL     1     -19.723  46.734 -18.986  1.00  0.00     0.101 HD
ENDBRANCH  38  39
ENDBRANCH  37  38
BRANCH  37  41
HETATM   41  C19 UNL     1     -16.461  45.165 -22.387  1.00  0.00     0.136 C 
BRANCH  41  42
HETATM   42  C20 UNL     1     -16.559  45.601 -23.821  1.00  0.00     0.141 C 
HETATM   43  O5  UNL     1     -16.599  44.885 -24.808  1.00  0.00    -0.650 OA
BRANCH  42  44
HETATM   44  O6  UNL     1     -16.634  46.940 -23.942  1.00  0.00    -0.776 OA
HETATM   45  H25 UNL     1     -16.713  47.097 -24.907  1.00  0.00     0.167 HD
ENDBRANCH  42  44
ENDBRANCH  41  42
ENDBRANCH  37  41
ENDBRANCH  35  37
ENDBRANCH  32  33
BRANCH  32  46
HETATM   46  C21 UNL     1     -14.285  47.679 -18.439  1.00  0.00     0.009 C 
HETATM   47  C22 UNL     1     -15.338  48.758 -18.150  1.00  0.00     0.012 C 
HETATM   48  C23 UNL     1     -14.937  46.303 -18.260  1.00  0.00     0.012 C 
ENDBRANCH  32  46
ENDBRANCH  30  32
ENDBRANCH  27  28
ENDBRANCH  26  27
ENDBRANCH  13  26
TORSDOF 13
ENDMDL
MODEL 4
REMARK minimizedAffinity -8.54500008
REMARK CNNscore 0.352295518
REMARK CNNaffinity 6.09640503
REMARK  13 active torsions:
REMARK  status: ('A' for Active; 'I' for Inactive)
REMARK    1  A    between atoms: C3_3  and  O1_4 
REMARK    2  A    between atoms: N1_14  and  O2_16 
REMARK    3  A    between atoms: O2_16  and  C13_17 
REMARK    4  A    between atoms: C13_17  and  C14_18 
REMARK       I    between atoms: C14_18  and  N2_20 
REMARK    5  A    between atoms: N2_20  and  C15_21 
REMARK    6  A    between atoms: C15_21  and  C16_22 
REMARK    7  A    between atoms: C15_21  and  C21_32 
REMARK       I    between atoms: C16_22  and  N3_24 
REMARK    8  A    between atoms: N3_24  and  C17_25 
REMARK    9  A    between atoms: C17_25  and  C18_26 
REMARK   10  A    between atoms: C17_25  and  C19_28 
REMARK   11  A    between atoms: C18_26  and  S1_27 
REMARK   12  A    between atoms: C19_28  and  C20_29 
REMARK   13  A    between atoms: C20_29  and  O6_31 
ROOT
HETATM    1  C1  UNL     1       0.286  53.891 -24.731  1.00  0.00     0.015 C 
HETATM    2  C2  UNL     1      -0.531  53.108 -25.134  1.00  0.00    -0.078 C 
HETATM    3  C3  UNL     1      -1.527  52.156 -25.648  1.00  0.00     0.128 C 
HETATM    4  C4  UNL     1      -0.869  50.942 -26.355  1.00  0.00     0.052 C 
HETATM    5  C5  UNL     1      -1.805  49.739 -26.117  1.00  0.00     0.010 C 
HETATM    6  C6  UNL     1      -3.022  50.338 -25.416  1.00  0.00     0.002 C 
HETATM    7  C7  UNL     1      -4.033  49.414 -24.720  1.00  0.00    -0.004 C 
HETATM    8  C8  UNL     1      -3.423  48.351 -23.785  1.00  0.00     0.010 C 
HETATM    9  C9  UNL     1      -4.254  48.066 -22.540  1.00  0.00     0.035 C 
HETATM   10  C10 UNL     1      -5.709  48.057 -22.902  1.00  0.00    -0.069 C 
HETATM   11  C11 UNL     1      -6.425  46.917 -22.851  1.00  0.00     0.030 C 
HETATM   12  C12 UNL     1      -7.851  46.876 -23.265  1.00  0.00     0.032 C 
HETATM   13  N1  UNL     1      -8.521  45.781 -23.041  1.00  0.00    -0.271 N 
ATOM     14  H1  UNL     1      -8.126  44.932 -22.639  1.00  0.00     0.194 HD
HETATM   15  C24 UNL     1      -8.455  48.114 -23.908  1.00  0.00     0.060 C 
HETATM   16  C25 UNL     1      -7.393  49.086 -24.411  1.00  0.00     0.020 C 
HETATM   17  C26 UNL     1      -6.278  49.391 -23.373  1.00  0.00    -0.016 C 
HETATM   18  C27 UNL     1      -6.906  50.104 -22.153  1.00  0.00     0.020 C 
HETATM   19  C28 UNL     1      -5.177  50.278 -24.090  1.00  0.00     0.002 C 
HETATM   20  C29 UNL     1      -4.628  51.476 -23.270  1.00  0.00     0.007 C 
HETATM   21  C30 UNL     1      -3.615  52.333 -24.053  1.00  0.00     0.014 C 
HETATM   22  C31 UNL     1      -2.434  51.492 -24.564  1.00  0.00     0.003 C 
HETATM   23  C32 UNL     1      -1.577  51.040 -23.352  1.00  0.00     0.020 C 
ENDROOT
BRANCH   3  24
HETATM   24  O1  UNL     1      -2.330  52.840 -26.614  1.00  0.00    -0.377 OA
HETATM   25  H2  UNL     1      -1.719  53.270 -27.238  1.00  0.00     0.211 HD
ENDBRANCH   3  24
BRANCH  13  26
HETATM   26  O2  UNL     1      -9.864  45.931 -23.430  1.00  0.00    -0.271 OA
BRANCH  26  27
HETATM   27  C13 UNL     1     -10.691  45.926 -22.276  1.00  0.00     0.303 C 
BRANCH  27  28
HETATM   28  C14 UNL     1     -12.024  46.589 -22.598  1.00  0.00     0.244 C 
HETATM   29  O3  UNL     1     -12.350  46.990 -23.715  1.00  0.00    -0.271 OA
HETATM   30  N2  UNL     1     -12.875  46.702 -21.514  1.00  0.00    -0.346 N 
HETATM   31  H16 UNL     1     -12.730  46.084 -20.725  1.00  0.00     0.163 HD
BRANCH  30  32
HETATM   32  C15 UNL     1     -14.184  47.360 -21.630  1.00  0.00     0.180 C 
BRANCH  32  33
HETATM   33  C16 UNL     1     -15.219  46.274 -22.027  1.00  0.00     0.241 C 
HETATM   34  O4  UNL     1     -15.250  45.148 -21.535  1.00  0.00    -0.271 OA
HETATM   35  N3  UNL     1     -16.104  46.688 -23.003  1.00  0.00    -0.353 N 
HETATM   36  H18 UNL     1     -15.870  47.557 -23.489  1.00  0.00     0.163 HD
BRANCH  35  37
HETATM   37  C17 UNL     1     -17.064  45.776 -23.633  1.00  0.00     0.103 C 
BRANCH  37  38
HETATM   38  C18 UNL     1     -16.884  45.732 -25.169  1.00  0.00     0.096 C 
BRANCH  38  39
HETATM   39  S1  UNL     1     -15.185  46.100 -25.736  1.00  0.00    -0.180 SA
HETATM   40  H22 UNL     1     -15.426  45.931 -27.046  1.00  0.00     0.101 HD
ENDBRANCH  38  39
ENDBRANCH  37  38
BRANCH  37  41
HETATM   41  C19 UNL     1     -18.487  46.141 -23.185  1.00  0.00     0.136 C 
BRANCH  41  42
HETATM   42  C20 UNL     1     -19.368  46.497 -24.348  1.00  0.00     0.141 C 
HETATM   43  O5  UNL     1     -20.240  45.807 -24.850  1.00  0.00    -0.650 OA
BRANCH  42  44
HETATM   44  O6  UNL     1     -19.123  47.737 -24.812  1.00  0.00    -0.776 OA
HETATM   45  H25 UNL     1     -19.763  47.858 -25.545  1.00  0.00     0.167 HD
ENDBRANCH  42  44
ENDBRANCH  41  42
ENDBRANCH  37  41
ENDBRANCH  35  37
ENDBRANCH  32  33
BRANCH  32  46
HETATM   46  C21 UNL     1     -14.557  48.085 -20.314  1.00  0.00     0.009 C 
HETATM   47  C22 UNL     1     -15.117  47.109 -19.270  1.00  0.00     0.012 C 
HETATM   48  C23 UNL     1     -13.340  48.798 -19.712  1.00  0.00     0.012 C 
ENDBRANCH  32  46
ENDBRANCH  30  32
ENDBRANCH  27  28
ENDBRANCH  26  27
ENDBRANCH  13  26
TORSDOF 13
ENDMDL
MODEL 5
REMARK minimizedAffinity -8.01064682
REMARK CNNscore 0.348874241
REMARK CNNaffinity 5.71635962
REMARK  13 active torsions:
REMARK  status: ('A' for Active; 'I' for Inactive)
REMARK    1  A    between atoms: C3_3  and  O1_4 
REMARK    2  A    between atoms: N1_14  and  O2_16 
REMARK    3  A    between atoms: O2_16  and  C13_17 
REMARK    4  A    between atoms: C13_17  and  C14_18 
REMARK       I    between atoms: C14_18  and  N2_20 
REMARK    5  A    between atoms: N2_20  and  C15_21 
REMARK    6  A    between atoms: C15_21  and  C16_22 
REMARK    7  A    between atoms: C15_21  and  C21_32 
REMARK       I    between atoms: C16_22  and  N3_24 
REMARK    8  A    between atoms: N3_24  and  C17_25 
REMARK    9  A    between atoms: C17_25  and  C18_26 
REMARK   10  A    between atoms: C17_25  and  C19_28 
REMARK   11  A    between atoms: C18_26  and  S1_27 
REMARK   12  A    between atoms: C19_28  and  C20_29 
REMARK   13  A    between atoms: C20_29  and  O6_31 
ROOT
HETATM    1  C1  UNL     1       0.493  52.530 -22.883  1.00  0.00     0.015 C 
HETATM    2  C2  UNL     1      -0.236  51.767 -22.308  1.00  0.00    -0.078 C 
HETATM    3  C3  UNL     1      -1.113  50.828 -21.592  1.00  0.00     0.128 C 
HETATM    4  C4  UNL     1      -1.525  51.360 -20.194  1.00  0.00     0.052 C 
HETATM    5  C5  UNL     1      -2.939  50.807 -19.917  1.00  0.00     0.010 C 
HETATM    6  C6  UNL     1      -3.218  49.872 -21.091  1.00  0.00     0.002 C 
HETATM    7  C7  UNL     1      -4.650  49.381 -21.353  1.00  0.00    -0.004 C 
HETATM    8  C8  UNL     1      -5.735  50.476 -21.351  1.00  0.00     0.010 C 
HETATM    9  C9  UNL     1      -6.848  50.251 -22.368  1.00  0.00     0.035 C 
HETATM   10  C10 UNL     1      -7.198  48.794 -22.411  1.00  0.00    -0.069 C 
HETATM   11  C11 UNL     1      -8.394  48.358 -21.971  1.00  0.00     0.030 C 
HETATM   12  C12 UNL     1      -8.734  46.912 -21.948  1.00  0.00     0.032 C 
HETATM   13  N1  UNL     1      -9.961  46.578 -21.660  1.00  0.00    -0.271 N 
ATOM     14  H1  UNL     1     -10.697  47.236 -21.407  1.00  0.00     0.194 HD
HETATM   15  C24 UNL     1      -7.645  45.906 -22.278  1.00  0.00     0.060 C 
HETATM   16  C25 UNL     1      -6.247  46.509 -22.185  1.00  0.00     0.020 C 
HETATM   17  C26 UNL     1      -6.099  47.868 -22.923  1.00  0.00    -0.016 C 
HETATM   18  C27 UNL     1      -6.324  47.647 -24.436  1.00  0.00     0.020 C 
HETATM   19  C28 UNL     1      -4.655  48.439 -22.603  1.00  0.00     0.002 C 
HETATM   20  C29 UNL     1      -3.883  49.048 -23.804  1.00  0.00     0.007 C 
HETATM   21  C30 UNL     1      -2.463  49.519 -23.436  1.00  0.00     0.014 C 
HETATM   22  C31 UNL     1      -2.482  50.537 -22.284  1.00  0.00     0.003 C 
HETATM   23  C32 UNL     1      -3.119  51.858 -22.790  1.00  0.00     0.020 C 
ENDROOT
BRANCH   3  24
HETATM   24  O1  UNL     1      -0.388  49.612 -21.398  1.00  0.00    -0.377 OA
HETATM   25  H2  UNL     1       0.471  49.851 -21.007  1.00  0.00     0.211 HD
ENDBRANCH   3  24
BRANCH  13  26
HETATM   26  O2  UNL     1     -10.129  45.185 -21.746  1.00  0.00    -0.271 OA
BRANCH  26  27
HETATM   27  C13 UNL     1     -11.206  44.895 -22.625  1.00  0.00     0.303 C 
BRANCH  27  28
HETATM   28  C14 UNL     1     -12.064  46.141 -22.813  1.00  0.00     0.244 C 
HETATM   29  O3  UNL     1     -11.863  47.001 -23.668  1.00  0.00    -0.271 OA
HETATM   30  N2  UNL     1     -13.125  46.233 -21.931  1.00  0.00    -0.346 N 
HETATM   31  H16 UNL     1     -13.454  45.385 -21.486  1.00  0.00     0.163 HD
BRANCH  30  32
HETATM   32  C15 UNL     1     -14.028  47.393 -21.934  1.00  0.00     0.180 C 
BRANCH  32  33
HETATM   33  C16 UNL     1     -15.126  47.126 -22.996  1.00  0.00     0.241 C 
HETATM   34  O4  UNL     1     -15.413  47.915 -23.894  1.00  0.00    -0.271 OA
HETATM   35  N3  UNL     1     -15.769  45.914 -22.832  1.00  0.00    -0.353 N 
HETATM   36  H18 UNL     1     -15.603  45.429 -21.947  1.00  0.00     0.163 HD
BRANCH  35  37
HETATM   37  C17 UNL     1     -16.938  45.529 -23.629  1.00  0.00     0.103 C 
BRANCH  37  38
HETATM   38  C18 UNL     1     -16.694  45.749 -25.141  1.00  0.00     0.096 C 
BRANCH  38  39
HETATM   39  S1  UNL     1     -17.012  44.275 -26.174  1.00  0.00    -0.180 SA
HETATM   40  H22 UNL     1     -16.739  44.857 -27.353  1.00  0.00     0.101 HD
ENDBRANCH  38  39
ENDBRANCH  37  38
BRANCH  37  41
HETATM   41  C19 UNL     1     -18.183  46.248 -23.090  1.00  0.00     0.136 C 
BRANCH  41  42
HETATM   42  C20 UNL     1     -19.117  46.657 -24.193  1.00  0.00     0.141 C 
HETATM   43  O5  UNL     1     -19.102  47.701 -24.822  1.00  0.00    -0.650 OA
BRANCH  42  44
HETATM   44  O6  UNL     1     -20.020  45.700 -24.475  1.00  0.00    -0.776 OA
HETATM   45  H25 UNL     1     -20.551  46.070 -25.211  1.00  0.00     0.167 HD
ENDBRANCH  42  44
ENDBRANCH  41  42
ENDBRANCH  37  41
ENDBRANCH  35  37
ENDBRANCH  32  33
BRANCH  32  46
HETATM   46  C21 UNL     1     -14.612  47.644 -20.523  1.00  0.00     0.009 C 
HETATM   47  C22 UNL     1     -14.497  46.397 -19.635  1.00  0.00     0.012 C 
HETATM   48  C23 UNL     1     -13.894  48.806 -19.826  1.00  0.00     0.012 C 
ENDBRANCH  32  46
ENDBRANCH  30  32
ENDBRANCH  27  28
ENDBRANCH  26  27
ENDBRANCH  13  26
TORSDOF 13
ENDMDL
MODEL 6
REMARK minimizedAffinity -8.23722363
REMARK CNNscore 0.319432616
REMARK CNNaffinity 5.98889112
REMARK  13 active torsions:
REMARK  status: ('A' for Active; 'I' for Inactive)
REMARK    1  A    between atoms: C3_3  and  O1_4 
REMARK    2  A    between atoms: N1_14  and  O2_16 
REMARK    3  A    between atoms: O2_16  and  C13_17 
REMARK    4  A    between atoms: C13_17  and  C14_18 
REMARK       I    between atoms: C14_18  and  N2_20 
REMARK    5  A    between atoms: N2_20  and  C15_21 
REMARK    6  A    between atoms: C15_21  and  C16_22 
REMARK    7  A    between atoms: C15_21  and  C21_32 
REMARK       I    between atoms: C16_22  and  N3_24 
REMARK    8  A    between atoms: N3_24  and  C17_25 
REMARK    9  A    between atoms: C17_25  and  C18_26 
REMARK   10  A    between atoms: C17_25  and  C19_28 
REMARK   11  A    between atoms: C18_26  and  S1_27 
REMARK   12  A    between atoms: C19_28  and  C20_29 
REMARK   13  A    between atoms: C20_29  and  O6_31 
ROOT
HETATM    1  C1  UNL     1       0.693  53.537 -23.666  1.00  0.00     0.015 C 
HETATM    2  C2  UNL     1      -0.186  52.914 -24.198  1.00  0.00    -0.078 C 
HETATM    3  C3  UNL     1      -1.257  52.160 -24.867  1.00  0.00     0.128 C 
HETATM    4  C4  UNL     1      -0.701  51.042 -25.788  1.00  0.00     0.052 C 
HETATM    5  C5  UNL     1      -1.739  49.901 -25.764  1.00  0.00     0.010 C 
HETATM    6  C6  UNL     1      -2.904  50.465 -24.956  1.00  0.00     0.002 C 
HETATM    7  C7  UNL     1      -3.996  49.521 -24.430  1.00  0.00    -0.004 C 
HETATM    8  C8  UNL     1      -3.487  48.258 -23.709  1.00  0.00     0.010 C 
HETATM    9  C9  UNL     1      -4.348  47.825 -22.528  1.00  0.00     0.035 C 
HETATM   10  C10 UNL     1      -5.796  48.007 -22.873  1.00  0.00    -0.069 C 
HETATM   11  C11 UNL     1      -6.609  46.943 -23.024  1.00  0.00     0.030 C 
HETATM   12  C12 UNL     1      -8.030  47.101 -23.426  1.00  0.00     0.032 C 
HETATM   13  N1  UNL     1      -8.793  46.045 -23.399  1.00  0.00    -0.271 N 
ATOM     14  H1  UNL     1      -8.476  45.106 -23.160  1.00  0.00     0.194 HD
HETATM   15  C24 UNL     1      -8.520  48.481 -23.829  1.00  0.00     0.060 C 
HETATM   16  C25 UNL     1      -7.374  49.433 -24.156  1.00  0.00     0.020 C 
HETATM   17  C26 UNL     1      -6.245  49.448 -23.090  1.00  0.00    -0.016 C 
HETATM   18  C27 UNL     1      -6.817  49.979 -21.756  1.00  0.00     0.020 C 
HETATM   19  C28 UNL     1      -5.066  50.352 -23.644  1.00  0.00     0.002 C 
HETATM   20  C29 UNL     1      -4.422  51.330 -22.625  1.00  0.00     0.007 C 
HETATM   21  C30 UNL     1      -3.333  52.224 -23.248  1.00  0.00     0.014 C 
HETATM   22  C31 UNL     1      -2.225  51.391 -23.913  1.00  0.00     0.003 C 
HETATM   23  C32 UNL     1      -1.419  50.655 -22.811  1.00  0.00     0.020 C 
ENDROOT
BRANCH   3  24
HETATM   24  O1  UNL     1      -1.990  53.074 -25.686  1.00  0.00    -0.377 OA
HETATM   25  H2  UNL     1      -1.340  53.556 -26.227  1.00  0.00     0.211 HD
ENDBRANCH   3  24
BRANCH  13  26
HETATM   26  O2  UNL     1     -10.115  46.378 -23.742  1.00  0.00    -0.271 OA
BRANCH  26  27
HETATM   27  C13 UNL     1     -11.008  45.763 -22.826  1.00  0.00     0.303 C 
BRANCH  27  28
HETATM   28  C14 UNL     1     -12.322  45.442 -23.529  1.00  0.00     0.244 C 
HETATM   29  O3  UNL     1     -12.931  44.379 -23.415  1.00  0.00    -0.271 OA
HETATM   30  N2  UNL     1     -12.802  46.467 -24.322  1.00  0.00    -0.346 N 
HETATM   31  H16 UNL     1     -12.479  47.409 -24.136  1.00  0.00     0.163 HD
BRANCH  30  32
HETATM   32  C15 UNL     1     -14.032  46.316 -25.113  1.00  0.00     0.180 C 
BRANCH  32  33
HETATM   33  C16 UNL     1     -15.204  46.877 -24.267  1.00  0.00     0.241 C 
HETATM   34  O4  UNL     1     -15.430  48.077 -24.125  1.00  0.00    -0.271 OA
HETATM   35  N3  UNL     1     -15.972  45.896 -23.670  1.00  0.00    -0.353 N 
HETATM   36  H18 UNL     1     -15.586  44.949 -23.679  1.00  0.00     0.163 HD
BRANCH  35  37
HETATM   37  C17 UNL     1     -17.034  46.205 -22.707  1.00  0.00     0.103 C 
BRANCH  37  38
HETATM   38  C18 UNL     1     -16.771  45.535 -21.336  1.00  0.00     0.096 C 
BRANCH  38  39
HETATM   39  S1  UNL     1     -17.108  46.613 -19.899  1.00  0.00    -0.180 SA
HETATM   40  H22 UNL     1     -16.812  45.703 -18.957  1.00  0.00     0.101 HD
ENDBRANCH  38  39
ENDBRANCH  37  38
BRANCH  37  41
HETATM   41  C19 UNL     1     -18.397  45.852 -23.319  1.00  0.00     0.136 C 
BRANCH  41  42
HETATM   42  C20 UNL     1     -18.616  46.539 -24.637  1.00  0.00     0.141 C 
HETATM   43  O5  UNL     1     -19.126  47.631 -24.824  1.00  0.00    -0.650 OA
BRANCH  42  44
HETATM   44  O6  UNL     1     -18.144  45.817 -25.671  1.00  0.00    -0.776 OA
HETATM   45  H25 UNL     1     -18.325  46.369 -26.461  1.00  0.00     0.167 HD
ENDBRANCH  42  44
ENDBRANCH  41  42
ENDBRANCH  37  41
ENDBRANCH  35  37
ENDBRANCH  32  33
BRANCH  32  46
HETATM   46  C21 UNL     1     -13.897  47.019 -26.485  1.00  0.00     0.009 C 
HETATM   47  C22 UNL     1     -12.453  47.465 -26.752  1.00  0.00     0.012 C 
HETATM   48  C23 UNL     1     -14.340  46.095 -27.626  1.00  0.00     0.012 C 
ENDBRANCH  32  46
ENDBRANCH  30  32
ENDBRANCH  27  28
ENDBRANCH  26  27
ENDBRANCH  13  26
TORSDOF 13
ENDMDL
MODEL 7
REMARK minimizedAffinity -8.25408077
REMARK CNNscore 0.3191742
REMARK CNNaffinity 6.70914221
REMARK  13 active torsions:
REMARK  status: ('A' for Active; 'I' for Inactive)
REMARK    1  A    between atoms: C3_3  and  O1_4 
REMARK    2  A    between atoms: N1_14  and  O2_16 
REMARK    3  A    between atoms: O2_16  and  C13_17 
REMARK    4  A    between atoms: C13_17  and  C14_18 
REMARK       I    between atoms: C14_18  and  N2_20 
REMARK    5  A    between atoms: N2_20  and  C15_21 
REMARK    6  A    between atoms: C15_21  and  C16_22 
REMARK    7  A    between atoms: C15_21  and  C21_32 
REMARK       I    between atoms: C16_22  and  N3_24 
REMARK    8  A    between atoms: N3_24  and  C17_25 
REMARK    9  A    between atoms: C17_25  and  C18_26 
REMARK   10  A    between atoms: C17_25  and  C19_28 
REMARK   11  A    between atoms: C18_26  and  S1_27 
REMARK   12  A    between atoms: C19_28  and  C20_29 
REMARK   13  A    between atoms: C20_29  and  O6_31 
ROOT
HETATM    1  C1  UNL     1      -7.078  48.418 -24.812  1.00  0.00     0.015 C 
HETATM    2  C2  UNL     1      -6.681  49.082 -23.893  1.00  0.00    -0.078 C 
HETATM    3  C3  UNL     1      -6.210  49.909 -22.771  1.00  0.00     0.128 C 
HETATM    4  C4  UNL     1      -7.052  49.688 -21.487  1.00  0.00     0.052 C 
HETATM    5  C5  UNL     1      -6.092  49.893 -20.296  1.00  0.00     0.010 C 
HETATM    6  C6  UNL     1      -4.788  50.360 -20.936  1.00  0.00     0.002 C 
HETATM    7  C7  UNL     1      -3.490  50.355 -20.115  1.00  0.00    -0.004 C 
HETATM    8  C8  UNL     1      -3.199  49.053 -19.344  1.00  0.00     0.010 C 
HETATM    9  C9  UNL     1      -1.722  48.682 -19.281  1.00  0.00     0.035 C 
HETATM   10  C10 UNL     1      -0.905  49.921 -19.071  1.00  0.00    -0.069 C 
HETATM   11  C11 UNL     1      -0.239  50.121 -17.918  1.00  0.00     0.030 C 
HETATM   12  C12 UNL     1       0.525  51.371 -17.668  1.00  0.00     0.032 C 
HETATM   13  N1  UNL     1       1.271  51.427 -16.600  1.00  0.00    -0.271 N 
ATOM     14  H1  UNL     1       1.337  50.690 -15.899  1.00  0.00     0.194 HD
HETATM   15  C24 UNL     1       0.411  52.503 -18.673  1.00  0.00     0.060 C 
HETATM   16  C25 UNL     1      -0.798  52.349 -19.590  1.00  0.00     0.020 C 
HETATM   17  C26 UNL     1      -0.937  50.932 -20.213  1.00  0.00    -0.016 C 
HETATM   18  C27 UNL     1       0.278  50.662 -21.129  1.00  0.00     0.020 C 
HETATM   19  C28 UNL     1      -2.312  50.883 -21.002  1.00  0.00     0.002 C 
HETATM   20  C29 UNL     1      -2.272  50.199 -22.395  1.00  0.00     0.007 C 
HETATM   21  C30 UNL     1      -3.624  50.248 -23.133  1.00  0.00     0.014 C 
HETATM   22  C31 UNL     1      -4.751  49.618 -22.298  1.00  0.00     0.003 C 
HETATM   23  C32 UNL     1      -4.511  48.089 -22.203  1.00  0.00     0.020 C 
ENDROOT
BRANCH   3  24
HETATM   24  O1  UNL     1      -6.345  51.280 -23.150  1.00  0.00    -0.377 OA
HETATM   25  H2  UNL     1      -7.254  51.398 -23.477  1.00  0.00     0.211 HD
ENDBRANCH   3  24
BRANCH  13  26
HETATM   26  O2  UNL     1       1.972  52.644 -16.548  1.00  0.00    -0.271 OA
BRANCH  26  27
HETATM   27  C13 UNL     1       3.207  52.447 -15.875  1.00  0.00     0.303 C 
BRANCH  27  28
HETATM   28  C14 UNL     1       2.968  51.680 -14.580  1.00  0.00     0.244 C 
HETATM   29  O3  UNL     1       3.302  50.511 -14.392  1.00  0.00    -0.271 OA
HETATM   30  N2  UNL     1       2.336  52.418 -13.596  1.00  0.00    -0.346 N 
HETATM   31  H16 UNL     1       2.381  53.428 -13.652  1.00  0.00     0.163 HD
BRANCH  30  32
HETATM   32  C15 UNL     1       1.981  51.824 -12.299  1.00  0.00     0.180 C 
BRANCH  32  33
HETATM   33  C16 UNL     1       2.876  52.489 -11.221  1.00  0.00     0.241 C 
HETATM   34  O4  UNL     1       3.813  51.920 -10.665  1.00  0.00    -0.271 OA
HETATM   35  N3  UNL     1       2.512  53.790 -10.928  1.00  0.00    -0.353 N 
HETATM   36  H18 UNL     1       1.606  54.098 -11.288  1.00  0.00     0.163 HD
BRANCH  35  37
HETATM   37  C17 UNL     1       3.124  54.551  -9.835  1.00  0.00     0.103 C 
BRANCH  37  38
HETATM   38  C18 UNL     1       2.080  55.424  -9.096  1.00  0.00     0.096 C 
BRANCH  38  39
HETATM   39  S1  UNL     1       0.348  55.085  -9.572  1.00  0.00    -0.180 SA
HETATM   40  H22 UNL     1      -0.213  55.967  -8.729  1.00  0.00     0.101 HD
ENDBRANCH  38  39
ENDBRANCH  37  38
BRANCH  37  41
HETATM   41  C19 UNL     1       4.325  55.342 -10.372  1.00  0.00     0.136 C 
BRANCH  41  42
HETATM   42  C20 UNL     1       5.415  55.473  -9.346  1.00  0.00     0.141 C 
HETATM   43  O5  UNL     1       5.314  55.922  -8.217  1.00  0.00    -0.650 OA
BRANCH  42  44
HETATM   44  O6  UNL     1       6.592  54.994  -9.791  1.00  0.00    -0.776 OA
HETATM   45  H25 UNL     1       7.209  55.116  -9.039  1.00  0.00     0.167 HD
ENDBRANCH  42  44
ENDBRANCH  41  42
ENDBRANCH  37  41
ENDBRANCH  35  37
ENDBRANCH  32  33
BRANCH  32  46
HETATM   46  C21 UNL     1       0.471  51.993 -12.008  1.00  0.00     0.009 C 
HETATM   47  C22 UNL     1      -0.329  52.230 -13.296  1.00  0.00     0.012 C 
HETATM   48  C23 UNL     1      -0.098  50.757 -11.302  1.00  0.00     0.012 C 
ENDBRANCH  32  46
ENDBRANCH  30  32
ENDBRANCH  27  28
ENDBRANCH  26  27
ENDBRANCH  13  26
TORSDOF 13
ENDMDL
MODEL 8
REMARK minimizedAffinity -7.50735474
REMARK CNNscore 0.295397073
REMARK CNNaffinity 6.11171103
REMARK  13 active torsions:
REMARK  status: ('A' for Active; 'I' for Inactive)
REMARK    1  A    between atoms: C3_3  and  O1_4 
REMARK    2  A    between atoms: N1_14  and  O2_16 
REMARK    3  A    between atoms: O2_16  and  C13_17 
REMARK    4  A    between atoms: C13_17  and  C14_18 
REMARK       I    between atoms: C14_18  and  N2_20 
REMARK    5  A    between atoms: N2_20  and  C15_21 
REMARK    6  A    between atoms: C15_21  and  C16_22 
REMARK    7  A    between atoms: C15_21  and  C21_32 
REMARK       I    between atoms: C16_22  and  N3_24 
REMARK    8  A    between atoms: N3_24  and  C17_25 
REMARK    9  A    between atoms: C17_25  and  C18_26 
REMARK   10  A    between atoms: C17_25  and  C19_28 
REMARK   11  A    between atoms: C18_26  and  S1_27 
REMARK   12  A    between atoms: C19_28  and  C20_29 
REMARK   13  A    between atoms: C20_29  and  O6_31 
ROOT
HETATM    1  C1  UNL     1      -0.369  50.169 -20.435  1.00  0.00     0.015 C 
HETATM    2  C2  UNL     1      -1.542  50.431 -20.444  1.00  0.00    -0.078 C 
HETATM    3  C3  UNL     1      -2.972  50.771 -20.452  1.00  0.00     0.128 C 
HETATM    4  C4  UNL     1      -3.398  51.488 -21.759  1.00  0.00     0.052 C 
HETATM    5  C5  UNL     1      -4.862  51.078 -22.026  1.00  0.00     0.010 C 
HETATM    6  C6  UNL     1      -5.258  50.267 -20.795  1.00  0.00     0.002 C 
HETATM    7  C7  UNL     1      -6.531  49.407 -20.825  1.00  0.00    -0.004 C 
HETATM    8  C8  UNL     1      -6.687  48.500 -22.061  1.00  0.00     0.010 C 
HETATM    9  C9  UNL     1      -7.330  47.150 -21.765  1.00  0.00     0.035 C 
HETATM   10  C10 UNL     1      -8.441  47.333 -20.775  1.00  0.00    -0.069 C 
HETATM   11  C11 UNL     1      -9.725  47.138 -21.135  1.00  0.00     0.030 C 
HETATM   12  C12 UNL     1     -10.842  47.374 -20.185  1.00  0.00     0.032 C 
HETATM   13  N1  UNL     1     -12.041  47.015 -20.551  1.00  0.00    -0.271 N 
ATOM     14  H1  UNL     1     -12.276  46.620 -21.461  1.00  0.00     0.194 HD
HETATM   15  C24 UNL     1     -10.528  48.001 -18.838  1.00  0.00     0.060 C 
HETATM   16  C25 UNL     1      -9.162  48.678 -18.815  1.00  0.00     0.020 C 
HETATM   17  C26 UNL     1      -8.015  47.799 -19.387  1.00  0.00    -0.016 C 
HETATM   18  C27 UNL     1      -7.842  46.551 -18.492  1.00  0.00     0.020 C 
HETATM   19  C28 UNL     1      -6.705  48.689 -19.444  1.00  0.00     0.002 C 
HETATM   20  C29 UNL     1      -5.396  48.004 -18.967  1.00  0.00     0.007 C 
HETATM   21  C30 UNL     1      -4.177  48.946 -18.984  1.00  0.00     0.014 C 
HETATM   22  C31 UNL     1      -3.946  49.552 -20.378  1.00  0.00     0.003 C 
HETATM   23  C32 UNL     1      -3.477  48.431 -21.342  1.00  0.00     0.020 C 
ENDROOT
BRANCH   3  24
HETATM   24  O1  UNL     1      -3.216  51.666 -19.364  1.00  0.00    -0.377 OA
HETATM   25  H2  UNL     1      -2.559  52.381 -19.431  1.00  0.00     0.211 HD
ENDBRANCH   3  24
BRANCH  13  26
HETATM   26  O2  UNL     1     -12.966  47.245 -19.518  1.00  0.00    -0.271 OA
BRANCH  26  27
HETATM   27  C13 UNL     1     -13.915  46.191 -19.493  1.00  0.00     0.303 C 
BRANCH  27  28
HETATM   28  C14 UNL     1     -15.317  46.758 -19.683  1.00  0.00     0.244 C 
HETATM   29  O3  UNL     1     -15.720  47.802 -19.173  1.00  0.00    -0.271 OA
HETATM   30  N2  UNL     1     -16.127  45.996 -20.505  1.00  0.00    -0.346 N 
HETATM   31  H16 UNL     1     -15.685  45.358 -21.156  1.00  0.00     0.163 HD
BRANCH  30  32
HETATM   32  C15 UNL     1     -17.526  46.366 -20.761  1.00  0.00     0.180 C 
BRANCH  32  33
HETATM   33  C16 UNL     1     -18.138  45.273 -21.676  1.00  0.00     0.241 C 
HETATM   34  O4  UNL     1     -17.634  44.164 -21.845  1.00  0.00    -0.271 OA
HETATM   35  N3  UNL     1     -19.306  45.666 -22.301  1.00  0.00    -0.353 N 
HETATM   36  H18 UNL     1     -19.528  46.663 -22.259  1.00  0.00     0.163 HD
BRANCH  35  37
HETATM   37  C17 UNL     1     -19.966  44.848 -23.322  1.00  0.00     0.103 C 
BRANCH  37  38
HETATM   38  C18 UNL     1     -20.528  43.535 -22.725  1.00  0.00     0.096 C 
BRANCH  38  39
HETATM   39  S1  UNL     1     -20.277  42.064 -23.779  1.00  0.00    -0.180 SA
HETATM   40  H22 UNL     1     -20.837  41.180 -22.939  1.00  0.00     0.101 HD
ENDBRANCH  38  39
ENDBRANCH  37  38
BRANCH  37  41
HETATM   41  C19 UNL     1     -19.008  44.632 -24.502  1.00  0.00     0.136 C 
BRANCH  41  42
HETATM   42  C20 UNL     1     -19.213  45.652 -25.586  1.00  0.00     0.141 C 
HETATM   43  O5  UNL     1     -18.913  45.546 -26.764  1.00  0.00    -0.650 OA
BRANCH  42  44
HETATM   44  O6  UNL     1     -19.823  46.762 -25.131  1.00  0.00    -0.776 OA
HETATM   45  H25 UNL     1     -19.917  47.335 -25.921  1.00  0.00     0.167 HD
ENDBRANCH  42  44
ENDBRANCH  41  42
ENDBRANCH  37  41
ENDBRANCH  35  37
ENDBRANCH  32  33
BRANCH  32  46
HETATM   46  C21 UNL     1     -18.305  46.537 -19.435  1.00  0.00     0.009 C 
HETATM   47  C22 UNL     1     -19.296  47.707 -19.510  1.00  0.00     0.012 C 
HETATM   48  C23 UNL     1     -19.082  45.264 -19.081  1.00  0.00     0.012 C 
ENDBRANCH  32  46
ENDBRANCH  30  32
ENDBRANCH  27  28
ENDBRANCH  26  27
ENDBRANCH  13  26
TORSDOF 13
ENDMDL
MODEL 9
REMARK minimizedAffinity -8.34875107
REMARK CNNscore 0.277691543
REMARK CNNaffinity 6.69628668
REMARK  13 active torsions:
REMARK  status: ('A' for Active; 'I' for Inactive)
REMARK    1  A    between atoms: C3_3  and  O1_4 
REMARK    2  A    between atoms: N1_14  and  O2_16 
REMARK    3  A    between atoms: O2_16  and  C13_17 
REMARK    4  A    between atoms: C13_17  and  C14_18 
REMARK       I    between atoms: C14_18  and  N2_20 
REMARK    5  A    between atoms: N2_20  and  C15_21 
REMARK    6  A    between atoms: C15_21  and  C16_22 
REMARK    7  A    between atoms: C15_21  and  C21_32 
REMARK       I    between atoms: C16_22  and  N3_24 
REMARK    8  A    between atoms: N3_24  and  C17_25 
REMARK    9  A    between atoms: C17_25  and  C18_26 
REMARK   10  A    between atoms: C17_25  and  C19_28 
REMARK   11  A    between atoms: C18_26  and  S1_27 
REMARK   12  A    between atoms: C19_28  and  C20_29 
REMARK   13  A    between atoms: C20_29  and  O6_31 
ROOT
HETATM    1  C1  UNL     1      -3.939  49.266 -27.506  1.00  0.00     0.015 C 
HETATM    2  C2  UNL     1      -3.366  49.822 -26.609  1.00  0.00    -0.078 C 
HETATM    3  C3  UNL     1      -2.651  50.511 -25.524  1.00  0.00     0.128 C 
HETATM    4  C4  UNL     1      -3.035  52.011 -25.428  1.00  0.00     0.052 C 
HETATM    5  C5  UNL     1      -2.931  52.394 -23.937  1.00  0.00     0.010 C 
HETATM    6  C6  UNL     1      -2.356  51.150 -23.265  1.00  0.00     0.002 C 
HETATM    7  C7  UNL     1      -2.409  51.014 -21.736  1.00  0.00    -0.004 C 
HETATM    8  C8  UNL     1      -3.778  51.310 -21.093  1.00  0.00     0.010 C 
HETATM    9  C9  UNL     1      -4.106  50.429 -19.893  1.00  0.00     0.035 C 
HETATM   10  C10 UNL     1      -2.872  50.232 -19.066  1.00  0.00    -0.069 C 
HETATM   11  C11 UNL     1      -2.777  50.762 -17.831  1.00  0.00     0.030 C 
HETATM   12  C12 UNL     1      -1.539  50.630 -17.021  1.00  0.00     0.032 C 
HETATM   13  N1  UNL     1      -1.574  51.028 -15.781  1.00  0.00    -0.271 N 
ATOM     14  H1  UNL     1      -2.381  51.465 -15.335  1.00  0.00     0.194 HD
HETATM   15  C24 UNL     1      -0.308  50.023 -17.673  1.00  0.00     0.060 C 
HETATM   16  C25 UNL     1      -0.401  50.012 -19.195  1.00  0.00     0.020 C 
HETATM   17  C26 UNL     1      -1.745  49.455 -19.739  1.00  0.00    -0.016 C 
HETATM   18  C27 UNL     1      -1.876  47.970 -19.335  1.00  0.00     0.020 C 
HETATM   19  C28 UNL     1      -1.752  49.657 -21.312  1.00  0.00     0.002 C 
HETATM   20  C29 UNL     1      -2.279  48.460 -22.149  1.00  0.00     0.007 C 
HETATM   21  C30 UNL     1      -2.193  48.699 -23.668  1.00  0.00     0.014 C 
HETATM   22  C31 UNL     1      -2.945  49.973 -24.087  1.00  0.00     0.003 C 
HETATM   23  C32 UNL     1      -4.468  49.742 -23.902  1.00  0.00     0.020 C 
ENDROOT
BRANCH   3  24
HETATM   24  O1  UNL     1      -1.252  50.437 -25.804  1.00  0.00    -0.377 OA
HETATM   25  H2  UNL     1      -1.128  50.741 -26.721  1.00  0.00     0.211 HD
ENDBRANCH   3  24
BRANCH  13  26
HETATM   26  O2  UNL     1      -0.349  50.774 -15.141  1.00  0.00    -0.271 OA
BRANCH  26  27
HETATM   27  C13 UNL     1       0.160  51.984 -14.601  1.00  0.00     0.303 C 
BRANCH  27  28
HETATM   28  C14 UNL     1      -0.205  52.079 -13.124  1.00  0.00     0.244 C 
HETATM   29  O3  UNL     1      -1.006  51.338 -12.556  1.00  0.00    -0.271 OA
HETATM   30  N2  UNL     1       0.458  53.083 -12.443  1.00  0.00    -0.346 N 
HETATM   31  H16 UNL     1       1.324  53.436 -12.832  1.00  0.00     0.163 HD
BRANCH  30  32
HETATM   32  C15 UNL     1       0.193  53.352 -11.022  1.00  0.00     0.180 C 
BRANCH  32  33
HETATM   33  C16 UNL     1       1.554  53.661 -10.344  1.00  0.00     0.241 C 
HETATM   34  O4  UNL     1       1.817  53.371  -9.179  1.00  0.00    -0.271 OA
HETATM   35  N3  UNL     1       2.449  54.309 -11.174  1.00  0.00    -0.353 N 
HETATM   36  H18 UNL     1       2.068  54.685 -12.045  1.00  0.00     0.163 HD
BRANCH  35  37
HETATM   37  C17 UNL     1       3.732  54.829 -10.693  1.00  0.00     0.103 C 
BRANCH  37  38
HETATM   38  C18 UNL     1       4.332  53.931  -9.585  1.00  0.00     0.096 C 
BRANCH  38  39
HETATM   39  S1  UNL     1       6.156  53.991  -9.476  1.00  0.00    -0.180 SA
HETATM   40  H22 UNL     1       6.270  53.156  -8.431  1.00  0.00     0.101 HD
ENDBRANCH  38  39
ENDBRANCH  37  38
BRANCH  37  41
HETATM   41  C19 UNL     1       3.566  56.298 -10.279  1.00  0.00     0.136 C 
BRANCH  41  42
HETATM   42  C20 UNL     1       3.565  56.464  -8.786  1.00  0.00     0.141 C 
HETATM   43  O5  UNL     1       4.444  56.956  -8.098  1.00  0.00    -0.650 OA
BRANCH  42  44
HETATM   44  O6  UNL     1       2.423  56.022  -8.226  1.00  0.00    -0.776 OA
HETATM   45  H25 UNL     1       2.533  56.198  -7.268  1.00  0.00     0.167 HD
ENDBRANCH  42  44
ENDBRANCH  41  42
ENDBRANCH  37  41
ENDBRANCH  35  37
ENDBRANCH  32  33
BRANCH  32  46
HETATM   46  C21 UNL     1      -0.829  54.502 -10.857  1.00  0.00     0.009 C 
HETATM   47  C22 UNL     1      -2.257  53.966 -10.678  1.00  0.00     0.012 C 
HETATM   48  C23 UNL     1      -0.483  55.381  -9.650  1.00  0.00     0.012 C 
ENDBRANCH  32  46
ENDBRANCH  30  32
ENDBRANCH  27  28
ENDBRANCH  26  27
ENDBRANCH  13  26
TORSDOF 13
ENDMDL
