MODEL 1
REMARK minimizedAffinity -7.66372252
REMARK CNNscore 0.831801772
REMARK CNNaffinity 7.06428766
REMARK  11 active torsions:
REMARK  status: ('A' for Active; 'I' for Inactive)
REMARK    1  A    between atoms: C2_2  and  C3_3 
REMARK    2  A    between atoms: C2_2  and  C30_36 
REMARK    3  A    between atoms: C3_3  and  C4_5 
REMARK    4  A    between atoms: C4_5  and  O2_6 
REMARK    5  A    between atoms: C4_5  and  C5_7 
REMARK    6  A    between atoms: C5_7  and  C7_9 
REMARK    7  A    between atoms: C8_10  and  O3_11 
REMARK    8  A    between atoms: O3_11  and  C9_12 
REMARK    9  A    between atoms: C22_27  and  O6_28 
REMARK   10  A    between atoms: C30_36  and  C32_38 
REMARK   11  A    between atoms: C32_38  and  O7_39 
ROOT
HETATM    1  C7  UNL     1       1.219  10.103  17.253  1.00  0.00     0.031 C 
HETATM    2  C8  UNL     1      -0.273  10.518  17.014  1.00  0.00     0.138 C 
HETATM    3  C11 UNL     1      -0.623  10.111  15.565  1.00  0.00     0.043 C 
HETATM    4  C12 UNL     1       0.547   9.235  15.083  1.00  0.00    -0.030 C 
HETATM    5  C13 UNL     1       0.242   7.782  15.563  1.00  0.00     0.016 C 
HETATM    6  C14 UNL     1       0.765   9.265  13.544  1.00  0.00     0.004 C 
HETATM    7  C15 UNL     1      -0.332   8.550  12.745  1.00  0.00     0.007 C 
HETATM    8  C16 UNL     1      -0.081   8.691  11.247  1.00  0.00     0.007 C 
HETATM    9  C17 UNL     1       1.159   7.893  10.839  1.00  0.00     0.008 C 
HETATM   10  C18 UNL     1       1.552   8.088   9.358  1.00  0.00     0.056 C 
HETATM   11  C19 UNL     1       0.399   7.829   8.387  1.00  0.00     0.018 C 
HETATM   12  C20 UNL     1       2.729   7.161   9.052  1.00  0.00     0.133 C 
HETATM   13  O5  UNL     1       2.771   6.456   8.041  1.00  0.00    -0.297 OA
HETATM   14  C21 UNL     1       3.926   7.241   9.975  1.00  0.00     0.111 C 
HETATM   15  C22 UNL     1       3.508   7.184  11.439  1.00  0.00     0.134 C 
HETATM   16  C23 UNL     1       2.383   8.169  11.726  1.00  0.00    -0.001 A 
HETATM   17  C24 UNL     1       2.812   9.590  12.001  1.00  0.00     0.024 A 
HETATM   18  C25 UNL     1       2.180   8.795  13.135  1.00  0.00    -0.025 A 
HETATM   19  C26 UNL     1       3.104   8.313  14.255  1.00  0.00     0.011 C 
HETATM   20  C27 UNL     1       2.986   9.003  15.628  1.00  0.00     0.011 C 
HETATM   21  C28 UNL     1       1.767   9.920  15.795  1.00  0.00    -0.030 C 
HETATM   22  C29 UNL     1       2.143  11.315  15.215  1.00  0.00     0.016 C 
ENDROOT
BRANCH   1  23
HETATM   23  C5  UNL     1       1.993  10.999  18.276  1.00  0.00     0.025 C 
HETATM   24  C6  UNL     1       3.477  11.117  17.890  1.00  0.00     0.013 C 
BRANCH  23  25
HETATM   25  C4  UNL     1       1.865  10.435  19.716  1.00  0.00     0.196 C 
BRANCH  25  26
HETATM   26  C3  UNL     1       1.855  11.495  20.839  1.00  0.00     0.184 C 
HETATM   27  O1  UNL     1       1.144  12.500  20.729  1.00  0.00    -0.290 OA
BRANCH  26  28
HETATM   28  C2  UNL     1       2.723  11.324  22.050  1.00  0.00    -0.013 C 
HETATM   29  C1  UNL     1       2.978  12.449  22.740  1.00  0.00     0.023 C 
BRANCH  28  30
HETATM   30  C30 UNL     1       3.288   9.961  22.364  1.00  0.00     0.041 C 
HETATM   31  C31 UNL     1       4.620  10.095  23.115  1.00  0.00     0.017 C 
BRANCH  30  32
HETATM   32  C32 UNL     1       2.306   9.060  23.135  1.00  0.00     0.173 C 
BRANCH  32  33
HETATM   33  O7  UNL     1       1.855   8.008  22.285  1.00  0.00    -0.400 OA
HETATM   34  H48 UNL     1       1.237   7.463  22.806  1.00  0.00     0.209 HD
ENDBRANCH  32  33
ENDBRANCH  30  32
ENDBRANCH  28  30
ENDBRANCH  26  28
ENDBRANCH  25  26
BRANCH  25  35
HETATM   35  O2  UNL     1       2.945   9.522  19.951  1.00  0.00    -0.387 OA
HETATM   36  H4  UNL     1       3.138   9.572  20.908  1.00  0.00     0.210 HD
ENDBRANCH  25  35
ENDBRANCH  23  25
ENDBRANCH   1  23
BRANCH   2  37
HETATM   37  O3  UNL     1      -0.446  11.940  17.163  1.00  0.00    -0.316 OA
BRANCH  37  38
HETATM   38  C9  UNL     1      -1.502  12.325  17.935  1.00  0.00     0.255 C 
HETATM   39  C10 UNL     1      -1.932  11.206  18.834  1.00  0.00     0.126 C 
HETATM   40  O4  UNL     1      -2.054  13.414  17.890  1.00  0.00    -0.266 OA
ENDBRANCH  37  38
ENDBRANCH   2  37
BRANCH  15  41
HETATM   41  O6  UNL     1       3.074   5.875  11.793  1.00  0.00    -0.394 OA
HETATM   42  H32 UNL     1       3.819   5.266  11.648  1.00  0.00     0.210 HD
ENDBRANCH  15  41
TORSDOF 11
ENDMDL
MODEL 2
REMARK minimizedAffinity -8.60770607
REMARK CNNscore 0.739593565
REMARK CNNaffinity 7.44703531
REMARK  11 active torsions:
REMARK  status: ('A' for Active; 'I' for Inactive)
REMARK    1  A    between atoms: C2_2  and  C3_3 
REMARK    2  A    between atoms: C2_2  and  C30_36 
REMARK    3  A    between atoms: C3_3  and  C4_5 
REMARK    4  A    between atoms: C4_5  and  O2_6 
REMARK    5  A    between atoms: C4_5  and  C5_7 
REMARK    6  A    between atoms: C5_7  and  C7_9 
REMARK    7  A    between atoms: C8_10  and  O3_11 
REMARK    8  A    between atoms: O3_11  and  C9_12 
REMARK    9  A    between atoms: C22_27  and  O6_28 
REMARK   10  A    between atoms: C30_36  and  C32_38 
REMARK   11  A    between atoms: C32_38  and  O7_39 
ROOT
HETATM    1  C7  UNL     1       1.544   6.997  11.050  1.00  0.00     0.031 C 
HETATM    2  C8  UNL     1       1.036   8.089  10.049  1.00  0.00     0.138 C 
HETATM    3  C11 UNL     1      -0.379   8.499  10.516  1.00  0.00     0.043 C 
HETATM    4  C12 UNL     1      -0.562   7.862  11.905  1.00  0.00    -0.030 C 
HETATM    5  C13 UNL     1       0.063   8.854  12.934  1.00  0.00     0.016 C 
HETATM    6  C14 UNL     1      -2.042   7.559  12.269  1.00  0.00     0.004 C 
HETATM    7  C15 UNL     1      -2.887   8.810  12.537  1.00  0.00     0.007 C 
HETATM    8  C16 UNL     1      -4.338   8.428  12.812  1.00  0.00     0.007 C 
HETATM    9  C17 UNL     1      -4.449   7.697  14.153  1.00  0.00     0.008 C 
HETATM   10  C18 UNL     1      -5.869   7.165  14.443  1.00  0.00     0.056 C 
HETATM   11  C19 UNL     1      -6.953   8.238  14.322  1.00  0.00     0.018 C 
HETATM   12  C20 UNL     1      -5.872   6.558  15.847  1.00  0.00     0.133 C 
HETATM   13  O5  UNL     1      -6.760   6.794  16.669  1.00  0.00    -0.297 OA
HETATM   14  C21 UNL     1      -4.804   5.530  16.153  1.00  0.00     0.111 C 
HETATM   15  C22 UNL     1      -3.422   6.017  15.734  1.00  0.00     0.134 C 
HETATM   16  C23 UNL     1      -3.439   6.549  14.307  1.00  0.00    -0.001 A 
HETATM   17  C24 UNL     1      -3.300   5.511  13.220  1.00  0.00     0.024 A 
HETATM   18  C25 UNL     1      -2.173   6.517  13.405  1.00  0.00    -0.025 A 
HETATM   19  C26 UNL     1      -0.875   6.010  14.037  1.00  0.00     0.011 C 
HETATM   20  C27 UNL     1       0.359   5.870  13.125  1.00  0.00     0.011 C 
HETATM   21  C28 UNL     1       0.220   6.510  11.737  1.00  0.00    -0.030 C 
HETATM   22  C29 UNL     1      -0.484   5.478  10.808  1.00  0.00     0.016 C 
ENDROOT
BRANCH   1  23
HETATM   23  C5  UNL     1       2.537   5.955  10.436  1.00  0.00     0.025 C 
HETATM   24  C6  UNL     1       2.055   4.518  10.694  1.00  0.00     0.013 C 
BRANCH  23  25
HETATM   25  C4  UNL     1       3.966   6.145  11.010  1.00  0.00     0.196 C 
BRANCH  25  26
HETATM   26  C3  UNL     1       4.485   7.599  11.016  1.00  0.00     0.184 C 
HETATM   27  O1  UNL     1       4.626   8.205   9.949  1.00  0.00    -0.290 OA
BRANCH  26  28
HETATM   28  C2  UNL     1       4.841   8.272  12.308  1.00  0.00    -0.013 C 
HETATM   29  C1  UNL     1       3.838   8.934  12.910  1.00  0.00     0.023 C 
BRANCH  28  30
HETATM   30  C30 UNL     1       6.268   8.220  12.796  1.00  0.00     0.041 C 
HETATM   31  C31 UNL     1       7.046   9.448  12.303  1.00  0.00     0.017 C 
BRANCH  30  32
HETATM   32  C32 UNL     1       6.382   8.069  14.324  1.00  0.00     0.173 C 
BRANCH  32  33
HETATM   33  O7  UNL     1       6.097   6.722  14.694  1.00  0.00    -0.400 OA
HETATM   34  H48 UNL     1       6.178   6.668  15.664  1.00  0.00     0.209 HD
ENDBRANCH  32  33
ENDBRANCH  30  32
ENDBRANCH  28  30
ENDBRANCH  26  28
ENDBRANCH  25  26
BRANCH  25  35
HETATM   35  O2  UNL     1       4.876   5.332  10.258  1.00  0.00    -0.387 OA
HETATM   36  H4  UNL     1       5.735   5.801  10.276  1.00  0.00     0.210 HD
ENDBRANCH  25  35
ENDBRANCH  23  25
ENDBRANCH   1  23
BRANCH   2  37
HETATM   37  O3  UNL     1       0.963   7.571   8.708  1.00  0.00    -0.316 OA
BRANCH  37  38
HETATM   38  C9  UNL     1       1.814   8.145   7.809  1.00  0.00     0.255 C 
HETATM   39  C10 UNL     1       1.965   7.274   6.599  1.00  0.00     0.126 C 
HETATM   40  O4  UNL     1       2.403   9.203   7.966  1.00  0.00    -0.266 OA
ENDBRANCH  37  38
ENDBRANCH   2  37
BRANCH  15  41
HETATM   41  O6  UNL     1      -2.960   7.045  16.604  1.00  0.00    -0.394 OA
HETATM   42  H32 UNL     1      -2.911   6.675  17.502  1.00  0.00     0.210 HD
ENDBRANCH  15  41
TORSDOF 11
ENDMDL
MODEL 3
REMARK minimizedAffinity -6.84638357
REMARK CNNscore 0.657088935
REMARK CNNaffinity 5.8556056
REMARK  11 active torsions:
REMARK  status: ('A' for Active; 'I' for Inactive)
REMARK    1  A    between atoms: C2_2  and  C3_3 
REMARK    2  A    between atoms: C2_2  and  C30_36 
REMARK    3  A    between atoms: C3_3  and  C4_5 
REMARK    4  A    between atoms: C4_5  and  O2_6 
REMARK    5  A    between atoms: C4_5  and  C5_7 
REMARK    6  A    between atoms: C5_7  and  C7_9 
REMARK    7  A    between atoms: C8_10  and  O3_11 
REMARK    8  A    between atoms: O3_11  and  C9_12 
REMARK    9  A    between atoms: C22_27  and  O6_28 
REMARK   10  A    between atoms: C30_36  and  C32_38 
REMARK   11  A    between atoms: C32_38  and  O7_39 
ROOT
HETATM    1  C7  UNL     1     -16.929  -1.249  14.821  1.00  0.00     0.031 C 
HETATM    2  C8  UNL     1     -17.317  -1.400  16.331  1.00  0.00     0.138 C 
HETATM    3  C11 UNL     1     -17.552   0.027  16.877  1.00  0.00     0.043 C 
HETATM    4  C12 UNL     1     -17.572   0.948  15.644  1.00  0.00    -0.030 C 
HETATM    5  C13 UNL     1     -19.032   0.920  15.092  1.00  0.00     0.016 C 
HETATM    6  C14 UNL     1     -17.131   2.408  15.940  1.00  0.00     0.004 C 
HETATM    7  C15 UNL     1     -18.139   3.208  16.774  1.00  0.00     0.007 C 
HETATM    8  C16 UNL     1     -17.595   4.599  17.082  1.00  0.00     0.007 C 
HETATM    9  C17 UNL     1     -17.529   5.438  15.803  1.00  0.00     0.008 C 
HETATM   10  C18 UNL     1     -16.869   6.819  16.010  1.00  0.00     0.056 C 
HETATM   11  C19 UNL     1     -17.496   7.623  17.151  1.00  0.00     0.018 C 
HETATM   12  C20 UNL     1     -16.964   7.593  14.695  1.00  0.00     0.133 C 
HETATM   13  O5  UNL     1     -17.327   8.770  14.644  1.00  0.00    -0.297 OA
HETATM   14  C21 UNL     1     -16.454   6.899  13.450  1.00  0.00     0.111 C 
HETATM   15  C22 UNL     1     -17.009   5.485  13.332  1.00  0.00     0.134 C 
HETATM   16  C23 UNL     1     -16.835   4.718  14.636  1.00  0.00    -0.001 A 
HETATM   17  C24 UNL     1     -15.487   4.072  14.840  1.00  0.00     0.024 A 
HETATM   18  C25 UNL     1     -16.700   3.169  14.664  1.00  0.00    -0.025 A 
HETATM   19  C26 UNL     1     -16.839   2.429  13.333  1.00  0.00     0.011 C 
HETATM   20  C27 UNL     1     -16.598   0.907  13.331  1.00  0.00     0.011 C 
HETATM   21  C28 UNL     1     -16.507   0.259  14.719  1.00  0.00    -0.030 C 
HETATM   22  C29 UNL     1     -15.039   0.410  15.215  1.00  0.00     0.016 C 
ENDROOT
BRANCH   1  23
HETATM   23  C5  UNL     1     -15.983  -2.367  14.271  1.00  0.00     0.025 C 
HETATM   24  C6  UNL     1     -14.605  -2.304  14.950  1.00  0.00     0.013 C 
BRANCH  23  25
HETATM   25  C4  UNL     1     -15.821  -2.249  12.732  1.00  0.00     0.196 C 
BRANCH  25  26
HETATM   26  C3  UNL     1     -15.988  -3.570  11.950  1.00  0.00     0.184 C 
HETATM   27  O1  UNL     1     -17.057  -4.187  12.008  1.00  0.00    -0.290 OA
BRANCH  26  28
HETATM   28  C2  UNL     1     -14.851  -4.122  11.143  1.00  0.00    -0.013 C 
HETATM   29  C1  UNL     1     -13.914  -4.784  11.842  1.00  0.00     0.023 C 
BRANCH  28  30
HETATM   30  C30 UNL     1     -14.800  -3.847   9.660  1.00  0.00     0.041 C 
HETATM   31  C31 UNL     1     -13.617  -2.930   9.326  1.00  0.00     0.017 C 
BRANCH  30  32
HETATM   32  C32 UNL     1     -14.766  -5.128   8.806  1.00  0.00     0.173 C 
BRANCH  32  33
HETATM   33  O7  UNL     1     -13.430  -5.381   8.377  1.00  0.00    -0.400 OA
HETATM   34  H48 UNL     1     -13.450  -6.195   7.841  1.00  0.00     0.209 HD
ENDBRANCH  32  33
ENDBRANCH  30  32
ENDBRANCH  28  30
ENDBRANCH  26  28
ENDBRANCH  25  26
BRANCH  25  35
HETATM   35  O2  UNL     1     -14.527  -1.703  12.447  1.00  0.00    -0.387 OA
HETATM   36  H4  UNL     1     -14.259  -2.079  11.584  1.00  0.00     0.210 HD
ENDBRANCH  25  35
ENDBRANCH  23  25
ENDBRANCH   1  23
BRANCH   2  37
HETATM   37  O3  UNL     1     -16.258  -2.026  17.079  1.00  0.00    -0.316 OA
BRANCH  37  38
HETATM   38  C9  UNL     1     -16.649  -2.706  18.194  1.00  0.00     0.255 C 
HETATM   39  C10 UNL     1     -17.477  -3.898  17.819  1.00  0.00     0.126 C 
HETATM   40  O4  UNL     1     -16.396  -2.387  19.346  1.00  0.00    -0.266 OA
ENDBRANCH  37  38
ENDBRANCH   2  37
BRANCH  15  41
HETATM   41  O6  UNL     1     -18.391   5.508  12.992  1.00  0.00    -0.394 OA
HETATM   42  H32 UNL     1     -18.478   5.960  12.135  1.00  0.00     0.210 HD
ENDBRANCH  15  41
TORSDOF 11
ENDMDL
MODEL 4
REMARK minimizedAffinity -8.69992161
REMARK CNNscore 0.562101901
REMARK CNNaffinity 6.80353594
REMARK  11 active torsions:
REMARK  status: ('A' for Active; 'I' for Inactive)
REMARK    1  A    between atoms: C2_2  and  C3_3 
REMARK    2  A    between atoms: C2_2  and  C30_36 
REMARK    3  A    between atoms: C3_3  and  C4_5 
REMARK    4  A    between atoms: C4_5  and  O2_6 
REMARK    5  A    between atoms: C4_5  and  C5_7 
REMARK    6  A    between atoms: C5_7  and  C7_9 
REMARK    7  A    between atoms: C8_10  and  O3_11 
REMARK    8  A    between atoms: O3_11  and  C9_12 
REMARK    9  A    between atoms: C22_27  and  O6_28 
REMARK   10  A    between atoms: C30_36  and  C32_38 
REMARK   11  A    between atoms: C32_38  and  O7_39 
ROOT
HETATM    1  C7  UNL     1      -0.895   9.197  15.493  1.00  0.00     0.031 C 
HETATM    2  C8  UNL     1      -1.743  10.255  14.708  1.00  0.00     0.138 C 
HETATM    3  C11 UNL     1      -1.478  10.012  13.204  1.00  0.00     0.043 C 
HETATM    4  C12 UNL     1      -0.719   8.675  13.124  1.00  0.00    -0.030 C 
HETATM    5  C13 UNL     1      -1.802   7.551  13.113  1.00  0.00     0.016 C 
HETATM    6  C14 UNL     1       0.208   8.551  11.884  1.00  0.00     0.004 C 
HETATM    7  C15 UNL     1      -0.543   8.408  10.554  1.00  0.00     0.007 C 
HETATM    8  C16 UNL     1       0.437   8.367   9.386  1.00  0.00     0.007 C 
HETATM    9  C17 UNL     1       1.246   7.068   9.417  1.00  0.00     0.008 C 
HETATM   10  C18 UNL     1       2.350   7.009   8.338  1.00  0.00     0.056 C 
HETATM   11  C19 UNL     1       1.830   7.289   6.927  1.00  0.00     0.018 C 
HETATM   12  C20 UNL     1       3.005   5.629   8.404  1.00  0.00     0.133 C 
HETATM   13  O5  UNL     1       3.231   4.955   7.397  1.00  0.00    -0.297 OA
HETATM   14  C21 UNL     1       3.504   5.169   9.757  1.00  0.00     0.111 C 
HETATM   15  C22 UNL     1       2.448   5.360  10.837  1.00  0.00     0.134 C 
HETATM   16  C23 UNL     1       1.866   6.767  10.790  1.00  0.00    -0.001 A 
HETATM   17  C24 UNL     1       2.662   7.829  11.510  1.00  0.00     0.024 A 
HETATM   18  C25 UNL     1       1.290   7.459  12.058  1.00  0.00    -0.025 A 
HETATM   19  C26 UNL     1       1.247   6.637  13.347  1.00  0.00     0.011 C 
HETATM   20  C27 UNL     1       0.781   7.345  14.633  1.00  0.00     0.011 C 
HETATM   21  C28 UNL     1       0.157   8.731  14.426  1.00  0.00    -0.030 C 
HETATM   22  C29 UNL     1       1.316   9.768  14.370  1.00  0.00     0.016 C 
ENDROOT
BRANCH   1  23
HETATM   23  C5  UNL     1      -0.421   9.657  16.911  1.00  0.00     0.025 C 
HETATM   24  C6  UNL     1      -1.573  10.316  17.688  1.00  0.00     0.013 C 
BRANCH  23  25
HETATM   25  C4  UNL     1       0.775  10.640  16.805  1.00  0.00     0.196 C 
BRANCH  25  26
HETATM   26  C3  UNL     1       1.998  10.284  17.677  1.00  0.00     0.184 C 
HETATM   27  O1  UNL     1       2.471   9.143  17.636  1.00  0.00    -0.290 OA
BRANCH  26  28
HETATM   28  C2  UNL     1       2.601  11.308  18.592  1.00  0.00    -0.013 C 
HETATM   29  C1  UNL     1       3.425  12.192  18.006  1.00  0.00     0.023 C 
BRANCH  28  30
HETATM   30  C30 UNL     1       2.306  11.238  20.071  1.00  0.00     0.041 C 
HETATM   31  C31 UNL     1       0.809  11.454  20.328  1.00  0.00     0.017 C 
BRANCH  30  32
HETATM   32  C32 UNL     1       2.799   9.936  20.727  1.00  0.00     0.173 C 
BRANCH  32  33
HETATM   33  O7  UNL     1       4.211  10.001  20.917  1.00  0.00    -0.400 OA
HETATM   34  H48 UNL     1       4.483   9.162  21.331  1.00  0.00     0.209 HD
ENDBRANCH  32  33
ENDBRANCH  30  32
ENDBRANCH  28  30
ENDBRANCH  26  28
ENDBRANCH  25  26
BRANCH  25  35
HETATM   35  O2  UNL     1       0.323  11.955  17.155  1.00  0.00    -0.387 OA
HETATM   36  H4  UNL     1       1.094  12.409  17.551  1.00  0.00     0.210 HD
ENDBRANCH  25  35
ENDBRANCH  23  25
ENDBRANCH   1  23
BRANCH   2  37
HETATM   37  O3  UNL     1      -1.346  11.596  15.050  1.00  0.00    -0.316 OA
BRANCH  37  38
HETATM   38  C9  UNL     1      -2.201  12.581  14.653  1.00  0.00     0.255 C 
HETATM   39  C10 UNL     1      -3.535  12.418  15.318  1.00  0.00     0.126 C 
HETATM   40  O4  UNL     1      -1.945  13.461  13.846  1.00  0.00    -0.266 OA
ENDBRANCH  37  38
ENDBRANCH   2  37
BRANCH  15  41
HETATM   41  O6  UNL     1       1.391   4.420  10.688  1.00  0.00    -0.394 OA
HETATM   42  H32 UNL     1       1.772   3.529  10.768  1.00  0.00     0.210 HD
ENDBRANCH  15  41
TORSDOF 11
ENDMDL
MODEL 5
REMARK minimizedAffinity -8.32390594
REMARK CNNscore 0.501817584
REMARK CNNaffinity 6.95933294
REMARK  11 active torsions:
REMARK  status: ('A' for Active; 'I' for Inactive)
REMARK    1  A    between atoms: C2_2  and  C3_3 
REMARK    2  A    between atoms: C2_2  and  C30_36 
REMARK    3  A    between atoms: C3_3  and  C4_5 
REMARK    4  A    between atoms: C4_5  and  O2_6 
REMARK    5  A    between atoms: C4_5  and  C5_7 
REMARK    6  A    between atoms: C5_7  and  C7_9 
REMARK    7  A    between atoms: C8_10  and  O3_11 
REMARK    8  A    between atoms: O3_11  and  C9_12 
REMARK    9  A    between atoms: C22_27  and  O6_28 
REMARK   10  A    between atoms: C30_36  and  C32_38 
REMARK   11  A    between atoms: C32_38  and  O7_39 
ROOT
HETATM    1  C7  UNL     1      -0.955   6.297  14.466  1.00  0.00     0.031 C 
HETATM    2  C8  UNL     1      -0.812   7.457  15.509  1.00  0.00     0.138 C 
HETATM    3  C11 UNL     1      -2.245   7.919  15.861  1.00  0.00     0.043 C 
HETATM    4  C12 UNL     1      -3.186   6.867  15.248  1.00  0.00    -0.030 C 
HETATM    5  C13 UNL     1      -3.304   5.714  16.293  1.00  0.00     0.016 C 
HETATM    6  C14 UNL     1      -4.593   7.417  14.883  1.00  0.00     0.004 C 
HETATM    7  C15 UNL     1      -5.468   7.750  16.098  1.00  0.00     0.007 C 
HETATM    8  C16 UNL     1      -6.797   8.351  15.652  1.00  0.00     0.007 C 
HETATM    9  C17 UNL     1      -7.649   7.292  14.948  1.00  0.00     0.008 C 
HETATM   10  C18 UNL     1      -8.959   7.856  14.355  1.00  0.00     0.056 C 
HETATM   11  C19 UNL     1      -9.796   8.635  15.371  1.00  0.00     0.018 C 
HETATM   12  C20 UNL     1      -9.763   6.689  13.781  1.00  0.00     0.133 C 
HETATM   13  O5  UNL     1     -10.969   6.548  13.993  1.00  0.00    -0.297 OA
HETATM   14  C21 UNL     1      -9.047   5.771  12.813  1.00  0.00     0.111 C 
HETATM   15  C22 UNL     1      -7.693   5.332  13.356  1.00  0.00     0.134 C 
HETATM   16  C23 UNL     1      -6.889   6.525  13.854  1.00  0.00    -0.001 A 
HETATM   17  C24 UNL     1      -6.117   7.279  12.799  1.00  0.00     0.024 A 
HETATM   18  C25 UNL     1      -5.334   6.521  13.862  1.00  0.00    -0.025 A 
HETATM   19  C26 UNL     1      -4.635   5.230  13.433  1.00  0.00     0.011 C 
HETATM   20  C27 UNL     1      -3.098   5.248  13.332  1.00  0.00     0.011 C 
HETATM   21  C28 UNL     1      -2.418   6.486  13.932  1.00  0.00    -0.030 C 
HETATM   22  C29 UNL     1      -2.423   7.601  12.846  1.00  0.00     0.016 C 
ENDROOT
BRANCH   1  23
HETATM   23  C5  UNL     1       0.236   6.171  13.459  1.00  0.00     0.025 C 
HETATM   24  C6  UNL     1       1.566   6.554  14.129  1.00  0.00     0.013 C 
BRANCH  23  25
HETATM   25  C4  UNL     1       0.001   7.056  12.207  1.00  0.00     0.196 C 
BRANCH  25  26
HETATM   26  C3  UNL     1       0.131   6.328  10.851  1.00  0.00     0.184 C 
HETATM   27  O1  UNL     1      -0.485   5.274  10.659  1.00  0.00    -0.290 OA
BRANCH  26  28
HETATM   28  C2  UNL     1       1.021   6.878   9.777  1.00  0.00    -0.013 C 
HETATM   29  C1  UNL     1       0.566   7.979   9.158  1.00  0.00     0.023 C 
BRANCH  28  30
HETATM   30  C30 UNL     1       2.293   6.145   9.428  1.00  0.00     0.041 C 
HETATM   31  C31 UNL     1       2.601   6.291   7.932  1.00  0.00     0.017 C 
BRANCH  30  32
HETATM   32  C32 UNL     1       3.497   6.574  10.286  1.00  0.00     0.173 C 
BRANCH  32  33
HETATM   33  O7  UNL     1       4.521   5.586  10.203  1.00  0.00    -0.400 OA
HETATM   34  H48 UNL     1       5.261   5.892  10.758  1.00  0.00     0.209 HD
ENDBRANCH  32  33
ENDBRANCH  30  32
ENDBRANCH  28  30
ENDBRANCH  26  28
ENDBRANCH  25  26
BRANCH  25  35
HETATM   35  O2  UNL     1       0.927   8.150  12.235  1.00  0.00    -0.387 OA
HETATM   36  H4  UNL     1       1.110   8.374  11.300  1.00  0.00     0.210 HD
ENDBRANCH  25  35
ENDBRANCH  23  25
ENDBRANCH   1  23
BRANCH   2  37
HETATM   37  O3  UNL     1      -0.077   8.565  14.957  1.00  0.00    -0.316 OA
BRANCH  37  38
HETATM   38  C9  UNL     1       0.348   9.495  15.859  1.00  0.00     0.255 C 
HETATM   39  C10 UNL     1       0.082  10.879  15.351  1.00  0.00     0.126 C 
HETATM   40  O4  UNL     1       0.900   9.252  16.922  1.00  0.00    -0.266 OA
ENDBRANCH  37  38
ENDBRANCH   2  37
BRANCH  15  41
HETATM   41  O6  UNL     1      -7.851   4.405  14.425  1.00  0.00    -0.394 OA
HETATM   42  H32 UNL     1      -8.324   3.629  14.079  1.00  0.00     0.210 HD
ENDBRANCH  15  41
TORSDOF 11
ENDMDL
MODEL 6
REMARK minimizedAffinity -6.71589136
REMARK CNNscore 0.463841915
REMARK CNNaffinity 6.36828566
REMARK  11 active torsions:
REMARK  status: ('A' for Active; 'I' for Inactive)
REMARK    1  A    between atoms: C2_2  and  C3_3 
REMARK    2  A    between atoms: C2_2  and  C30_36 
REMARK    3  A    between atoms: C3_3  and  C4_5 
REMARK    4  A    between atoms: C4_5  and  O2_6 
REMARK    5  A    between atoms: C4_5  and  C5_7 
REMARK    6  A    between atoms: C5_7  and  C7_9 
REMARK    7  A    between atoms: C8_10  and  O3_11 
REMARK    8  A    between atoms: O3_11  and  C9_12 
REMARK    9  A    between atoms: C22_27  and  O6_28 
REMARK   10  A    between atoms: C30_36  and  C32_38 
REMARK   11  A    between atoms: C32_38  and  O7_39 
ROOT
HETATM    1  C7  UNL     1       2.370  12.854  19.591  1.00  0.00     0.031 C 
HETATM    2  C8  UNL     1       1.246  13.690  20.292  1.00  0.00     0.138 C 
HETATM    3  C11 UNL     1      -0.104  13.158  19.758  1.00  0.00     0.043 C 
HETATM    4  C12 UNL     1       0.230  11.868  18.988  1.00  0.00    -0.030 C 
HETATM    5  C13 UNL     1       0.265  10.718  20.042  1.00  0.00     0.016 C 
HETATM    6  C14 UNL     1      -0.776  11.535  17.852  1.00  0.00     0.004 C 
HETATM    7  C15 UNL     1      -2.156  11.090  18.350  1.00  0.00     0.007 C 
HETATM    8  C16 UNL     1      -3.101  10.856  17.176  1.00  0.00     0.007 C 
HETATM    9  C17 UNL     1      -2.658   9.628  16.376  1.00  0.00     0.008 C 
HETATM   10  C18 UNL     1      -3.491   9.400  15.095  1.00  0.00     0.056 C 
HETATM   11  C19 UNL     1      -4.999   9.362  15.354  1.00  0.00     0.018 C 
HETATM   12  C20 UNL     1      -3.026   8.093  14.452  1.00  0.00     0.133 C 
HETATM   13  O5  UNL     1      -3.814   7.238  14.044  1.00  0.00    -0.297 OA
HETATM   14  C21 UNL     1      -1.541   7.941  14.201  1.00  0.00     0.111 C 
HETATM   15  C22 UNL     1      -0.725   8.302  15.436  1.00  0.00     0.134 C 
HETATM   16  C23 UNL     1      -1.166   9.642  16.011  1.00  0.00    -0.001 A 
HETATM   17  C24 UNL     1      -0.556  10.863  15.366  1.00  0.00     0.024 A 
HETATM   18  C25 UNL     1      -0.191  10.552  16.810  1.00  0.00    -0.025 A 
HETATM   19  C26 UNL     1       1.214  10.009  17.079  1.00  0.00     0.011 C 
HETATM   20  C27 UNL     1       2.222  10.943  17.774  1.00  0.00     0.011 C 
HETATM   21  C28 UNL     1       1.624  12.228  18.361  1.00  0.00    -0.030 C 
HETATM   22  C29 UNL     1       1.556  13.283  17.218  1.00  0.00     0.016 C 
ENDROOT
BRANCH   1  23
HETATM   23  C5  UNL     1       3.721  13.615  19.384  1.00  0.00     0.025 C 
HETATM   24  C6  UNL     1       4.323  13.302  18.005  1.00  0.00     0.013 C 
BRANCH  23  25
HETATM   25  C4  UNL     1       4.739  13.253  20.499  1.00  0.00     0.196 C 
BRANCH  25  26
HETATM   26  C3  UNL     1       4.882  11.744  20.794  1.00  0.00     0.184 C 
HETATM   27  O1  UNL     1       5.226  10.972  19.891  1.00  0.00    -0.290 OA
BRANCH  26  28
HETATM   28  C2  UNL     1       4.581  11.206  22.161  1.00  0.00    -0.013 C 
HETATM   29  C1  UNL     1       5.591  11.277  23.043  1.00  0.00     0.023 C 
BRANCH  28  30
HETATM   30  C30 UNL     1       3.234  10.580  22.426  1.00  0.00     0.041 C 
HETATM   31  C31 UNL     1       3.009   9.381  21.495  1.00  0.00     0.017 C 
BRANCH  30  32
HETATM   32  C32 UNL     1       3.028  10.184  23.899  1.00  0.00     0.173 C 
BRANCH  32  33
HETATM   33  O7  UNL     1       2.502   8.861  23.970  1.00  0.00    -0.400 OA
HETATM   34  H48 UNL     1       2.385   8.649  24.914  1.00  0.00     0.209 HD
ENDBRANCH  32  33
ENDBRANCH  30  32
ENDBRANCH  28  30
ENDBRANCH  26  28
ENDBRANCH  25  26
BRANCH  25  35
HETATM   35  O2  UNL     1       4.358  13.926  21.706  1.00  0.00    -0.387 OA
HETATM   36  H4  UNL     1       4.651  13.350  22.441  1.00  0.00     0.210 HD
ENDBRANCH  25  35
ENDBRANCH  23  25
ENDBRANCH   1  23
BRANCH   2  37
HETATM   37  O3  UNL     1       1.365  15.090  19.973  1.00  0.00    -0.316 OA
BRANCH  37  38
HETATM   38  C9  UNL     1       1.226  15.945  21.026  1.00  0.00     0.255 C 
HETATM   39  C10 UNL     1       2.449  16.798  21.174  1.00  0.00     0.126 C 
HETATM   40  O4  UNL     1       0.261  16.001  21.773  1.00  0.00    -0.266 OA
ENDBRANCH  37  38
ENDBRANCH   2  37
BRANCH  15  41
HETATM   41  O6  UNL     1      -0.857   7.304  16.442  1.00  0.00    -0.394 OA
HETATM   42  H32 UNL     1      -0.528   6.466  16.075  1.00  0.00     0.210 HD
ENDBRANCH  15  41
TORSDOF 11
ENDMDL
MODEL 7
REMARK minimizedAffinity -6.54744148
REMARK CNNscore 0.425020307
REMARK CNNaffinity 5.95533609
REMARK  11 active torsions:
REMARK  status: ('A' for Active; 'I' for Inactive)
REMARK    1  A    between atoms: C2_2  and  C3_3 
REMARK    2  A    between atoms: C2_2  and  C30_36 
REMARK    3  A    between atoms: C3_3  and  C4_5 
REMARK    4  A    between atoms: C4_5  and  O2_6 
REMARK    5  A    between atoms: C4_5  and  C5_7 
REMARK    6  A    between atoms: C5_7  and  C7_9 
REMARK    7  A    between atoms: C8_10  and  O3_11 
REMARK    8  A    between atoms: O3_11  and  C9_12 
REMARK    9  A    between atoms: C22_27  and  O6_28 
REMARK   10  A    between atoms: C30_36  and  C32_38 
REMARK   11  A    between atoms: C32_38  and  O7_39 
ROOT
HETATM    1  C7  UNL     1       5.514  14.787  -0.588  1.00  0.00     0.031 C 
HETATM    2  C8  UNL     1       6.640  15.840  -0.310  1.00  0.00     0.138 C 
HETATM    3  C11 UNL     1       6.316  16.489   1.055  1.00  0.00     0.043 C 
HETATM    4  C12 UNL     1       5.193  15.634   1.669  1.00  0.00    -0.030 C 
HETATM    5  C13 UNL     1       5.890  14.446   2.402  1.00  0.00     0.016 C 
HETATM    6  C14 UNL     1       4.272  16.412   2.649  1.00  0.00     0.004 C 
HETATM    7  C15 UNL     1       4.947  16.793   3.972  1.00  0.00     0.007 C 
HETATM    8  C16 UNL     1       4.001  17.616   4.840  1.00  0.00     0.007 C 
HETATM    9  C17 UNL     1       2.841  16.746   5.332  1.00  0.00     0.008 C 
HETATM   10  C18 UNL     1       1.771  17.540   6.113  1.00  0.00     0.056 C 
HETATM   11  C19 UNL     1       2.352  18.367   7.262  1.00  0.00     0.018 C 
HETATM   12  C20 UNL     1       0.733  16.548   6.639  1.00  0.00     0.133 C 
HETATM   13  O5  UNL     1       0.317  16.577   7.799  1.00  0.00    -0.297 OA
HETATM   14  C21 UNL     1       0.118  15.599   5.633  1.00  0.00     0.111 C 
HETATM   15  C22 UNL     1       1.182  14.925   4.777  1.00  0.00     0.134 C 
HETATM   16  C23 UNL     1       2.158  15.948   4.211  1.00  0.00    -0.001 A 
HETATM   17  C24 UNL     1       1.715  16.645   2.947  1.00  0.00     0.024 A 
HETATM   18  C25 UNL     1       2.913  15.708   2.873  1.00  0.00    -0.025 A 
HETATM   19  C26 UNL     1       2.707  14.358   2.184  1.00  0.00     0.011 C 
HETATM   20  C27 UNL     1       3.362  14.150   0.805  1.00  0.00     0.011 C 
HETATM   21  C28 UNL     1       4.373  15.229   0.393  1.00  0.00    -0.030 C 
HETATM   22  C29 UNL     1       3.576  16.402  -0.251  1.00  0.00     0.016 C 
ENDROOT
BRANCH   1  23
HETATM   23  C5  UNL     1       5.199  14.549  -2.102  1.00  0.00     0.025 C 
HETATM   24  C6  UNL     1       4.521  15.781  -2.723  1.00  0.00     0.013 C 
BRANCH  23  25
HETATM   25  C4  UNL     1       4.298  13.299  -2.291  1.00  0.00     0.196 C 
BRANCH  25  26
HETATM   26  C3  UNL     1       4.874  12.208  -3.220  1.00  0.00     0.184 C 
HETATM   27  O1  UNL     1       5.489  11.252  -2.736  1.00  0.00    -0.290 OA
BRANCH  26  28
HETATM   28  C2  UNL     1       4.713  12.316  -4.707  1.00  0.00    -0.013 C 
HETATM   29  C1  UNL     1       3.477  12.627  -5.132  1.00  0.00     0.023 C 
BRANCH  28  30
HETATM   30  C30 UNL     1       5.891  12.010  -5.599  1.00  0.00     0.041 C 
HETATM   31  C31 UNL     1       5.699  10.655  -6.293  1.00  0.00     0.017 C 
BRANCH  30  32
HETATM   32  C32 UNL     1       6.180  13.122  -6.624  1.00  0.00     0.173 C 
BRANCH  32  33
HETATM   33  O7  UNL     1       5.798  12.684  -7.926  1.00  0.00    -0.400 OA
HETATM   34  H48 UNL     1       5.997  13.411  -8.543  1.00  0.00     0.209 HD
ENDBRANCH  32  33
ENDBRANCH  30  32
ENDBRANCH  28  30
ENDBRANCH  26  28
ENDBRANCH  25  26
BRANCH  25  35
HETATM   35  O2  UNL     1       3.028  13.721  -2.805  1.00  0.00    -0.387 OA
HETATM   36  H4  UNL     1       2.698  12.980  -3.352  1.00  0.00     0.210 HD
ENDBRANCH  25  35
ENDBRANCH  23  25
ENDBRANCH   1  23
BRANCH   2  37
HETATM   37  O3  UNL     1       6.661  16.859  -1.327  1.00  0.00    -0.316 OA
BRANCH  37  38
HETATM   38  C9  UNL     1       7.677  17.764  -1.231  1.00  0.00     0.255 C 
HETATM   39  C10 UNL     1       9.004  17.080  -1.357  1.00  0.00     0.126 C 
HETATM   40  O4  UNL     1       7.543  18.963  -1.036  1.00  0.00    -0.266 OA
ENDBRANCH  37  38
ENDBRANCH   2  37
BRANCH  15  41
HETATM   41  O6  UNL     1       1.910  13.964   5.533  1.00  0.00    -0.394 OA
HETATM   42  H32 UNL     1       1.280  13.293   5.847  1.00  0.00     0.210 HD
ENDBRANCH  15  41
TORSDOF 11
ENDMDL
MODEL 8
REMARK minimizedAffinity -8.92730999
REMARK CNNscore 0.417827606
REMARK CNNaffinity 6.86339808
REMARK  11 active torsions:
REMARK  status: ('A' for Active; 'I' for Inactive)
REMARK    1  A    between atoms: C2_2  and  C3_3 
REMARK    2  A    between atoms: C2_2  and  C30_36 
REMARK    3  A    between atoms: C3_3  and  C4_5 
REMARK    4  A    between atoms: C4_5  and  O2_6 
REMARK    5  A    between atoms: C4_5  and  C5_7 
REMARK    6  A    between atoms: C5_7  and  C7_9 
REMARK    7  A    between atoms: C8_10  and  O3_11 
REMARK    8  A    between atoms: O3_11  and  C9_12 
REMARK    9  A    between atoms: C22_27  and  O6_28 
REMARK   10  A    between atoms: C30_36  and  C32_38 
REMARK   11  A    between atoms: C32_38  and  O7_39 
ROOT
HETATM    1  C7  UNL     1      -5.342   6.591  14.672  1.00  0.00     0.031 C 
HETATM    2  C8  UNL     1      -5.619   5.329  13.786  1.00  0.00     0.138 C 
HETATM    3  C11 UNL     1      -4.328   5.055  12.982  1.00  0.00     0.043 C 
HETATM    4  C12 UNL     1      -3.251   5.967  13.598  1.00  0.00    -0.030 C 
HETATM    5  C13 UNL     1      -2.655   5.191  14.814  1.00  0.00     0.016 C 
HETATM    6  C14 UNL     1      -2.125   6.371  12.606  1.00  0.00     0.004 C 
HETATM    7  C15 UNL     1      -1.185   5.220  12.225  1.00  0.00     0.007 C 
HETATM    8  C16 UNL     1      -0.161   5.683  11.195  1.00  0.00     0.007 C 
HETATM    9  C17 UNL     1       0.818   6.675  11.829  1.00  0.00     0.008 C 
HETATM   10  C18 UNL     1       1.810   7.287  10.816  1.00  0.00     0.056 C 
HETATM   11  C19 UNL     1       2.561   6.237   9.995  1.00  0.00     0.018 C 
HETATM   12  C20 UNL     1       2.794   8.168  11.588  1.00  0.00     0.133 C 
HETATM   13  O5  UNL     1       4.011   8.125  11.396  1.00  0.00    -0.297 OA
HETATM   14  C21 UNL     1       2.204   9.212  12.511  1.00  0.00     0.111 C 
HETATM   15  C22 UNL     1       1.129   8.619  13.412  1.00  0.00     0.134 C 
HETATM   16  C23 UNL     1       0.125   7.807  12.604  1.00  0.00    -0.001 A 
HETATM   17  C24 UNL     1      -0.985   8.597  11.955  1.00  0.00     0.024 A 
HETATM   18  C25 UNL     1      -1.347   7.625  13.069  1.00  0.00    -0.025 A 
HETATM   19  C26 UNL     1      -1.732   8.221  14.425  1.00  0.00     0.011 C 
HETATM   20  C27 UNL     1      -3.212   8.143  14.847  1.00  0.00     0.011 C 
HETATM   21  C28 UNL     1      -4.093   7.237  13.976  1.00  0.00    -0.030 C 
HETATM   22  C29 UNL     1      -4.568   8.074  12.753  1.00  0.00     0.016 C 
ENDROOT
BRANCH   1  23
HETATM   23  C5  UNL     1      -6.603   7.462  14.985  1.00  0.00     0.025 C 
HETATM   24  C6  UNL     1      -6.213   8.743  15.740  1.00  0.00     0.013 C 
BRANCH  23  25
HETATM   25  C4  UNL     1      -7.643   6.658  15.810  1.00  0.00     0.196 C 
BRANCH  25  26
HETATM   26  C3  UNL     1      -8.915   7.439  16.205  1.00  0.00     0.184 C 
HETATM   27  O1  UNL     1      -9.123   7.714  17.391  1.00  0.00    -0.290 OA
BRANCH  26  28
HETATM   28  C2  UNL     1      -9.912   7.843  15.160  1.00  0.00    -0.013 C 
HETATM   29  C1  UNL     1     -10.085   6.965  14.157  1.00  0.00     0.023 C 
BRANCH  28  30
HETATM   30  C30 UNL     1     -10.580   9.192  15.262  1.00  0.00     0.041 C 
HETATM   31  C31 UNL     1      -9.541  10.314  15.141  1.00  0.00     0.017 C 
BRANCH  30  32
HETATM   32  C32 UNL     1     -11.722   9.382  14.247  1.00  0.00     0.173 C 
BRANCH  32  33
HETATM   33  O7  UNL     1     -11.334  10.339  13.264  1.00  0.00    -0.400 OA
HETATM   34  H48 UNL     1     -12.079  10.432  12.644  1.00  0.00     0.209 HD
ENDBRANCH  32  33
ENDBRANCH  30  32
ENDBRANCH  28  30
ENDBRANCH  26  28
ENDBRANCH  25  26
BRANCH  25  35
HETATM   35  O2  UNL     1      -7.009   6.173  17.001  1.00  0.00    -0.387 OA
HETATM   36  H4  UNL     1      -7.711   6.129  17.681  1.00  0.00     0.210 HD
ENDBRANCH  25  35
ENDBRANCH  23  25
ENDBRANCH   1  23
BRANCH   2  37
HETATM   37  O3  UNL     1      -6.707   5.564  12.873  1.00  0.00    -0.316 OA
BRANCH  37  38
HETATM   38  C9  UNL     1      -7.586   4.531  12.729  1.00  0.00     0.255 C 
HETATM   39  C10 UNL     1      -6.874   3.217  12.836  1.00  0.00     0.126 C 
HETATM   40  O4  UNL     1      -8.783   4.643  12.510  1.00  0.00    -0.266 OA
ENDBRANCH  37  38
ENDBRANCH   2  37
BRANCH  15  41
HETATM   41  O6  UNL     1       1.705   7.780  14.407  1.00  0.00    -0.394 OA
HETATM   42  H32 UNL     1       2.306   8.324  14.943  1.00  0.00     0.210 HD
ENDBRANCH  15  41
TORSDOF 11
ENDMDL
MODEL 9
REMARK minimizedAffinity -7.08529663
REMARK CNNscore 0.400677472
REMARK CNNaffinity 6.39456797
REMARK  11 active torsions:
REMARK  status: ('A' for Active; 'I' for Inactive)
REMARK    1  A    between atoms: C2_2  and  C3_3 
REMARK    2  A    between atoms: C2_2  and  C30_36 
REMARK    3  A    between atoms: C3_3  and  C4_5 
REMARK    4  A    between atoms: C4_5  and  O2_6 
REMARK    5  A    between atoms: C4_5  and  C5_7 
REMARK    6  A    between atoms: C5_7  and  C7_9 
REMARK    7  A    between atoms: C8_10  and  O3_11 
REMARK    8  A    between atoms: O3_11  and  C9_12 
REMARK    9  A    between atoms: C22_27  and  O6_28 
REMARK   10  A    between atoms: C30_36  and  C32_38 
REMARK   11  A    between atoms: C32_38  and  O7_39 
ROOT
HETATM    1  C7  UNL     1      -1.690  11.640  17.190  1.00  0.00     0.031 C 
HETATM    2  C8  UNL     1      -1.100  12.524  16.039  1.00  0.00     0.138 C 
HETATM    3  C11 UNL     1       0.352  12.868  16.439  1.00  0.00     0.043 C 
HETATM    4  C12 UNL     1       0.675  11.975  17.651  1.00  0.00    -0.030 C 
HETATM    5  C13 UNL     1       1.159  10.607  17.077  1.00  0.00     0.016 C 
HETATM    6  C14 UNL     1       1.743  12.573  18.607  1.00  0.00     0.004 C 
HETATM    7  C15 UNL     1       3.161  12.598  18.023  1.00  0.00     0.007 C 
HETATM    8  C16 UNL     1       4.129  13.266  18.994  1.00  0.00     0.007 C 
HETATM    9  C17 UNL     1       4.328  12.389  20.233  1.00  0.00     0.008 C 
HETATM   10  C18 UNL     1       5.197  13.057  21.321  1.00  0.00     0.056 C 
HETATM   11  C19 UNL     1       6.542  13.561  20.795  1.00  0.00     0.018 C 
HETATM   12  C20 UNL     1       5.409  12.045  22.448  1.00  0.00     0.133 C 
HETATM   13  O5  UNL     1       6.514  11.839  22.955  1.00  0.00    -0.297 OA
HETATM   14  C21 UNL     1       4.172  11.392  23.027  1.00  0.00     0.111 C 
HETATM   15  C22 UNL     1       3.257  10.858  21.932  1.00  0.00     0.134 C 
HETATM   16  C23 UNL     1       3.009  11.913  20.863  1.00  0.00    -0.001 A 
HETATM   17  C24 UNL     1       1.914  12.906  21.165  1.00  0.00     0.024 A 
HETATM   18  C25 UNL     1       1.707  11.931  20.014  1.00  0.00    -0.025 A 
HETATM   19  C26 UNL     1       0.713  10.789  20.232  1.00  0.00     0.011 C 
HETATM   20  C27 UNL     1      -0.629  10.854  19.478  1.00  0.00     0.011 C 
HETATM   21  C28 UNL     1      -0.713  11.927  18.384  1.00  0.00    -0.030 C 
HETATM   22  C29 UNL     1      -1.121  13.265  19.065  1.00  0.00     0.016 C 
ENDROOT
BRANCH   1  23
HETATM   23  C5  UNL     1      -3.236  11.773  17.393  1.00  0.00     0.025 C 
HETATM   24  C6  UNL     1      -3.652  11.272  18.786  1.00  0.00     0.013 C 
BRANCH  23  25
HETATM   25  C4  UNL     1      -4.008  10.990  16.298  1.00  0.00     0.196 C 
BRANCH  25  26
HETATM   26  C3  UNL     1      -3.564   9.524  16.100  1.00  0.00     0.184 C 
HETATM   27  O1  UNL     1      -2.515   9.126  16.617  1.00  0.00    -0.290 OA
BRANCH  26  28
HETATM   28  C2  UNL     1      -4.386   8.590  15.264  1.00  0.00    -0.013 C 
HETATM   29  C1  UNL     1      -5.716   8.685  15.430  1.00  0.00     0.023 C 
BRANCH  28  30
HETATM   30  C30 UNL     1      -3.688   7.591  14.373  1.00  0.00     0.041 C 
HETATM   31  C31 UNL     1      -2.880   8.316  13.289  1.00  0.00     0.017 C 
BRANCH  30  32
HETATM   32  C32 UNL     1      -2.806   6.597  15.150  1.00  0.00     0.173 C 
BRANCH  32  33
HETATM   33  O7  UNL     1      -3.500   6.149  16.312  1.00  0.00    -0.400 OA
HETATM   34  H48 UNL     1      -2.911   5.525  16.776  1.00  0.00     0.209 HD
ENDBRANCH  32  33
ENDBRANCH  30  32
ENDBRANCH  28  30
ENDBRANCH  26  28
ENDBRANCH  25  26
BRANCH  25  35
HETATM   35  O2  UNL     1      -3.872  11.687  15.052  1.00  0.00    -0.387 OA
HETATM   36  H4  UNL     1      -3.906  11.002  14.354  1.00  0.00     0.210 HD
ENDBRANCH  25  35
ENDBRANCH  23  25
ENDBRANCH   1  23
BRANCH   2  37
HETATM   37  O3  UNL     1      -1.852  13.742  15.882  1.00  0.00    -0.316 OA
BRANCH  37  38
HETATM   38  C9  UNL     1      -1.751  14.342  14.662  1.00  0.00     0.255 C 
HETATM   39  C10 UNL     1      -1.357  15.779  14.814  1.00  0.00     0.126 C 
HETATM   40  O4  UNL     1      -1.978  13.807  13.587  1.00  0.00    -0.266 OA
ENDBRANCH  37  38
ENDBRANCH   2  37
BRANCH  15  41
HETATM   41  O6  UNL     1       3.819   9.703  21.318  1.00  0.00    -0.394 OA
HETATM   42  H32 UNL     1       3.927   9.024  22.005  1.00  0.00     0.210 HD
ENDBRANCH  15  41
TORSDOF 11
ENDMDL
