MODEL 1
REMARK minimizedAffinity -8.40773582
REMARK CNNscore 0.589999378
REMARK CNNaffinity 7.48002863
REMARK  19 active torsions:
REMARK  status: ('A' for Active; 'I' for Inactive)
REMARK    1  A    between atoms: C2_2  and  C3_3 
REMARK    2  A    between atoms: C3_3  and  C5_5 
REMARK    3  A    between atoms: C5_5  and  N1_6 
REMARK    4  A    between atoms: C5_5  and  C37_46 
REMARK       I    between atoms: N1_6  and  C6_7 
REMARK    5  A    between atoms: C6_7  and  C7_9 
REMARK    6  A    between atoms: C7_9  and  C8_10 
REMARK    7  A    between atoms: C8_10  and  C9_11 
REMARK    8  A    between atoms: C9_11  and  C10_12 
REMARK    9  A    between atoms: C10_12  and  C11_13 
REMARK   10  A    between atoms: C11_13  and  N2_14 
REMARK       I    between atoms: N2_14  and  C12_15 
REMARK   11  A    between atoms: C12_15  and  C13_17 
REMARK   12  A    between atoms: C13_17  and  C14_18 
REMARK   13  A    between atoms: C14_18  and  C15_19 
REMARK   14  A    between atoms: C15_19  and  O4_21 
REMARK   15  A    between atoms: O4_21  and  C16_22 
REMARK   16  A    between atoms: C16_22  and  C17_23 
REMARK   17  A    between atoms: C17_23  and  C18_25 
REMARK   18  A    between atoms: C18_25  and  O6_26 
REMARK   19  A    between atoms: C37_46  and  O9_48 
ROOT
HETATM    1  C15 UNL     1      -0.247  50.853 -14.694  1.00  0.00     0.259 C 
HETATM    2  O3  UNL     1      -1.028  49.996 -14.305  1.00  0.00    -0.265 OA
ENDROOT
BRANCH   1   3
HETATM    3  C14 UNL     1       0.901  50.625 -15.645  1.00  0.00     0.120 C 
BRANCH   3   4
HETATM    4  C13 UNL     1       1.300  51.916 -16.347  1.00  0.00     0.112 C 
BRANCH   4   5
HETATM    5  C12 UNL     1       0.665  52.034 -17.718  1.00  0.00     0.217 C 
HETATM    6  N2  UNL     1       1.101  53.149 -18.409  1.00  0.00    -0.361 N 
HETATM    7  H22 UNL     1       1.483  53.902 -17.856  1.00  0.00     0.162 HD
HETATM    8  O2  UNL     1      -0.102  51.198 -18.177  1.00  0.00    -0.274 OA
BRANCH   6   9
HETATM    9  C11 UNL     1       0.521  53.489 -19.695  1.00  0.00     0.122 C 
BRANCH   9  10
HETATM   10  C10 UNL     1       1.376  53.005 -20.865  1.00  0.00     0.020 C 
BRANCH  10  11
HETATM   11  C9  UNL     1       0.984  53.581 -22.232  1.00  0.00     0.002 C 
BRANCH  11  12
HETATM   12  C8  UNL     1       0.348  52.571 -23.192  1.00  0.00     0.009 C 
BRANCH  12  13
HETATM   13  C7  UNL     1      -0.470  51.509 -22.455  1.00  0.00     0.103 C 
BRANCH  13  14
HETATM   14  C6  UNL     1      -1.480  50.809 -23.347  1.00  0.00     0.218 C 
HETATM   15  N1  UNL     1      -1.838  51.563 -24.442  1.00  0.00    -0.346 N 
HETATM   16  H11 UNL     1      -1.691  52.564 -24.382  1.00  0.00     0.163 HD
HETATM   17  O1  UNL     1      -1.933  49.694 -23.116  1.00  0.00    -0.274 OA
BRANCH  15  18
HETATM   18  C5  UNL     1      -2.920  51.140 -25.338  1.00  0.00     0.186 C 
BRANCH  18  19
HETATM   19  C3  UNL     1      -3.073  49.599 -25.369  1.00  0.00     0.014 C 
HETATM   20  C4  UNL     1      -4.403  49.132 -24.761  1.00  0.00     0.012 C 
BRANCH  19  21
HETATM   21  C2  UNL     1      -2.899  49.074 -26.811  1.00  0.00     0.002 C 
HETATM   22  C1  UNL     1      -4.085  48.261 -27.311  1.00  0.00     0.005 C 
ENDBRANCH  19  21
ENDBRANCH  18  19
BRANCH  18  23
HETATM   23  C37 UNL     1      -2.710  51.696 -26.753  1.00  0.00     0.163 C 
HETATM   24  O8  UNL     1      -2.810  52.864 -27.096  1.00  0.00    -0.648 OA
BRANCH  23  25
HETATM   25  O9  UNL     1      -2.439  50.745 -27.679  1.00  0.00    -0.775 OA
HETATM   26  H56 UNL     1      -2.318  51.265 -28.503  1.00  0.00     0.167 HD
ENDBRANCH  23  25
ENDBRANCH  18  23
ENDBRANCH  15  18
ENDBRANCH  13  14
ENDBRANCH  12  13
ENDBRANCH  11  12
ENDBRANCH  10  11
ENDBRANCH   9  10
ENDBRANCH   6   9
ENDBRANCH   4   5
ENDBRANCH   3   4
ENDBRANCH   1   3
BRANCH   1  27
HETATM   27  O4  UNL     1      -0.315  52.177 -14.375  1.00  0.00    -0.314 OA
BRANCH  27  28
HETATM   28  C16 UNL     1       0.553  52.550 -13.303  1.00  0.00     0.260 C 
BRANCH  28  29
HETATM   29  C17 UNL     1      -0.214  52.523 -11.990  1.00  0.00     0.185 C 
HETATM   30  O5  UNL     1      -1.433  52.716 -11.978  1.00  0.00    -0.292 OA
BRANCH  29  31
HETATM   31  C18 UNL     1       0.609  52.311 -10.682  1.00  0.00     0.128 C 
HETATM   32  C19 UNL     1       1.973  51.703 -11.065  1.00  0.00     0.047 C 
HETATM   33  C20 UNL     1       2.994  52.847 -11.018  1.00  0.00     0.009 C 
HETATM   34  C21 UNL     1       2.200  54.135 -10.738  1.00  0.00     0.002 C 
HETATM   35  C22 UNL     1       2.961  55.337 -10.118  1.00  0.00    -0.004 C 
HETATM   36  C35 UNL     1       0.994  53.628  -9.923  1.00  0.00    -0.002 C 
HETATM   37  C23 UNL     1       4.378  55.505 -10.708  1.00  0.00     0.010 C 
HETATM   38  C32 UNL     1       2.892  55.427  -8.560  1.00  0.00     0.002 C 
HETATM   39  C24 UNL     1       5.487  55.049  -9.768  1.00  0.00     0.035 C 
HETATM   40  C25 UNL     1       5.434  55.739  -8.427  1.00  0.00    -0.068 C 
HETATM   41  C26 UNL     1       6.559  55.861  -7.699  1.00  0.00     0.053 C 
HETATM   42  C30 UNL     1       4.083  56.256  -7.943  1.00  0.00    -0.016 C 
HETATM   43  C27 UNL     1       6.566  56.498  -6.358  1.00  0.00     0.149 C 
HETATM   44  O7  UNL     1       7.636  56.668  -5.777  1.00  0.00    -0.293 OA
HETATM   45  C28 UNL     1       5.254  56.946  -5.760  1.00  0.00     0.084 C 
HETATM   46  C29 UNL     1       4.075  56.205  -6.387  1.00  0.00     0.022 C 
HETATM   47  C31 UNL     1       3.916  57.746  -8.365  1.00  0.00     0.020 C 
HETATM   48  C33 UNL     1       2.675  54.038  -7.946  1.00  0.00     0.007 C 
HETATM   49  C34 UNL     1       1.413  53.328  -8.452  1.00  0.00     0.013 C 
HETATM   50  C36 UNL     1      -0.167  54.641  -9.914  1.00  0.00     0.019 C 
BRANCH  31  51
HETATM   51  O6  UNL     1      -0.058  51.399  -9.813  1.00  0.00    -0.381 OA
HETATM   52  H29 UNL     1      -0.838  51.860  -9.452  1.00  0.00     0.211 HD
ENDBRANCH  31  51
ENDBRANCH  29  31
ENDBRANCH  28  29
ENDBRANCH  27  28
ENDBRANCH   1  27
TORSDOF 19
ENDMDL
MODEL 2
REMARK minimizedAffinity -8.50608158
REMARK CNNscore 0.551199496
REMARK CNNaffinity 7.27170324
REMARK  19 active torsions:
REMARK  status: ('A' for Active; 'I' for Inactive)
REMARK    1  A    between atoms: C2_2  and  C3_3 
REMARK    2  A    between atoms: C3_3  and  C5_5 
REMARK    3  A    between atoms: C5_5  and  N1_6 
REMARK    4  A    between atoms: C5_5  and  C37_46 
REMARK       I    between atoms: N1_6  and  C6_7 
REMARK    5  A    between atoms: C6_7  and  C7_9 
REMARK    6  A    between atoms: C7_9  and  C8_10 
REMARK    7  A    between atoms: C8_10  and  C9_11 
REMARK    8  A    between atoms: C9_11  and  C10_12 
REMARK    9  A    between atoms: C10_12  and  C11_13 
REMARK   10  A    between atoms: C11_13  and  N2_14 
REMARK       I    between atoms: N2_14  and  C12_15 
REMARK   11  A    between atoms: C12_15  and  C13_17 
REMARK   12  A    between atoms: C13_17  and  C14_18 
REMARK   13  A    between atoms: C14_18  and  C15_19 
REMARK   14  A    between atoms: C15_19  and  O4_21 
REMARK   15  A    between atoms: O4_21  and  C16_22 
REMARK   16  A    between atoms: C16_22  and  C17_23 
REMARK   17  A    between atoms: C17_23  and  C18_25 
REMARK   18  A    between atoms: C18_25  and  O6_26 
REMARK   19  A    between atoms: C37_46  and  O9_48 
ROOT
HETATM    1  C15 UNL     1      -0.577  50.903 -14.759  1.00  0.00     0.259 C 
HETATM    2  O3  UNL     1      -1.789  51.056 -14.718  1.00  0.00    -0.265 OA
ENDROOT
BRANCH   1   3
HETATM    3  C14 UNL     1       0.218  50.521 -15.984  1.00  0.00     0.120 C 
BRANCH   3   4
HETATM    4  C13 UNL     1       1.489  51.351 -16.097  1.00  0.00     0.112 C 
BRANCH   4   5
HETATM    5  C12 UNL     1       1.453  52.283 -17.291  1.00  0.00     0.217 C 
HETATM    6  N2  UNL     1       0.236  52.257 -17.947  1.00  0.00    -0.361 N 
HETATM    7  H22 UNL     1      -0.333  51.435 -17.807  1.00  0.00     0.162 HD
HETATM    8  O2  UNL     1       2.382  53.020 -17.597  1.00  0.00    -0.274 OA
BRANCH   6   9
HETATM    9  C11 UNL     1       0.049  53.000 -19.178  1.00  0.00     0.122 C 
BRANCH   9  10
HETATM   10  C10 UNL     1       0.495  52.210 -20.408  1.00  0.00     0.020 C 
BRANCH  10  11
HETATM   11  C9  UNL     1      -0.397  51.014 -20.764  1.00  0.00     0.002 C 
BRANCH  11  12
HETATM   12  C8  UNL     1      -0.743  50.895 -22.251  1.00  0.00     0.009 C 
BRANCH  12  13
HETATM   13  C7  UNL     1      -2.074  51.567 -22.590  1.00  0.00     0.103 C 
BRANCH  13  14
HETATM   14  C6  UNL     1      -2.071  52.248 -23.948  1.00  0.00     0.218 C 
HETATM   15  N1  UNL     1      -0.908  52.028 -24.652  1.00  0.00    -0.346 N 
HETATM   16  H11 UNL     1      -0.088  51.761 -24.119  1.00  0.00     0.163 HD
HETATM   17  O1  UNL     1      -3.001  52.924 -24.371  1.00  0.00    -0.274 OA
BRANCH  15  18
HETATM   18  C5  UNL     1      -0.636  52.729 -25.912  1.00  0.00     0.186 C 
BRANCH  18  19
HETATM   19  C3  UNL     1       0.067  51.810 -26.941  1.00  0.00     0.014 C 
HETATM   20  C4  UNL     1       0.506  52.573 -28.200  1.00  0.00     0.012 C 
BRANCH  19  21
HETATM   21  C2  UNL     1       1.259  51.082 -26.281  1.00  0.00     0.002 C 
HETATM   22  C1  UNL     1       2.608  51.458 -26.878  1.00  0.00     0.005 C 
ENDBRANCH  19  21
ENDBRANCH  18  19
BRANCH  18  23
HETATM   23  C37 UNL     1       0.186  54.002 -25.665  1.00  0.00     0.163 C 
HETATM   24  O8  UNL     1       0.019  55.088 -26.197  1.00  0.00    -0.648 OA
BRANCH  23  25
HETATM   25  O9  UNL     1       1.215  53.828 -24.801  1.00  0.00    -0.775 OA
HETATM   26  H56 UNL     1       1.613  54.724 -24.746  1.00  0.00     0.167 HD
ENDBRANCH  23  25
ENDBRANCH  18  23
ENDBRANCH  15  18
ENDBRANCH  13  14
ENDBRANCH  12  13
ENDBRANCH  11  12
ENDBRANCH  10  11
ENDBRANCH   9  10
ENDBRANCH   6   9
ENDBRANCH   4   5
ENDBRANCH   3   4
ENDBRANCH   1   3
BRANCH   1  27
HETATM   27  O4  UNL     1       0.274  51.106 -13.713  1.00  0.00    -0.314 OA
BRANCH  27  28
HETATM   28  C16 UNL     1       0.298  52.458 -13.253  1.00  0.00     0.260 C 
BRANCH  28  29
HETATM   29  C17 UNL     1      -0.361  52.546 -11.885  1.00  0.00     0.185 C 
HETATM   30  O5  UNL     1      -1.548  52.870 -11.787  1.00  0.00    -0.292 OA
BRANCH  29  31
HETATM   31  C18 UNL     1       0.536  52.276 -10.638  1.00  0.00     0.128 C 
HETATM   32  C19 UNL     1       1.873  51.684 -11.125  1.00  0.00     0.047 C 
HETATM   33  C20 UNL     1       2.899  52.824 -11.089  1.00  0.00     0.009 C 
HETATM   34  C21 UNL     1       2.128  54.099 -10.707  1.00  0.00     0.002 C 
HETATM   35  C22 UNL     1       2.928  55.272 -10.081  1.00  0.00    -0.004 C 
HETATM   36  C35 UNL     1       0.968  53.559  -9.846  1.00  0.00    -0.002 C 
HETATM   37  C23 UNL     1       4.309  55.464 -10.745  1.00  0.00     0.010 C 
HETATM   38  C32 UNL     1       2.949  55.295  -8.519  1.00  0.00     0.002 C 
HETATM   39  C24 UNL     1       5.469  54.966  -9.891  1.00  0.00     0.035 C 
HETATM   40  C25 UNL     1       5.496  55.598  -8.521  1.00  0.00    -0.068 C 
HETATM   41  C26 UNL     1       6.662  55.686  -7.855  1.00  0.00     0.053 C 
HETATM   42  C30 UNL     1       4.177  56.095  -7.938  1.00  0.00    -0.016 C 
HETATM   43  C27 UNL     1       6.749  56.264  -6.490  1.00  0.00     0.149 C 
HETATM   44  O7  UNL     1       7.852  56.408  -5.966  1.00  0.00    -0.293 OA
HETATM   45  C28 UNL     1       5.475  56.688  -5.798  1.00  0.00     0.084 C 
HETATM   46  C29 UNL     1       4.260  55.976  -6.387  1.00  0.00     0.022 C 
HETATM   47  C31 UNL     1       3.992  57.601  -8.284  1.00  0.00     0.020 C 
HETATM   48  C33 UNL     1       2.763  53.880  -7.954  1.00  0.00     0.007 C 
HETATM   49  C34 UNL     1       1.472  53.194  -8.416  1.00  0.00     0.013 C 
HETATM   50  C36 UNL     1      -0.186  54.571  -9.726  1.00  0.00     0.019 C 
BRANCH  31  51
HETATM   51  O6  UNL     1      -0.083  51.328  -9.771  1.00  0.00    -0.381 OA
HETATM   52  H29 UNL     1      -0.839  51.774  -9.346  1.00  0.00     0.211 HD
ENDBRANCH  31  51
ENDBRANCH  29  31
ENDBRANCH  28  29
ENDBRANCH  27  28
ENDBRANCH   1  27
TORSDOF 19
ENDMDL
MODEL 3
REMARK minimizedAffinity -7.59423971
REMARK CNNscore 0.536782384
REMARK CNNaffinity 7.15610075
REMARK  19 active torsions:
REMARK  status: ('A' for Active; 'I' for Inactive)
REMARK    1  A    between atoms: C2_2  and  C3_3 
REMARK    2  A    between atoms: C3_3  and  C5_5 
REMARK    3  A    between atoms: C5_5  and  N1_6 
REMARK    4  A    between atoms: C5_5  and  C37_46 
REMARK       I    between atoms: N1_6  and  C6_7 
REMARK    5  A    between atoms: C6_7  and  C7_9 
REMARK    6  A    between atoms: C7_9  and  C8_10 
REMARK    7  A    between atoms: C8_10  and  C9_11 
REMARK    8  A    between atoms: C9_11  and  C10_12 
REMARK    9  A    between atoms: C10_12  and  C11_13 
REMARK   10  A    between atoms: C11_13  and  N2_14 
REMARK       I    between atoms: N2_14  and  C12_15 
REMARK   11  A    between atoms: C12_15  and  C13_17 
REMARK   12  A    between atoms: C13_17  and  C14_18 
REMARK   13  A    between atoms: C14_18  and  C15_19 
REMARK   14  A    between atoms: C15_19  and  O4_21 
REMARK   15  A    between atoms: O4_21  and  C16_22 
REMARK   16  A    between atoms: C16_22  and  C17_23 
REMARK   17  A    between atoms: C17_23  and  C18_25 
REMARK   18  A    between atoms: C18_25  and  O6_26 
REMARK   19  A    between atoms: C37_46  and  O9_48 
ROOT
HETATM    1  C15 UNL     1       0.060  52.536 -23.054  1.00  0.00     0.259 C 
HETATM    2  O3  UNL     1       0.719  53.466 -23.495  1.00  0.00    -0.265 OA
ENDROOT
BRANCH   1   3
HETATM    3  C14 UNL     1       0.184  51.953 -21.668  1.00  0.00     0.120 C 
BRANCH   3   4
HETATM    4  C13 UNL     1       0.589  53.017 -20.656  1.00  0.00     0.112 C 
BRANCH   4   5
HETATM    5  C12 UNL     1       0.270  52.598 -19.235  1.00  0.00     0.217 C 
HETATM    6  N2  UNL     1       1.290  52.898 -18.353  1.00  0.00    -0.361 N 
HETATM    7  H22 UNL     1       2.210  53.022 -18.752  1.00  0.00     0.162 HD
HETATM    8  O2  UNL     1      -0.800  52.103 -18.905  1.00  0.00    -0.274 OA
BRANCH   6   9
HETATM    9  C11 UNL     1       1.213  52.471 -16.968  1.00  0.00     0.122 C 
BRANCH   9  10
HETATM   10  C10 UNL     1       2.590  52.376 -16.312  1.00  0.00     0.020 C 
BRANCH  10  11
HETATM   11  C9  UNL     1       2.626  51.579 -15.002  1.00  0.00     0.002 C 
BRANCH  11  12
HETATM   12  C8  UNL     1       1.250  51.263 -14.408  1.00  0.00     0.009 C 
BRANCH  12  13
HETATM   13  C7  UNL     1       0.586  52.499 -13.799  1.00  0.00     0.103 C 
BRANCH  13  14
HETATM   14  C6  UNL     1      -0.617  52.164 -12.933  1.00  0.00     0.218 C 
HETATM   15  N1  UNL     1      -0.596  52.811 -11.718  1.00  0.00    -0.346 N 
HETATM   16  H11 UNL     1       0.304  53.139 -11.384  1.00  0.00     0.163 HD
HETATM   17  O1  UNL     1      -1.509  51.398 -13.277  1.00  0.00    -0.274 OA
BRANCH  15  18
HETATM   18  C5  UNL     1      -1.577  52.499 -10.672  1.00  0.00     0.186 C 
BRANCH  18  19
HETATM   19  C3  UNL     1      -2.162  53.783 -10.032  1.00  0.00     0.014 C 
HETATM   20  C4  UNL     1      -1.271  55.011 -10.268  1.00  0.00     0.012 C 
BRANCH  19  21
HETATM   21  C2  UNL     1      -3.600  54.025 -10.540  1.00  0.00     0.002 C 
HETATM   22  C1  UNL     1      -4.155  52.874 -11.368  1.00  0.00     0.005 C 
ENDBRANCH  19  21
ENDBRANCH  18  19
BRANCH  18  23
HETATM   23  C37 UNL     1      -0.967  51.584  -9.602  1.00  0.00     0.163 C 
HETATM   24  O8  UNL     1      -0.962  51.780  -8.396  1.00  0.00    -0.648 OA
BRANCH  23  25
HETATM   25  O9  UNL     1      -0.342  50.493 -10.107  1.00  0.00    -0.775 OA
HETATM   26  H56 UNL     1      -0.034  50.021  -9.303  1.00  0.00     0.167 HD
ENDBRANCH  23  25
ENDBRANCH  18  23
ENDBRANCH  15  18
ENDBRANCH  13  14
ENDBRANCH  12  13
ENDBRANCH  11  12
ENDBRANCH  10  11
ENDBRANCH   9  10
ENDBRANCH   6   9
ENDBRANCH   4   5
ENDBRANCH   3   4
ENDBRANCH   1   3
BRANCH   1  27
HETATM   27  O4  UNL     1      -0.945  51.901 -23.723  1.00  0.00    -0.314 OA
BRANCH  27  28
HETATM   28  C16 UNL     1      -1.195  50.577 -23.249  1.00  0.00     0.260 C 
BRANCH  28  29
HETATM   29  C17 UNL     1      -2.584  50.132 -23.681  1.00  0.00     0.185 C 
HETATM   30  O5  UNL     1      -2.720  49.351 -24.627  1.00  0.00    -0.292 OA
BRANCH  29  31
HETATM   31  C18 UNL     1      -3.802  50.749 -22.927  1.00  0.00     0.128 C 
HETATM   32  C19 UNL     1      -5.008  50.757 -23.887  1.00  0.00     0.047 C 
HETATM   33  C20 UNL     1      -5.900  49.575 -23.485  1.00  0.00     0.009 C 
HETATM   34  C21 UNL     1      -5.146  48.809 -22.384  1.00  0.00     0.002 C 
HETATM   35  C22 UNL     1      -5.975  47.916 -21.424  1.00  0.00    -0.004 C 
HETATM   36  C35 UNL     1      -4.313  49.913 -21.702  1.00  0.00    -0.002 C 
HETATM   37  C23 UNL     1      -7.106  47.157 -22.153  1.00  0.00     0.010 C 
HETATM   38  C32 UNL     1      -6.411  48.607 -20.093  1.00  0.00     0.002 C 
HETATM   39  C24 UNL     1      -8.491  47.736 -21.895  1.00  0.00     0.035 C 
HETATM   40  C25 UNL     1      -8.827  47.812 -20.426  1.00  0.00    -0.068 C 
HETATM   41  C26 UNL     1     -10.115  47.797 -20.038  1.00  0.00     0.053 C 
HETATM   42  C30 UNL     1      -7.672  47.926 -19.435  1.00  0.00    -0.016 C 
HETATM   43  C27 UNL     1     -10.510  47.905 -18.611  1.00  0.00     0.149 C 
HETATM   44  O7  UNL     1     -11.695  47.791 -18.305  1.00  0.00    -0.293 OA
HETATM   45  C28 UNL     1      -9.435  48.122 -17.573  1.00  0.00     0.084 C 
HETATM   46  C29 UNL     1      -8.176  48.721 -18.196  1.00  0.00     0.022 C 
HETATM   47  C31 UNL     1      -7.265  46.504 -18.948  1.00  0.00     0.020 C 
HETATM   48  C33 UNL     1      -6.511  50.127 -20.279  1.00  0.00     0.007 C 
HETATM   49  C34 UNL     1      -5.210  50.778 -20.766  1.00  0.00     0.013 C 
HETATM   50  C36 UNL     1      -3.146  49.334 -20.880  1.00  0.00     0.019 C 
BRANCH  31  51
HETATM   51  O6  UNL     1      -3.525  52.094 -22.545  1.00  0.00    -0.381 OA
HETATM   52  H29 UNL     1      -2.874  52.062 -21.820  1.00  0.00     0.211 HD
ENDBRANCH  31  51
ENDBRANCH  29  31
ENDBRANCH  28  29
ENDBRANCH  27  28
ENDBRANCH   1  27
TORSDOF 19
ENDMDL
MODEL 4
REMARK minimizedAffinity -8.91011333
REMARK CNNscore 0.491212487
REMARK CNNaffinity 6.34229803
REMARK  19 active torsions:
REMARK  status: ('A' for Active; 'I' for Inactive)
REMARK    1  A    between atoms: C2_2  and  C3_3 
REMARK    2  A    between atoms: C3_3  and  C5_5 
REMARK    3  A    between atoms: C5_5  and  N1_6 
REMARK    4  A    between atoms: C5_5  and  C37_46 
REMARK       I    between atoms: N1_6  and  C6_7 
REMARK    5  A    between atoms: C6_7  and  C7_9 
REMARK    6  A    between atoms: C7_9  and  C8_10 
REMARK    7  A    between atoms: C8_10  and  C9_11 
REMARK    8  A    between atoms: C9_11  and  C10_12 
REMARK    9  A    between atoms: C10_12  and  C11_13 
REMARK   10  A    between atoms: C11_13  and  N2_14 
REMARK       I    between atoms: N2_14  and  C12_15 
REMARK   11  A    between atoms: C12_15  and  C13_17 
REMARK   12  A    between atoms: C13_17  and  C14_18 
REMARK   13  A    between atoms: C14_18  and  C15_19 
REMARK   14  A    between atoms: C15_19  and  O4_21 
REMARK   15  A    between atoms: O4_21  and  C16_22 
REMARK   16  A    between atoms: C16_22  and  C17_23 
REMARK   17  A    between atoms: C17_23  and  C18_25 
REMARK   18  A    between atoms: C18_25  and  O6_26 
REMARK   19  A    between atoms: C37_46  and  O9_48 
ROOT
HETATM    1  C15 UNL     1      -9.370  47.088 -20.130  1.00  0.00     0.259 C 
HETATM    2  O3  UNL     1      -8.405  47.015 -19.383  1.00  0.00    -0.265 OA
ENDROOT
BRANCH   1   3
HETATM    3  C14 UNL     1      -9.313  47.388 -21.608  1.00  0.00     0.120 C 
BRANCH   3   4
HETATM    4  C13 UNL     1      -8.142  48.303 -21.941  1.00  0.00     0.112 C 
BRANCH   4   5
HETATM    5  C12 UNL     1      -7.847  48.327 -23.427  1.00  0.00     0.217 C 
HETATM    6  N2  UNL     1      -6.522  48.055 -23.709  1.00  0.00    -0.361 N 
HETATM    7  H22 UNL     1      -5.861  48.211 -22.961  1.00  0.00     0.162 HD
HETATM    8  O2  UNL     1      -8.707  48.509 -24.279  1.00  0.00    -0.274 OA
BRANCH   6   9
HETATM    9  C11 UNL     1      -6.027  48.142 -25.069  1.00  0.00     0.122 C 
BRANCH   9  10
HETATM   10  C10 UNL     1      -4.525  48.421 -25.125  1.00  0.00     0.020 C 
BRANCH  10  11
HETATM   11  C9  UNL     1      -3.937  48.509 -26.539  1.00  0.00     0.002 C 
BRANCH  11  12
HETATM   12  C8  UNL     1      -2.704  49.409 -26.664  1.00  0.00     0.009 C 
BRANCH  12  13
HETATM   13  C7  UNL     1      -2.888  50.497 -27.723  1.00  0.00     0.103 C 
BRANCH  13  14
HETATM   14  C6  UNL     1      -2.160  51.787 -27.386  1.00  0.00     0.218 C 
HETATM   15  N1  UNL     1      -0.977  51.928 -28.076  1.00  0.00    -0.346 N 
HETATM   16  H11 UNL     1      -0.552  51.084 -28.443  1.00  0.00     0.163 HD
HETATM   17  O1  UNL     1      -2.577  52.612 -26.582  1.00  0.00    -0.274 OA
BRANCH  15  18
HETATM   18  C5  UNL     1      -0.045  53.021 -27.776  1.00  0.00     0.186 C 
BRANCH  18  19
HETATM   19  C3  UNL     1       0.644  52.827 -26.402  1.00  0.00     0.014 C 
HETATM   20  C4  UNL     1      -0.241  53.289 -25.235  1.00  0.00     0.012 C 
BRANCH  19  21
HETATM   21  C2  UNL     1       1.083  51.357 -26.227  1.00  0.00     0.002 C 
HETATM   22  C1  UNL     1       2.577  51.140 -26.430  1.00  0.00     0.005 C 
ENDBRANCH  19  21
ENDBRANCH  18  19
BRANCH  18  23
HETATM   23  C37 UNL     1      -0.754  54.381 -27.844  1.00  0.00     0.163 C 
HETATM   24  O8  UNL     1      -0.412  55.406 -27.277  1.00  0.00    -0.648 OA
BRANCH  23  25
HETATM   25  O9  UNL     1      -1.891  54.368 -28.581  1.00  0.00    -0.775 OA
HETATM   26  H56 UNL     1      -2.197  55.299 -28.534  1.00  0.00     0.167 HD
ENDBRANCH  23  25
ENDBRANCH  18  23
ENDBRANCH  15  18
ENDBRANCH  13  14
ENDBRANCH  12  13
ENDBRANCH  11  12
ENDBRANCH  10  11
ENDBRANCH   9  10
ENDBRANCH   6   9
ENDBRANCH   4   5
ENDBRANCH   3   4
ENDBRANCH   1   3
BRANCH   1  27
HETATM   27  O4  UNL     1     -10.663  46.856 -19.765  1.00  0.00    -0.314 OA
BRANCH  27  28
HETATM   28  C16 UNL     1     -11.215  47.883 -18.940  1.00  0.00     0.260 C 
BRANCH  28  29
HETATM   29  C17 UNL     1     -12.334  47.309 -18.085  1.00  0.00     0.185 C 
HETATM   30  O5  UNL     1     -12.079  46.488 -17.199  1.00  0.00    -0.292 OA
BRANCH  29  31
HETATM   31  C18 UNL     1     -13.792  47.749 -18.420  1.00  0.00     0.128 C 
HETATM   32  C19 UNL     1     -13.724  48.901 -19.442  1.00  0.00     0.047 C 
HETATM   33  C20 UNL     1     -14.044  48.293 -20.814  1.00  0.00     0.009 C 
HETATM   34  C21 UNL     1     -14.167  46.774 -20.605  1.00  0.00     0.002 C 
HETATM   35  C22 UNL     1     -14.984  45.961 -21.643  1.00  0.00    -0.004 C 
HETATM   36  C35 UNL     1     -14.658  46.663 -19.148  1.00  0.00    -0.002 C 
HETATM   37  C23 UNL     1     -14.750  46.450 -23.090  1.00  0.00     0.010 C 
HETATM   38  C32 UNL     1     -16.483  45.733 -21.270  1.00  0.00     0.002 C 
HETATM   39  C24 UNL     1     -15.912  47.258 -23.654  1.00  0.00     0.035 C 
HETATM   40  C25 UNL     1     -17.221  46.512 -23.600  1.00  0.00    -0.068 C 
HETATM   41  C26 UNL     1     -18.197  46.820 -24.473  1.00  0.00     0.053 C 
HETATM   42  C30 UNL     1     -17.387  45.439 -22.528  1.00  0.00    -0.016 C 
HETATM   43  C27 UNL     1     -19.521  46.147 -24.447  1.00  0.00     0.149 C 
HETATM   44  O7  UNL     1     -20.342  46.400 -25.326  1.00  0.00    -0.293 OA
HETATM   45  C28 UNL     1     -19.805  45.144 -23.354  1.00  0.00     0.084 C 
HETATM   46  C29 UNL     1     -18.896  45.366 -22.148  1.00  0.00     0.022 C 
HETATM   47  C31 UNL     1     -16.982  44.054 -23.112  1.00  0.00     0.020 C 
HETATM   48  C33 UNL     1     -16.987  46.852 -20.349  1.00  0.00     0.007 C 
HETATM   49  C34 UNL     1     -16.178  47.001 -19.055  1.00  0.00     0.013 C 
HETATM   50  C36 UNL     1     -14.423  45.259 -18.561  1.00  0.00     0.019 C 
BRANCH  31  51
HETATM   51  O6  UNL     1     -14.452  48.227 -17.251  1.00  0.00    -0.381 OA
HETATM   52  H29 UNL     1     -14.632  47.456 -16.683  1.00  0.00     0.211 HD
ENDBRANCH  31  51
ENDBRANCH  29  31
ENDBRANCH  28  29
ENDBRANCH  27  28
ENDBRANCH   1  27
TORSDOF 19
ENDMDL
MODEL 5
REMARK minimizedAffinity -7.8235898
REMARK CNNscore 0.460749865
REMARK CNNaffinity 6.79587889
REMARK  19 active torsions:
REMARK  status: ('A' for Active; 'I' for Inactive)
REMARK    1  A    between atoms: C2_2  and  C3_3 
REMARK    2  A    between atoms: C3_3  and  C5_5 
REMARK    3  A    between atoms: C5_5  and  N1_6 
REMARK    4  A    between atoms: C5_5  and  C37_46 
REMARK       I    between atoms: N1_6  and  C6_7 
REMARK    5  A    between atoms: C6_7  and  C7_9 
REMARK    6  A    between atoms: C7_9  and  C8_10 
REMARK    7  A    between atoms: C8_10  and  C9_11 
REMARK    8  A    between atoms: C9_11  and  C10_12 
REMARK    9  A    between atoms: C10_12  and  C11_13 
REMARK   10  A    between atoms: C11_13  and  N2_14 
REMARK       I    between atoms: N2_14  and  C12_15 
REMARK   11  A    between atoms: C12_15  and  C13_17 
REMARK   12  A    between atoms: C13_17  and  C14_18 
REMARK   13  A    between atoms: C14_18  and  C15_19 
REMARK   14  A    between atoms: C15_19  and  O4_21 
REMARK   15  A    between atoms: O4_21  and  C16_22 
REMARK   16  A    between atoms: C16_22  and  C17_23 
REMARK   17  A    between atoms: C17_23  and  C18_25 
REMARK   18  A    between atoms: C18_25  and  O6_26 
REMARK   19  A    between atoms: C37_46  and  O9_48 
ROOT
HETATM    1  C15 UNL     1      -8.265  48.220 -17.847  1.00  0.00     0.259 C 
HETATM    2  O3  UNL     1      -8.597  49.376 -18.066  1.00  0.00    -0.265 OA
ENDROOT
BRANCH   1   3
HETATM    3  C14 UNL     1      -9.016  47.242 -16.978  1.00  0.00     0.120 C 
BRANCH   3   4
HETATM    4  C13 UNL     1     -10.446  47.706 -16.733  1.00  0.00     0.112 C 
BRANCH   4   5
HETATM    5  C12 UNL     1     -11.414  47.110 -17.735  1.00  0.00     0.217 C 
HETATM    6  N2  UNL     1     -12.414  47.993 -18.096  1.00  0.00    -0.361 N 
HETATM    7  H22 UNL     1     -12.602  48.748 -17.452  1.00  0.00     0.162 HD
HETATM    8  O2  UNL     1     -11.282  45.990 -18.211  1.00  0.00    -0.274 OA
BRANCH   6   9
HETATM    9  C11 UNL     1     -13.496  47.563 -18.961  1.00  0.00     0.122 C 
BRANCH   9  10
HETATM   10  C10 UNL     1     -14.715  47.085 -18.172  1.00  0.00     0.020 C 
BRANCH  10  11
HETATM   11  C9  UNL     1     -16.067  47.550 -18.729  1.00  0.00     0.002 C 
BRANCH  11  12
HETATM   12  C8  UNL     1     -16.537  46.795 -19.976  1.00  0.00     0.009 C 
BRANCH  12  13
HETATM   13  C7  UNL     1     -18.053  46.877 -20.163  1.00  0.00     0.103 C 
BRANCH  13  14
HETATM   14  C6  UNL     1     -18.553  46.072 -21.351  1.00  0.00     0.218 C 
HETATM   15  N1  UNL     1     -17.732  46.179 -22.451  1.00  0.00    -0.346 N 
HETATM   16  H11 UNL     1     -17.121  46.987 -22.495  1.00  0.00     0.163 HD
HETATM   17  O1  UNL     1     -19.578  45.402 -21.334  1.00  0.00    -0.274 OA
BRANCH  15  18
HETATM   18  C5  UNL     1     -18.119  45.614 -23.748  1.00  0.00     0.186 C 
BRANCH  18  19
HETATM   19  C3  UNL     1     -16.899  45.440 -24.687  1.00  0.00     0.014 C 
HETATM   20  C4  UNL     1     -17.286  44.814 -26.035  1.00  0.00     0.012 C 
BRANCH  19  21
HETATM   21  C2  UNL     1     -16.177  46.791 -24.881  1.00  0.00     0.002 C 
HETATM   22  C1  UNL     1     -14.806  46.848 -24.220  1.00  0.00     0.005 C 
ENDBRANCH  19  21
ENDBRANCH  18  19
BRANCH  18  23
HETATM   23  C37 UNL     1     -19.204  46.469 -24.417  1.00  0.00     0.163 C 
HETATM   24  O8  UNL     1     -19.120  47.652 -24.708  1.00  0.00    -0.648 OA
BRANCH  23  25
HETATM   25  O9  UNL     1     -20.365  45.804 -24.637  1.00  0.00    -0.775 OA
HETATM   26  H56 UNL     1     -20.927  46.479 -25.077  1.00  0.00     0.167 HD
ENDBRANCH  23  25
ENDBRANCH  18  23
ENDBRANCH  15  18
ENDBRANCH  13  14
ENDBRANCH  12  13
ENDBRANCH  11  12
ENDBRANCH  10  11
ENDBRANCH   9  10
ENDBRANCH   6   9
ENDBRANCH   4   5
ENDBRANCH   3   4
ENDBRANCH   1   3
BRANCH   1  27
HETATM   27  O4  UNL     1      -7.184  47.597 -18.399  1.00  0.00    -0.314 OA
BRANCH  27  28
HETATM   28  C16 UNL     1      -6.073  48.470 -18.613  1.00  0.00     0.260 C 
BRANCH  28  29
HETATM   29  C17 UNL     1      -5.724  48.501 -20.093  1.00  0.00     0.185 C 
HETATM   30  O5  UNL     1      -6.619  48.562 -20.942  1.00  0.00    -0.292 OA
BRANCH  29  31
HETATM   31  C18 UNL     1      -4.216  48.387 -20.477  1.00  0.00     0.128 C 
HETATM   32  C19 UNL     1      -4.083  47.339 -21.599  1.00  0.00     0.047 C 
HETATM   33  C20 UNL     1      -3.922  48.116 -22.912  1.00  0.00     0.009 C 
HETATM   34  C21 UNL     1      -4.094  49.605 -22.567  1.00  0.00     0.002 C 
HETATM   35  C22 UNL     1      -3.478  50.651 -23.533  1.00  0.00    -0.004 C 
HETATM   36  C35 UNL     1      -3.598  49.683 -21.109  1.00  0.00    -0.002 C 
HETATM   37  C23 UNL     1      -3.647  50.254 -25.016  1.00  0.00     0.010 C 
HETATM   38  C32 UNL     1      -2.043  51.136 -23.151  1.00  0.00     0.002 C 
HETATM   39  C24 UNL     1      -2.364  49.744 -25.660  1.00  0.00     0.035 C 
HETATM   40  C25 UNL     1      -1.225  50.726 -25.547  1.00  0.00    -0.068 C 
HETATM   41  C26 UNL     1      -0.229  50.693 -26.451  1.00  0.00     0.053 C 
HETATM   42  C30 UNL     1      -1.245  51.712 -24.383  1.00  0.00    -0.016 C 
HETATM   43  C27 UNL     1       0.937  51.609 -26.374  1.00  0.00     0.149 C 
HETATM   44  O7  UNL     1       1.771  51.601 -27.278  1.00  0.00    -0.293 OA
HETATM   45  C28 UNL     1       1.047  52.549 -25.196  1.00  0.00     0.084 C 
HETATM   46  C29 UNL     1       0.228  52.048 -24.008  1.00  0.00     0.022 C 
HETATM   47  C31 UNL     1      -1.928  53.036 -24.836  1.00  0.00     0.020 C 
HETATM   48  C33 UNL     1      -1.307  50.062 -22.339  1.00  0.00     0.007 C 
HETATM   49  C34 UNL     1      -2.040  49.644 -21.058  1.00  0.00     0.013 C 
HETATM   50  C36 UNL     1      -4.089  50.956 -20.396  1.00  0.00     0.019 C 
BRANCH  31  51
HETATM   51  O6  UNL     1      -3.447  47.948 -19.361  1.00  0.00    -0.381 OA
HETATM   52  H29 UNL     1      -3.407  48.687 -18.727  1.00  0.00     0.211 HD
ENDBRANCH  31  51
ENDBRANCH  29  31
ENDBRANCH  28  29
ENDBRANCH  27  28
ENDBRANCH   1  27
TORSDOF 19
ENDMDL
MODEL 6
REMARK minimizedAffinity -8.11344337
REMARK CNNscore 0.420248032
REMARK CNNaffinity 7.39964819
REMARK  19 active torsions:
REMARK  status: ('A' for Active; 'I' for Inactive)
REMARK    1  A    between atoms: C2_2  and  C3_3 
REMARK    2  A    between atoms: C3_3  and  C5_5 
REMARK    3  A    between atoms: C5_5  and  N1_6 
REMARK    4  A    between atoms: C5_5  and  C37_46 
REMARK       I    between atoms: N1_6  and  C6_7 
REMARK    5  A    between atoms: C6_7  and  C7_9 
REMARK    6  A    between atoms: C7_9  and  C8_10 
REMARK    7  A    between atoms: C8_10  and  C9_11 
REMARK    8  A    between atoms: C9_11  and  C10_12 
REMARK    9  A    between atoms: C10_12  and  C11_13 
REMARK   10  A    between atoms: C11_13  and  N2_14 
REMARK       I    between atoms: N2_14  and  C12_15 
REMARK   11  A    between atoms: C12_15  and  C13_17 
REMARK   12  A    between atoms: C13_17  and  C14_18 
REMARK   13  A    between atoms: C14_18  and  C15_19 
REMARK   14  A    between atoms: C15_19  and  O4_21 
REMARK   15  A    between atoms: O4_21  and  C16_22 
REMARK   16  A    between atoms: C16_22  and  C17_23 
REMARK   17  A    between atoms: C17_23  and  C18_25 
REMARK   18  A    between atoms: C18_25  and  O6_26 
REMARK   19  A    between atoms: C37_46  and  O9_48 
ROOT
HETATM    1  C15 UNL     1      -2.964  51.473 -14.207  1.00  0.00     0.259 C 
HETATM    2  O3  UNL     1      -3.800  51.894 -14.993  1.00  0.00    -0.265 OA
ENDROOT
BRANCH   1   3
HETATM    3  C14 UNL     1      -2.400  50.074 -14.193  1.00  0.00     0.120 C 
BRANCH   3   4
HETATM    4  C13 UNL     1      -1.361  49.887 -15.291  1.00  0.00     0.112 C 
BRANCH   4   5
HETATM    5  C12 UNL     1      -1.983  49.392 -16.581  1.00  0.00     0.217 C 
HETATM    6  N2  UNL     1      -2.653  50.390 -17.263  1.00  0.00    -0.361 N 
HETATM    7  H22 UNL     1      -2.949  51.188 -16.719  1.00  0.00     0.162 HD
HETATM    8  O2  UNL     1      -1.851  48.248 -16.995  1.00  0.00    -0.274 OA
BRANCH   6   9
HETATM    9  C11 UNL     1      -3.406  50.081 -18.464  1.00  0.00     0.122 C 
BRANCH   9  10
HETATM   10  C10 UNL     1      -2.725  50.605 -19.728  1.00  0.00     0.020 C 
BRANCH  10  11
HETATM   11  C9  UNL     1      -1.219  50.861 -19.590  1.00  0.00     0.002 C 
BRANCH  11  12
HETATM   12  C8  UNL     1      -0.707  52.087 -20.353  1.00  0.00     0.009 C 
BRANCH  12  13
HETATM   13  C7  UNL     1       0.336  51.716 -21.408  1.00  0.00     0.103 C 
BRANCH  13  14
HETATM   14  C6  UNL     1      -0.256  51.535 -22.795  1.00  0.00     0.218 C 
HETATM   15  N1  UNL     1       0.389  52.286 -23.753  1.00  0.00    -0.346 N 
HETATM   16  H11 UNL     1       0.917  53.089 -23.432  1.00  0.00     0.163 HD
HETATM   17  O1  UNL     1      -1.208  50.803 -23.036  1.00  0.00    -0.274 OA
BRANCH  15  18
HETATM   18  C5  UNL     1      -0.128  52.380 -25.122  1.00  0.00     0.186 C 
BRANCH  18  19
HETATM   19  C3  UNL     1       0.489  51.301 -26.046  1.00  0.00     0.014 C 
HETATM   20  C4  UNL     1      -0.239  51.203 -27.395  1.00  0.00     0.012 C 
BRANCH  19  21
HETATM   21  C2  UNL     1       1.999  51.565 -26.241  1.00  0.00     0.002 C 
HETATM   22  C1  UNL     1       2.393  51.803 -27.692  1.00  0.00     0.005 C 
ENDBRANCH  19  21
ENDBRANCH  18  19
BRANCH  18  23
HETATM   23  C37 UNL     1       0.097  53.786 -25.698  1.00  0.00     0.163 C 
HETATM   24  O8  UNL     1       0.788  54.667 -25.211  1.00  0.00    -0.648 OA
BRANCH  23  25
HETATM   25  O9  UNL     1      -0.605  54.030 -26.831  1.00  0.00    -0.775 OA
HETATM   26  H56 UNL     1      -0.335  54.945 -27.066  1.00  0.00     0.167 HD
ENDBRANCH  23  25
ENDBRANCH  18  23
ENDBRANCH  15  18
ENDBRANCH  13  14
ENDBRANCH  12  13
ENDBRANCH  11  12
ENDBRANCH  10  11
ENDBRANCH   9  10
ENDBRANCH   6   9
ENDBRANCH   4   5
ENDBRANCH   3   4
ENDBRANCH   1   3
BRANCH   1  27
HETATM   27  O4  UNL     1      -2.356  52.215 -13.238  1.00  0.00    -0.314 OA
BRANCH  27  28
HETATM   28  C16 UNL     1      -2.290  51.554 -11.973  1.00  0.00     0.260 C 
BRANCH  28  29
HETATM   29  C17 UNL     1      -2.772  52.493 -10.878  1.00  0.00     0.185 C 
HETATM   30  O5  UNL     1      -3.839  53.102 -11.007  1.00  0.00    -0.292 OA
BRANCH  29  31
HETATM   31  C18 UNL     1      -1.841  52.694  -9.642  1.00  0.00     0.128 C 
HETATM   32  C19 UNL     1      -0.903  51.475  -9.544  1.00  0.00     0.047 C 
HETATM   33  C20 UNL     1       0.455  51.917 -10.106  1.00  0.00     0.009 C 
HETATM   34  C21 UNL     1       0.263  53.345 -10.647  1.00  0.00     0.002 C 
HETATM   35  C22 UNL     1       1.520  54.245 -10.783  1.00  0.00    -0.004 C 
HETATM   36  C35 UNL     1      -0.856  53.909  -9.749  1.00  0.00    -0.002 C 
HETATM   37  C23 UNL     1       2.751  53.464 -11.294  1.00  0.00     0.010 C 
HETATM   38  C32 UNL     1       1.802  55.173  -9.559  1.00  0.00     0.002 C 
HETATM   39  C24 UNL     1       3.778  53.171 -10.207  1.00  0.00     0.035 C 
HETATM   40  C25 UNL     1       4.252  54.417  -9.502  1.00  0.00    -0.068 C 
HETATM   41  C26 UNL     1       5.464  54.428  -8.917  1.00  0.00     0.053 C 
HETATM   42  C30 UNL     1       3.312  55.618  -9.465  1.00  0.00    -0.016 C 
HETATM   43  C27 UNL     1       5.972  55.611  -8.177  1.00  0.00     0.149 C 
HETATM   44  O7  UNL     1       7.123  55.602  -7.745  1.00  0.00    -0.293 OA
HETATM   45  C28 UNL     1       5.065  56.806  -8.006  1.00  0.00     0.084 C 
HETATM   46  C29 UNL     1       3.597  56.415  -8.158  1.00  0.00     0.022 C 
HETATM   47  C31 UNL     1       3.624  56.558 -10.666  1.00  0.00     0.020 C 
HETATM   48  C33 UNL     1       1.217  54.568  -8.275  1.00  0.00     0.007 C 
HETATM   49  C34 UNL     1      -0.292  54.300  -8.349  1.00  0.00     0.013 C 
HETATM   50  C36 UNL     1      -1.536  55.142 -10.375  1.00  0.00     0.019 C 
BRANCH  31  51
HETATM   51  O6  UNL     1      -2.609  52.765  -8.443  1.00  0.00    -0.381 OA
HETATM   52  H29 UNL     1      -3.075  53.621  -8.447  1.00  0.00     0.211 HD
ENDBRANCH  31  51
ENDBRANCH  29  31
ENDBRANCH  28  29
ENDBRANCH  27  28
ENDBRANCH   1  27
TORSDOF 19
ENDMDL
MODEL 7
REMARK minimizedAffinity -7.55019426
REMARK CNNscore 0.406100631
REMARK CNNaffinity 6.39516211
REMARK  19 active torsions:
REMARK  status: ('A' for Active; 'I' for Inactive)
REMARK    1  A    between atoms: C2_2  and  C3_3 
REMARK    2  A    between atoms: C3_3  and  C5_5 
REMARK    3  A    between atoms: C5_5  and  N1_6 
REMARK    4  A    between atoms: C5_5  and  C37_46 
REMARK       I    between atoms: N1_6  and  C6_7 
REMARK    5  A    between atoms: C6_7  and  C7_9 
REMARK    6  A    between atoms: C7_9  and  C8_10 
REMARK    7  A    between atoms: C8_10  and  C9_11 
REMARK    8  A    between atoms: C9_11  and  C10_12 
REMARK    9  A    between atoms: C10_12  and  C11_13 
REMARK   10  A    between atoms: C11_13  and  N2_14 
REMARK       I    between atoms: N2_14  and  C12_15 
REMARK   11  A    between atoms: C12_15  and  C13_17 
REMARK   12  A    between atoms: C13_17  and  C14_18 
REMARK   13  A    between atoms: C14_18  and  C15_19 
REMARK   14  A    between atoms: C15_19  and  O4_21 
REMARK   15  A    between atoms: O4_21  and  C16_22 
REMARK   16  A    between atoms: C16_22  and  C17_23 
REMARK   17  A    between atoms: C17_23  and  C18_25 
REMARK   18  A    between atoms: C18_25  and  O6_26 
REMARK   19  A    between atoms: C37_46  and  O9_48 
ROOT
HETATM    1  C15 UNL     1      -7.689  46.563 -22.931  1.00  0.00     0.259 C 
HETATM    2  O3  UNL     1      -7.229  45.544 -22.438  1.00  0.00    -0.265 OA
ENDROOT
BRANCH   1   3
HETATM    3  C14 UNL     1      -8.376  46.655 -24.272  1.00  0.00     0.120 C 
BRANCH   3   4
HETATM    4  C13 UNL     1      -9.853  46.988 -24.113  1.00  0.00     0.112 C 
BRANCH   4   5
HETATM    5  C12 UNL     1     -10.495  47.358 -25.435  1.00  0.00     0.217 C 
HETATM    6  N2  UNL     1     -11.133  46.288 -26.032  1.00  0.00    -0.361 N 
HETATM    7  H22 UNL     1     -10.832  45.367 -25.745  1.00  0.00     0.162 HD
HETATM    8  O2  UNL     1     -10.494  48.496 -25.887  1.00  0.00    -0.274 OA
BRANCH   6   9
HETATM    9  C11 UNL     1     -11.710  46.422 -27.357  1.00  0.00     0.122 C 
BRANCH   9  10
HETATM   10  C10 UNL     1     -13.178  45.999 -27.396  1.00  0.00     0.020 C 
BRANCH  10  11
HETATM   11  C9  UNL     1     -13.965  46.280 -26.109  1.00  0.00     0.002 C 
BRANCH  11  12
HETATM   12  C8  UNL     1     -14.242  45.045 -25.247  1.00  0.00     0.009 C 
BRANCH  12  13
HETATM   13  C7  UNL     1     -14.281  45.380 -23.755  1.00  0.00     0.103 C 
BRANCH  13  14
HETATM   14  C6  UNL     1     -15.445  46.279 -23.375  1.00  0.00     0.218 C 
HETATM   15  N1  UNL     1     -16.670  45.706 -23.636  1.00  0.00    -0.346 N 
HETATM   16  H11 UNL     1     -16.694  44.959 -24.321  1.00  0.00     0.163 HD
HETATM   17  O1  UNL     1     -15.310  47.398 -22.894  1.00  0.00    -0.274 OA
BRANCH  15  18
HETATM   18  C5  UNL     1     -17.914  46.471 -23.496  1.00  0.00     0.186 C 
BRANCH  18  19
HETATM   19  C3  UNL     1     -18.785  45.944 -22.328  1.00  0.00     0.014 C 
HETATM   20  C4  UNL     1     -19.538  44.658 -22.697  1.00  0.00     0.012 C 
BRANCH  19  21
HETATM   21  C2  UNL     1     -17.920  45.746 -21.064  1.00  0.00     0.002 C 
HETATM   22  C1  UNL     1     -18.098  46.846 -20.026  1.00  0.00     0.005 C 
ENDBRANCH  19  21
ENDBRANCH  18  19
BRANCH  18  23
HETATM   23  C37 UNL     1     -18.707  46.473 -24.810  1.00  0.00     0.163 C 
HETATM   24  O8  UNL     1     -19.691  47.151 -25.062  1.00  0.00    -0.648 OA
BRANCH  23  25
HETATM   25  O9  UNL     1     -18.254  45.581 -25.723  1.00  0.00    -0.775 OA
HETATM   26  H56 UNL     1     -18.849  45.726 -26.490  1.00  0.00     0.167 HD
ENDBRANCH  23  25
ENDBRANCH  18  23
ENDBRANCH  15  18
ENDBRANCH  13  14
ENDBRANCH  12  13
ENDBRANCH  11  12
ENDBRANCH  10  11
ENDBRANCH   9  10
ENDBRANCH   6   9
ENDBRANCH   4   5
ENDBRANCH   3   4
ENDBRANCH   1   3
BRANCH   1  27
HETATM   27  O4  UNL     1      -7.710  47.786 -22.327  1.00  0.00    -0.314 OA
BRANCH  27  28
HETATM   28  C16 UNL     1      -7.069  47.800 -21.050  1.00  0.00     0.260 C 
BRANCH  28  29
HETATM   29  C17 UNL     1      -5.718  48.490 -21.163  1.00  0.00     0.185 C 
HETATM   30  O5  UNL     1      -4.720  47.991 -20.635  1.00  0.00    -0.292 OA
BRANCH  29  31
HETATM   31  C18 UNL     1      -5.672  49.862 -21.904  1.00  0.00     0.128 C 
HETATM   32  C19 UNL     1      -4.947  50.875 -20.998  1.00  0.00     0.047 C 
HETATM   33  C20 UNL     1      -3.519  51.013 -21.544  1.00  0.00     0.009 C 
HETATM   34  C21 UNL     1      -3.382  49.985 -22.681  1.00  0.00     0.002 C 
HETATM   35  C22 UNL     1      -2.289  50.230 -23.753  1.00  0.00    -0.004 C 
HETATM   36  C35 UNL     1      -4.822  49.872 -23.221  1.00  0.00    -0.002 C 
HETATM   37  C23 UNL     1      -0.978  50.777 -23.145  1.00  0.00     0.010 C 
HETATM   38  C32 UNL     1      -2.776  50.986 -25.030  1.00  0.00     0.002 C 
HETATM   39  C24 UNL     1      -0.762  52.263 -23.403  1.00  0.00     0.035 C 
HETATM   40  C25 UNL     1      -0.798  52.611 -24.871  1.00  0.00    -0.068 C 
HETATM   41  C26 UNL     1      -0.145  53.702 -25.310  1.00  0.00     0.053 C 
HETATM   42  C30 UNL     1      -1.603  51.706 -25.799  1.00  0.00    -0.016 C 
HETATM   43  C27 UNL     1      -0.171  54.116 -26.736  1.00  0.00     0.149 C 
HETATM   44  O7  UNL     1       0.519  55.066 -27.100  1.00  0.00    -0.293 OA
HETATM   45  C28 UNL     1      -1.027  53.335 -27.704  1.00  0.00     0.084 C 
HETATM   46  C29 UNL     1      -2.133  52.573 -26.978  1.00  0.00     0.022 C 
HETATM   47  C31 UNL     1      -0.667  50.616 -26.401  1.00  0.00     0.020 C 
HETATM   48  C33 UNL     1      -3.987  51.872 -24.706  1.00  0.00     0.007 C 
HETATM   49  C34 UNL     1      -5.172  51.105 -24.108  1.00  0.00     0.013 C 
HETATM   50  C36 UNL     1      -5.032  48.588 -24.046  1.00  0.00     0.019 C 
BRANCH  31  51
HETATM   51  O6  UNL     1      -6.992  50.344 -22.147  1.00  0.00    -0.381 OA
HETATM   52  H29 UNL     1      -7.382  49.785 -22.844  1.00  0.00     0.211 HD
ENDBRANCH  31  51
ENDBRANCH  29  31
ENDBRANCH  28  29
ENDBRANCH  27  28
ENDBRANCH   1  27
TORSDOF 19
ENDMDL
MODEL 8
REMARK minimizedAffinity -7.5369277
REMARK CNNscore 0.363483965
REMARK CNNaffinity 6.71663904
REMARK  19 active torsions:
REMARK  status: ('A' for Active; 'I' for Inactive)
REMARK    1  A    between atoms: C2_2  and  C3_3 
REMARK    2  A    between atoms: C3_3  and  C5_5 
REMARK    3  A    between atoms: C5_5  and  N1_6 
REMARK    4  A    between atoms: C5_5  and  C37_46 
REMARK       I    between atoms: N1_6  and  C6_7 
REMARK    5  A    between atoms: C6_7  and  C7_9 
REMARK    6  A    between atoms: C7_9  and  C8_10 
REMARK    7  A    between atoms: C8_10  and  C9_11 
REMARK    8  A    between atoms: C9_11  and  C10_12 
REMARK    9  A    between atoms: C10_12  and  C11_13 
REMARK   10  A    between atoms: C11_13  and  N2_14 
REMARK       I    between atoms: N2_14  and  C12_15 
REMARK   11  A    between atoms: C12_15  and  C13_17 
REMARK   12  A    between atoms: C13_17  and  C14_18 
REMARK   13  A    between atoms: C14_18  and  C15_19 
REMARK   14  A    between atoms: C15_19  and  O4_21 
REMARK   15  A    between atoms: O4_21  and  C16_22 
REMARK   16  A    between atoms: C16_22  and  C17_23 
REMARK   17  A    between atoms: C17_23  and  C18_25 
REMARK   18  A    between atoms: C18_25  and  O6_26 
REMARK   19  A    between atoms: C37_46  and  O9_48 
ROOT
HETATM    1  C15 UNL     1      -0.365  49.679 -16.364  1.00  0.00     0.259 C 
HETATM    2  O3  UNL     1      -0.126  48.572 -15.904  1.00  0.00    -0.265 OA
ENDROOT
BRANCH   1   3
HETATM    3  C14 UNL     1       0.668  50.701 -16.769  1.00  0.00     0.120 C 
BRANCH   3   4
HETATM    4  C13 UNL     1       0.762  51.826 -15.747  1.00  0.00     0.112 C 
BRANCH   4   5
HETATM    5  C12 UNL     1       1.666  51.464 -14.587  1.00  0.00     0.217 C 
HETATM    6  N2  UNL     1       1.501  52.306 -13.503  1.00  0.00    -0.361 N 
HETATM    7  H22 UNL     1       1.101  53.214 -13.695  1.00  0.00     0.162 HD
HETATM    8  O2  UNL     1       2.413  50.494 -14.595  1.00  0.00    -0.274 OA
BRANCH   6   9
HETATM    9  C11 UNL     1       2.359  52.184 -12.340  1.00  0.00     0.122 C 
BRANCH   9  10
HETATM   10  C10 UNL     1       1.963  53.147 -11.222  1.00  0.00     0.020 C 
BRANCH  10  11
HETATM   11  C9  UNL     1       3.121  53.958 -10.628  1.00  0.00     0.002 C 
BRANCH  11  12
HETATM   12  C8  UNL     1       2.818  55.444 -10.414  1.00  0.00     0.009 C 
BRANCH  12  13
HETATM   13  C7  UNL     1       3.934  56.156  -9.647  1.00  0.00     0.103 C 
BRANCH  13  14
HETATM   14  C6  UNL     1       3.435  56.896  -8.418  1.00  0.00     0.218 C 
HETATM   15  N1  UNL     1       2.452  56.207  -7.743  1.00  0.00    -0.346 N 
HETATM   16  H11 UNL     1       1.938  55.505  -8.264  1.00  0.00     0.163 HD
HETATM   17  O1  UNL     1       3.857  57.991  -8.066  1.00  0.00    -0.274 OA
BRANCH  15  18
HETATM   18  C5  UNL     1       1.723  56.818  -6.626  1.00  0.00     0.186 C 
BRANCH  18  19
HETATM   19  C3  UNL     1       2.166  56.233  -5.261  1.00  0.00     0.014 C 
HETATM   20  C4  UNL     1       2.578  54.758  -5.365  1.00  0.00     0.012 C 
BRANCH  19  21
HETATM   21  C2  UNL     1       3.297  57.092  -4.654  1.00  0.00     0.002 C 
HETATM   22  C1  UNL     1       2.990  58.583  -4.643  1.00  0.00     0.005 C 
ENDBRANCH  19  21
ENDBRANCH  18  19
BRANCH  18  23
HETATM   23  C37 UNL     1       0.207  56.673  -6.816  1.00  0.00     0.163 C 
HETATM   24  O8  UNL     1      -0.398  56.700  -7.876  1.00  0.00    -0.648 OA
BRANCH  23  25
HETATM   25  O9  UNL     1      -0.480  56.557  -5.653  1.00  0.00    -0.775 OA
HETATM   26  H56 UNL     1      -1.410  56.457  -5.954  1.00  0.00     0.167 HD
ENDBRANCH  23  25
ENDBRANCH  18  23
ENDBRANCH  15  18
ENDBRANCH  13  14
ENDBRANCH  12  13
ENDBRANCH  11  12
ENDBRANCH  10  11
ENDBRANCH   9  10
ENDBRANCH   6   9
ENDBRANCH   4   5
ENDBRANCH   3   4
ENDBRANCH   1   3
BRANCH   1  27
HETATM   27  O4  UNL     1      -1.610  50.160 -16.644  1.00  0.00    -0.314 OA
BRANCH  27  28
HETATM   28  C16 UNL     1      -2.450  49.212 -17.306  1.00  0.00     0.260 C 
BRANCH  28  29
HETATM   29  C17 UNL     1      -2.067  49.127 -18.775  1.00  0.00     0.185 C 
HETATM   30  O5  UNL     1      -1.272  48.264 -19.161  1.00  0.00    -0.292 OA
BRANCH  29  31
HETATM   31  C18 UNL     1      -2.663  50.201 -19.737  1.00  0.00     0.128 C 
HETATM   32  C19 UNL     1      -2.179  51.587 -19.268  1.00  0.00     0.047 C 
HETATM   33  C20 UNL     1      -1.036  51.996 -20.206  1.00  0.00     0.009 C 
HETATM   34  C21 UNL     1      -0.773  50.794 -21.130  1.00  0.00     0.002 C 
HETATM   35  C22 UNL     1      -0.078  51.061 -22.490  1.00  0.00    -0.004 C 
HETATM   36  C35 UNL     1      -2.154  50.115 -21.218  1.00  0.00    -0.002 C 
HETATM   37  C23 UNL     1       1.045  52.116 -22.382  1.00  0.00     0.010 C 
HETATM   38  C32 UNL     1      -1.049  51.269 -23.696  1.00  0.00     0.002 C 
HETATM   39  C24 UNL     1       0.661  53.475 -22.956  1.00  0.00     0.035 C 
HETATM   40  C25 UNL     1       0.210  53.393 -24.393  1.00  0.00    -0.068 C 
HETATM   41  C26 UNL     1       0.328  54.472 -25.188  1.00  0.00     0.053 C 
HETATM   42  C30 UNL     1      -0.389  52.077 -24.879  1.00  0.00    -0.016 C 
HETATM   43  C27 UNL     1      -0.130  54.466 -26.600  1.00  0.00     0.149 C 
HETATM   44  O7  UNL     1       0.088  55.447 -27.308  1.00  0.00    -0.293 OA
HETATM   45  C28 UNL     1      -0.827  53.236 -27.133  1.00  0.00     0.084 C 
HETATM   46  C29 UNL     1      -1.419  52.400 -26.001  1.00  0.00     0.022 C 
HETATM   47  C31 UNL     1       0.732  51.199 -25.510  1.00  0.00     0.020 C 
HETATM   48  C33 UNL     1      -2.404  51.805 -23.214  1.00  0.00     0.007 C 
HETATM   49  C34 UNL     1      -3.093  50.905 -22.181  1.00  0.00     0.013 C 
HETATM   50  C36 UNL     1      -2.055  48.657 -21.703  1.00  0.00     0.019 C 
BRANCH  31  51
HETATM   51  O6  UNL     1      -4.087  50.183 -19.685  1.00  0.00    -0.381 OA
HETATM   52  H29 UNL     1      -4.384  49.369 -20.132  1.00  0.00     0.211 HD
ENDBRANCH  31  51
ENDBRANCH  29  31
ENDBRANCH  28  29
ENDBRANCH  27  28
ENDBRANCH   1  27
TORSDOF 19
ENDMDL
MODEL 9
REMARK minimizedAffinity -7.89900112
REMARK CNNscore 0.338207304
REMARK CNNaffinity 6.12521172
REMARK  19 active torsions:
REMARK  status: ('A' for Active; 'I' for Inactive)
REMARK    1  A    between atoms: C2_2  and  C3_3 
REMARK    2  A    between atoms: C3_3  and  C5_5 
REMARK    3  A    between atoms: C5_5  and  N1_6 
REMARK    4  A    between atoms: C5_5  and  C37_46 
REMARK       I    between atoms: N1_6  and  C6_7 
REMARK    5  A    between atoms: C6_7  and  C7_9 
REMARK    6  A    between atoms: C7_9  and  C8_10 
REMARK    7  A    between atoms: C8_10  and  C9_11 
REMARK    8  A    between atoms: C9_11  and  C10_12 
REMARK    9  A    between atoms: C10_12  and  C11_13 
REMARK   10  A    between atoms: C11_13  and  N2_14 
REMARK       I    between atoms: N2_14  and  C12_15 
REMARK   11  A    between atoms: C12_15  and  C13_17 
REMARK   12  A    between atoms: C13_17  and  C14_18 
REMARK   13  A    between atoms: C14_18  and  C15_19 
REMARK   14  A    between atoms: C15_19  and  O4_21 
REMARK   15  A    between atoms: O4_21  and  C16_22 
REMARK   16  A    between atoms: C16_22  and  C17_23 
REMARK   17  A    between atoms: C17_23  and  C18_25 
REMARK   18  A    between atoms: C18_25  and  O6_26 
REMARK   19  A    between atoms: C37_46  and  O9_48 
ROOT
HETATM    1  C15 UNL     1      -9.402  46.852 -18.985  1.00  0.00     0.259 C 
HETATM    2  O3  UNL     1      -8.424  46.226 -18.604  1.00  0.00    -0.265 OA
ENDROOT
BRANCH   1   3
HETATM    3  C14 UNL     1      -9.372  48.061 -19.887  1.00  0.00     0.120 C 
BRANCH   3   4
HETATM    4  C13 UNL     1      -7.963  48.337 -20.393  1.00  0.00     0.112 C 
BRANCH   4   5
HETATM    5  C12 UNL     1      -7.893  48.326 -21.907  1.00  0.00     0.217 C 
HETATM    6  N2  UNL     1      -6.807  49.029 -22.392  1.00  0.00    -0.361 N 
HETATM    7  H22 UNL     1      -6.406  49.721 -21.776  1.00  0.00     0.162 HD
HETATM    8  O2  UNL     1      -8.683  47.710 -22.611  1.00  0.00    -0.274 OA
BRANCH   6   9
HETATM    9  C11 UNL     1      -6.635  49.223 -23.819  1.00  0.00     0.122 C 
BRANCH   9  10
HETATM   10  C10 UNL     1      -5.740  48.155 -24.447  1.00  0.00     0.020 C 
BRANCH  10  11
HETATM   11  C9  UNL     1      -4.621  48.697 -25.345  1.00  0.00     0.002 C 
BRANCH  11  12
HETATM   12  C8  UNL     1      -3.214  48.590 -24.748  1.00  0.00     0.009 C 
BRANCH  12  13
HETATM   13  C7  UNL     1      -2.565  49.960 -24.547  1.00  0.00     0.103 C 
BRANCH  13  14
HETATM   14  C6  UNL     1      -2.036  50.170 -23.139  1.00  0.00     0.218 C 
HETATM   15  N1  UNL     1      -2.278  51.439 -22.662  1.00  0.00    -0.346 N 
HETATM   16  H11 UNL     1      -2.448  52.166 -23.347  1.00  0.00     0.163 HD
HETATM   17  O1  UNL     1      -1.453  49.305 -22.497  1.00  0.00    -0.274 OA
BRANCH  15  18
HETATM   18  C5  UNL     1      -1.705  51.897 -21.391  1.00  0.00     0.186 C 
BRANCH  18  19
HETATM   19  C3  UNL     1      -0.157  51.902 -21.425  1.00  0.00     0.014 C 
HETATM   20  C4  UNL     1       0.396  52.470 -22.740  1.00  0.00     0.012 C 
BRANCH  19  21
HETATM   21  C2  UNL     1       0.402  52.665 -20.204  1.00  0.00     0.002 C 
HETATM   22  C1  UNL     1       1.096  53.970 -20.568  1.00  0.00     0.005 C 
ENDBRANCH  19  21
ENDBRANCH  18  19
BRANCH  18  23
HETATM   23  C37 UNL     1      -2.223  51.049 -20.220  1.00  0.00     0.163 C 
HETATM   24  O8  UNL     1      -1.661  50.090 -19.714  1.00  0.00    -0.648 OA
BRANCH  23  25
HETATM   25  O9  UNL     1      -3.450  51.419 -19.779  1.00  0.00    -0.775 OA
HETATM   26  H56 UNL     1      -3.614  50.799 -19.035  1.00  0.00     0.167 HD
ENDBRANCH  23  25
ENDBRANCH  18  23
ENDBRANCH  15  18
ENDBRANCH  13  14
ENDBRANCH  12  13
ENDBRANCH  11  12
ENDBRANCH  10  11
ENDBRANCH   9  10
ENDBRANCH   6   9
ENDBRANCH   4   5
ENDBRANCH   3   4
ENDBRANCH   1   3
BRANCH   1  27
HETATM   27  O4  UNL     1     -10.697  46.530 -18.703  1.00  0.00    -0.314 OA
BRANCH  27  28
HETATM   28  C16 UNL     1     -11.575  47.657 -18.696  1.00  0.00     0.260 C 
BRANCH  28  29
HETATM   29  C17 UNL     1     -12.727  47.404 -17.735  1.00  0.00     0.185 C 
HETATM   30  O5  UNL     1     -12.527  46.820 -16.666  1.00  0.00    -0.292 OA
BRANCH  29  31
HETATM   31  C18 UNL     1     -14.151  47.852 -18.188  1.00  0.00     0.128 C 
HETATM   32  C19 UNL     1     -13.993  48.963 -19.244  1.00  0.00     0.047 C 
HETATM   33  C20 UNL     1     -14.226  48.308 -20.612  1.00  0.00     0.009 C 
HETATM   34  C21 UNL     1     -14.388  46.799 -20.356  1.00  0.00     0.002 C 
HETATM   35  C22 UNL     1     -15.143  45.959 -21.420  1.00  0.00    -0.004 C 
HETATM   36  C35 UNL     1     -14.981  46.750 -18.934  1.00  0.00    -0.002 C 
HETATM   37  C23 UNL     1     -14.801  46.390 -22.863  1.00  0.00     0.010 C 
HETATM   38  C32 UNL     1     -16.668  45.766 -21.144  1.00  0.00     0.002 C 
HETATM   39  C24 UNL     1     -15.907  47.192 -23.537  1.00  0.00     0.035 C 
HETATM   40  C25 UNL     1     -17.229  46.465 -23.548  1.00  0.00    -0.068 C 
HETATM   41  C26 UNL     1     -18.137  46.754 -24.497  1.00  0.00     0.053 C 
HETATM   42  C30 UNL     1     -17.487  45.436 -22.451  1.00  0.00    -0.016 C 
HETATM   43  C27 UNL     1     -19.469  46.100 -24.541  1.00  0.00     0.149 C 
HETATM   44  O7  UNL     1     -20.223  46.330 -25.484  1.00  0.00    -0.293 OA
HETATM   45  C28 UNL     1     -19.845  45.143 -23.434  1.00  0.00     0.084 C 
HETATM   46  C29 UNL     1     -19.019  45.397 -22.176  1.00  0.00     0.022 C 
HETATM   47  C31 UNL     1     -17.064  44.025 -22.954  1.00  0.00     0.020 C 
HETATM   48  C33 UNL     1     -17.218  46.925 -20.303  1.00  0.00     0.007 C 
HETATM   49  C34 UNL     1     -16.498  47.112 -18.961  1.00  0.00     0.013 C 
HETATM   50  C36 UNL     1     -14.810  45.366 -18.281  1.00  0.00     0.019 C 
BRANCH  31  51
HETATM   51  O6  UNL     1     -14.883  48.382 -17.086  1.00  0.00    -0.381 OA
HETATM   52  H29 UNL     1     -15.115  47.635 -16.505  1.00  0.00     0.211 HD
ENDBRANCH  31  51
ENDBRANCH  29  31
ENDBRANCH  28  29
ENDBRANCH  27  28
ENDBRANCH   1  27
TORSDOF 19
ENDMDL
