MODEL 1
REMARK minimizedAffinity -7.32261896
REMARK CNNscore 0.66437155
REMARK CNNaffinity 5.08234262
REMARK  11 active torsions:
REMARK  status: ('A' for Active; 'I' for Inactive)
REMARK    1  A    between atoms: C4_4  and  O1_5 
REMARK    2  A    between atoms: O1_5  and  C5_6 
REMARK    3  A    between atoms: C6_8  and  C7_9 
REMARK    4  A    between atoms: C7_9  and  O3_10 
REMARK    5  A    between atoms: C8_11  and  O4_12 
REMARK    6  A    between atoms: C9_13  and  O5_14 
REMARK    7  A    between atoms: C10_15  and  O6_16 
REMARK    8  A    between atoms: C15_21  and  O7_22 
REMARK    9  A    between atoms: C15_21  and  C16_23 
REMARK   10  A    between atoms: C17_24  and  C18_25 
REMARK   11  A    between atoms: C18_25  and  O8_27 
ROOT
HETATM    1  C1  UNL     1      -5.520   5.161  13.669  1.00  0.00     0.013 C 
HETATM    2  C2  UNL     1      -6.620   6.164  13.298  1.00  0.00     0.023 C 
HETATM    3  C3  UNL     1      -6.047   7.572  13.043  1.00  0.00     0.039 C 
HETATM    4  C4  UNL     1      -5.792   8.396  14.308  1.00  0.00     0.126 C 
HETATM    5  C11 UNL     1      -7.041   8.439  15.200  1.00  0.00     0.044 C 
HETATM    6  C12 UNL     1      -7.667   7.058  15.547  1.00  0.00    -0.010 C 
HETATM    7  C13 UNL     1      -6.815   6.327  16.613  1.00  0.00     0.018 C 
HETATM    8  C14 UNL     1      -9.023   7.336  16.260  1.00  0.00     0.018 C 
HETATM    9  C15 UNL     1      -7.867   6.192  14.239  1.00  0.00     0.086 C 
ENDROOT
BRANCH   4  10
HETATM   10  O1  UNL     1      -4.712   7.895  15.094  1.00  0.00    -0.353 OA
BRANCH  10  11
HETATM   11  C5  UNL     1      -3.963   8.901  15.795  1.00  0.00     0.292 C 
HETATM   12  O2  UNL     1      -3.840  10.074  14.995  1.00  0.00    -0.348 OA
HETATM   13  C6  UNL     1      -2.740  10.950  15.324  1.00  0.00     0.179 C 
HETATM   14  C8  UNL     1      -2.121  10.699  16.708  1.00  0.00     0.180 C 
HETATM   15  C9  UNL     1      -1.734   9.229  16.918  1.00  0.00     0.183 C 
HETATM   16  C10 UNL     1      -2.588   8.276  16.077  1.00  0.00     0.204 C 
BRANCH  13  17
HETATM   17  C7  UNL     1      -1.706  10.879  14.191  1.00  0.00     0.198 C 
BRANCH  17  18
HETATM   18  O3  UNL     1      -1.330  12.205  13.810  1.00  0.00    -0.398 OA
HETATM   19  H12 UNL     1      -2.165  12.703  13.723  1.00  0.00     0.209 HD
ENDBRANCH  17  18
ENDBRANCH  13  17
BRANCH  14  20
HETATM   20  O4  UNL     1      -3.092  11.049  17.711  1.00  0.00    -0.390 OA
HETATM   21  H14 UNL     1      -3.251  12.009  17.645  1.00  0.00     0.210 HD
ENDBRANCH  14  20
BRANCH  15  22
HETATM   22  O5  UNL     1      -0.353   9.032  16.580  1.00  0.00    -0.390 OA
HETATM   23  H16 UNL     1      -0.155   8.103  16.814  1.00  0.00     0.210 HD
ENDBRANCH  15  22
BRANCH  16  24
HETATM   24  O6  UNL     1      -2.698   7.011  16.749  1.00  0.00    -0.388 OA
HETATM   25  H18 UNL     1      -3.399   6.530  16.263  1.00  0.00     0.210 HD
ENDBRANCH  16  24
ENDBRANCH  10  11
ENDBRANCH   4  10
BRANCH   9  26
HETATM   26  O7  UNL     1      -8.175   4.842  14.606  1.00  0.00    -0.385 OA
HETATM   27  H27 UNL     1      -8.998   4.862  15.122  1.00  0.00     0.211 HD
ENDBRANCH   9  26
BRANCH   9  28
HETATM   28  C16 UNL     1      -9.038   6.713  13.398  1.00  0.00     0.010 C 
HETATM   29  C17 UNL     1     -10.339   6.720  13.750  1.00  0.00     0.003 C 
BRANCH  29  30
HETATM   30  C18 UNL     1     -11.441   7.246  12.878  1.00  0.00     0.136 C 
HETATM   31  C19 UNL     1     -12.816   6.880  13.418  1.00  0.00     0.043 C 
BRANCH  30  32
HETATM   32  O8  UNL     1     -11.314   8.662  12.820  1.00  0.00    -0.392 OA
HETATM   33  H34 UNL     1     -11.483   9.008  13.712  1.00  0.00     0.210 HD
ENDBRANCH  30  32
ENDBRANCH  29  30
ENDBRANCH   9  28
TORSDOF 11
ENDMDL
MODEL 2
REMARK minimizedAffinity -7.50507069
REMARK CNNscore 0.618785739
REMARK CNNaffinity 5.38647032
REMARK  11 active torsions:
REMARK  status: ('A' for Active; 'I' for Inactive)
REMARK    1  A    between atoms: C4_4  and  O1_5 
REMARK    2  A    between atoms: O1_5  and  C5_6 
REMARK    3  A    between atoms: C6_8  and  C7_9 
REMARK    4  A    between atoms: C7_9  and  O3_10 
REMARK    5  A    between atoms: C8_11  and  O4_12 
REMARK    6  A    between atoms: C9_13  and  O5_14 
REMARK    7  A    between atoms: C10_15  and  O6_16 
REMARK    8  A    between atoms: C15_21  and  O7_22 
REMARK    9  A    between atoms: C15_21  and  C16_23 
REMARK   10  A    between atoms: C17_24  and  C18_25 
REMARK   11  A    between atoms: C18_25  and  O8_27 
ROOT
HETATM    1  C1  UNL     1      -5.772   4.928  13.319  1.00  0.00     0.013 C 
HETATM    2  C2  UNL     1      -6.678   6.165  13.254  1.00  0.00     0.023 C 
HETATM    3  C3  UNL     1      -5.861   7.463  13.100  1.00  0.00     0.039 C 
HETATM    4  C4  UNL     1      -5.286   8.014  14.407  1.00  0.00     0.126 C 
HETATM    5  C11 UNL     1      -6.379   8.149  15.477  1.00  0.00     0.044 C 
HETATM    6  C12 UNL     1      -7.231   6.873  15.732  1.00  0.00    -0.010 C 
HETATM    7  C13 UNL     1      -6.423   5.835  16.551  1.00  0.00     0.018 C 
HETATM    8  C14 UNL     1      -8.400   7.283  16.674  1.00  0.00     0.018 C 
HETATM    9  C15 UNL     1      -7.766   6.276  14.369  1.00  0.00     0.086 C 
ENDROOT
BRANCH   4  10
HETATM   10  O1  UNL     1      -4.245   7.202  14.947  1.00  0.00    -0.353 OA
BRANCH  10  11
HETATM   11  C5  UNL     1      -2.915   7.666  14.665  1.00  0.00     0.292 C 
HETATM   12  O2  UNL     1      -2.425   7.066  13.468  1.00  0.00    -0.348 OA
HETATM   13  C6  UNL     1      -0.989   7.030  13.322  1.00  0.00     0.179 C 
HETATM   14  C8  UNL     1      -0.232   7.981  14.263  1.00  0.00     0.180 C 
HETATM   15  C9  UNL     1      -0.639   7.797  15.732  1.00  0.00     0.183 C 
HETATM   16  C10 UNL     1      -2.065   7.259  15.878  1.00  0.00     0.204 C 
BRANCH  13  17
HETATM   17  C7  UNL     1      -0.522   5.574  13.451  1.00  0.00     0.198 C 
BRANCH  17  18
HETATM   18  O3  UNL     1       0.850   5.551  13.854  1.00  0.00    -0.398 OA
HETATM   19  H12 UNL     1       1.306   6.196  13.280  1.00  0.00     0.209 HD
ENDBRANCH  17  18
ENDBRANCH  13  17
BRANCH  14  20
HETATM   20  O4  UNL     1      -0.538   9.336  13.886  1.00  0.00    -0.390 OA
HETATM   21  H14 UNL     1      -0.177   9.481  12.992  1.00  0.00     0.210 HD
ENDBRANCH  14  20
BRANCH  15  22
HETATM   22  O5  UNL     1       0.266   6.892  16.382  1.00  0.00    -0.390 OA
HETATM   23  H16 UNL     1       0.000   6.886  17.323  1.00  0.00     0.210 HD
ENDBRANCH  15  22
BRANCH  16  24
HETATM   24  O6  UNL     1      -2.629   7.726  17.114  1.00  0.00    -0.388 OA
HETATM   25  H18 UNL     1      -3.583   7.511  17.051  1.00  0.00     0.210 HD
ENDBRANCH  16  24
ENDBRANCH  10  11
ENDBRANCH   4  10
BRANCH   9  26
HETATM   26  O7  UNL     1      -8.299   4.968  14.600  1.00  0.00    -0.385 OA
HETATM   27  H27 UNL     1      -9.030   5.059  15.233  1.00  0.00     0.211 HD
ENDBRANCH   9  26
BRANCH   9  28
HETATM   28  C16 UNL     1      -8.898   7.134  13.792  1.00  0.00     0.010 C 
HETATM   29  C17 UNL     1     -10.220   6.889  13.887  1.00  0.00     0.003 C 
BRANCH  29  30
HETATM   30  C18 UNL     1     -11.281   7.770  13.297  1.00  0.00     0.136 C 
HETATM   31  C19 UNL     1     -12.596   7.027  13.110  1.00  0.00     0.043 C 
BRANCH  30  32
HETATM   32  O8  UNL     1     -11.476   8.869  14.180  1.00  0.00    -0.392 OA
HETATM   33  H34 UNL     1     -11.842   8.518  15.009  1.00  0.00     0.210 HD
ENDBRANCH  30  32
ENDBRANCH  29  30
ENDBRANCH   9  28
TORSDOF 11
ENDMDL
MODEL 3
REMARK minimizedAffinity -7.16826153
REMARK CNNscore 0.565661788
REMARK CNNaffinity 5.48836708
REMARK  11 active torsions:
REMARK  status: ('A' for Active; 'I' for Inactive)
REMARK    1  A    between atoms: C4_4  and  O1_5 
REMARK    2  A    between atoms: O1_5  and  C5_6 
REMARK    3  A    between atoms: C6_8  and  C7_9 
REMARK    4  A    between atoms: C7_9  and  O3_10 
REMARK    5  A    between atoms: C8_11  and  O4_12 
REMARK    6  A    between atoms: C9_13  and  O5_14 
REMARK    7  A    between atoms: C10_15  and  O6_16 
REMARK    8  A    between atoms: C15_21  and  O7_22 
REMARK    9  A    between atoms: C15_21  and  C16_23 
REMARK   10  A    between atoms: C17_24  and  C18_25 
REMARK   11  A    between atoms: C18_25  and  O8_27 
ROOT
HETATM    1  C1  UNL     1      -7.623   4.790  15.797  1.00  0.00     0.013 C 
HETATM    2  C2  UNL     1      -7.993   6.128  15.144  1.00  0.00     0.023 C 
HETATM    3  C3  UNL     1      -7.920   6.051  13.606  1.00  0.00     0.039 C 
HETATM    4  C4  UNL     1      -6.512   6.214  13.025  1.00  0.00     0.126 C 
HETATM    5  C11 UNL     1      -5.834   7.480  13.569  1.00  0.00     0.044 C 
HETATM    6  C12 UNL     1      -5.822   7.623  15.118  1.00  0.00    -0.010 C 
HETATM    7  C13 UNL     1      -4.770   6.675  15.743  1.00  0.00     0.018 C 
HETATM    8  C14 UNL     1      -5.295   9.052  15.442  1.00  0.00     0.018 C 
HETATM    9  C15 UNL     1      -7.269   7.391  15.712  1.00  0.00     0.086 C 
ENDROOT
BRANCH   4  10
HETATM   10  O1  UNL     1      -5.659   5.107  13.307  1.00  0.00    -0.353 OA
BRANCH  10  11
HETATM   11  C5  UNL     1      -5.171   4.415  12.147  1.00  0.00     0.292 C 
HETATM   12  O2  UNL     1      -6.210   3.636  11.560  1.00  0.00    -0.348 OA
HETATM   13  C6  UNL     1      -5.782   2.536  10.729  1.00  0.00     0.179 C 
HETATM   14  C8  UNL     1      -4.312   2.611  10.284  1.00  0.00     0.180 C 
HETATM   15  C9  UNL     1      -3.353   2.811  11.466  1.00  0.00     0.183 C 
HETATM   16  C10 UNL     1      -4.023   3.524  12.645  1.00  0.00     0.204 C 
BRANCH  13  17
HETATM   17  C7  UNL     1      -6.116   1.222  11.449  1.00  0.00     0.198 C 
BRANCH  17  18
HETATM   18  O3  UNL     1      -7.271   1.413  12.270  1.00  0.00    -0.398 OA
HETATM   19  H12 UNL     1      -7.119   2.248  12.752  1.00  0.00     0.209 HD
ENDBRANCH  17  18
ENDBRANCH  13  17
BRANCH  14  20
HETATM   20  O4  UNL     1      -4.161   3.734   9.397  1.00  0.00    -0.390 OA
HETATM   21  H14 UNL     1      -4.687   3.549   8.597  1.00  0.00     0.210 HD
ENDBRANCH  14  20
BRANCH  15  22
HETATM   22  O5  UNL     1      -2.856   1.542  11.915  1.00  0.00    -0.390 OA
HETATM   23  H16 UNL     1      -2.195   1.748  12.606  1.00  0.00     0.210 HD
ENDBRANCH  15  22
BRANCH  16  24
HETATM   24  O6  UNL     1      -3.037   4.271  13.375  1.00  0.00    -0.388 OA
HETATM   25  H18 UNL     1      -3.554   4.841  13.981  1.00  0.00     0.210 HD
ENDBRANCH  16  24
ENDBRANCH  10  11
ENDBRANCH   4  10
BRANCH   9  26
HETATM   26  O7  UNL     1      -7.182   7.248  17.134  1.00  0.00    -0.385 OA
HETATM   27  H27 UNL     1      -6.806   8.073  17.485  1.00  0.00     0.211 HD
ENDBRANCH   9  26
BRANCH   9  28
HETATM   28  C16 UNL     1      -8.187   8.585  15.429  1.00  0.00     0.010 C 
HETATM   29  C17 UNL     1      -9.509   8.660  15.681  1.00  0.00     0.003 C 
BRANCH  29  30
HETATM   30  C18 UNL     1     -10.353   9.862  15.379  1.00  0.00     0.136 C 
HETATM   31  C19 UNL     1      -9.536  11.145  15.381  1.00  0.00     0.043 C 
BRANCH  30  32
HETATM   32  O8  UNL     1     -10.940   9.672  14.097  1.00  0.00    -0.392 OA
HETATM   33  H34 UNL     1     -10.221   9.673  13.443  1.00  0.00     0.210 HD
ENDBRANCH  30  32
ENDBRANCH  29  30
ENDBRANCH   9  28
TORSDOF 11
ENDMDL
MODEL 4
REMARK minimizedAffinity -6.31814432
REMARK CNNscore 0.54260242
REMARK CNNaffinity 5.09010363
REMARK  11 active torsions:
REMARK  status: ('A' for Active; 'I' for Inactive)
REMARK    1  A    between atoms: C4_4  and  O1_5 
REMARK    2  A    between atoms: O1_5  and  C5_6 
REMARK    3  A    between atoms: C6_8  and  C7_9 
REMARK    4  A    between atoms: C7_9  and  O3_10 
REMARK    5  A    between atoms: C8_11  and  O4_12 
REMARK    6  A    between atoms: C9_13  and  O5_14 
REMARK    7  A    between atoms: C10_15  and  O6_16 
REMARK    8  A    between atoms: C15_21  and  O7_22 
REMARK    9  A    between atoms: C15_21  and  C16_23 
REMARK   10  A    between atoms: C17_24  and  C18_25 
REMARK   11  A    between atoms: C18_25  and  O8_27 
ROOT
HETATM    1  C1  UNL     1     -10.253  10.566  14.598  1.00  0.00     0.013 C 
HETATM    2  C2  UNL     1     -11.276   9.692  15.334  1.00  0.00     0.023 C 
HETATM    3  C3  UNL     1     -10.597   8.526  16.081  1.00  0.00     0.039 C 
HETATM    4  C4  UNL     1     -10.266   7.314  15.206  1.00  0.00     0.126 C 
HETATM    5  C11 UNL     1     -11.499   6.850  14.417  1.00  0.00     0.044 C 
HETATM    6  C12 UNL     1     -12.227   7.952  13.597  1.00  0.00    -0.010 C 
HETATM    7  C13 UNL     1     -11.423   8.300  12.320  1.00  0.00     0.018 C 
HETATM    8  C14 UNL     1     -13.549   7.328  13.062  1.00  0.00     0.018 C 
HETATM    9  C15 UNL     1     -12.507   9.223  14.495  1.00  0.00     0.086 C 
ENDROOT
BRANCH   4  10
HETATM   10  O1  UNL     1      -9.221   7.569  14.270  1.00  0.00    -0.353 OA
BRANCH  10  11
HETATM   11  C5  UNL     1      -7.921   7.121  14.686  1.00  0.00     0.292 C 
HETATM   12  O2  UNL     1      -6.994   8.204  14.664  1.00  0.00    -0.348 OA
HETATM   13  C6  UNL     1      -5.599   7.838  14.567  1.00  0.00     0.179 C 
HETATM   14  C8  UNL     1      -5.304   6.367  14.901  1.00  0.00     0.180 C 
HETATM   15  C9  UNL     1      -6.183   5.397  14.098  1.00  0.00     0.183 C 
HETATM   16  C10 UNL     1      -7.518   6.025  13.688  1.00  0.00     0.204 C 
BRANCH  13  17
HETATM   17  C7  UNL     1      -5.084   8.245  13.179  1.00  0.00     0.198 C 
BRANCH  17  18
HETATM   18  O3  UNL     1      -3.866   7.548  12.905  1.00  0.00    -0.398 OA
HETATM   19  H12 UNL     1      -3.322   7.638  13.710  1.00  0.00     0.209 HD
ENDBRANCH  17  18
ENDBRANCH  13  17
BRANCH  14  20
HETATM   20  O4  UNL     1      -5.574   6.155  16.299  1.00  0.00    -0.390 OA
HETATM   21  H14 UNL     1      -4.936   6.691  16.806  1.00  0.00     0.210 HD
ENDBRANCH  14  20
BRANCH  15  22
HETATM   22  O5  UNL     1      -5.489   4.971  12.916  1.00  0.00    -0.390 OA
HETATM   23  H16 UNL     1      -6.066   4.300  12.501  1.00  0.00     0.210 HD
ENDBRANCH  15  22
BRANCH  16  24
HETATM   24  O6  UNL     1      -8.517   4.998  13.582  1.00  0.00    -0.388 OA
HETATM   25  H18 UNL     1      -9.366   5.481  13.509  1.00  0.00     0.210 HD
ENDBRANCH  16  24
ENDBRANCH  10  11
ENDBRANCH   4  10
BRANCH   9  26
HETATM   26  O7  UNL     1     -12.914  10.314  13.661  1.00  0.00    -0.385 OA
HETATM   27  H27 UNL     1     -13.728  10.043  13.205  1.00  0.00     0.211 HD
ENDBRANCH   9  26
BRANCH   9  28
HETATM   28  C16 UNL     1     -13.643   8.963  15.491  1.00  0.00     0.010 C 
HETATM   29  C17 UNL     1     -13.580   9.089  16.831  1.00  0.00     0.003 C 
BRANCH  29  30
HETATM   30  C18 UNL     1     -14.730   8.818  17.754  1.00  0.00     0.136 C 
HETATM   31  C19 UNL     1     -16.063   8.824  17.017  1.00  0.00     0.043 C 
BRANCH  30  32
HETATM   32  O8  UNL     1     -14.522   7.543  18.350  1.00  0.00    -0.392 OA
HETATM   33  H34 UNL     1     -14.576   6.877  17.644  1.00  0.00     0.210 HD
ENDBRANCH  30  32
ENDBRANCH  29  30
ENDBRANCH   9  28
TORSDOF 11
ENDMDL
MODEL 5
REMARK minimizedAffinity -5.88118458
REMARK CNNscore 0.491552919
REMARK CNNaffinity 4.5974288
REMARK  11 active torsions:
REMARK  status: ('A' for Active; 'I' for Inactive)
REMARK    1  A    between atoms: C4_4  and  O1_5 
REMARK    2  A    between atoms: O1_5  and  C5_6 
REMARK    3  A    between atoms: C6_8  and  C7_9 
REMARK    4  A    between atoms: C7_9  and  O3_10 
REMARK    5  A    between atoms: C8_11  and  O4_12 
REMARK    6  A    between atoms: C9_13  and  O5_14 
REMARK    7  A    between atoms: C10_15  and  O6_16 
REMARK    8  A    between atoms: C15_21  and  O7_22 
REMARK    9  A    between atoms: C15_21  and  C16_23 
REMARK   10  A    between atoms: C17_24  and  C18_25 
REMARK   11  A    between atoms: C18_25  and  O8_27 
ROOT
HETATM    1  C1  UNL     1      -1.047  11.945  18.386  1.00  0.00     0.013 C 
HETATM    2  C2  UNL     1      -2.568  11.848  18.562  1.00  0.00     0.023 C 
HETATM    3  C3  UNL     1      -3.100  10.452  18.182  1.00  0.00     0.039 C 
HETATM    4  C4  UNL     1      -3.309  10.236  16.680  1.00  0.00     0.126 C 
HETATM    5  C11 UNL     1      -4.165  11.359  16.075  1.00  0.00     0.044 C 
HETATM    6  C12 UNL     1      -3.680  12.806  16.371  1.00  0.00    -0.010 C 
HETATM    7  C13 UNL     1      -2.443  13.153  15.507  1.00  0.00     0.018 C 
HETATM    8  C14 UNL     1      -4.789  13.773  15.864  1.00  0.00     0.018 C 
HETATM    9  C15 UNL     1      -3.406  12.999  17.917  1.00  0.00     0.086 C 
ENDROOT
BRANCH   4  10
HETATM   10  O1  UNL     1      -2.087  10.175  15.948  1.00  0.00    -0.353 OA
BRANCH  10  11
HETATM   11  C5  UNL     1      -1.990   9.072  15.033  1.00  0.00     0.292 C 
HETATM   12  O2  UNL     1      -3.283   8.537  14.762  1.00  0.00    -0.348 OA
HETATM   13  C6  UNL     1      -3.315   7.173  14.288  1.00  0.00     0.179 C 
HETATM   14  C8  UNL     1      -1.965   6.648  13.775  1.00  0.00     0.180 C 
HETATM   15  C9  UNL     1      -0.833   6.849  14.793  1.00  0.00     0.183 C 
HETATM   16  C10 UNL     1      -1.094   8.034  15.726  1.00  0.00     0.204 C 
BRANCH  13  17
HETATM   17  C7  UNL     1      -3.913   6.288  15.391  1.00  0.00     0.198 C 
BRANCH  17  18
HETATM   18  O3  UNL     1      -4.999   6.979  16.014  1.00  0.00    -0.398 OA
HETATM   19  H12 UNL     1      -4.673   7.883  16.189  1.00  0.00     0.209 HD
ENDBRANCH  17  18
ENDBRANCH  13  17
BRANCH  14  20
HETATM   20  O4  UNL     1      -1.619   7.373  12.580  1.00  0.00    -0.390 OA
HETATM   21  H14 UNL     1      -2.282   7.152  11.900  1.00  0.00     0.210 HD
ENDBRANCH  14  20
BRANCH  15  22
HETATM   22  O5  UNL     1      -0.670   5.663  15.584  1.00  0.00    -0.390 OA
HETATM   23  H16 UNL     1       0.112   5.829  16.148  1.00  0.00     0.210 HD
ENDBRANCH  15  22
BRANCH  16  24
HETATM   24  O6  UNL     1       0.159   8.597  16.147  1.00  0.00    -0.388 OA
HETATM   25  H18 UNL     1      -0.078   9.446  16.573  1.00  0.00     0.210 HD
ENDBRANCH  16  24
ENDBRANCH  10  11
ENDBRANCH   4  10
BRANCH   9  26
HETATM   26  O7  UNL     1      -2.703  14.228  18.125  1.00  0.00    -0.385 OA
HETATM   27  H27 UNL     1      -3.269  14.946  17.795  1.00  0.00     0.211 HD
ENDBRANCH   9  26
BRANCH   9  28
HETATM   28  C16 UNL     1      -4.716  13.083  18.709  1.00  0.00     0.010 C 
HETATM   29  C17 UNL     1      -4.840  13.242  20.042  1.00  0.00     0.003 C 
BRANCH  29  30
HETATM   30  C18 UNL     1      -6.154  13.317  20.759  1.00  0.00     0.136 C 
HETATM   31  C19 UNL     1      -5.986  13.196  22.267  1.00  0.00     0.043 C 
BRANCH  30  32
HETATM   32  O8  UNL     1      -6.752  14.570  20.445  1.00  0.00    -0.392 OA
HETATM   33  H34 UNL     1      -6.192  15.266  20.828  1.00  0.00     0.210 HD
ENDBRANCH  30  32
ENDBRANCH  29  30
ENDBRANCH   9  28
TORSDOF 11
ENDMDL
MODEL 6
REMARK minimizedAffinity -7.77574062
REMARK CNNscore 0.484764278
REMARK CNNaffinity 5.41154861
REMARK  11 active torsions:
REMARK  status: ('A' for Active; 'I' for Inactive)
REMARK    1  A    between atoms: C4_4  and  O1_5 
REMARK    2  A    between atoms: O1_5  and  C5_6 
REMARK    3  A    between atoms: C6_8  and  C7_9 
REMARK    4  A    between atoms: C7_9  and  O3_10 
REMARK    5  A    between atoms: C8_11  and  O4_12 
REMARK    6  A    between atoms: C9_13  and  O5_14 
REMARK    7  A    between atoms: C10_15  and  O6_16 
REMARK    8  A    between atoms: C15_21  and  O7_22 
REMARK    9  A    between atoms: C15_21  and  C16_23 
REMARK   10  A    between atoms: C17_24  and  C18_25 
REMARK   11  A    between atoms: C18_25  and  O8_27 
ROOT
HETATM    1  C1  UNL     1      -7.443   4.103  15.055  1.00  0.00     0.013 C 
HETATM    2  C2  UNL     1      -8.062   5.108  14.074  1.00  0.00     0.023 C 
HETATM    3  C3  UNL     1      -7.112   5.419  12.901  1.00  0.00     0.039 C 
HETATM    4  C4  UNL     1      -6.035   6.462  13.211  1.00  0.00     0.126 C 
HETATM    5  C11 UNL     1      -6.655   7.738  13.801  1.00  0.00     0.044 C 
HETATM    6  C12 UNL     1      -7.598   7.525  15.020  1.00  0.00    -0.010 C 
HETATM    7  C13 UNL     1      -6.776   7.219  16.296  1.00  0.00     0.018 C 
HETATM    8  C14 UNL     1      -8.279   8.893  15.317  1.00  0.00     0.018 C 
HETATM    9  C15 UNL     1      -8.666   6.401  14.710  1.00  0.00     0.086 C 
ENDROOT
BRANCH   4  10
HETATM   10  O1  UNL     1      -5.049   5.993  14.128  1.00  0.00    -0.353 OA
BRANCH  10  11
HETATM   11  C5  UNL     1      -3.723   6.490  13.890  1.00  0.00     0.292 C 
HETATM   12  O2  UNL     1      -3.255   6.062  12.613  1.00  0.00    -0.348 OA
HETATM   13  C6  UNL     1      -1.821   6.046  12.439  1.00  0.00     0.179 C 
HETATM   14  C8  UNL     1      -1.045   6.856  13.490  1.00  0.00     0.180 C 
HETATM   15  C9  UNL     1      -1.428   6.470  14.926  1.00  0.00     0.183 C 
HETATM   16  C10 UNL     1      -2.853   5.917  15.020  1.00  0.00     0.204 C 
BRANCH  13  17
HETATM   17  C7  UNL     1      -1.357   4.586  12.356  1.00  0.00     0.198 C 
BRANCH  17  18
HETATM   18  O3  UNL     1      -0.672   4.377  11.118  1.00  0.00    -0.398 OA
HETATM   19  H12 UNL     1      -1.233   4.786  10.432  1.00  0.00     0.209 HD
ENDBRANCH  17  18
ENDBRANCH  13  17
BRANCH  14  20
HETATM   20  O4  UNL     1      -1.354   8.251  13.310  1.00  0.00    -0.390 OA
HETATM   21  H14 UNL     1      -1.008   8.518  12.439  1.00  0.00     0.210 HD
ENDBRANCH  14  20
BRANCH  15  22
HETATM   22  O5  UNL     1      -0.515   5.482  15.428  1.00  0.00    -0.390 OA
HETATM   23  H16 UNL     1      -0.765   5.346  16.363  1.00  0.00     0.210 HD
ENDBRANCH  15  22
BRANCH  16  24
HETATM   24  O6  UNL     1      -3.395   6.208  16.318  1.00  0.00    -0.388 OA
HETATM   25  H18 UNL     1      -4.350   6.005  16.242  1.00  0.00     0.210 HD
ENDBRANCH  16  24
ENDBRANCH  10  11
ENDBRANCH   4  10
BRANCH   9  26
HETATM   26  O7  UNL     1      -9.330   6.029  15.923  1.00  0.00    -0.385 OA
HETATM   27  H27 UNL     1      -9.772   6.823  16.267  1.00  0.00     0.211 HD
ENDBRANCH   9  26
BRANCH   9  28
HETATM   28  C16 UNL     1      -9.740   6.904  13.739  1.00  0.00     0.010 C 
HETATM   29  C17 UNL     1     -11.075   6.854  13.920  1.00  0.00     0.003 C 
BRANCH  29  30
HETATM   30  C18 UNL     1     -12.076   7.365  12.928  1.00  0.00     0.136 C 
HETATM   31  C19 UNL     1     -13.501   7.003  13.322  1.00  0.00     0.043 C 
BRANCH  30  32
HETATM   32  O8  UNL     1     -11.945   8.781  12.866  1.00  0.00    -0.392 OA
HETATM   33  H34 UNL     1     -12.210   9.138  13.729  1.00  0.00     0.210 HD
ENDBRANCH  30  32
ENDBRANCH  29  30
ENDBRANCH   9  28
TORSDOF 11
ENDMDL
MODEL 7
REMARK minimizedAffinity -6.6433301
REMARK CNNscore 0.479169518
REMARK CNNaffinity 4.71595907
REMARK  11 active torsions:
REMARK  status: ('A' for Active; 'I' for Inactive)
REMARK    1  A    between atoms: C4_4  and  O1_5 
REMARK    2  A    between atoms: O1_5  and  C5_6 
REMARK    3  A    between atoms: C6_8  and  C7_9 
REMARK    4  A    between atoms: C7_9  and  O3_10 
REMARK    5  A    between atoms: C8_11  and  O4_12 
REMARK    6  A    between atoms: C9_13  and  O5_14 
REMARK    7  A    between atoms: C10_15  and  O6_16 
REMARK    8  A    between atoms: C15_21  and  O7_22 
REMARK    9  A    between atoms: C15_21  and  C16_23 
REMARK   10  A    between atoms: C17_24  and  C18_25 
REMARK   11  A    between atoms: C18_25  and  O8_27 
ROOT
HETATM    1  C1  UNL     1      -5.731 -13.250   5.358  1.00  0.00     0.013 C 
HETATM    2  C2  UNL     1      -4.275 -12.800   5.182  1.00  0.00     0.023 C 
HETATM    3  C3  UNL     1      -3.680 -12.263   6.498  1.00  0.00     0.039 C 
HETATM    4  C4  UNL     1      -4.039 -10.808   6.814  1.00  0.00     0.126 C 
HETATM    5  C11 UNL     1      -3.719  -9.891   5.624  1.00  0.00     0.044 C 
HETATM    6  C12 UNL     1      -4.315 -10.332   4.257  1.00  0.00    -0.010 C 
HETATM    7  C13 UNL     1      -5.834 -10.032   4.204  1.00  0.00     0.018 C 
HETATM    8  C14 UNL     1      -3.700  -9.404   3.169  1.00  0.00     0.018 C 
HETATM    9  C15 UNL     1      -3.993 -11.853   3.972  1.00  0.00     0.086 C 
ENDROOT
BRANCH   4  10
HETATM   10  O1  UNL     1      -5.414 -10.630   7.145  1.00  0.00    -0.353 OA
BRANCH  10  11
HETATM   11  C5  UNL     1      -5.649 -10.000   8.415  1.00  0.00     0.292 C 
HETATM   12  O2  UNL     1      -6.168 -10.944   9.348  1.00  0.00    -0.348 OA
HETATM   13  C6  UNL     1      -6.902 -10.391  10.463  1.00  0.00     0.179 C 
HETATM   14  C8  UNL     1      -6.674  -8.888  10.690  1.00  0.00     0.180 C 
HETATM   15  C9  UNL     1      -6.906  -8.062   9.416  1.00  0.00     0.183 C 
HETATM   16  C10 UNL     1      -6.659  -8.875   8.142  1.00  0.00     0.204 C 
BRANCH  13  17
HETATM   17  C7  UNL     1      -8.386 -10.746  10.293  1.00  0.00     0.198 C 
BRANCH  17  18
HETATM   18  O3  UNL     1      -8.564 -11.461   9.068  1.00  0.00    -0.398 OA
HETATM   19  H12 UNL     1      -8.067 -10.960   8.394  1.00  0.00     0.209 HD
ENDBRANCH  17  18
ENDBRANCH  13  17
BRANCH  14  20
HETATM   20  O4  UNL     1      -5.309  -8.691  11.101  1.00  0.00    -0.390 OA
HETATM   21  H14 UNL     1      -5.197  -9.125  11.967  1.00  0.00     0.210 HD
ENDBRANCH  14  20
BRANCH  15  22
HETATM   22  O5  UNL     1      -8.252  -7.565   9.394  1.00  0.00    -0.390 OA
HETATM   23  H16 UNL     1      -8.305  -6.986   8.607  1.00  0.00     0.210 HD
ENDBRANCH  15  22
BRANCH  16  24
HETATM   24  O6  UNL     1      -6.220  -7.998   7.092  1.00  0.00    -0.388 OA
HETATM   25  H18 UNL     1      -5.903  -8.595   6.384  1.00  0.00     0.210 HD
ENDBRANCH  16  24
ENDBRANCH  10  11
ENDBRANCH   4  10
BRANCH   9  26
HETATM   26  O7  UNL     1      -4.778 -12.305   2.863  1.00  0.00    -0.385 OA
HETATM   27  H27 UNL     1      -4.535 -11.764   2.095  1.00  0.00     0.211 HD
ENDBRANCH   9  26
BRANCH   9  28
HETATM   28  C16 UNL     1      -2.520 -12.050   3.597  1.00  0.00     0.010 C 
HETATM   29  C17 UNL     1      -2.029 -12.286   2.364  1.00  0.00     0.003 C 
BRANCH  29  30
HETATM   30  C18 UNL     1      -0.572 -12.471   2.062  1.00  0.00     0.136 C 
HETATM   31  C19 UNL     1      -0.353 -13.201   0.744  1.00  0.00     0.043 C 
BRANCH  30  32
HETATM   32  O8  UNL     1       0.028 -11.182   1.997  1.00  0.00    -0.392 OA
HETATM   33  H34 UNL     1      -0.353 -10.720   1.232  1.00  0.00     0.210 HD
ENDBRANCH  30  32
ENDBRANCH  29  30
ENDBRANCH   9  28
TORSDOF 11
ENDMDL
MODEL 8
REMARK minimizedAffinity -7.83308077
REMARK CNNscore 0.465563357
REMARK CNNaffinity 5.08448505
REMARK  11 active torsions:
REMARK  status: ('A' for Active; 'I' for Inactive)
REMARK    1  A    between atoms: C4_4  and  O1_5 
REMARK    2  A    between atoms: O1_5  and  C5_6 
REMARK    3  A    between atoms: C6_8  and  C7_9 
REMARK    4  A    between atoms: C7_9  and  O3_10 
REMARK    5  A    between atoms: C8_11  and  O4_12 
REMARK    6  A    between atoms: C9_13  and  O5_14 
REMARK    7  A    between atoms: C10_15  and  O6_16 
REMARK    8  A    between atoms: C15_21  and  O7_22 
REMARK    9  A    between atoms: C15_21  and  C16_23 
REMARK   10  A    between atoms: C17_24  and  C18_25 
REMARK   11  A    between atoms: C18_25  and  O8_27 
ROOT
HETATM    1  C1  UNL     1      -3.033   5.286  15.280  1.00  0.00     0.013 C 
HETATM    2  C2  UNL     1      -4.153   5.580  14.273  1.00  0.00     0.023 C 
HETATM    3  C3  UNL     1      -3.594   6.081  12.927  1.00  0.00     0.039 C 
HETATM    4  C4  UNL     1      -3.243   7.571  12.896  1.00  0.00     0.126 C 
HETATM    5  C11 UNL     1      -4.424   8.426  13.379  1.00  0.00     0.044 C 
HETATM    6  C12 UNL     1      -5.029   8.020  14.754  1.00  0.00    -0.010 C 
HETATM    7  C13 UNL     1      -4.104   8.473  15.910  1.00  0.00     0.018 C 
HETATM    8  C14 UNL     1      -6.327   8.857  14.948  1.00  0.00     0.018 C 
HETATM    9  C15 UNL     1      -5.328   6.468  14.796  1.00  0.00     0.086 C 
ENDROOT
BRANCH   4  10
HETATM   10  O1  UNL     1      -2.111   7.896  13.700  1.00  0.00    -0.353 OA
BRANCH  10  11
HETATM   11  C5  UNL     1      -0.846   7.515  13.137  1.00  0.00     0.292 C 
HETATM   12  O2  UNL     1      -0.115   6.713  14.060  1.00  0.00    -0.348 OA
HETATM   13  C6  UNL     1       1.316   6.671  13.865  1.00  0.00     0.179 C 
HETATM   14  C8  UNL     1       1.783   7.161  12.485  1.00  0.00     0.180 C 
HETATM   15  C9  UNL     1       1.221   8.546  12.134  1.00  0.00     0.183 C 
HETATM   16  C10 UNL     1      -0.109   8.830  12.839  1.00  0.00     0.204 C 
BRANCH  13  17
HETATM   17  C7  UNL     1       1.987   7.429  15.020  1.00  0.00     0.198 C 
BRANCH  17  18
HETATM   18  O3  UNL     1       2.898   6.555  15.692  1.00  0.00    -0.398 OA
HETATM   19  H12 UNL     1       2.412   5.720  15.829  1.00  0.00     0.209 HD
ENDBRANCH  17  18
ENDBRANCH  13  17
BRANCH  14  20
HETATM   20  O4  UNL     1       1.318   6.230  11.490  1.00  0.00    -0.390 OA
HETATM   21  H14 UNL     1       1.765   5.379  11.652  1.00  0.00     0.210 HD
ENDBRANCH  14  20
BRANCH  15  22
HETATM   22  O5  UNL     1       2.165   9.564  12.498  1.00  0.00    -0.390 OA
HETATM   23  H16 UNL     1       1.782  10.404  12.175  1.00  0.00     0.210 HD
ENDBRANCH  15  22
BRANCH  16  24
HETATM   24  O6  UNL     1      -0.897   9.720  12.033  1.00  0.00    -0.388 OA
HETATM   25  H18 UNL     1      -1.788   9.704  12.440  1.00  0.00     0.210 HD
ENDBRANCH  16  24
ENDBRANCH  10  11
ENDBRANCH   4  10
BRANCH   9  26
HETATM   26  O7  UNL     1      -5.613   6.075  16.143  1.00  0.00    -0.385 OA
HETATM   27  H27 UNL     1      -6.396   6.573  16.431  1.00  0.00     0.211 HD
ENDBRANCH   9  26
BRANCH   9  28
HETATM   28  C16 UNL     1      -6.555   6.112  13.949  1.00  0.00     0.010 C 
HETATM   29  C17 UNL     1      -7.382   5.064  14.132  1.00  0.00     0.003 C 
BRANCH  29  30
HETATM   30  C18 UNL     1      -8.569   4.771  13.264  1.00  0.00     0.136 C 
HETATM   31  C19 UNL     1      -8.472   5.467  11.914  1.00  0.00     0.043 C 
BRANCH  30  32
HETATM   32  O8  UNL     1      -8.631   3.362  13.070  1.00  0.00    -0.392 OA
HETATM   33  H34 UNL     1      -7.847   3.103  12.558  1.00  0.00     0.210 HD
ENDBRANCH  30  32
ENDBRANCH  29  30
ENDBRANCH   9  28
TORSDOF 11
ENDMDL
MODEL 9
REMARK minimizedAffinity -7.77328491
REMARK CNNscore 0.400296479
REMARK CNNaffinity 5.03015518
REMARK  11 active torsions:
REMARK  status: ('A' for Active; 'I' for Inactive)
REMARK    1  A    between atoms: C4_4  and  O1_5 
REMARK    2  A    between atoms: O1_5  and  C5_6 
REMARK    3  A    between atoms: C6_8  and  C7_9 
REMARK    4  A    between atoms: C7_9  and  O3_10 
REMARK    5  A    between atoms: C8_11  and  O4_12 
REMARK    6  A    between atoms: C9_13  and  O5_14 
REMARK    7  A    between atoms: C10_15  and  O6_16 
REMARK    8  A    between atoms: C15_21  and  O7_22 
REMARK    9  A    between atoms: C15_21  and  C16_23 
REMARK   10  A    between atoms: C17_24  and  C18_25 
REMARK   11  A    between atoms: C18_25  and  O8_27 
ROOT
HETATM    1  C1  UNL     1      -3.017   5.775  15.614  1.00  0.00     0.013 C 
HETATM    2  C2  UNL     1      -4.092   5.724  14.520  1.00  0.00     0.023 C 
HETATM    3  C3  UNL     1      -3.541   6.187  13.157  1.00  0.00     0.039 C 
HETATM    4  C4  UNL     1      -3.494   7.706  12.970  1.00  0.00     0.126 C 
HETATM    5  C11 UNL     1      -4.856   8.343  13.284  1.00  0.00     0.044 C 
HETATM    6  C12 UNL     1      -5.472   7.966  14.662  1.00  0.00    -0.010 C 
HETATM    7  C13 UNL     1      -4.747   8.719  15.805  1.00  0.00     0.018 C 
HETATM    8  C14 UNL     1      -6.922   8.532  14.685  1.00  0.00     0.018 C 
HETATM    9  C15 UNL     1      -5.457   6.399  14.870  1.00  0.00     0.086 C 
ENDROOT
BRANCH   4  10
HETATM   10  O1  UNL     1      -2.515   8.340  13.790  1.00  0.00    -0.353 OA
BRANCH  10  11
HETATM   11  C5  UNL     1      -1.186   8.342  13.246  1.00  0.00     0.292 C 
HETATM   12  O2  UNL     1      -1.182   7.760  11.945  1.00  0.00    -0.348 OA
HETATM   13  C6  UNL     1       0.087   7.245  11.488  1.00  0.00     0.179 C 
HETATM   14  C8  UNL     1       1.301   7.750  12.284  1.00  0.00     0.180 C 
HETATM   15  C9  UNL     1       1.137   7.542  13.797  1.00  0.00     0.183 C 
HETATM   16  C10 UNL     1      -0.333   7.521  14.225  1.00  0.00     0.204 C 
BRANCH  13  17
HETATM   17  C7  UNL     1       0.004   5.712  11.446  1.00  0.00     0.198 C 
BRANCH  17  18
HETATM   18  O3  UNL     1       1.325   5.170  11.371  1.00  0.00    -0.398 OA
HETATM   19  H12 UNL     1       1.786   5.686  10.683  1.00  0.00     0.209 HD
ENDBRANCH  17  18
ENDBRANCH  13  17
BRANCH  14  20
HETATM   20  O4  UNL     1       1.446   9.162  12.045  1.00  0.00    -0.390 OA
HETATM   21  H14 UNL     1       1.662   9.280  11.101  1.00  0.00     0.210 HD
ENDBRANCH  14  20
BRANCH  15  22
HETATM   22  O5  UNL     1       1.752   6.307  14.191  1.00  0.00    -0.390 OA
HETATM   23  H16 UNL     1       1.683   6.280  15.166  1.00  0.00     0.210 HD
ENDBRANCH  15  22
BRANCH  16  24
HETATM   24  O6  UNL     1      -0.446   8.001  15.574  1.00  0.00    -0.388 OA
HETATM   25  H18 UNL     1      -1.406   8.141  15.710  1.00  0.00     0.210 HD
ENDBRANCH  16  24
ENDBRANCH  10  11
ENDBRANCH   4  10
BRANCH   9  26
HETATM   26  O7  UNL     1      -5.761   6.098  16.236  1.00  0.00    -0.385 OA
HETATM   27  H27 UNL     1      -6.648   6.450  16.421  1.00  0.00     0.211 HD
ENDBRANCH   9  26
BRANCH   9  28
HETATM   28  C16 UNL     1      -6.519   5.711  14.005  1.00  0.00     0.010 C 
HETATM   29  C17 UNL     1      -6.525   4.421  13.614  1.00  0.00     0.003 C 
BRANCH  29  30
HETATM   30  C18 UNL     1      -7.598   3.807  12.765  1.00  0.00     0.136 C 
HETATM   31  C19 UNL     1      -7.444   2.296  12.661  1.00  0.00     0.043 C 
BRANCH  30  32
HETATM   32  O8  UNL     1      -8.854   4.119  13.355  1.00  0.00    -0.392 OA
HETATM   33  H34 UNL     1      -8.895   3.667  14.214  1.00  0.00     0.210 HD
ENDBRANCH  30  32
ENDBRANCH  29  30
ENDBRANCH   9  28
TORSDOF 11
ENDMDL
