MODEL 1
REMARK minimizedAffinity -9.08882236
REMARK  8 active torsions:
REMARK  status: ('A' for Active; 'I' for Inactive)
REMARK    1  A    between atoms: C2_2  and  C3_3 
REMARK    2  A    between atoms: C3_3  and  C5_5 
REMARK    3  A    between atoms: C6_6  and  C7_7 
REMARK    4  A    between atoms: C7_7  and  O1_9 
REMARK    5  A    between atoms: C7_7  and  C9_10 
REMARK    6  A    between atoms: C10_11  and  O2_12 
REMARK    7  A    between atoms: C26_29  and  C27_30 
REMARK    8  A    between atoms: C27_30  and  O4_31 
ROOT
HETATM    1  C9  UNL     1      -0.025  51.198 -20.221  1.00  0.00     0.063 C 
HETATM    2  C10 UNL     1       0.192  51.604 -21.696  1.00  0.00     0.126 C 
HETATM    3  C11 UNL     1      -1.099  52.289 -22.126  1.00  0.00     0.038 C 
HETATM    4  C12 UNL     1      -2.218  51.685 -21.258  1.00  0.00     0.003 C 
HETATM    5  C13 UNL     1      -3.392  51.068 -22.035  1.00  0.00    -0.004 C 
HETATM    6  C14 UNL     1      -4.203  52.119 -22.826  1.00  0.00     0.010 C 
HETATM    7  C15 UNL     1      -5.037  51.509 -23.964  1.00  0.00     0.035 C 
HETATM    8  C16 UNL     1      -5.423  50.087 -23.649  1.00  0.00    -0.068 C 
HETATM    9  C17 UNL     1      -6.713  49.749 -23.479  1.00  0.00     0.053 C 
HETATM   10  C18 UNL     1      -7.109  48.379 -23.078  1.00  0.00     0.149 C 
HETATM   11  O3  UNL     1      -8.303  48.086 -23.046  1.00  0.00    -0.293 OA
HETATM   12  C19 UNL     1      -6.031  47.374 -22.758  1.00  0.00     0.084 C 
HETATM   13  C20 UNL     1      -4.704  48.043 -22.403  1.00  0.00     0.022 C 
HETATM   14  C21 UNL     1      -4.258  49.107 -23.441  1.00  0.00    -0.016 C 
HETATM   15  C22 UNL     1      -3.938  48.425 -24.789  1.00  0.00     0.020 C 
HETATM   16  C23 UNL     1      -2.980  49.908 -22.967  1.00  0.00     0.002 C 
HETATM   17  C24 UNL     1      -1.828  49.055 -22.409  1.00  0.00     0.007 C 
HETATM   18  C25 UNL     1      -1.589  49.202 -20.905  1.00  0.00     0.013 C 
HETATM   19  C26 UNL     1      -1.527  50.657 -20.306  1.00  0.00    -0.006 C 
ENDROOT
BRANCH   1  20
HETATM   20  C7  UNL     1       0.302  52.325 -19.160  1.00  0.00     0.079 C 
HETATM   21  C8  UNL     1       1.502  53.230 -19.504  1.00  0.00     0.051 C 
BRANCH  20  22
HETATM   22  C6  UNL     1       0.562  51.741 -17.776  1.00  0.00     0.007 C 
HETATM   23  C5  UNL     1       1.402  52.254 -16.857  1.00  0.00    -0.024 C 
BRANCH  23  24
HETATM   24  C3  UNL     1       1.682  51.726 -15.462  1.00  0.00     0.003 C 
HETATM   25  C4  UNL     1       1.172  50.301 -15.210  1.00  0.00     0.014 C 
BRANCH  24  26
HETATM   26  C2  UNL     1       3.182  51.798 -15.110  1.00  0.00     0.003 C 
HETATM   27  C1  UNL     1       4.030  52.524 -16.147  1.00  0.00     0.006 C 
ENDBRANCH  24  26
ENDBRANCH  23  24
ENDBRANCH  20  22
BRANCH  20  28
HETATM   28  O1  UNL     1      -0.829  53.190 -19.019  1.00  0.00    -0.386 OA
HETATM   29  H15 UNL     1      -0.550  53.947 -18.474  1.00  0.00     0.211 HD
ENDBRANCH  20  28
ENDBRANCH   1  20
BRANCH   2  30
HETATM   30  O2  UNL     1       1.329  52.386 -21.987  1.00  0.00    -0.395 OA
HETATM   31  H18 UNL     1       1.276  52.651 -22.922  1.00  0.00     0.210 HD
ENDBRANCH   2  30
BRANCH  19  32
HETATM   32  C27 UNL     1      -2.293  50.596 -18.958  1.00  0.00     0.174 C 
BRANCH  32  33
HETATM   33  O4  UNL     1      -3.099  51.748 -18.744  1.00  0.00    -0.400 OA
HETATM   34  H42 UNL     1      -3.697  51.840 -19.503  1.00  0.00     0.209 HD
ENDBRANCH  32  33
ENDBRANCH  19  32
TORSDOF 8
ENDMDL
MODEL 2
REMARK minimizedAffinity -8.89037323
REMARK  8 active torsions:
REMARK  status: ('A' for Active; 'I' for Inactive)
REMARK    1  A    between atoms: C2_2  and  C3_3 
REMARK    2  A    between atoms: C3_3  and  C5_5 
REMARK    3  A    between atoms: C6_6  and  C7_7 
REMARK    4  A    between atoms: C7_7  and  O1_9 
REMARK    5  A    between atoms: C7_7  and  C9_10 
REMARK    6  A    between atoms: C10_11  and  O2_12 
REMARK    7  A    between atoms: C26_29  and  C27_30 
REMARK    8  A    between atoms: C27_30  and  O4_31 
ROOT
HETATM    1  C9  UNL     1      -4.358  48.829 -22.417  1.00  0.00     0.063 C 
HETATM    2  C10 UNL     1      -2.970  48.155 -22.329  1.00  0.00     0.126 C 
HETATM    3  C11 UNL     1      -1.996  49.270 -21.974  1.00  0.00     0.038 C 
HETATM    4  C12 UNL     1      -2.603  50.569 -22.534  1.00  0.00     0.003 C 
HETATM    5  C13 UNL     1      -1.696  51.360 -23.492  1.00  0.00    -0.004 C 
HETATM    6  C14 UNL     1      -0.442  51.929 -22.791  1.00  0.00     0.010 C 
HETATM    7  C15 UNL     1       0.691  52.280 -23.769  1.00  0.00     0.035 C 
HETATM    8  C16 UNL     1       0.141  52.643 -25.125  1.00  0.00    -0.068 C 
HETATM    9  C17 UNL     1       0.295  53.885 -25.616  1.00  0.00     0.053 C 
HETATM   10  C18 UNL     1      -0.315  54.291 -26.903  1.00  0.00     0.149 C 
HETATM   11  O3  UNL     1      -0.054  55.399 -27.367  1.00  0.00    -0.293 OA
HETATM   12  C19 UNL     1      -1.211  53.314 -27.624  1.00  0.00     0.084 C 
HETATM   13  C20 UNL     1      -1.765  52.240 -26.690  1.00  0.00     0.022 C 
HETATM   14  C21 UNL     1      -0.671  51.549 -25.833  1.00  0.00    -0.016 C 
HETATM   15  C22 UNL     1       0.277  50.740 -26.746  1.00  0.00     0.020 C 
HETATM   16  C23 UNL     1      -1.284  50.571 -24.753  1.00  0.00     0.002 C 
HETATM   17  C24 UNL     1      -2.379  49.617 -25.262  1.00  0.00     0.007 C 
HETATM   18  C25 UNL     1      -3.785  49.915 -24.739  1.00  0.00     0.013 C 
HETATM   19  C26 UNL     1      -3.961  50.168 -23.194  1.00  0.00    -0.006 C 
ENDROOT
BRANCH   1  20
HETATM   20  C7  UNL     1      -5.125  48.968 -21.040  1.00  0.00     0.079 C 
HETATM   21  C8  UNL     1      -6.644  49.207 -21.151  1.00  0.00     0.051 C 
BRANCH  20  22
HETATM   22  C6  UNL     1      -4.555  50.093 -20.185  1.00  0.00     0.007 C 
HETATM   23  C5  UNL     1      -3.719  49.935 -19.141  1.00  0.00    -0.024 C 
BRANCH  23  24
HETATM   24  C3  UNL     1      -3.108  51.019 -18.272  1.00  0.00     0.003 C 
HETATM   25  C4  UNL     1      -2.762  50.568 -16.847  1.00  0.00     0.014 C 
BRANCH  24  26
HETATM   26  C2  UNL     1      -1.857  51.642 -18.926  1.00  0.00     0.003 C 
HETATM   27  C1  UNL     1      -0.613  50.765 -18.850  1.00  0.00     0.006 C 
ENDBRANCH  24  26
ENDBRANCH  23  24
ENDBRANCH  20  22
BRANCH  20  28
HETATM   28  O1  UNL     1      -4.960  47.768 -20.279  1.00  0.00    -0.386 OA
HETATM   29  H15 UNL     1      -5.555  47.827 -19.510  1.00  0.00     0.211 HD
ENDBRANCH  20  28
ENDBRANCH   1  20
BRANCH   2  30
HETATM   30  O2  UNL     1      -2.848  47.048 -21.464  1.00  0.00    -0.395 OA
HETATM   31  H18 UNL     1      -1.908  46.800 -21.431  1.00  0.00     0.210 HD
ENDBRANCH   2  30
BRANCH  19  32
HETATM   32  C27 UNL     1      -4.970  51.340 -23.068  1.00  0.00     0.174 C 
BRANCH  32  33
HETATM   33  O4  UNL     1      -5.614  51.632 -24.303  1.00  0.00    -0.400 OA
HETATM   34  H42 UNL     1      -6.035  50.816 -24.620  1.00  0.00     0.209 HD
ENDBRANCH  32  33
ENDBRANCH  19  32
TORSDOF 8
ENDMDL
MODEL 3
REMARK minimizedAffinity -8.7299099
REMARK  8 active torsions:
REMARK  status: ('A' for Active; 'I' for Inactive)
REMARK    1  A    between atoms: C2_2  and  C3_3 
REMARK    2  A    between atoms: C3_3  and  C5_5 
REMARK    3  A    between atoms: C6_6  and  C7_7 
REMARK    4  A    between atoms: C7_7  and  O1_9 
REMARK    5  A    between atoms: C7_7  and  C9_10 
REMARK    6  A    between atoms: C10_11  and  O2_12 
REMARK    7  A    between atoms: C26_29  and  C27_30 
REMARK    8  A    between atoms: C27_30  and  O4_31 
ROOT
HETATM    1  C9  UNL     1      -4.415  48.856 -22.380  1.00  0.00     0.063 C 
HETATM    2  C10 UNL     1      -3.021  48.202 -22.239  1.00  0.00     0.126 C 
HETATM    3  C11 UNL     1      -2.072  49.337 -21.876  1.00  0.00     0.038 C 
HETATM    4  C12 UNL     1      -2.680  50.617 -22.477  1.00  0.00     0.003 C 
HETATM    5  C13 UNL     1      -1.755  51.402 -23.422  1.00  0.00    -0.004 C 
HETATM    6  C14 UNL     1      -0.529  52.001 -22.696  1.00  0.00     0.010 C 
HETATM    7  C15 UNL     1       0.627  52.350 -23.646  1.00  0.00     0.035 C 
HETATM    8  C16 UNL     1       0.113  52.681 -25.024  1.00  0.00    -0.068 C 
HETATM    9  C17 UNL     1       0.265  53.916 -25.533  1.00  0.00     0.053 C 
HETATM   10  C18 UNL     1      -0.313  54.290 -26.845  1.00  0.00     0.149 C 
HETATM   11  O3  UNL     1      -0.052  55.393 -27.322  1.00  0.00    -0.293 OA
HETATM   12  C19 UNL     1      -1.173  53.288 -27.574  1.00  0.00     0.084 C 
HETATM   13  C20 UNL     1      -1.741  52.224 -26.637  1.00  0.00     0.022 C 
HETATM   14  C21 UNL     1      -0.664  51.563 -25.736  1.00  0.00    -0.016 C 
HETATM   15  C22 UNL     1       0.321  50.751 -26.605  1.00  0.00     0.020 C 
HETATM   16  C23 UNL     1      -1.296  50.597 -24.656  1.00  0.00     0.002 C 
HETATM   17  C24 UNL     1      -2.362  49.619 -25.179  1.00  0.00     0.007 C 
HETATM   18  C25 UNL     1      -3.787  49.908 -24.704  1.00  0.00     0.013 C 
HETATM   19  C26 UNL     1      -4.012  50.186 -23.170  1.00  0.00    -0.006 C 
ENDROOT
BRANCH   1  20
HETATM   20  C7  UNL     1      -5.224  49.009 -21.029  1.00  0.00     0.079 C 
HETATM   21  C8  UNL     1      -4.782  48.075 -19.884  1.00  0.00     0.051 C 
BRANCH  20  22
HETATM   22  C6  UNL     1      -6.718  48.788 -21.236  1.00  0.00     0.007 C 
HETATM   23  C5  UNL     1      -7.569  48.288 -20.320  1.00  0.00    -0.024 C 
BRANCH  23  24
HETATM   24  C3  UNL     1      -9.063  48.068 -20.467  1.00  0.00     0.003 C 
HETATM   25  C4  UNL     1      -9.453  46.660 -20.933  1.00  0.00     0.014 C 
BRANCH  24  26
HETATM   26  C2  UNL     1      -9.824  48.403 -19.167  1.00  0.00     0.003 C 
HETATM   27  C1  UNL     1      -8.979  49.115 -18.118  1.00  0.00     0.006 C 
ENDBRANCH  24  26
ENDBRANCH  23  24
ENDBRANCH  20  22
BRANCH  20  28
HETATM   28  O1  UNL     1      -5.084  50.345 -20.537  1.00  0.00    -0.386 OA
HETATM   29  H15 UNL     1      -5.469  50.367 -19.643  1.00  0.00     0.211 HD
ENDBRANCH  20  28
ENDBRANCH   1  20
BRANCH   2  30
HETATM   30  O2  UNL     1      -2.910  47.113 -21.351  1.00  0.00    -0.395 OA
HETATM   31  H18 UNL     1      -1.968  46.878 -21.285  1.00  0.00     0.210 HD
ENDBRANCH   2  30
BRANCH  19  32
HETATM   32  C27 UNL     1      -5.040  51.346 -23.094  1.00  0.00     0.174 C 
BRANCH  32  33
HETATM   33  O4  UNL     1      -5.643  51.613 -24.355  1.00  0.00    -0.400 OA
HETATM   34  H42 UNL     1      -6.042  50.788 -24.676  1.00  0.00     0.209 HD
ENDBRANCH  32  33
ENDBRANCH  19  32
TORSDOF 8
ENDMDL
MODEL 4
REMARK minimizedAffinity -8.70701408
REMARK  8 active torsions:
REMARK  status: ('A' for Active; 'I' for Inactive)
REMARK    1  A    between atoms: C2_2  and  C3_3 
REMARK    2  A    between atoms: C3_3  and  C5_5 
REMARK    3  A    between atoms: C6_6  and  C7_7 
REMARK    4  A    between atoms: C7_7  and  O1_9 
REMARK    5  A    between atoms: C7_7  and  C9_10 
REMARK    6  A    between atoms: C10_11  and  O2_12 
REMARK    7  A    between atoms: C26_29  and  C27_30 
REMARK    8  A    between atoms: C27_30  and  O4_31 
ROOT
HETATM    1  C9  UNL     1      -1.193  52.359 -21.895  1.00  0.00     0.063 C 
HETATM    2  C10 UNL     1      -1.315  51.647 -20.529  1.00  0.00     0.126 C 
HETATM    3  C11 UNL     1      -1.481  50.168 -20.853  1.00  0.00     0.038 C 
HETATM    4  C12 UNL     1      -2.142  50.101 -22.241  1.00  0.00     0.003 C 
HETATM    5  C13 UNL     1      -3.452  49.299 -22.307  1.00  0.00    -0.004 C 
HETATM    6  C14 UNL     1      -3.243  47.791 -22.036  1.00  0.00     0.010 C 
HETATM    7  C15 UNL     1      -4.531  47.068 -21.614  1.00  0.00     0.035 C 
HETATM    8  C16 UNL     1      -5.747  47.744 -22.195  1.00  0.00    -0.068 C 
HETATM    9  C17 UNL     1      -6.526  47.107 -23.085  1.00  0.00     0.053 C 
HETATM   10  C18 UNL     1      -7.671  47.784 -23.738  1.00  0.00     0.149 C 
HETATM   11  O3  UNL     1      -8.422  47.129 -24.458  1.00  0.00    -0.293 OA
HETATM   12  C19 UNL     1      -7.900  49.250 -23.468  1.00  0.00     0.084 C 
HETATM   13  C20 UNL     1      -6.639  49.949 -22.964  1.00  0.00     0.022 C 
HETATM   14  C21 UNL     1      -5.959  49.209 -21.781  1.00  0.00    -0.016 C 
HETATM   15  C22 UNL     1      -6.879  49.245 -20.540  1.00  0.00     0.020 C 
HETATM   16  C23 UNL     1      -4.567  49.849 -21.393  1.00  0.00     0.002 C 
HETATM   17  C24 UNL     1      -4.552  51.382 -21.266  1.00  0.00     0.007 C 
HETATM   18  C25 UNL     1      -3.766  52.110 -22.358  1.00  0.00     0.013 C 
HETATM   19  C26 UNL     1      -2.325  51.580 -22.710  1.00  0.00    -0.006 C 
ENDROOT
BRANCH   1  20
HETATM   20  C7  UNL     1       0.267  52.399 -22.503  1.00  0.00     0.079 C 
HETATM   21  C8  UNL     1       0.978  53.765 -22.428  1.00  0.00     0.051 C 
BRANCH  20  22
HETATM   22  C6  UNL     1       0.285  51.964 -23.964  1.00  0.00     0.007 C 
HETATM   23  C5  UNL     1       1.146  52.404 -24.901  1.00  0.00    -0.024 C 
BRANCH  23  24
HETATM   24  C3  UNL     1       1.219  51.990 -26.359  1.00  0.00     0.003 C 
HETATM   25  C4  UNL     1       2.605  51.514 -26.813  1.00  0.00     0.014 C 
BRANCH  24  26
HETATM   26  C2  UNL     1       0.172  50.910 -26.703  1.00  0.00     0.003 C 
HETATM   27  C1  UNL     1      -0.925  51.386 -27.647  1.00  0.00     0.006 C 
ENDBRANCH  24  26
ENDBRANCH  23  24
ENDBRANCH  20  22
BRANCH  20  28
HETATM   28  O1  UNL     1       1.102  51.471 -21.803  1.00  0.00    -0.386 OA
HETATM   29  H15 UNL     1       2.017  51.621 -22.100  1.00  0.00     0.211 HD
ENDBRANCH  20  28
ENDBRANCH   1  20
BRANCH   2  30
HETATM   30  O2  UNL     1      -0.285  51.873 -19.593  1.00  0.00    -0.395 OA
HETATM   31  H18 UNL     1      -0.439  51.283 -18.834  1.00  0.00     0.210 HD
ENDBRANCH   2  30
BRANCH  19  32
HETATM   32  C27 UNL     1      -2.210  51.656 -24.256  1.00  0.00     0.174 C 
BRANCH  32  33
HETATM   33  O4  UNL     1      -2.923  52.764 -24.795  1.00  0.00    -0.400 OA
HETATM   34  H42 UNL     1      -2.596  53.568 -24.361  1.00  0.00     0.209 HD
ENDBRANCH  32  33
ENDBRANCH  19  32
TORSDOF 8
ENDMDL
MODEL 5
REMARK minimizedAffinity -8.70060825
REMARK  8 active torsions:
REMARK  status: ('A' for Active; 'I' for Inactive)
REMARK    1  A    between atoms: C2_2  and  C3_3 
REMARK    2  A    between atoms: C3_3  and  C5_5 
REMARK    3  A    between atoms: C6_6  and  C7_7 
REMARK    4  A    between atoms: C7_7  and  O1_9 
REMARK    5  A    between atoms: C7_7  and  C9_10 
REMARK    6  A    between atoms: C10_11  and  O2_12 
REMARK    7  A    between atoms: C26_29  and  C27_30 
REMARK    8  A    between atoms: C27_30  and  O4_31 
ROOT
HETATM    1  C9  UNL     1      -2.080  50.982 -24.650  1.00  0.00     0.063 C 
HETATM    2  C10 UNL     1      -3.475  51.541 -25.013  1.00  0.00     0.126 C 
HETATM    3  C11 UNL     1      -4.169  51.803 -23.684  1.00  0.00     0.038 C 
HETATM    4  C12 UNL     1      -3.562  50.810 -22.676  1.00  0.00     0.003 C 
HETATM    5  C13 UNL     1      -4.574  49.904 -21.954  1.00  0.00    -0.004 C 
HETATM    6  C14 UNL     1      -5.519  50.692 -21.019  1.00  0.00     0.010 C 
HETATM    7  C15 UNL     1      -6.809  49.930 -20.680  1.00  0.00     0.035 C 
HETATM    8  C16 UNL     1      -6.585  48.440 -20.730  1.00  0.00    -0.068 C 
HETATM    9  C17 UNL     1      -6.696  47.693 -19.618  1.00  0.00     0.053 C 
HETATM   10  C18 UNL     1      -6.391  46.244 -19.624  1.00  0.00     0.149 C 
HETATM   11  O3  UNL     1      -6.616  45.580 -18.614  1.00  0.00    -0.293 OA
HETATM   12  C19 UNL     1      -5.848  45.619 -20.886  1.00  0.00     0.084 C 
HETATM   13  C20 UNL     1      -5.217  46.653 -21.817  1.00  0.00     0.022 C 
HETATM   14  C21 UNL     1      -6.134  47.875 -22.086  1.00  0.00    -0.016 C 
HETATM   15  C22 UNL     1      -7.384  47.431 -22.878  1.00  0.00     0.020 C 
HETATM   16  C23 UNL     1      -5.397  49.009 -22.904  1.00  0.00     0.002 C 
HETATM   17  C24 UNL     1      -4.606  48.535 -24.136  1.00  0.00     0.007 C 
HETATM   18  C25 UNL     1      -3.086  48.643 -24.004  1.00  0.00     0.013 C 
HETATM   19  C26 UNL     1      -2.486  49.994 -23.461  1.00  0.00    -0.006 C 
ENDROOT
BRANCH   1  20
HETATM   20  C7  UNL     1      -0.973  52.075 -24.365  1.00  0.00     0.079 C 
HETATM   21  C8  UNL     1       0.366  51.867 -25.100  1.00  0.00     0.051 C 
BRANCH  20  22
HETATM   22  C6  UNL     1      -0.655  52.185 -22.878  1.00  0.00     0.007 C 
HETATM   23  C5  UNL     1       0.541  52.515 -22.356  1.00  0.00    -0.024 C 
BRANCH  23  24
HETATM   24  C3  UNL     1       0.904  52.659 -20.890  1.00  0.00     0.003 C 
HETATM   25  C4  UNL     1       0.975  54.109 -20.394  1.00  0.00     0.014 C 
BRANCH  24  26
HETATM   26  C2  UNL     1      -0.050  51.857 -19.981  1.00  0.00     0.003 C 
HETATM   27  C1  UNL     1       0.113  52.151 -18.495  1.00  0.00     0.006 C 
ENDBRANCH  24  26
ENDBRANCH  23  24
ENDBRANCH  20  22
BRANCH  20  28
HETATM   28  O1  UNL     1      -1.457  53.361 -24.764  1.00  0.00    -0.386 OA
HETATM   29  H15 UNL     1      -0.709  53.983 -24.710  1.00  0.00     0.211 HD
ENDBRANCH  20  28
ENDBRANCH   1  20
BRANCH   2  30
HETATM   30  O2  UNL     1      -3.514  52.666 -25.863  1.00  0.00    -0.395 OA
HETATM   31  H18 UNL     1      -4.438  52.967 -25.915  1.00  0.00     0.210 HD
ENDBRANCH   2  30
BRANCH  19  32
HETATM   32  C27 UNL     1      -1.333  49.592 -22.503  1.00  0.00     0.174 C 
BRANCH  32  33
HETATM   33  O4  UNL     1      -1.565  48.334 -21.880  1.00  0.00    -0.400 OA
HETATM   34  H42 UNL     1      -1.708  47.676 -22.580  1.00  0.00     0.209 HD
ENDBRANCH  32  33
ENDBRANCH  19  32
TORSDOF 8
ENDMDL
MODEL 6
REMARK minimizedAffinity -8.69307137
REMARK  8 active torsions:
REMARK  status: ('A' for Active; 'I' for Inactive)
REMARK    1  A    between atoms: C2_2  and  C3_3 
REMARK    2  A    between atoms: C3_3  and  C5_5 
REMARK    3  A    between atoms: C6_6  and  C7_7 
REMARK    4  A    between atoms: C7_7  and  O1_9 
REMARK    5  A    between atoms: C7_7  and  C9_10 
REMARK    6  A    between atoms: C10_11  and  O2_12 
REMARK    7  A    between atoms: C26_29  and  C27_30 
REMARK    8  A    between atoms: C27_30  and  O4_31 
ROOT
HETATM    1  C9  UNL     1      -3.740  51.173 -25.550  1.00  0.00     0.063 C 
HETATM    2  C10 UNL     1      -3.188  51.801 -24.250  1.00  0.00     0.126 C 
HETATM    3  C11 UNL     1      -2.292  50.737 -23.630  1.00  0.00     0.038 C 
HETATM    4  C12 UNL     1      -2.845  49.379 -24.100  1.00  0.00     0.003 C 
HETATM    5  C13 UNL     1      -3.204  48.392 -22.977  1.00  0.00    -0.004 C 
HETATM    6  C14 UNL     1      -1.966  47.917 -22.182  1.00  0.00     0.010 C 
HETATM    7  C15 UNL     1      -2.317  47.350 -20.798  1.00  0.00     0.035 C 
HETATM    8  C16 UNL     1      -3.704  46.760 -20.791  1.00  0.00    -0.068 C 
HETATM    9  C17 UNL     1      -3.889  45.444 -20.590  1.00  0.00     0.053 C 
HETATM   10  C18 UNL     1      -5.233  44.827 -20.671  1.00  0.00     0.149 C 
HETATM   11  O3  UNL     1      -5.369  43.644 -20.369  1.00  0.00    -0.293 OA
HETATM   12  C19 UNL     1      -6.403  45.685 -21.087  1.00  0.00     0.084 C 
HETATM   13  C20 UNL     1      -5.962  46.934 -21.849  1.00  0.00     0.022 C 
HETATM   14  C21 UNL     1      -4.847  47.732 -21.124  1.00  0.00    -0.016 C 
HETATM   15  C22 UNL     1      -5.395  48.322 -19.805  1.00  0.00     0.020 C 
HETATM   16  C23 UNL     1      -4.285  48.916 -22.008  1.00  0.00     0.002 C 
HETATM   17  C24 UNL     1      -5.344  49.797 -22.692  1.00  0.00     0.007 C 
HETATM   18  C25 UNL     1      -5.414  49.653 -24.213  1.00  0.00     0.013 C 
HETATM   19  C26 UNL     1      -4.064  49.699 -25.023  1.00  0.00    -0.006 C 
ENDROOT
BRANCH   1  20
HETATM   20  C7  UNL     1      -2.804  51.322 -26.816  1.00  0.00     0.079 C 
HETATM   21  C8  UNL     1      -3.244  50.526 -28.061  1.00  0.00     0.051 C 
BRANCH  20  22
HETATM   22  C6  UNL     1      -1.366  50.915 -26.509  1.00  0.00     0.007 C 
HETATM   23  C5  UNL     1      -0.264  51.580 -26.906  1.00  0.00    -0.024 C 
BRANCH  23  24
HETATM   24  C3  UNL     1       1.183  51.231 -26.611  1.00  0.00     0.003 C 
HETATM   25  C4  UNL     1       2.180  51.716 -27.671  1.00  0.00     0.014 C 
BRANCH  24  26
HETATM   26  C2  UNL     1       1.626  51.742 -25.224  1.00  0.00     0.003 C 
HETATM   27  C1  UNL     1       0.888  52.991 -24.757  1.00  0.00     0.006 C 
ENDBRANCH  24  26
ENDBRANCH  23  24
ENDBRANCH  20  22
BRANCH  20  28
HETATM   28  O1  UNL     1      -2.751  52.696 -27.213  1.00  0.00    -0.386 OA
HETATM   29  H15 UNL     1      -2.289  52.734 -28.069  1.00  0.00     0.211 HD
ENDBRANCH  20  28
ENDBRANCH   1  20
BRANCH   2  30
HETATM   30  O2  UNL     1      -2.533  53.044 -24.365  1.00  0.00    -0.395 OA
HETATM   31  H18 UNL     1      -2.151  53.260 -23.496  1.00  0.00     0.210 HD
ENDBRANCH   2  30
BRANCH  19  32
HETATM   32  C27 UNL     1      -4.189  48.609 -26.121  1.00  0.00     0.174 C 
BRANCH  32  33
HETATM   33  O4  UNL     1      -5.544  48.339 -26.459  1.00  0.00    -0.400 OA
HETATM   34  H42 UNL     1      -5.958  49.176 -26.723  1.00  0.00     0.209 HD
ENDBRANCH  32  33
ENDBRANCH  19  32
TORSDOF 8
ENDMDL
MODEL 7
REMARK minimizedAffinity -8.50103855
REMARK  8 active torsions:
REMARK  status: ('A' for Active; 'I' for Inactive)
REMARK    1  A    between atoms: C2_2  and  C3_3 
REMARK    2  A    between atoms: C3_3  and  C5_5 
REMARK    3  A    between atoms: C6_6  and  C7_7 
REMARK    4  A    between atoms: C7_7  and  O1_9 
REMARK    5  A    between atoms: C7_7  and  C9_10 
REMARK    6  A    between atoms: C10_11  and  O2_12 
REMARK    7  A    between atoms: C26_29  and  C27_30 
REMARK    8  A    between atoms: C27_30  and  O4_31 
ROOT
HETATM    1  C9  UNL     1      -3.863  49.928 -23.174  1.00  0.00     0.063 C 
HETATM    2  C10 UNL     1      -4.074  51.356 -22.620  1.00  0.00     0.126 C 
HETATM    3  C11 UNL     1      -2.709  51.804 -22.116  1.00  0.00     0.038 C 
HETATM    4  C12 UNL     1      -1.952  50.523 -21.720  1.00  0.00     0.003 C 
HETATM    5  C13 UNL     1      -1.431  50.489 -20.273  1.00  0.00    -0.004 C 
HETATM    6  C14 UNL     1      -0.332  51.542 -20.010  1.00  0.00     0.010 C 
HETATM    7  C15 UNL     1      -0.149  51.866 -18.519  1.00  0.00     0.035 C 
HETATM    8  C16 UNL     1      -0.527  50.687 -17.659  1.00  0.00    -0.068 C 
HETATM    9  C17 UNL     1       0.396  50.064 -16.907  1.00  0.00     0.053 C 
HETATM   10  C18 UNL     1       0.069  48.848 -16.127  1.00  0.00     0.149 C 
HETATM   11  O3  UNL     1       0.912  48.379 -15.365  1.00  0.00    -0.293 OA
HETATM   12  C19 UNL     1      -1.307  48.244 -16.264  1.00  0.00     0.084 C 
HETATM   13  C20 UNL     1      -1.999  48.670 -17.557  1.00  0.00     0.022 C 
HETATM   14  C21 UNL     1      -1.980  50.204 -17.786  1.00  0.00    -0.016 C 
HETATM   15  C22 UNL     1      -2.832  50.908 -16.705  1.00  0.00     0.020 C 
HETATM   16  C23 UNL     1      -2.542  50.606 -19.208  1.00  0.00     0.002 C 
HETATM   17  C24 UNL     1      -3.859  49.927 -19.620  1.00  0.00     0.007 C 
HETATM   18  C25 UNL     1      -3.730  48.911 -20.756  1.00  0.00     0.013 C 
HETATM   19  C26 UNL     1      -2.913  49.333 -22.036  1.00  0.00    -0.006 C 
ENDROOT
BRANCH   1  20
HETATM   20  C7  UNL     1      -3.362  49.858 -24.674  1.00  0.00     0.079 C 
HETATM   21  C8  UNL     1      -3.442  48.467 -25.333  1.00  0.00     0.051 C 
BRANCH  20  22
HETATM   22  C6  UNL     1      -1.922  50.339 -24.813  1.00  0.00     0.007 C 
HETATM   23  C5  UNL     1      -1.522  51.416 -25.516  1.00  0.00    -0.024 C 
BRANCH  23  24
HETATM   24  C3  UNL     1      -0.110  51.948 -25.670  1.00  0.00     0.003 C 
HETATM   25  C4  UNL     1       0.561  52.354 -24.352  1.00  0.00     0.014 C 
BRANCH  24  26
HETATM   26  C2  UNL     1       0.801  50.953 -26.419  1.00  0.00     0.003 C 
HETATM   27  C1  UNL     1       2.280  51.318 -26.387  1.00  0.00     0.006 C 
ENDBRANCH  24  26
ENDBRANCH  23  24
ENDBRANCH  20  22
BRANCH  20  28
HETATM   28  O1  UNL     1      -4.153  50.734 -25.483  1.00  0.00    -0.386 OA
HETATM   29  H15 UNL     1      -3.918  50.562 -26.412  1.00  0.00     0.211 HD
ENDBRANCH  20  28
ENDBRANCH   1  20
BRANCH   2  30
HETATM   30  O2  UNL     1      -4.656  52.302 -23.489  1.00  0.00    -0.395 OA
HETATM   31  H18 UNL     1      -4.627  53.168 -23.046  1.00  0.00     0.210 HD
ENDBRANCH   2  30
BRANCH  19  32
HETATM   32  C27 UNL     1      -2.083  48.085 -22.441  1.00  0.00     0.174 C 
BRANCH  32  33
HETATM   33  O4  UNL     1      -2.307  46.984 -21.568  1.00  0.00    -0.400 OA
HETATM   34  H42 UNL     1      -3.260  46.803 -21.554  1.00  0.00     0.209 HD
ENDBRANCH  32  33
ENDBRANCH  19  32
TORSDOF 8
ENDMDL
MODEL 8
REMARK minimizedAffinity -8.4563818
REMARK  8 active torsions:
REMARK  status: ('A' for Active; 'I' for Inactive)
REMARK    1  A    between atoms: C2_2  and  C3_3 
REMARK    2  A    between atoms: C3_3  and  C5_5 
REMARK    3  A    between atoms: C6_6  and  C7_7 
REMARK    4  A    between atoms: C7_7  and  O1_9 
REMARK    5  A    between atoms: C7_7  and  C9_10 
REMARK    6  A    between atoms: C10_11  and  O2_12 
REMARK    7  A    between atoms: C26_29  and  C27_30 
REMARK    8  A    between atoms: C27_30  and  O4_31 
ROOT
HETATM    1  C9  UNL     1      -4.577  48.716 -23.013  1.00  0.00     0.063 C 
HETATM    2  C10 UNL     1      -3.192  48.138 -22.643  1.00  0.00     0.126 C 
HETATM    3  C11 UNL     1      -2.388  49.314 -22.105  1.00  0.00     0.038 C 
HETATM    4  C12 UNL     1      -2.959  50.573 -22.783  1.00  0.00     0.003 C 
HETATM    5  C13 UNL     1      -1.934  51.432 -23.543  1.00  0.00    -0.004 C 
HETATM    6  C14 UNL     1      -0.889  52.081 -22.607  1.00  0.00     0.010 C 
HETATM    7  C15 UNL     1       0.391  52.516 -23.338  1.00  0.00     0.035 C 
HETATM    8  C16 UNL     1       0.102  52.852 -24.779  1.00  0.00    -0.068 C 
HETATM    9  C17 UNL     1       0.265  54.106 -25.236  1.00  0.00     0.053 C 
HETATM   10  C18 UNL     1      -0.100  54.479 -26.622  1.00  0.00     0.149 C 
HETATM   11  O3  UNL     1       0.173  55.607 -27.030  1.00  0.00    -0.293 OA
HETATM   12  C19 UNL     1      -0.762  53.449 -27.503  1.00  0.00     0.084 C 
HETATM   13  C20 UNL     1      -1.418  52.332 -26.694  1.00  0.00     0.022 C 
HETATM   14  C21 UNL     1      -0.474  51.711 -25.631  1.00  0.00    -0.016 C 
HETATM   15  C22 UNL     1       0.693  50.976 -26.328  1.00  0.00     0.020 C 
HETATM   16  C23 UNL     1      -1.223  50.684 -24.690  1.00  0.00     0.002 C 
HETATM   17  C24 UNL     1      -2.123  49.662 -25.404  1.00  0.00     0.007 C 
HETATM   18  C25 UNL     1      -3.623  49.858 -25.177  1.00  0.00     0.013 C 
HETATM   19  C26 UNL     1      -4.124  50.085 -23.702  1.00  0.00    -0.006 C 
ENDROOT
BRANCH   1  20
HETATM   20  C7  UNL     1      -5.613  48.789 -21.820  1.00  0.00     0.079 C 
HETATM   21  C8  UNL     1      -5.086  48.305 -20.454  1.00  0.00     0.051 C 
BRANCH  20  22
HETATM   22  C6  UNL     1      -6.879  47.994 -22.119  1.00  0.00     0.007 C 
HETATM   23  C5  UNL     1      -6.991  47.021 -23.043  1.00  0.00    -0.024 C 
BRANCH  23  24
HETATM   24  C3  UNL     1      -8.217  46.187 -23.366  1.00  0.00     0.003 C 
HETATM   25  C4  UNL     1      -9.537  46.968 -23.344  1.00  0.00     0.014 C 
BRANCH  24  26
HETATM   26  C2  UNL     1      -8.078  45.462 -24.721  1.00  0.00     0.003 C 
HETATM   27  C1  UNL     1      -8.005  46.396 -25.922  1.00  0.00     0.006 C 
ENDBRANCH  24  26
ENDBRANCH  23  24
ENDBRANCH  20  22
BRANCH  20  28
HETATM   28  O1  UNL     1      -6.032  50.145 -21.634  1.00  0.00    -0.386 OA
HETATM   29  H15 UNL     1      -6.552  50.178 -20.811  1.00  0.00     0.211 HD
ENDBRANCH  20  28
ENDBRANCH   1  20
BRANCH   2  30
HETATM   30  O2  UNL     1      -3.171  47.035 -21.765  1.00  0.00    -0.395 OA
HETATM   31  H18 UNL     1      -2.241  46.851 -21.541  1.00  0.00     0.210 HD
ENDBRANCH   2  30
BRANCH  19  32
HETATM   32  C27 UNL     1      -5.217  51.184 -23.788  1.00  0.00     0.174 C 
BRANCH  32  33
HETATM   33  O4  UNL     1      -4.958  52.271 -22.907  1.00  0.00    -0.400 OA
HETATM   34  H42 UNL     1      -4.073  52.615 -23.111  1.00  0.00     0.209 HD
ENDBRANCH  32  33
ENDBRANCH  19  32
TORSDOF 8
ENDMDL
MODEL 9
REMARK minimizedAffinity -8.40717602
REMARK  8 active torsions:
REMARK  status: ('A' for Active; 'I' for Inactive)
REMARK    1  A    between atoms: C2_2  and  C3_3 
REMARK    2  A    between atoms: C3_3  and  C5_5 
REMARK    3  A    between atoms: C6_6  and  C7_7 
REMARK    4  A    between atoms: C7_7  and  O1_9 
REMARK    5  A    between atoms: C7_7  and  C9_10 
REMARK    6  A    between atoms: C10_11  and  O2_12 
REMARK    7  A    between atoms: C26_29  and  C27_30 
REMARK    8  A    between atoms: C27_30  and  O4_31 
ROOT
HETATM    1  C9  UNL     1      -3.246  51.275 -24.881  1.00  0.00     0.063 C 
HETATM    2  C10 UNL     1      -2.180  52.133 -24.161  1.00  0.00     0.126 C 
HETATM    3  C11 UNL     1      -1.281  51.142 -23.434  1.00  0.00     0.038 C 
HETATM    4  C12 UNL     1      -2.152  49.909 -23.133  1.00  0.00     0.003 C 
HETATM    5  C13 UNL     1      -2.218  49.497 -21.653  1.00  0.00    -0.004 C 
HETATM    6  C14 UNL     1      -0.857  49.004 -21.109  1.00  0.00     0.010 C 
HETATM    7  C15 UNL     1      -0.762  49.057 -19.577  1.00  0.00     0.035 C 
HETATM    8  C16 UNL     1      -2.122  48.903 -18.945  1.00  0.00    -0.068 C 
HETATM    9  C17 UNL     1      -2.405  47.835 -18.180  1.00  0.00     0.053 C 
HETATM   10  C18 UNL     1      -3.761  47.616 -17.626  1.00  0.00     0.149 C 
HETATM   11  O3  UNL     1      -3.945  46.689 -16.839  1.00  0.00    -0.293 OA
HETATM   12  C19 UNL     1      -4.869  48.564 -18.015  1.00  0.00     0.084 C 
HETATM   13  C20 UNL     1      -4.561  49.311 -19.311  1.00  0.00     0.022 C 
HETATM   14  C21 UNL     1      -3.158  49.975 -19.317  1.00  0.00    -0.016 C 
HETATM   15  C22 UNL     1      -3.106  51.102 -18.261  1.00  0.00     0.020 C 
HETATM   16  C23 UNL     1      -2.791  50.590 -20.726  1.00  0.00     0.002 C 
HETATM   17  C24 UNL     1      -3.890  51.438 -21.389  1.00  0.00     0.007 C 
HETATM   18  C25 UNL     1      -4.523  50.812 -22.633  1.00  0.00     0.013 C 
HETATM   19  C26 UNL     1      -3.563  50.214 -23.729  1.00  0.00    -0.006 C 
ENDROOT
BRANCH   1  20
HETATM   20  C7  UNL     1      -2.818  50.727 -26.302  1.00  0.00     0.079 C 
HETATM   21  C8  UNL     1      -2.221  49.305 -26.310  1.00  0.00     0.051 C 
BRANCH  20  22
HETATM   22  C6  UNL     1      -1.806  51.642 -26.981  1.00  0.00     0.007 C 
HETATM   23  C5  UNL     1      -0.668  51.242 -27.580  1.00  0.00    -0.024 C 
BRANCH  23  24
HETATM   24  C3  UNL     1       0.360  52.106 -28.286  1.00  0.00     0.003 C 
HETATM   25  C4  UNL     1       0.091  53.614 -28.193  1.00  0.00     0.014 C 
BRANCH  24  26
HETATM   26  C2  UNL     1       1.792  51.814 -27.793  1.00  0.00     0.003 C 
HETATM   27  C1  UNL     1       1.882  51.465 -26.313  1.00  0.00     0.006 C 
ENDBRANCH  24  26
ENDBRANCH  23  24
ENDBRANCH  20  22
BRANCH  20  28
HETATM   28  O1  UNL     1      -3.960  50.690 -27.163  1.00  0.00    -0.386 OA
HETATM   29  H15 UNL     1      -3.697  50.219 -27.974  1.00  0.00     0.211 HD
ENDBRANCH  20  28
ENDBRANCH   1  20
BRANCH   2  30
HETATM   30  O2  UNL     1      -1.443  53.037 -24.953  1.00  0.00    -0.395 OA
HETATM   31  H18 UNL     1      -0.747  53.423 -24.392  1.00  0.00     0.210 HD
ENDBRANCH   2  30
BRANCH  19  32
HETATM   32  C27 UNL     1      -4.228  48.893 -24.201  1.00  0.00     0.174 C 
BRANCH  32  33
HETATM   33  O4  UNL     1      -5.235  48.445 -23.301  1.00  0.00    -0.400 OA
HETATM   34  H42 UNL     1      -5.879  49.163 -23.193  1.00  0.00     0.209 HD
ENDBRANCH  32  33
ENDBRANCH  19  32
TORSDOF 8
ENDMDL
