MODEL 1
REMARK minimizedAffinity -8.77419281
REMARK  10 active torsions:
REMARK  status: ('A' for Active; 'I' for Inactive)
REMARK    1  A    between atoms: C2_2  and  C3_4 
REMARK    2  A    between atoms: C10_12  and  O3_13 
REMARK    3  A    between atoms: C13_16  and  C14_17 
REMARK    4  A    between atoms: C14_17  and  C16_19 
REMARK    5  A    between atoms: C16_19  and  C17_20 
REMARK    6  A    between atoms: C17_20  and  C18_21 
REMARK    7  A    between atoms: C26_29  and  C27_30 
REMARK    8  A    between atoms: C27_30  and  C28_31 
REMARK    9  A    between atoms: C28_31  and  C29_32 
REMARK   10  A    between atoms: C29_32  and  O4_33 
ROOT
HETATM    1  C3  UNL     1      -2.487  50.150 -17.900  1.00  0.00     0.151 A 
HETATM    2  O2  UNL     1      -2.629  48.728 -18.102  1.00  0.00    -0.360 OA
HETATM    3  C4  UNL     1      -3.818  49.504 -18.199  1.00  0.00     0.166 A 
HETATM    4  C5  UNL     1      -4.405  49.745 -19.539  1.00  0.00     0.041 C 
HETATM    5  C6  UNL     1      -3.422  49.600 -20.724  1.00  0.00     0.006 C 
HETATM    6  C7  UNL     1      -1.940  50.152 -20.460  1.00  0.00    -0.030 C 
HETATM    7  C8  UNL     1      -0.919  48.970 -20.458  1.00  0.00     0.016 C 
HETATM    8  C9  UNL     1      -1.470  51.114 -21.609  1.00  0.00     0.042 C 
HETATM    9  C10 UNL     1      -1.830  50.768 -23.074  1.00  0.00     0.128 C 
HETATM   10  C11 UNL     1      -3.101  49.907 -23.270  1.00  0.00    -0.006 C 
HETATM   11  C12 UNL     1      -2.667  48.411 -23.427  1.00  0.00     0.019 C 
HETATM   12  C13 UNL     1      -4.045  50.233 -24.488  1.00  0.00     0.001 C 
HETATM   13  C22 UNL     1      -5.414  49.649 -24.022  1.00  0.00     0.007 C 
HETATM   14  C23 UNL     1      -5.316  49.374 -22.513  1.00  0.00     0.011 C 
HETATM   15  C24 UNL     1      -4.065  50.144 -22.049  1.00  0.00    -0.029 C 
HETATM   16  C25 UNL     1      -4.519  51.632 -21.860  1.00  0.00     0.016 C 
HETATM   17  C26 UNL     1      -1.858  50.933 -19.061  1.00  0.00     0.039 C 
ENDROOT
BRANCH  12  18
HETATM   18  C14 UNL     1      -3.661  49.751 -25.924  1.00  0.00    -0.013 C 
HETATM   19  C15 UNL     1      -4.392  48.464 -26.322  1.00  0.00     0.010 C 
BRANCH  18  20
HETATM   20  C16 UNL     1      -2.123  49.541 -26.027  1.00  0.00     0.008 C 
BRANCH  20  21
HETATM   21  C17 UNL     1      -1.391  50.651 -26.791  1.00  0.00     0.028 C 
BRANCH  21  22
HETATM   22  C18 UNL     1       0.056  50.724 -26.384  1.00  0.00    -0.025 C 
HETATM   23  C19 UNL     1       1.061  51.358 -27.018  1.00  0.00    -0.091 C 
HETATM   24  C20 UNL     1       0.934  52.100 -28.321  1.00  0.00     0.042 C 
HETATM   25  C21 UNL     1       2.455  51.349 -26.447  1.00  0.00     0.042 C 
ENDBRANCH  21  22
ENDBRANCH  20  21
ENDBRANCH  18  20
ENDBRANCH  12  18
BRANCH   9  26
HETATM   26  O3  UNL     1      -1.953  52.011 -23.770  1.00  0.00    -0.395 OA
HETATM   27  H14 UNL     1      -1.089  52.458 -23.730  1.00  0.00     0.210 HD
ENDBRANCH   9  26
BRANCH  17  28
HETATM   28  C27 UNL     1      -0.418  51.414 -18.709  1.00  0.00     0.011 C 
BRANCH  28  29
HETATM   29  C28 UNL     1      -0.069  52.875 -19.021  1.00  0.00     0.027 C 
BRANCH  29  30
HETATM   30  C29 UNL     1       1.188  53.061 -19.861  1.00  0.00     0.164 C 
BRANCH  30  31
HETATM   31  O4  UNL     1       1.291  54.431 -20.227  1.00  0.00    -0.401 OA
HETATM   32  H48 UNL     1       2.023  54.503 -20.863  1.00  0.00     0.209 HD
ENDBRANCH  30  31
ENDBRANCH  29  30
ENDBRANCH  28  29
ENDBRANCH  17  28
BRANCH   1  33
HETATM   33  C2  UNL     1      -2.319  50.572 -16.479  1.00  0.00     0.160 C 
HETATM   34  C1  UNL     1      -1.293  49.834 -15.670  1.00  0.00     0.094 C 
HETATM   35  O1  UNL     1      -3.033  51.456 -16.019  1.00  0.00    -0.295 OA
ENDBRANCH   1  33
TORSDOF 10
ENDMDL
MODEL 2
REMARK minimizedAffinity -8.65494251
REMARK  10 active torsions:
REMARK  status: ('A' for Active; 'I' for Inactive)
REMARK    1  A    between atoms: C2_2  and  C3_4 
REMARK    2  A    between atoms: C10_12  and  O3_13 
REMARK    3  A    between atoms: C13_16  and  C14_17 
REMARK    4  A    between atoms: C14_17  and  C16_19 
REMARK    5  A    between atoms: C16_19  and  C17_20 
REMARK    6  A    between atoms: C17_20  and  C18_21 
REMARK    7  A    between atoms: C26_29  and  C27_30 
REMARK    8  A    between atoms: C27_30  and  C28_31 
REMARK    9  A    between atoms: C28_31  and  C29_32 
REMARK   10  A    between atoms: C29_32  and  O4_33 
ROOT
HETATM    1  C3  UNL     1      -3.256  49.348 -26.330  1.00  0.00     0.151 A 
HETATM    2  O2  UNL     1      -2.038  48.585 -26.197  1.00  0.00    -0.360 OA
HETATM    3  C4  UNL     1      -1.890  49.988 -26.382  1.00  0.00     0.166 A 
HETATM    4  C5  UNL     1      -1.485  50.821 -25.224  1.00  0.00     0.041 C 
HETATM    5  C6  UNL     1      -1.773  50.204 -23.836  1.00  0.00     0.006 C 
HETATM    6  C7  UNL     1      -3.154  49.397 -23.714  1.00  0.00    -0.030 C 
HETATM    7  C8  UNL     1      -2.870  47.878 -23.487  1.00  0.00     0.016 C 
HETATM    8  C9  UNL     1      -3.986  49.863 -22.468  1.00  0.00     0.042 C 
HETATM    9  C10 UNL     1      -3.247  50.174 -21.144  1.00  0.00     0.128 C 
HETATM   10  C11 UNL     1      -1.770  50.613 -21.284  1.00  0.00    -0.006 C 
HETATM   11  C12 UNL     1      -0.856  49.363 -21.053  1.00  0.00     0.019 C 
HETATM   12  C13 UNL     1      -1.232  51.746 -20.331  1.00  0.00     0.001 C 
HETATM   13  C22 UNL     1      -0.021  52.317 -21.132  1.00  0.00     0.007 C 
HETATM   14  C23 UNL     1      -0.129  51.799 -22.575  1.00  0.00     0.011 C 
HETATM   15  C24 UNL     1      -1.570  51.269 -22.701  1.00  0.00    -0.029 C 
HETATM   16  C25 UNL     1      -2.470  52.523 -22.967  1.00  0.00     0.016 C 
HETATM   17  C26 UNL     1      -4.046  49.583 -25.035  1.00  0.00     0.039 C 
ENDROOT
BRANCH  12  18
HETATM   18  C14 UNL     1      -0.850  51.408 -18.854  1.00  0.00    -0.013 C 
HETATM   19  C15 UNL     1      -2.067  51.413 -17.921  1.00  0.00     0.010 C 
BRANCH  18  20
HETATM   20  C16 UNL     1       0.221  52.408 -18.333  1.00  0.00     0.008 C 
BRANCH  20  21
HETATM   21  C17 UNL     1       0.872  51.991 -17.008  1.00  0.00     0.028 C 
BRANCH  21  22
HETATM   22  C18 UNL     1       2.329  52.366 -16.981  1.00  0.00    -0.025 C 
HETATM   23  C19 UNL     1       3.199  52.226 -15.961  1.00  0.00    -0.091 C 
HETATM   24  C20 UNL     1       2.857  51.692 -14.597  1.00  0.00     0.042 C 
HETATM   25  C21 UNL     1       4.640  52.633 -16.121  1.00  0.00     0.042 C 
ENDBRANCH  21  22
ENDBRANCH  20  21
ENDBRANCH  18  20
ENDBRANCH  12  18
BRANCH   9  26
HETATM   26  O3  UNL     1      -4.010  51.183 -20.476  1.00  0.00    -0.395 OA
HETATM   27  H14 UNL     1      -4.891  50.813 -20.292  1.00  0.00     0.210 HD
ENDBRANCH   9  26
BRANCH  17  28
HETATM   28  C27 UNL     1      -5.361  48.747 -25.012  1.00  0.00     0.011 C 
BRANCH  28  29
HETATM   29  C28 UNL     1      -6.456  49.187 -24.030  1.00  0.00     0.027 C 
BRANCH  29  30
HETATM   30  C29 UNL     1      -7.862  48.744 -24.410  1.00  0.00     0.164 C 
BRANCH  30  31
HETATM   31  O4  UNL     1      -8.447  49.744 -25.234  1.00  0.00    -0.401 OA
HETATM   32  H48 UNL     1      -9.381  49.503 -25.358  1.00  0.00     0.209 HD
ENDBRANCH  30  31
ENDBRANCH  29  30
ENDBRANCH  28  29
ENDBRANCH  17  28
BRANCH   1  33
HETATM   33  C2  UNL     1      -3.928  49.238 -27.657  1.00  0.00     0.160 C 
HETATM   34  C1  UNL     1      -4.893  48.102 -27.835  1.00  0.00     0.094 C 
HETATM   35  O1  UNL     1      -3.649  50.031 -28.549  1.00  0.00    -0.295 OA
ENDBRANCH   1  33
TORSDOF 10
ENDMDL
MODEL 3
REMARK minimizedAffinity -8.55779171
REMARK  10 active torsions:
REMARK  status: ('A' for Active; 'I' for Inactive)
REMARK    1  A    between atoms: C2_2  and  C3_4 
REMARK    2  A    between atoms: C10_12  and  O3_13 
REMARK    3  A    between atoms: C13_16  and  C14_17 
REMARK    4  A    between atoms: C14_17  and  C16_19 
REMARK    5  A    between atoms: C16_19  and  C17_20 
REMARK    6  A    between atoms: C17_20  and  C18_21 
REMARK    7  A    between atoms: C26_29  and  C27_30 
REMARK    8  A    between atoms: C27_30  and  C28_31 
REMARK    9  A    between atoms: C28_31  and  C29_32 
REMARK   10  A    between atoms: C29_32  and  O4_33 
ROOT
HETATM    1  C3  UNL     1      -3.357  50.063 -25.416  1.00  0.00     0.151 A 
HETATM    2  O2  UNL     1      -4.533  50.652 -24.821  1.00  0.00    -0.360 OA
HETATM    3  C4  UNL     1      -4.363  49.252 -24.636  1.00  0.00     0.166 A 
HETATM    4  C5  UNL     1      -3.948  48.753 -23.303  1.00  0.00     0.041 C 
HETATM    5  C6  UNL     1      -3.233  49.791 -22.406  1.00  0.00     0.006 C 
HETATM    6  C7  UNL     1      -2.229  50.782 -23.166  1.00  0.00    -0.030 C 
HETATM    7  C8  UNL     1      -2.776  52.244 -23.115  1.00  0.00     0.016 C 
HETATM    8  C9  UNL     1      -0.826  50.831 -22.463  1.00  0.00     0.042 C 
HETATM    9  C10 UNL     1      -0.758  50.828 -20.917  1.00  0.00     0.128 C 
HETATM   10  C11 UNL     1      -1.953  50.164 -20.192  1.00  0.00    -0.006 C 
HETATM   11  C12 UNL     1      -2.959  51.285 -19.763  1.00  0.00     0.019 C 
HETATM   12  C13 UNL     1      -1.662  49.303 -18.906  1.00  0.00     0.001 C 
HETATM   13  C22 UNL     1      -2.900  48.355 -18.845  1.00  0.00     0.007 C 
HETATM   14  C23 UNL     1      -3.612  48.429 -20.205  1.00  0.00     0.011 C 
HETATM   15  C24 UNL     1      -2.595  49.094 -21.152  1.00  0.00    -0.029 C 
HETATM   16  C25 UNL     1      -1.616  47.958 -21.602  1.00  0.00     0.016 C 
HETATM   17  C26 UNL     1      -2.030  50.339 -24.695  1.00  0.00     0.039 C 
ENDROOT
BRANCH  12  18
HETATM   18  C14 UNL     1      -1.399  50.009 -17.536  1.00  0.00    -0.013 C 
HETATM   19  C15 UNL     1      -2.627  50.773 -17.028  1.00  0.00     0.010 C 
BRANCH  18  20
HETATM   20  C16 UNL     1      -0.186  50.975 -17.655  1.00  0.00     0.008 C 
BRANCH  20  21
HETATM   21  C17 UNL     1       0.538  51.234 -16.328  1.00  0.00     0.028 C 
BRANCH  21  22
HETATM   22  C18 UNL     1       1.785  52.049 -16.542  1.00  0.00    -0.025 C 
HETATM   23  C19 UNL     1       2.884  52.095 -15.763  1.00  0.00    -0.091 C 
HETATM   24  C20 UNL     1       3.061  51.355 -14.466  1.00  0.00     0.042 C 
HETATM   25  C21 UNL     1       4.061  52.953 -16.150  1.00  0.00     0.042 C 
ENDBRANCH  21  22
ENDBRANCH  20  21
ENDBRANCH  18  20
ENDBRANCH  12  18
BRANCH   9  26
HETATM   26  O3  UNL     1       0.467  50.182 -20.562  1.00  0.00    -0.395 OA
HETATM   27  H14 UNL     1       1.197  50.710 -20.931  1.00  0.00     0.210 HD
ENDBRANCH   9  26
BRANCH  17  28
HETATM   28  C27 UNL     1      -1.134  51.320 -25.508  1.00  0.00     0.011 C 
BRANCH  28  29
HETATM   29  C28 UNL     1       0.058  50.719 -26.266  1.00  0.00     0.027 C 
BRANCH  29  30
HETATM   30  C29 UNL     1       0.411  51.435 -27.563  1.00  0.00     0.164 C 
BRANCH  30  31
HETATM   31  O4  UNL     1      -0.789  51.902 -28.165  1.00  0.00    -0.401 OA
HETATM   32  H48 UNL     1      -0.555  52.240 -29.046  1.00  0.00     0.209 HD
ENDBRANCH  30  31
ENDBRANCH  29  30
ENDBRANCH  28  29
ENDBRANCH  17  28
BRANCH   1  33
HETATM   33  C2  UNL     1      -3.428  49.867 -26.893  1.00  0.00     0.160 C 
HETATM   34  C1  UNL     1      -3.439  48.450 -27.388  1.00  0.00     0.094 C 
HETATM   35  O1  UNL     1      -3.434  50.841 -27.637  1.00  0.00    -0.295 OA
ENDBRANCH   1  33
TORSDOF 10
ENDMDL
MODEL 4
REMARK minimizedAffinity -8.41845608
REMARK  10 active torsions:
REMARK  status: ('A' for Active; 'I' for Inactive)
REMARK    1  A    between atoms: C2_2  and  C3_4 
REMARK    2  A    between atoms: C10_12  and  O3_13 
REMARK    3  A    between atoms: C13_16  and  C14_17 
REMARK    4  A    between atoms: C14_17  and  C16_19 
REMARK    5  A    between atoms: C16_19  and  C17_20 
REMARK    6  A    between atoms: C17_20  and  C18_21 
REMARK    7  A    between atoms: C26_29  and  C27_30 
REMARK    8  A    between atoms: C27_30  and  C28_31 
REMARK    9  A    between atoms: C28_31  and  C29_32 
REMARK   10  A    between atoms: C29_32  and  O4_33 
ROOT
HETATM    1  C3  UNL     1      -6.862  47.403 -22.133  1.00  0.00     0.151 A 
HETATM    2  O2  UNL     1      -7.083  48.373 -21.087  1.00  0.00    -0.360 OA
HETATM    3  C4  UNL     1      -6.135  47.348 -20.812  1.00  0.00     0.166 A 
HETATM    4  C5  UNL     1      -4.692  47.691 -20.815  1.00  0.00     0.041 C 
HETATM    5  C6  UNL     1      -4.319  48.958 -21.620  1.00  0.00     0.006 C 
HETATM    6  C7  UNL     1      -5.128  49.168 -22.988  1.00  0.00    -0.030 C 
HETATM    7  C8  UNL     1      -6.043  50.429 -22.883  1.00  0.00     0.016 C 
HETATM    8  C9  UNL     1      -4.161  49.447 -24.193  1.00  0.00     0.042 C 
HETATM    9  C10 UNL     1      -2.926  50.354 -23.972  1.00  0.00     0.128 C 
HETATM   10  C11 UNL     1      -2.381  50.408 -22.525  1.00  0.00    -0.006 C 
HETATM   11  C12 UNL     1      -2.962  51.680 -21.822  1.00  0.00     0.019 C 
HETATM   12  C13 UNL     1      -0.820  50.451 -22.316  1.00  0.00     0.001 C 
HETATM   13  C22 UNL     1      -0.655  49.890 -20.870  1.00  0.00     0.007 C 
HETATM   14  C23 UNL     1      -1.986  49.232 -20.470  1.00  0.00     0.011 C 
HETATM   15  C24 UNL     1      -2.762  49.069 -21.791  1.00  0.00    -0.029 C 
HETATM   16  C25 UNL     1      -2.197  47.775 -22.468  1.00  0.00     0.016 C 
HETATM   17  C26 UNL     1      -6.026  47.882 -23.328  1.00  0.00     0.039 C 
ENDROOT
BRANCH  12  18
HETATM   18  C14 UNL     1      -0.042  51.792 -22.515  1.00  0.00    -0.013 C 
HETATM   19  C15 UNL     1      -0.072  52.675 -21.263  1.00  0.00     0.010 C 
BRANCH  18  20
HETATM   20  C16 UNL     1      -0.621  52.574 -23.729  1.00  0.00     0.008 C 
BRANCH  20  21
HETATM   21  C17 UNL     1       0.445  53.241 -24.607  1.00  0.00     0.028 C 
BRANCH  21  22
HETATM   22  C18 UNL     1       0.275  52.854 -26.052  1.00  0.00    -0.025 C 
HETATM   23  C19 UNL     1       1.059  52.041 -26.786  1.00  0.00    -0.091 C 
HETATM   24  C20 UNL     1       2.320  51.381 -26.300  1.00  0.00     0.042 C 
HETATM   25  C21 UNL     1       0.718  51.740 -28.222  1.00  0.00     0.042 C 
ENDBRANCH  21  22
ENDBRANCH  20  21
ENDBRANCH  18  20
ENDBRANCH  12  18
BRANCH   9  26
HETATM   26  O3  UNL     1      -1.915  49.897 -24.874  1.00  0.00    -0.395 OA
HETATM   27  H14 UNL     1      -2.257  50.005 -25.779  1.00  0.00     0.210 HD
ENDBRANCH   9  26
BRANCH  17  28
HETATM   28  C27 UNL     1      -6.905  48.065 -24.601  1.00  0.00     0.011 C 
BRANCH  28  29
HETATM   29  C28 UNL     1      -8.157  48.944 -24.471  1.00  0.00     0.027 C 
BRANCH  29  30
HETATM   30  C29 UNL     1      -9.161  48.789 -25.605  1.00  0.00     0.164 C 
BRANCH  30  31
HETATM   31  O4  UNL     1      -9.593  50.082 -26.009  1.00  0.00    -0.401 OA
HETATM   32  H48 UNL     1     -10.322  49.956 -26.640  1.00  0.00     0.209 HD
ENDBRANCH  30  31
ENDBRANCH  29  30
ENDBRANCH  28  29
ENDBRANCH  17  28
BRANCH   1  33
HETATM   33  C2  UNL     1      -7.936  46.379 -22.281  1.00  0.00     0.160 C 
HETATM   34  C1  UNL     1      -9.313  46.771 -21.832  1.00  0.00     0.094 C 
HETATM   35  O1  UNL     1      -7.660  45.265 -22.714  1.00  0.00    -0.295 OA
ENDBRANCH   1  33
TORSDOF 10
ENDMDL
MODEL 5
REMARK minimizedAffinity -8.37453175
REMARK  10 active torsions:
REMARK  status: ('A' for Active; 'I' for Inactive)
REMARK    1  A    between atoms: C2_2  and  C3_4 
REMARK    2  A    between atoms: C10_12  and  O3_13 
REMARK    3  A    between atoms: C13_16  and  C14_17 
REMARK    4  A    between atoms: C14_17  and  C16_19 
REMARK    5  A    between atoms: C16_19  and  C17_20 
REMARK    6  A    between atoms: C17_20  and  C18_21 
REMARK    7  A    between atoms: C26_29  and  C27_30 
REMARK    8  A    between atoms: C27_30  and  C28_31 
REMARK    9  A    between atoms: C28_31  and  C29_32 
REMARK   10  A    between atoms: C29_32  and  O4_33 
ROOT
HETATM    1  C3  UNL     1      -1.443  52.273 -26.747  1.00  0.00     0.151 A 
HETATM    2  O2  UNL     1      -2.654  53.035 -26.558  1.00  0.00    -0.360 OA
HETATM    3  C4  UNL     1      -2.781  51.809 -27.269  1.00  0.00     0.166 A 
HETATM    4  C5  UNL     1      -3.412  50.652 -26.590  1.00  0.00     0.041 C 
HETATM    5  C6  UNL     1      -3.390  50.704 -25.044  1.00  0.00     0.006 C 
HETATM    6  C7  UNL     1      -2.050  51.297 -24.394  1.00  0.00    -0.030 C 
HETATM    7  C8  UNL     1      -2.353  52.651 -23.678  1.00  0.00     0.016 C 
HETATM    8  C9  UNL     1      -1.480  50.348 -23.281  1.00  0.00     0.042 C 
HETATM    9  C10 UNL     1      -2.465  49.644 -22.316  1.00  0.00     0.128 C 
HETATM   10  C11 UNL     1      -3.892  49.408 -22.866  1.00  0.00    -0.006 C 
HETATM   11  C12 UNL     1      -4.818  50.563 -22.355  1.00  0.00     0.019 C 
HETATM   12  C13 UNL     1      -4.617  48.056 -22.507  1.00  0.00     0.001 C 
HETATM   13  C22 UNL     1      -5.657  47.912 -23.660  1.00  0.00     0.007 C 
HETATM   14  C23 UNL     1      -5.267  48.903 -24.768  1.00  0.00     0.011 C 
HETATM   15  C24 UNL     1      -3.822  49.323 -24.436  1.00  0.00    -0.029 C 
HETATM   16  C25 UNL     1      -2.903  48.178 -24.982  1.00  0.00     0.016 C 
HETATM   17  C26 UNL     1      -0.921  51.525 -25.512  1.00  0.00     0.039 C 
ENDROOT
BRANCH  12  18
HETATM   18  C14 UNL     1      -5.274  47.872 -21.100  1.00  0.00    -0.013 C 
HETATM   19  C15 UNL     1      -4.534  46.839 -20.242  1.00  0.00     0.010 C 
BRANCH  18  20
HETATM   20  C16 UNL     1      -6.766  47.463 -21.253  1.00  0.00     0.008 C 
BRANCH  20  21
HETATM   21  C17 UNL     1      -7.757  48.600 -20.972  1.00  0.00     0.028 C 
BRANCH  21  22
HETATM   22  C18 UNL     1      -9.014  48.076 -20.330  1.00  0.00    -0.025 C 
HETATM   23  C19 UNL     1      -9.442  48.277 -19.069  1.00  0.00    -0.091 C 
HETATM   24  C20 UNL     1      -8.700  49.051 -18.014  1.00  0.00     0.042 C 
HETATM   25  C21 UNL     1     -10.751  47.694 -18.602  1.00  0.00     0.042 C 
ENDBRANCH  21  22
ENDBRANCH  20  21
ENDBRANCH  18  20
ENDBRANCH  12  18
BRANCH   9  26
HETATM   26  O3  UNL     1      -1.858  48.404 -21.944  1.00  0.00    -0.395 OA
HETATM   27  H14 UNL     1      -1.024  48.609 -21.486  1.00  0.00     0.210 HD
ENDBRANCH   9  26
BRANCH  17  28
HETATM   28  C27 UNL     1       0.375  52.185 -24.952  1.00  0.00     0.011 C 
BRANCH  28  29
HETATM   29  C28 UNL     1       1.558  52.342 -25.917  1.00  0.00     0.027 C 
BRANCH  29  30
HETATM   30  C29 UNL     1       2.372  51.074 -26.133  1.00  0.00     0.164 C 
BRANCH  30  31
HETATM   31  O4  UNL     1       3.327  51.316 -27.159  1.00  0.00    -0.401 OA
HETATM   32  H48 UNL     1       3.746  50.464 -27.367  1.00  0.00     0.209 HD
ENDBRANCH  30  31
ENDBRANCH  29  30
ENDBRANCH  28  29
ENDBRANCH  17  28
BRANCH   1  33
HETATM   33  C2  UNL     1      -0.525  52.797 -27.799  1.00  0.00     0.160 C 
HETATM   34  C1  UNL     1      -0.411  54.288 -27.918  1.00  0.00     0.094 C 
HETATM   35  O1  UNL     1       0.060  52.015 -28.541  1.00  0.00    -0.295 OA
ENDBRANCH   1  33
TORSDOF 10
ENDMDL
MODEL 6
REMARK minimizedAffinity -8.31837463
REMARK  10 active torsions:
REMARK  status: ('A' for Active; 'I' for Inactive)
REMARK    1  A    between atoms: C2_2  and  C3_4 
REMARK    2  A    between atoms: C10_12  and  O3_13 
REMARK    3  A    between atoms: C13_16  and  C14_17 
REMARK    4  A    between atoms: C14_17  and  C16_19 
REMARK    5  A    between atoms: C16_19  and  C17_20 
REMARK    6  A    between atoms: C17_20  and  C18_21 
REMARK    7  A    between atoms: C26_29  and  C27_30 
REMARK    8  A    between atoms: C27_30  and  C28_31 
REMARK    9  A    between atoms: C28_31  and  C29_32 
REMARK   10  A    between atoms: C29_32  and  O4_33 
ROOT
HETATM    1  C3  UNL     1      -1.439  52.299 -26.747  1.00  0.00     0.151 A 
HETATM    2  O2  UNL     1      -2.649  53.058 -26.542  1.00  0.00    -0.360 OA
HETATM    3  C4  UNL     1      -2.784  51.828 -27.244  1.00  0.00     0.166 A 
HETATM    4  C5  UNL     1      -3.400  50.673 -26.549  1.00  0.00     0.041 C 
HETATM    5  C6  UNL     1      -3.352  50.733 -25.004  1.00  0.00     0.006 C 
HETATM    6  C7  UNL     1      -2.003  51.333 -24.380  1.00  0.00    -0.030 C 
HETATM    7  C8  UNL     1      -2.299  52.690 -23.665  1.00  0.00     0.016 C 
HETATM    8  C9  UNL     1      -1.412  50.391 -23.272  1.00  0.00     0.042 C 
HETATM    9  C10 UNL     1      -2.378  49.689 -22.287  1.00  0.00     0.128 C 
HETATM   10  C11 UNL     1      -3.814  49.446 -22.811  1.00  0.00    -0.006 C 
HETATM   11  C12 UNL     1      -4.734  50.600 -22.291  1.00  0.00     0.019 C 
HETATM   12  C13 UNL     1      -4.528  48.094 -22.433  1.00  0.00     0.001 C 
HETATM   13  C22 UNL     1      -5.587  47.941 -23.568  1.00  0.00     0.007 C 
HETATM   14  C23 UNL     1      -5.218  48.928 -24.688  1.00  0.00     0.011 C 
HETATM   15  C24 UNL     1      -3.770  49.353 -24.382  1.00  0.00    -0.029 C 
HETATM   16  C25 UNL     1      -2.856  48.209 -24.938  1.00  0.00     0.016 C 
HETATM   17  C26 UNL     1      -0.894  51.559 -25.517  1.00  0.00     0.039 C 
ENDROOT
BRANCH  12  18
HETATM   18  C14 UNL     1      -5.161  47.915 -21.015  1.00  0.00    -0.013 C 
HETATM   19  C15 UNL     1      -5.853  49.191 -20.520  1.00  0.00     0.010 C 
BRANCH  18  20
HETATM   20  C16 UNL     1      -4.074  47.472 -19.994  1.00  0.00     0.008 C 
BRANCH  20  21
HETATM   21  C17 UNL     1      -3.966  48.382 -18.764  1.00  0.00     0.028 C 
BRANCH  21  22
HETATM   22  C18 UNL     1      -2.559  48.885 -18.585  1.00  0.00    -0.025 C 
HETATM   23  C19 UNL     1      -2.117  50.154 -18.685  1.00  0.00    -0.091 C 
HETATM   24  C20 UNL     1      -2.964  51.341 -19.051  1.00  0.00     0.042 C 
HETATM   25  C21 UNL     1      -0.666  50.481 -18.444  1.00  0.00     0.042 C 
ENDBRANCH  21  22
ENDBRANCH  20  21
ENDBRANCH  18  20
ENDBRANCH  12  18
BRANCH   9  26
HETATM   26  O3  UNL     1      -1.761  48.453 -21.919  1.00  0.00    -0.395 OA
HETATM   27  H14 UNL     1      -0.920  48.663 -21.476  1.00  0.00     0.210 HD
ENDBRANCH   9  26
BRANCH  17  28
HETATM   28  C27 UNL     1       0.409  52.226 -24.983  1.00  0.00     0.011 C 
BRANCH  28  29
HETATM   29  C28 UNL     1       1.577  52.375 -25.966  1.00  0.00     0.027 C 
BRANCH  29  30
HETATM   30  C29 UNL     1       2.376  51.100 -26.200  1.00  0.00     0.164 C 
BRANCH  30  31
HETATM   31  O4  UNL     1       3.288  51.324 -27.267  1.00  0.00    -0.401 OA
HETATM   32  H48 UNL     1       3.694  50.467 -27.482  1.00  0.00     0.209 HD
ENDBRANCH  30  31
ENDBRANCH  29  30
ENDBRANCH  28  29
ENDBRANCH  17  28
BRANCH   1  33
HETATM   33  C2  UNL     1      -0.541  52.820 -27.818  1.00  0.00     0.160 C 
HETATM   34  C1  UNL     1      -0.451  54.311 -27.960  1.00  0.00     0.094 C 
HETATM   35  O1  UNL     1       0.048  52.036 -28.554  1.00  0.00    -0.295 OA
ENDBRANCH   1  33
TORSDOF 10
ENDMDL
MODEL 7
REMARK minimizedAffinity -8.29136276
REMARK  10 active torsions:
REMARK  status: ('A' for Active; 'I' for Inactive)
REMARK    1  A    between atoms: C2_2  and  C3_4 
REMARK    2  A    between atoms: C10_12  and  O3_13 
REMARK    3  A    between atoms: C13_16  and  C14_17 
REMARK    4  A    between atoms: C14_17  and  C16_19 
REMARK    5  A    between atoms: C16_19  and  C17_20 
REMARK    6  A    between atoms: C17_20  and  C18_21 
REMARK    7  A    between atoms: C26_29  and  C27_30 
REMARK    8  A    between atoms: C27_30  and  C28_31 
REMARK    9  A    between atoms: C28_31  and  C29_32 
REMARK   10  A    between atoms: C29_32  and  O4_33 
ROOT
HETATM    1  C3  UNL     1      -0.663  51.973 -19.707  1.00  0.00     0.151 A 
HETATM    2  O2  UNL     1      -0.873  50.829 -18.852  1.00  0.00    -0.360 OA
HETATM    3  C4  UNL     1      -1.871  51.842 -18.812  1.00  0.00     0.166 A 
HETATM    4  C5  UNL     1      -3.177  51.583 -19.466  1.00  0.00     0.041 C 
HETATM    5  C6  UNL     1      -3.159  50.493 -20.563  1.00  0.00     0.006 C 
HETATM    6  C7  UNL     1      -1.853  50.475 -21.494  1.00  0.00    -0.030 C 
HETATM    7  C8  UNL     1      -1.037  49.166 -21.248  1.00  0.00     0.016 C 
HETATM    8  C9  UNL     1      -2.232  50.457 -23.017  1.00  0.00     0.042 C 
HETATM    9  C10 UNL     1      -3.429  49.594 -23.485  1.00  0.00     0.128 C 
HETATM   10  C11 UNL     1      -4.521  49.325 -22.422  1.00  0.00    -0.006 C 
HETATM   11  C12 UNL     1      -4.255  47.923 -21.780  1.00  0.00     0.019 C 
HETATM   12  C13 UNL     1      -6.028  49.333 -22.881  1.00  0.00     0.001 C 
HETATM   13  C22 UNL     1      -6.785  49.649 -21.554  1.00  0.00     0.007 C 
HETATM   14  C23 UNL     1      -5.752  50.156 -20.536  1.00  0.00     0.011 C 
HETATM   15  C24 UNL     1      -4.504  50.498 -21.372  1.00  0.00    -0.029 C 
HETATM   16  C25 UNL     1      -4.766  51.917 -21.981  1.00  0.00     0.016 C 
HETATM   17  C26 UNL     1      -0.922  51.749 -21.203  1.00  0.00     0.039 C 
ENDROOT
BRANCH  12  18
HETATM   18  C14 UNL     1      -6.627  48.089 -23.615  1.00  0.00    -0.013 C 
HETATM   19  C15 UNL     1      -6.290  46.774 -22.902  1.00  0.00     0.010 C 
BRANCH  18  20
HETATM   20  C16 UNL     1      -6.123  48.039 -25.085  1.00  0.00     0.008 C 
BRANCH  20  21
HETATM   21  C17 UNL     1      -7.133  47.436 -26.070  1.00  0.00     0.028 C 
BRANCH  21  22
HETATM   22  C18 UNL     1      -6.660  47.589 -27.491  1.00  0.00    -0.025 C 
HETATM   23  C19 UNL     1      -5.427  47.922 -27.919  1.00  0.00    -0.091 C 
HETATM   24  C20 UNL     1      -4.262  48.259 -27.030  1.00  0.00     0.042 C 
HETATM   25  C21 UNL     1      -5.124  48.003 -29.393  1.00  0.00     0.042 C 
ENDBRANCH  21  22
ENDBRANCH  20  21
ENDBRANCH  18  20
ENDBRANCH  12  18
BRANCH   9  26
HETATM   26  O3  UNL     1      -3.987  50.251 -24.625  1.00  0.00    -0.395 OA
HETATM   27  H14 UNL     1      -3.301  50.280 -25.315  1.00  0.00     0.210 HD
ENDBRANCH   9  26
BRANCH  17  28
HETATM   28  C27 UNL     1       0.407  51.737 -22.016  1.00  0.00     0.011 C 
BRANCH  28  29
HETATM   29  C28 UNL     1       0.648  52.899 -22.988  1.00  0.00     0.027 C 
BRANCH  29  30
HETATM   30  C29 UNL     1       0.658  52.504 -24.459  1.00  0.00     0.164 C 
BRANCH  30  31
HETATM   31  O4  UNL     1       0.859  53.674 -25.242  1.00  0.00    -0.401 OA
HETATM   32  H48 UNL     1       0.735  53.421 -26.172  1.00  0.00     0.209 HD
ENDBRANCH  30  31
ENDBRANCH  29  30
ENDBRANCH  28  29
ENDBRANCH  17  28
BRANCH   1  33
HETATM   33  C2  UNL     1       0.356  52.947 -19.219  1.00  0.00     0.160 C 
HETATM   34  C1  UNL     1       1.254  52.489 -18.107  1.00  0.00     0.094 C 
HETATM   35  O1  UNL     1       0.399  54.075 -19.699  1.00  0.00    -0.295 OA
ENDBRANCH   1  33
TORSDOF 10
ENDMDL
MODEL 8
REMARK minimizedAffinity -8.2504673
REMARK  10 active torsions:
REMARK  status: ('A' for Active; 'I' for Inactive)
REMARK    1  A    between atoms: C2_2  and  C3_4 
REMARK    2  A    between atoms: C10_12  and  O3_13 
REMARK    3  A    between atoms: C13_16  and  C14_17 
REMARK    4  A    between atoms: C14_17  and  C16_19 
REMARK    5  A    between atoms: C16_19  and  C17_20 
REMARK    6  A    between atoms: C17_20  and  C18_21 
REMARK    7  A    between atoms: C26_29  and  C27_30 
REMARK    8  A    between atoms: C27_30  and  C28_31 
REMARK    9  A    between atoms: C28_31  and  C29_32 
REMARK   10  A    between atoms: C29_32  and  O4_33 
ROOT
HETATM    1  C3  UNL     1      -0.306  51.612 -25.707  1.00  0.00     0.151 A 
HETATM    2  O2  UNL     1      -1.449  51.984 -26.507  1.00  0.00    -0.360 OA
HETATM    3  C4  UNL     1      -1.146  50.595 -26.441  1.00  0.00     0.166 A 
HETATM    4  C5  UNL     1      -2.015  49.714 -25.624  1.00  0.00     0.041 C 
HETATM    5  C6  UNL     1      -2.823  50.429 -24.516  1.00  0.00     0.006 C 
HETATM    6  C7  UNL     1      -2.052  51.612 -23.756  1.00  0.00    -0.030 C 
HETATM    7  C8  UNL     1      -2.724  52.985 -24.076  1.00  0.00     0.016 C 
HETATM    8  C9  UNL     1      -2.141  51.450 -22.197  1.00  0.00     0.042 C 
HETATM    9  C10 UNL     1      -3.472  50.973 -21.566  1.00  0.00     0.128 C 
HETATM   10  C11 UNL     1      -4.379  50.113 -22.478  1.00  0.00    -0.006 C 
HETATM   11  C12 UNL     1      -5.462  51.042 -23.121  1.00  0.00     0.019 C 
HETATM   12  C13 UNL     1      -5.151  48.899 -21.834  1.00  0.00     0.001 C 
HETATM   13  C22 UNL     1      -5.410  47.972 -23.061  1.00  0.00     0.007 C 
HETATM   14  C23 UNL     1      -4.512  48.457 -24.211  1.00  0.00     0.011 C 
HETATM   15  C24 UNL     1      -3.479  49.385 -23.545  1.00  0.00    -0.029 C 
HETATM   16  C25 UNL     1      -2.383  48.447 -22.937  1.00  0.00     0.016 C 
HETATM   17  C26 UNL     1      -0.506  51.660 -24.186  1.00  0.00     0.039 C 
ENDROOT
BRANCH  12  18
HETATM   18  C14 UNL     1      -6.453  49.153 -21.007  1.00  0.00    -0.013 C 
HETATM   19  C15 UNL     1      -6.292  48.760 -19.533  1.00  0.00     0.010 C 
BRANCH  18  20
HETATM   20  C16 UNL     1      -7.647  48.380 -21.634  1.00  0.00     0.008 C 
BRANCH  20  21
HETATM   21  C17 UNL     1      -8.187  47.244 -20.755  1.00  0.00     0.028 C 
BRANCH  21  22
HETATM   22  C18 UNL     1      -9.667  47.393 -20.527  1.00  0.00    -0.025 C 
HETATM   23  C19 UNL     1     -10.286  48.003 -19.498  1.00  0.00    -0.091 C 
HETATM   24  C20 UNL     1      -9.595  48.630 -18.318  1.00  0.00     0.042 C 
HETATM   25  C21 UNL     1     -11.790  48.082 -19.447  1.00  0.00     0.042 C 
ENDBRANCH  21  22
ENDBRANCH  20  21
ENDBRANCH  18  20
ENDBRANCH  12  18
BRANCH   9  26
HETATM   26  O3  UNL     1      -3.128  50.255 -20.378  1.00  0.00    -0.395 OA
HETATM   27  H14 UNL     1      -2.673  50.874 -19.781  1.00  0.00     0.210 HD
ENDBRANCH   9  26
BRANCH  17  28
HETATM   28  C27 UNL     1       0.274  52.847 -23.547  1.00  0.00     0.011 C 
BRANCH  28  29
HETATM   29  C28 UNL     1       1.011  52.576 -22.228  1.00  0.00     0.027 C 
BRANCH  29  30
HETATM   30  C29 UNL     1       1.206  53.803 -21.347  1.00  0.00     0.164 C 
BRANCH  30  31
HETATM   31  O4  UNL     1       1.802  54.832 -22.126  1.00  0.00    -0.401 OA
HETATM   32  H48 UNL     1       2.033  55.554 -21.518  1.00  0.00     0.209 HD
ENDBRANCH  30  31
ENDBRANCH  29  30
ENDBRANCH  28  29
ENDBRANCH  17  28
BRANCH   1  33
HETATM   33  C2  UNL     1       1.019  51.878 -26.339  1.00  0.00     0.160 C 
HETATM   34  C1  UNL     1       1.045  51.996 -27.834  1.00  0.00     0.094 C 
HETATM   35  O1  UNL     1       2.024  51.948 -25.639  1.00  0.00    -0.295 OA
ENDBRANCH   1  33
TORSDOF 10
ENDMDL
MODEL 9
REMARK minimizedAffinity -8.05704403
REMARK  10 active torsions:
REMARK  status: ('A' for Active; 'I' for Inactive)
REMARK    1  A    between atoms: C2_2  and  C3_4 
REMARK    2  A    between atoms: C10_12  and  O3_13 
REMARK    3  A    between atoms: C13_16  and  C14_17 
REMARK    4  A    between atoms: C14_17  and  C16_19 
REMARK    5  A    between atoms: C16_19  and  C17_20 
REMARK    6  A    between atoms: C17_20  and  C18_21 
REMARK    7  A    between atoms: C26_29  and  C27_30 
REMARK    8  A    between atoms: C27_30  and  C28_31 
REMARK    9  A    between atoms: C28_31  and  C29_32 
REMARK   10  A    between atoms: C29_32  and  O4_33 
ROOT
HETATM    1  C3  UNL     1      -0.999  52.184 -25.111  1.00  0.00     0.151 A 
HETATM    2  O2  UNL     1      -0.279  51.033 -24.621  1.00  0.00    -0.360 OA
HETATM    3  C4  UNL     1      -0.526  52.073 -23.682  1.00  0.00     0.166 A 
HETATM    4  C5  UNL     1      -1.559  51.862 -22.638  1.00  0.00     0.041 C 
HETATM    5  C6  UNL     1      -2.623  50.790 -22.972  1.00  0.00     0.006 C 
HETATM    6  C7  UNL     1      -3.103  50.750 -24.501  1.00  0.00    -0.030 C 
HETATM    7  C8  UNL     1      -2.648  49.415 -25.172  1.00  0.00     0.016 C 
HETATM    8  C9  UNL     1      -4.669  50.769 -24.614  1.00  0.00     0.042 C 
HETATM    9  C10 UNL     1      -5.505  49.947 -23.603  1.00  0.00     0.128 C 
HETATM   10  C11 UNL     1      -4.841  49.692 -22.230  1.00  0.00    -0.006 C 
HETATM   11  C12 UNL     1      -4.182  48.272 -22.252  1.00  0.00     0.019 C 
HETATM   12  C13 UNL     1      -5.744  49.750 -20.940  1.00  0.00     0.001 C 
HETATM   13  C22 UNL     1      -4.710  50.065 -19.815  1.00  0.00     0.007 C 
HETATM   14  C23 UNL     1      -3.409  50.527 -20.492  1.00  0.00     0.011 C 
HETATM   15  C24 UNL     1      -3.808  50.846 -21.945  1.00  0.00    -0.029 C 
HETATM   16  C25 UNL     1      -4.433  52.282 -21.916  1.00  0.00     0.016 C 
HETATM   17  C26 UNL     1      -2.507  51.992 -25.324  1.00  0.00     0.039 C 
ENDROOT
BRANCH  12  18
HETATM   18  C14 UNL     1      -6.657  48.536 -20.572  1.00  0.00    -0.013 C 
HETATM   19  C15 UNL     1      -7.963  48.525 -21.374  1.00  0.00     0.010 C 
BRANCH  18  20
HETATM   20  C16 UNL     1      -6.971  48.542 -19.049  1.00  0.00     0.008 C 
BRANCH  20  21
HETATM   21  C17 UNL     1      -8.243  49.314 -18.677  1.00  0.00     0.028 C 
BRANCH  21  22
HETATM   22  C18 UNL     1      -9.112  48.509 -17.748  1.00  0.00    -0.025 C 
HETATM   23  C19 UNL     1     -10.301  47.935 -18.020  1.00  0.00    -0.091 C 
HETATM   24  C20 UNL     1     -11.031  48.032 -19.332  1.00  0.00     0.042 C 
HETATM   25  C21 UNL     1     -11.024  47.135 -16.968  1.00  0.00     0.042 C 
ENDBRANCH  21  22
ENDBRANCH  20  21
ENDBRANCH  18  20
ENDBRANCH  12  18
BRANCH   9  26
HETATM   26  O3  UNL     1      -6.746  50.639 -23.441  1.00  0.00    -0.395 OA
HETATM   27  H14 UNL     1      -7.188  50.660 -24.308  1.00  0.00     0.210 HD
ENDBRANCH   9  26
BRANCH  17  28
HETATM   28  C27 UNL     1      -2.867  51.956 -26.839  1.00  0.00     0.011 C 
BRANCH  28  29
HETATM   29  C28 UNL     1      -2.436  50.717 -27.635  1.00  0.00     0.027 C 
BRANCH  29  30
HETATM   30  C29 UNL     1      -3.586  49.902 -28.212  1.00  0.00     0.164 C 
BRANCH  30  31
HETATM   31  O4  UNL     1      -3.807  50.316 -29.554  1.00  0.00    -0.401 OA
HETATM   32  H48 UNL     1      -4.620  49.878 -29.859  1.00  0.00     0.209 HD
ENDBRANCH  30  31
ENDBRANCH  29  30
ENDBRANCH  28  29
ENDBRANCH  17  28
BRANCH   1  33
HETATM   33  C2  UNL     1      -0.196  53.122 -25.948  1.00  0.00     0.160 C 
HETATM   34  C1  UNL     1       0.813  52.508 -26.874  1.00  0.00     0.094 C 
HETATM   35  O1  UNL     1      -0.351  54.332 -25.827  1.00  0.00    -0.295 OA
ENDBRANCH   1  33
TORSDOF 10
ENDMDL
