MODEL 1
REMARK minimizedAffinity -6.77959871
REMARK CNNscore 0.435370803
REMARK CNNaffinity 6.46182013
REMARK  10 active torsions:
REMARK  status: ('A' for Active; 'I' for Inactive)
REMARK    1  A    between atoms: C3_3  and  O1_4 
REMARK    2  A    between atoms: N1_14  and  O2_16 
REMARK    3  A    between atoms: O2_16  and  C13_17 
REMARK    4  A    between atoms: C13_17  and  C14_18 
REMARK       I    between atoms: C14_18  and  N2_20 
REMARK    5  A    between atoms: N2_20  and  C15_21 
REMARK    6  A    between atoms: C15_21  and  C16_22 
REMARK       I    between atoms: C16_22  and  N3_24 
REMARK    7  A    between atoms: N3_24  and  C17_25 
REMARK    8  A    between atoms: C17_25  and  C18_26 
REMARK    9  A    between atoms: C17_25  and  C19_29 
REMARK   10  A    between atoms: C18_26  and  O6_28 
ROOT
HETATM    1  C1  UNL     1      -4.067  15.330  23.151  1.00  0.00     0.015 C 
HETATM    2  C2  UNL     1      -5.261  15.340  23.009  1.00  0.00    -0.078 C 
HETATM    3  C3  UNL     1      -6.733  15.358  22.899  1.00  0.00     0.128 C 
HETATM    4  C4  UNL     1      -7.311  14.011  23.344  1.00  0.00     0.052 C 
HETATM    5  C5  UNL     1      -7.172  13.135  22.109  1.00  0.00     0.010 C 
HETATM    6  C6  UNL     1      -7.483  14.059  20.911  1.00  0.00     0.002 C 
HETATM    7  C7  UNL     1      -6.648  13.686  19.669  1.00  0.00    -0.004 C 
HETATM    8  C8  UNL     1      -7.351  14.081  18.349  1.00  0.00     0.010 C 
HETATM    9  C9  UNL     1      -6.399  14.204  17.153  1.00  0.00     0.035 C 
HETATM   10  C10 UNL     1      -5.166  13.357  17.334  1.00  0.00    -0.069 C 
HETATM   11  C11 UNL     1      -4.885  12.360  16.478  1.00  0.00     0.030 C 
HETATM   12  C12 UNL     1      -3.709  11.473  16.675  1.00  0.00     0.032 C 
HETATM   13  N1  UNL     1      -3.365  10.693  15.689  1.00  0.00    -0.271 N 
ATOM     14  H1  UNL     1      -3.875  10.623  14.809  1.00  0.00     0.194 HD
HETATM   15  C22 UNL     1      -2.957  11.540  17.993  1.00  0.00     0.060 C 
HETATM   16  C23 UNL     1      -3.725  12.304  19.069  1.00  0.00     0.020 C 
HETATM   17  C24 UNL     1      -4.320  13.655  18.573  1.00  0.00    -0.016 C 
HETATM   18  C25 UNL     1      -3.156  14.599  18.192  1.00  0.00     0.020 C 
HETATM   19  C26 UNL     1      -5.216  14.254  19.734  1.00  0.00     0.002 C 
HETATM   20  C27 UNL     1      -5.238  15.795  19.824  1.00  0.00     0.007 C 
HETATM   21  C28 UNL     1      -6.456  16.418  20.516  1.00  0.00     0.014 C 
HETATM   22  C29 UNL     1      -7.299  15.518  21.443  1.00  0.00     0.003 C 
HETATM   23  C30 UNL     1      -8.710  16.177  21.508  1.00  0.00     0.020 C 
ENDROOT
BRANCH   3  24
HETATM   24  O1  UNL     1      -7.211  16.383  23.762  1.00  0.00    -0.377 OA
HETATM   25  H2  UNL     1      -6.754  16.273  24.613  1.00  0.00     0.211 HD
ENDBRANCH   3  24
BRANCH  13  26
HETATM   26  O2  UNL     1      -2.206   9.959  15.990  1.00  0.00    -0.271 OA
BRANCH  26  27
HETATM   27  C13 UNL     1      -2.589   8.740  16.617  1.00  0.00     0.303 C 
BRANCH  27  28
HETATM   28  C14 UNL     1      -2.785   7.634  15.585  1.00  0.00     0.244 C 
HETATM   29  O3  UNL     1      -3.760   7.594  14.837  1.00  0.00    -0.271 OA
HETATM   30  N2  UNL     1      -1.749   6.727  15.509  1.00  0.00    -0.350 N 
HETATM   31  H16 UNL     1      -1.183   6.636  16.348  1.00  0.00     0.163 HD
BRANCH  30  32
HETATM   32  C15 UNL     1      -1.843   5.568  14.644  1.00  0.00     0.225 C 
BRANCH  32  33
HETATM   33  C16 UNL     1      -1.053   5.792  13.350  1.00  0.00     0.236 C 
HETATM   34  O4  UNL     1      -1.553   6.306  12.352  1.00  0.00    -0.272 OA
HETATM   35  N3  UNL     1       0.236   5.306  13.391  1.00  0.00    -0.345 N 
HETATM   36  H19 UNL     1       0.663   5.205  14.308  1.00  0.00     0.163 HD
BRANCH  35  37
HETATM   37  C17 UNL     1       1.193   5.546  12.304  1.00  0.00     0.185 C 
BRANCH  37  38
HETATM   38  C18 UNL     1       1.034   4.465  11.223  1.00  0.00     0.163 C 
HETATM   39  O5  UNL     1       0.006   3.876  10.926  1.00  0.00    -0.648 OA
BRANCH  38  40
HETATM   40  O6  UNL     1       2.197   4.154  10.601  1.00  0.00    -0.775 OA
HETATM   41  H21 UNL     1       1.939   3.469   9.944  1.00  0.00     0.167 HD
ENDBRANCH  38  40
ENDBRANCH  37  38
BRANCH  37  42
HETATM   42  C19 UNL     1       1.036   6.952  11.680  1.00  0.00     0.010 C 
HETATM   43  C20 UNL     1       1.580   8.069  12.576  1.00  0.00     0.012 C 
HETATM   44  C21 UNL     1       1.686   7.029  10.296  1.00  0.00     0.012 C 
ENDBRANCH  37  42
ENDBRANCH  35  37
ENDBRANCH  32  33
ENDBRANCH  30  32
ENDBRANCH  27  28
ENDBRANCH  26  27
ENDBRANCH  13  26
TORSDOF 10
ENDMDL
MODEL 2
REMARK minimizedAffinity -8.71584606
REMARK CNNscore 0.399721503
REMARK CNNaffinity 6.6923604
REMARK  10 active torsions:
REMARK  status: ('A' for Active; 'I' for Inactive)
REMARK    1  A    between atoms: C3_3  and  O1_4 
REMARK    2  A    between atoms: N1_14  and  O2_16 
REMARK    3  A    between atoms: O2_16  and  C13_17 
REMARK    4  A    between atoms: C13_17  and  C14_18 
REMARK       I    between atoms: C14_18  and  N2_20 
REMARK    5  A    between atoms: N2_20  and  C15_21 
REMARK    6  A    between atoms: C15_21  and  C16_22 
REMARK       I    between atoms: C16_22  and  N3_24 
REMARK    7  A    between atoms: N3_24  and  C17_25 
REMARK    8  A    between atoms: C17_25  and  C18_26 
REMARK    9  A    between atoms: C17_25  and  C19_29 
REMARK   10  A    between atoms: C18_26  and  O6_28 
ROOT
HETATM    1  C1  UNL     1      -0.063   7.753   9.167  1.00  0.00     0.015 C 
HETATM    2  C2  UNL     1       0.818   7.471   9.934  1.00  0.00    -0.078 C 
HETATM    3  C3  UNL     1       1.939   7.109  10.825  1.00  0.00     0.128 C 
HETATM    4  C4  UNL     1       2.090   5.586  10.890  1.00  0.00     0.052 C 
HETATM    5  C5  UNL     1       1.057   5.167  11.924  1.00  0.00     0.010 C 
HETATM    6  C6  UNL     1       1.090   6.265  13.008  1.00  0.00     0.002 C 
HETATM    7  C7  UNL     1      -0.305   6.503  13.624  1.00  0.00    -0.004 C 
HETATM    8  C8  UNL     1      -0.223   7.041  15.071  1.00  0.00     0.010 C 
HETATM    9  C9  UNL     1      -1.497   7.754  15.541  1.00  0.00     0.035 C 
HETATM   10  C10 UNL     1      -2.713   7.268  14.795  1.00  0.00    -0.069 C 
HETATM   11  C11 UNL     1      -3.725   6.670  15.447  1.00  0.00     0.030 C 
HETATM   12  C12 UNL     1      -4.903   6.127  14.722  1.00  0.00     0.032 C 
HETATM   13  N1  UNL     1      -5.944   5.782  15.428  1.00  0.00    -0.271 N 
ATOM     14  H1  UNL     1      -5.985   5.824  16.447  1.00  0.00     0.194 HD
HETATM   15  C22 UNL     1      -4.847   6.027  13.208  1.00  0.00     0.060 C 
HETATM   16  C23 UNL     1      -3.435   6.214  12.660  1.00  0.00     0.020 C 
HETATM   17  C24 UNL     1      -2.679   7.429  13.275  1.00  0.00    -0.016 C 
HETATM   18  C25 UNL     1      -3.419   8.726  12.874  1.00  0.00     0.020 C 
HETATM   19  C26 UNL     1      -1.189   7.405  12.739  1.00  0.00     0.002 C 
HETATM   20  C27 UNL     1      -0.536   8.789  12.537  1.00  0.00     0.007 C 
HETATM   21  C28 UNL     1       0.996   8.829  12.567  1.00  0.00     0.014 C 
HETATM   22  C29 UNL     1       1.757   7.507  12.333  1.00  0.00     0.003 C 
HETATM   23  C30 UNL     1       3.158   7.702  12.987  1.00  0.00     0.020 C 
ENDROOT
BRANCH   3  24
HETATM   24  O1  UNL     1       3.121   7.675  10.272  1.00  0.00    -0.377 OA
HETATM   25  H2  UNL     1       3.121   7.462   9.324  1.00  0.00     0.211 HD
ENDBRANCH   3  24
BRANCH  13  26
HETATM   26  O2  UNL     1      -7.000   5.346  14.613  1.00  0.00    -0.271 OA
BRANCH  26  27
HETATM   27  C13 UNL     1      -8.100   6.235  14.779  1.00  0.00     0.303 C 
BRANCH  27  28
HETATM   28  C14 UNL     1      -8.930   6.320  13.502  1.00  0.00     0.244 C 
HETATM   29  O3  UNL     1      -8.543   5.858  12.431  1.00  0.00    -0.271 OA
HETATM   30  N2  UNL     1     -10.176   6.888  13.662  1.00  0.00    -0.350 N 
HETATM   31  H16 UNL     1     -10.272   7.520  14.453  1.00  0.00     0.163 HD
BRANCH  30  32
HETATM   32  C15 UNL     1     -11.033   7.125  12.517  1.00  0.00     0.225 C 
BRANCH  32  33
HETATM   33  C16 UNL     1     -12.260   7.950  12.921  1.00  0.00     0.236 C 
HETATM   34  O4  UNL     1     -12.170   9.094  13.364  1.00  0.00    -0.272 OA
HETATM   35  N3  UNL     1     -13.453   7.270  12.808  1.00  0.00    -0.345 N 
HETATM   36  H19 UNL     1     -13.481   6.492  12.153  1.00  0.00     0.163 HD
BRANCH  35  37
HETATM   37  C17 UNL     1     -14.747   7.930  13.014  1.00  0.00     0.185 C 
BRANCH  37  38
HETATM   38  C18 UNL     1     -15.718   7.534  11.891  1.00  0.00     0.163 C 
HETATM   39  O5  UNL     1     -16.167   6.419  11.675  1.00  0.00    -0.648 OA
BRANCH  38  40
HETATM   40  O6  UNL     1     -16.039   8.564  11.071  1.00  0.00    -0.775 OA
HETATM   41  H21 UNL     1     -16.662   8.165  10.422  1.00  0.00     0.167 HD
ENDBRANCH  38  40
ENDBRANCH  37  38
BRANCH  37  42
HETATM   42  C19 UNL     1     -15.364   7.603  14.393  1.00  0.00     0.010 C 
HETATM   43  C20 UNL     1     -16.860   7.926  14.472  1.00  0.00     0.012 C 
HETATM   44  C21 UNL     1     -15.123   6.143  14.786  1.00  0.00     0.012 C 
ENDBRANCH  37  42
ENDBRANCH  35  37
ENDBRANCH  32  33
ENDBRANCH  30  32
ENDBRANCH  27  28
ENDBRANCH  26  27
ENDBRANCH  13  26
TORSDOF 10
ENDMDL
MODEL 3
REMARK minimizedAffinity -6.98552465
REMARK CNNscore 0.361297339
REMARK CNNaffinity 6.22618437
REMARK  10 active torsions:
REMARK  status: ('A' for Active; 'I' for Inactive)
REMARK    1  A    between atoms: C3_3  and  O1_4 
REMARK    2  A    between atoms: N1_14  and  O2_16 
REMARK    3  A    between atoms: O2_16  and  C13_17 
REMARK    4  A    between atoms: C13_17  and  C14_18 
REMARK       I    between atoms: C14_18  and  N2_20 
REMARK    5  A    between atoms: N2_20  and  C15_21 
REMARK    6  A    between atoms: C15_21  and  C16_22 
REMARK       I    between atoms: C16_22  and  N3_24 
REMARK    7  A    between atoms: N3_24  and  C17_25 
REMARK    8  A    between atoms: C17_25  and  C18_26 
REMARK    9  A    between atoms: C17_25  and  C19_29 
REMARK   10  A    between atoms: C18_26  and  O6_28 
ROOT
HETATM    1  C1  UNL     1     -13.410   4.681  28.650  1.00  0.00     0.015 C 
HETATM    2  C2  UNL     1     -13.571   3.594  28.163  1.00  0.00    -0.078 C 
HETATM    3  C3  UNL     1     -13.742   2.232  27.617  1.00  0.00     0.128 C 
HETATM    4  C4  UNL     1     -12.397   1.691  27.120  1.00  0.00     0.052 C 
HETATM    5  C5  UNL     1     -12.260   2.293  25.731  1.00  0.00     0.010 C 
HETATM    6  C6  UNL     1     -13.681   2.267  25.128  1.00  0.00     0.002 C 
HETATM    7  C7  UNL     1     -13.932   3.477  24.204  1.00  0.00    -0.004 C 
HETATM    8  C8  UNL     1     -14.987   3.173  23.115  1.00  0.00     0.010 C 
HETATM    9  C9  UNL     1     -15.634   4.427  22.512  1.00  0.00     0.035 C 
HETATM   10  C10 UNL     1     -14.731   5.628  22.625  1.00  0.00    -0.069 C 
HETATM   11  C11 UNL     1     -14.287   6.260  21.526  1.00  0.00     0.030 C 
HETATM   12  C12 UNL     1     -13.345   7.407  21.614  1.00  0.00     0.032 C 
HETATM   13  N1  UNL     1     -13.149   8.116  20.538  1.00  0.00    -0.271 N 
ATOM     14  H1  UNL     1     -13.570   7.910  19.631  1.00  0.00     0.194 HD
HETATM   15  C22 UNL     1     -12.685   7.708  22.948  1.00  0.00     0.060 C 
HETATM   16  C23 UNL     1     -12.850   6.572  23.954  1.00  0.00     0.020 C 
HETATM   17  C24 UNL     1     -14.303   6.018  24.041  1.00  0.00    -0.016 C 
HETATM   18  C25 UNL     1     -15.228   7.136  24.573  1.00  0.00     0.020 C 
HETATM   19  C26 UNL     1     -14.291   4.752  24.994  1.00  0.00     0.002 C 
HETATM   20  C27 UNL     1     -15.572   4.540  25.829  1.00  0.00     0.007 C 
HETATM   21  C28 UNL     1     -15.840   3.111  26.312  1.00  0.00     0.014 C 
HETATM   22  C29 UNL     1     -14.654   2.125  26.344  1.00  0.00     0.003 C 
HETATM   23  C30 UNL     1     -15.283   0.700  26.279  1.00  0.00     0.020 C 
ENDROOT
BRANCH   3  24
HETATM   24  O1  UNL     1     -14.218   1.408  28.674  1.00  0.00    -0.377 OA
HETATM   25  H2  UNL     1     -13.663   1.592  29.450  1.00  0.00     0.211 HD
ENDBRANCH   3  24
BRANCH  13  26
HETATM   26  O2  UNL     1     -12.288   9.197  20.780  1.00  0.00    -0.271 OA
BRANCH  26  27
HETATM   27  C13 UNL     1     -11.456   9.382  19.640  1.00  0.00     0.303 C 
BRANCH  27  28
HETATM   28  C14 UNL     1     -12.076  10.381  18.668  1.00  0.00     0.244 C 
HETATM   29  O3  UNL     1     -12.088  11.592  18.884  1.00  0.00    -0.271 OA
HETATM   30  N2  UNL     1     -12.554   9.828  17.500  1.00  0.00    -0.350 N 
HETATM   31  H16 UNL     1     -12.806   8.844  17.551  1.00  0.00     0.163 HD
BRANCH  30  32
HETATM   32  C15 UNL     1     -13.258  10.642  16.529  1.00  0.00     0.225 C 
BRANCH  32  33
HETATM   33  C16 UNL     1     -14.141   9.769  15.630  1.00  0.00     0.236 C 
HETATM   34  O4  UNL     1     -15.351   9.650  15.809  1.00  0.00    -0.272 OA
HETATM   35  N3  UNL     1     -13.445   9.086  14.656  1.00  0.00    -0.345 N 
HETATM   36  H19 UNL     1     -12.549   9.474  14.371  1.00  0.00     0.163 HD
BRANCH  35  37
HETATM   37  C17 UNL     1     -14.125   8.310  13.614  1.00  0.00     0.185 C 
BRANCH  37  38
HETATM   38  C18 UNL     1     -14.319   9.180  12.361  1.00  0.00     0.163 C 
HETATM   39  O5  UNL     1     -15.291   9.188  11.622  1.00  0.00    -0.648 OA
BRANCH  38  40
HETATM   40  O6  UNL     1     -13.250   9.966  12.085  1.00  0.00    -0.775 OA
HETATM   41  H21 UNL     1     -13.522  10.460  11.278  1.00  0.00     0.167 HD
ENDBRANCH  38  40
ENDBRANCH  37  38
BRANCH  37  42
HETATM   42  C19 UNL     1     -13.365   7.014  13.251  1.00  0.00     0.010 C 
HETATM   43  C20 UNL     1     -11.844   7.198  13.233  1.00  0.00     0.012 C 
HETATM   44  C21 UNL     1     -13.741   5.860  14.183  1.00  0.00     0.012 C 
ENDBRANCH  37  42
ENDBRANCH  35  37
ENDBRANCH  32  33
ENDBRANCH  30  32
ENDBRANCH  27  28
ENDBRANCH  26  27
ENDBRANCH  13  26
TORSDOF 10
ENDMDL
MODEL 4
REMARK minimizedAffinity -7.8619771
REMARK CNNscore 0.307365596
REMARK CNNaffinity 5.63474321
REMARK  10 active torsions:
REMARK  status: ('A' for Active; 'I' for Inactive)
REMARK    1  A    between atoms: C3_3  and  O1_4 
REMARK    2  A    between atoms: N1_14  and  O2_16 
REMARK    3  A    between atoms: O2_16  and  C13_17 
REMARK    4  A    between atoms: C13_17  and  C14_18 
REMARK       I    between atoms: C14_18  and  N2_20 
REMARK    5  A    between atoms: N2_20  and  C15_21 
REMARK    6  A    between atoms: C15_21  and  C16_22 
REMARK       I    between atoms: C16_22  and  N3_24 
REMARK    7  A    between atoms: N3_24  and  C17_25 
REMARK    8  A    between atoms: C17_25  and  C18_26 
REMARK    9  A    between atoms: C17_25  and  C19_29 
REMARK   10  A    between atoms: C18_26  and  O6_28 
ROOT
HETATM    1  C1  UNL     1      -6.226  -9.069   7.023  1.00  0.00     0.015 C 
HETATM    2  C2  UNL     1      -5.154  -9.611   6.991  1.00  0.00    -0.078 C 
HETATM    3  C3  UNL     1      -3.819 -10.243   7.004  1.00  0.00     0.128 C 
HETATM    4  C4  UNL     1      -2.764  -9.257   6.493  1.00  0.00     0.052 C 
HETATM    5  C5  UNL     1      -2.867  -9.371   4.981  1.00  0.00     0.010 C 
HETATM    6  C6  UNL     1      -3.119 -10.868   4.697  1.00  0.00     0.002 C 
HETATM    7  C7  UNL     1      -4.028 -11.071   3.468  1.00  0.00    -0.004 C 
HETATM    8  C8  UNL     1      -3.774 -12.428   2.769  1.00  0.00     0.010 C 
HETATM    9  C9  UNL     1      -4.939 -12.901   1.891  1.00  0.00     0.035 C 
HETATM   10  C10 UNL     1      -5.774 -11.744   1.404  1.00  0.00    -0.069 C 
HETATM   11  C11 UNL     1      -5.891 -11.486   0.091  1.00  0.00     0.030 C 
HETATM   12  C12 UNL     1      -6.657 -10.314  -0.406  1.00  0.00     0.032 C 
HETATM   13  N1  UNL     1      -6.929 -10.262  -1.680  1.00  0.00    -0.271 N 
ATOM     14  H1  UNL     1      -6.615 -10.953  -2.362  1.00  0.00     0.194 HD
HETATM   15  C22 UNL     1      -7.103  -9.258   0.590  1.00  0.00     0.060 C 
HETATM   16  C23 UNL     1      -6.416  -9.401   1.945  1.00  0.00     0.020 C 
HETATM   17  C24 UNL     1      -6.397 -10.861   2.487  1.00  0.00    -0.016 C 
HETATM   18  C25 UNL     1      -7.853 -11.311   2.748  1.00  0.00     0.020 C 
HETATM   19  C26 UNL     1      -5.521 -10.886   3.806  1.00  0.00     0.002 C 
HETATM   20  C27 UNL     1      -5.972 -11.897   4.881  1.00  0.00     0.007 C 
HETATM   21  C28 UNL     1      -4.902 -12.351   5.880  1.00  0.00     0.014 C 
HETATM   22  C29 UNL     1      -3.645 -11.471   6.041  1.00  0.00     0.003 C 
HETATM   23  C30 UNL     1      -2.536 -12.412   6.600  1.00  0.00     0.020 C 
ENDROOT
BRANCH   3  24
HETATM   24  O1  UNL     1      -3.526 -10.589   8.353  1.00  0.00    -0.377 OA
HETATM   25  H2  UNL     1      -3.740  -9.813   8.897  1.00  0.00     0.211 HD
ENDBRANCH   3  24
BRANCH  13  26
HETATM   26  O2  UNL     1      -7.706  -9.137  -1.998  1.00  0.00    -0.271 OA
BRANCH  26  27
HETATM   27  C13 UNL     1      -7.245  -8.599  -3.234  1.00  0.00     0.303 C 
BRANCH  27  28
HETATM   28  C14 UNL     1      -8.416  -8.241  -4.143  1.00  0.00     0.244 C 
HETATM   29  O3  UNL     1      -9.494  -8.831  -4.095  1.00  0.00    -0.271 OA
HETATM   30  N2  UNL     1      -8.194  -7.159  -4.969  1.00  0.00    -0.350 N 
HETATM   31  H16 UNL     1      -7.220  -6.962  -5.181  1.00  0.00     0.163 HD
BRANCH  30  32
HETATM   32  C15 UNL     1      -9.180  -6.767  -5.956  1.00  0.00     0.225 C 
BRANCH  32  33
HETATM   33  C16 UNL     1      -9.879  -5.469  -5.537  1.00  0.00     0.236 C 
HETATM   34  O4  UNL     1     -10.320  -5.293  -4.403  1.00  0.00    -0.272 OA
HETATM   35  N3  UNL     1     -10.026  -4.558  -6.560  1.00  0.00    -0.345 N 
HETATM   36  H19 UNL     1      -9.374  -4.628  -7.338  1.00  0.00     0.163 HD
BRANCH  35  37
HETATM   37  C17 UNL     1     -10.543  -3.205  -6.328  1.00  0.00     0.185 C 
BRANCH  37  38
HETATM   38  C18 UNL     1     -11.445  -3.200  -5.084  1.00  0.00     0.163 C 
HETATM   39  O5  UNL     1     -12.601  -3.588  -5.019  1.00  0.00    -0.648 OA
BRANCH  38  40
HETATM   40  O6  UNL     1     -10.849  -2.662  -3.991  1.00  0.00    -0.775 OA
HETATM   41  H21 UNL     1     -11.533  -2.735  -3.288  1.00  0.00     0.167 HD
ENDBRANCH  38  40
ENDBRANCH  37  38
BRANCH  37  42
HETATM   42  C19 UNL     1      -9.415  -2.159  -6.173  1.00  0.00     0.010 C 
HETATM   43  C20 UNL     1      -9.942  -0.731  -6.001  1.00  0.00     0.012 C 
HETATM   44  C21 UNL     1      -8.475  -2.512  -5.018  1.00  0.00     0.012 C 
ENDBRANCH  37  42
ENDBRANCH  35  37
ENDBRANCH  32  33
ENDBRANCH  30  32
ENDBRANCH  27  28
ENDBRANCH  26  27
ENDBRANCH  13  26
TORSDOF 10
ENDMDL
MODEL 5
REMARK minimizedAffinity -7.44330311
REMARK CNNscore 0.278714716
REMARK CNNaffinity 5.6644516
REMARK  10 active torsions:
REMARK  status: ('A' for Active; 'I' for Inactive)
REMARK    1  A    between atoms: C3_3  and  O1_4 
REMARK    2  A    between atoms: N1_14  and  O2_16 
REMARK    3  A    between atoms: O2_16  and  C13_17 
REMARK    4  A    between atoms: C13_17  and  C14_18 
REMARK       I    between atoms: C14_18  and  N2_20 
REMARK    5  A    between atoms: N2_20  and  C15_21 
REMARK    6  A    between atoms: C15_21  and  C16_22 
REMARK       I    between atoms: C16_22  and  N3_24 
REMARK    7  A    between atoms: N3_24  and  C17_25 
REMARK    8  A    between atoms: C17_25  and  C18_26 
REMARK    9  A    between atoms: C17_25  and  C19_29 
REMARK   10  A    between atoms: C18_26  and  O6_28 
ROOT
HETATM    1  C1  UNL     1      -6.173 -12.112  -4.227  1.00  0.00     0.015 C 
HETATM    2  C2  UNL     1      -7.036 -11.276  -4.276  1.00  0.00    -0.078 C 
HETATM    3  C3  UNL     1      -8.087 -10.247  -4.399  1.00  0.00     0.128 C 
HETATM    4  C4  UNL     1      -7.454  -8.874  -4.647  1.00  0.00     0.052 C 
HETATM    5  C5  UNL     1      -7.072  -8.399  -3.254  1.00  0.00     0.010 C 
HETATM    6  C6  UNL     1      -8.217  -8.868  -2.330  1.00  0.00     0.002 C 
HETATM    7  C7  UNL     1      -7.701  -9.240  -0.925  1.00  0.00    -0.004 C 
HETATM    8  C8  UNL     1      -8.786  -9.064   0.163  1.00  0.00     0.010 C 
HETATM    9  C9  UNL     1      -8.517  -9.866   1.442  1.00  0.00     0.035 C 
HETATM   10  C10 UNL     1      -7.047 -10.140   1.628  1.00  0.00    -0.069 C 
HETATM   11  C11 UNL     1      -6.390  -9.667   2.700  1.00  0.00     0.030 C 
HETATM   12  C12 UNL     1      -4.927  -9.872   2.870  1.00  0.00     0.032 C 
HETATM   13  N1  UNL     1      -4.407  -9.600   4.034  1.00  0.00    -0.271 N 
ATOM     14  H1  UNL     1      -4.932  -9.219   4.821  1.00  0.00     0.194 HD
HETATM   15  C22 UNL     1      -4.125 -10.408   1.697  1.00  0.00     0.060 C 
HETATM   16  C23 UNL     1      -4.902 -10.364   0.385  1.00  0.00     0.020 C 
HETATM   17  C24 UNL     1      -6.357 -10.909   0.500  1.00  0.00    -0.016 C 
HETATM   18  C25 UNL     1      -6.296 -12.411   0.857  1.00  0.00     0.020 C 
HETATM   19  C26 UNL     1      -7.089 -10.655  -0.882  1.00  0.00     0.002 C 
HETATM   20  C27 UNL     1      -8.132 -11.720  -1.284  1.00  0.00     0.007 C 
HETATM   21  C28 UNL     1      -9.219 -11.270  -2.266  1.00  0.00     0.014 C 
HETATM   22  C29 UNL     1      -8.951 -10.007  -3.111  1.00  0.00     0.003 C 
HETATM   23  C30 UNL     1     -10.354  -9.466  -3.524  1.00  0.00     0.020 C 
ENDROOT
BRANCH   3  24
HETATM   24  O1  UNL     1      -8.897 -10.599  -5.516  1.00  0.00    -0.377 OA
HETATM   25  H2  UNL     1      -8.293 -10.818  -6.245  1.00  0.00     0.211 HD
ENDBRANCH   3  24
BRANCH  13  26
HETATM   26  O2  UNL     1      -3.036  -9.897   4.070  1.00  0.00    -0.271 OA
BRANCH  26  27
HETATM   27  C13 UNL     1      -2.758 -10.626   5.261  1.00  0.00     0.303 C 
BRANCH  27  28
HETATM   28  C14 UNL     1      -3.174  -9.833   6.495  1.00  0.00     0.244 C 
HETATM   29  O3  UNL     1      -3.291  -8.609   6.485  1.00  0.00    -0.271 OA
HETATM   30  N2  UNL     1      -3.478 -10.602   7.599  1.00  0.00    -0.350 N 
HETATM   31  H16 UNL     1      -3.045 -11.522   7.625  1.00  0.00     0.163 HD
BRANCH  30  32
HETATM   32  C15 UNL     1      -3.792  -9.981   8.870  1.00  0.00     0.225 C 
BRANCH  32  33
HETATM   33  C16 UNL     1      -5.248 -10.255   9.261  1.00  0.00     0.236 C 
HETATM   34  O4  UNL     1      -5.968 -11.025   8.628  1.00  0.00    -0.272 OA
HETATM   35  N3  UNL     1      -5.687  -9.513  10.336  1.00  0.00    -0.345 N 
HETATM   36  H19 UNL     1      -4.980  -9.170  10.981  1.00  0.00     0.163 HD
BRANCH  35  37
HETATM   37  C17 UNL     1      -7.003  -9.733  10.947  1.00  0.00     0.185 C 
BRANCH  37  38
HETATM   38  C18 UNL     1      -6.853  -9.868  12.470  1.00  0.00     0.163 C 
HETATM   39  O5  UNL     1      -7.106 -10.855  13.144  1.00  0.00    -0.648 OA
BRANCH  38  40
HETATM   40  O6  UNL     1      -6.429  -8.729  13.071  1.00  0.00    -0.775 OA
HETATM   41  H21 UNL     1      -6.374  -8.969  14.023  1.00  0.00     0.167 HD
ENDBRANCH  38  40
ENDBRANCH  37  38
BRANCH  37  42
HETATM   42  C19 UNL     1      -8.007  -8.607  10.608  1.00  0.00     0.010 C 
HETATM   43  C20 UNL     1      -7.366  -7.442   9.848  1.00  0.00     0.012 C 
HETATM   44  C21 UNL     1      -9.209  -9.142   9.826  1.00  0.00     0.012 C 
ENDBRANCH  37  42
ENDBRANCH  35  37
ENDBRANCH  32  33
ENDBRANCH  30  32
ENDBRANCH  27  28
ENDBRANCH  26  27
ENDBRANCH  13  26
TORSDOF 10
ENDMDL
MODEL 6
REMARK minimizedAffinity -7.47585201
REMARK CNNscore 0.270560682
REMARK CNNaffinity 6.81402063
REMARK  10 active torsions:
REMARK  status: ('A' for Active; 'I' for Inactive)
REMARK    1  A    between atoms: C3_3  and  O1_4 
REMARK    2  A    between atoms: N1_14  and  O2_16 
REMARK    3  A    between atoms: O2_16  and  C13_17 
REMARK    4  A    between atoms: C13_17  and  C14_18 
REMARK       I    between atoms: C14_18  and  N2_20 
REMARK    5  A    between atoms: N2_20  and  C15_21 
REMARK    6  A    between atoms: C15_21  and  C16_22 
REMARK       I    between atoms: C16_22  and  N3_24 
REMARK    7  A    between atoms: N3_24  and  C17_25 
REMARK    8  A    between atoms: C17_25  and  C18_26 
REMARK    9  A    between atoms: C17_25  and  C19_29 
REMARK   10  A    between atoms: C18_26  and  O6_28 
ROOT
HETATM    1  C1  UNL     1      -2.335   8.949  16.750  1.00  0.00     0.015 C 
HETATM    2  C2  UNL     1      -1.797   8.548  15.753  1.00  0.00    -0.078 C 
HETATM    3  C3  UNL     1      -1.089   8.101  14.537  1.00  0.00     0.128 C 
HETATM    4  C4  UNL     1      -1.298   9.110  13.403  1.00  0.00     0.052 C 
HETATM    5  C5  UNL     1      -2.652   8.727  12.827  1.00  0.00     0.010 C 
HETATM    6  C6  UNL     1      -2.697   7.184  12.870  1.00  0.00     0.002 C 
HETATM    7  C7  UNL     1      -4.123   6.661  13.137  1.00  0.00    -0.004 C 
HETATM    8  C8  UNL     1      -4.349   5.248  12.550  1.00  0.00     0.010 C 
HETATM    9  C9  UNL     1      -5.518   4.490  13.192  1.00  0.00     0.035 C 
HETATM   10  C10 UNL     1      -6.541   5.432  13.771  1.00  0.00    -0.069 C 
HETATM   11  C11 UNL     1      -7.802   5.445  13.309  1.00  0.00     0.030 C 
HETATM   12  C12 UNL     1      -8.809   6.410  13.823  1.00  0.00     0.032 C 
HETATM   13  N1  UNL     1     -10.059   6.209  13.509  1.00  0.00    -0.271 N 
ATOM     14  H1  UNL     1     -10.383   5.457  12.901  1.00  0.00     0.194 HD
HETATM   15  C22 UNL     1      -8.340   7.556  14.702  1.00  0.00     0.060 C 
HETATM   16  C23 UNL     1      -6.824   7.734  14.675  1.00  0.00     0.020 C 
HETATM   17  C24 UNL     1      -6.034   6.401  14.840  1.00  0.00    -0.016 C 
HETATM   18  C25 UNL     1      -6.326   5.824  16.244  1.00  0.00     0.020 C 
HETATM   19  C26 UNL     1      -4.495   6.713  14.633  1.00  0.00     0.002 C 
HETATM   20  C27 UNL     1      -3.527   5.851  15.472  1.00  0.00     0.007 C 
HETATM   21  C28 UNL     1      -2.099   5.713  14.933  1.00  0.00     0.014 C 
HETATM   22  C29 UNL     1      -1.608   6.758  13.910  1.00  0.00     0.003 C 
HETATM   23  C30 UNL     1      -0.450   6.073  13.124  1.00  0.00     0.020 C 
ENDROOT
BRANCH   3  24
HETATM   24  O1  UNL     1       0.296   8.030  14.853  1.00  0.00    -0.377 OA
HETATM   25  H2  UNL     1       0.524   8.854  15.314  1.00  0.00     0.211 HD
ENDBRANCH   3  24
BRANCH  13  26
HETATM   26  O2  UNL     1     -10.902   7.157  14.109  1.00  0.00    -0.271 OA
BRANCH  26  27
HETATM   27  C13 UNL     1     -12.146   6.533  14.412  1.00  0.00     0.303 C 
BRANCH  27  28
HETATM   28  C14 UNL     1     -13.175   7.562  14.868  1.00  0.00     0.244 C 
HETATM   29  O3  UNL     1     -13.249   8.685  14.375  1.00  0.00    -0.271 OA
HETATM   30  N2  UNL     1     -14.061   7.107  15.822  1.00  0.00    -0.350 N 
HETATM   31  H16 UNL     1     -13.733   6.331  16.391  1.00  0.00     0.163 HD
BRANCH  30  32
HETATM   32  C15 UNL     1     -15.030   8.004  16.419  1.00  0.00     0.225 C 
BRANCH  32  33
HETATM   33  C16 UNL     1     -16.452   7.627  15.990  1.00  0.00     0.236 C 
HETATM   34  O4  UNL     1     -17.242   7.061  16.745  1.00  0.00    -0.272 OA
HETATM   35  N3  UNL     1     -16.734   7.917  14.673  1.00  0.00    -0.345 N 
HETATM   36  H19 UNL     1     -16.182   8.649  14.232  1.00  0.00     0.163 HD
BRANCH  35  37
HETATM   37  C17 UNL     1     -18.081   7.760  14.113  1.00  0.00     0.185 C 
BRANCH  37  38
HETATM   38  C18 UNL     1     -18.739   9.138  13.946  1.00  0.00     0.163 C 
HETATM   39  O5  UNL     1     -18.657   9.873  12.974  1.00  0.00    -0.648 OA
BRANCH  38  40
HETATM   40  O6  UNL     1     -19.436   9.536  15.039  1.00  0.00    -0.775 OA
HETATM   41  H21 UNL     1     -19.798  10.414  14.782  1.00  0.00     0.167 HD
ENDBRANCH  38  40
ENDBRANCH  37  38
BRANCH  37  42
HETATM   42  C19 UNL     1     -18.076   7.004  12.764  1.00  0.00     0.010 C 
HETATM   43  C20 UNL     1     -16.831   6.132  12.572  1.00  0.00     0.012 C 
HETATM   44  C21 UNL     1     -19.339   6.158  12.588  1.00  0.00     0.012 C 
ENDBRANCH  37  42
ENDBRANCH  35  37
ENDBRANCH  32  33
ENDBRANCH  30  32
ENDBRANCH  27  28
ENDBRANCH  26  27
ENDBRANCH  13  26
TORSDOF 10
ENDMDL
MODEL 7
REMARK minimizedAffinity -8.67877865
REMARK CNNscore 0.260452747
REMARK CNNaffinity 6.99745607
REMARK  10 active torsions:
REMARK  status: ('A' for Active; 'I' for Inactive)
REMARK    1  A    between atoms: C3_3  and  O1_4 
REMARK    2  A    between atoms: N1_14  and  O2_16 
REMARK    3  A    between atoms: O2_16  and  C13_17 
REMARK    4  A    between atoms: C13_17  and  C14_18 
REMARK       I    between atoms: C14_18  and  N2_20 
REMARK    5  A    between atoms: N2_20  and  C15_21 
REMARK    6  A    between atoms: C15_21  and  C16_22 
REMARK       I    between atoms: C16_22  and  N3_24 
REMARK    7  A    between atoms: N3_24  and  C17_25 
REMARK    8  A    between atoms: C17_25  and  C18_26 
REMARK    9  A    between atoms: C17_25  and  C19_29 
REMARK   10  A    between atoms: C18_26  and  O6_28 
ROOT
HETATM    1  C1  UNL     1      -7.630   9.208  15.453  1.00  0.00     0.015 C 
HETATM    2  C2  UNL     1      -7.899   8.094  15.091  1.00  0.00    -0.078 C 
HETATM    3  C3  UNL     1      -8.286   6.731  14.674  1.00  0.00     0.128 C 
HETATM    4  C4  UNL     1      -8.275   5.787  15.880  1.00  0.00     0.052 C 
HETATM    5  C5  UNL     1      -6.813   5.392  16.013  1.00  0.00     0.010 C 
HETATM    6  C6  UNL     1      -6.293   5.242  14.567  1.00  0.00     0.002 C 
HETATM    7  C7  UNL     1      -4.816   5.667  14.443  1.00  0.00    -0.004 C 
HETATM    8  C8  UNL     1      -4.094   4.946  13.281  1.00  0.00     0.010 C 
HETATM    9  C9  UNL     1      -2.828   5.664  12.796  1.00  0.00     0.035 C 
HETATM   10  C10 UNL     1      -2.224   6.519  13.881  1.00  0.00    -0.069 C 
HETATM   11  C11 UNL     1      -0.985   6.272  14.340  1.00  0.00     0.030 C 
HETATM   12  C12 UNL     1      -0.396   7.063  15.452  1.00  0.00     0.032 C 
HETATM   13  N1  UNL     1       0.880   6.931  15.680  1.00  0.00    -0.271 N 
ATOM     14  H1  UNL     1       1.491   6.292  15.171  1.00  0.00     0.194 HD
HETATM   15  C22 UNL     1      -1.298   7.995  16.242  1.00  0.00     0.060 C 
HETATM   16  C23 UNL     1      -2.779   7.747  15.973  1.00  0.00     0.020 C 
HETATM   17  C24 UNL     1      -3.127   7.608  14.461  1.00  0.00    -0.016 C 
HETATM   18  C25 UNL     1      -2.832   8.954  13.760  1.00  0.00     0.020 C 
HETATM   19  C26 UNL     1      -4.652   7.197  14.342  1.00  0.00     0.002 C 
HETATM   20  C27 UNL     1      -5.392   7.749  13.105  1.00  0.00     0.007 C 
HETATM   21  C28 UNL     1      -6.633   6.973  12.652  1.00  0.00     0.014 C 
HETATM   22  C29 UNL     1      -7.306   6.028  13.670  1.00  0.00     0.003 C 
HETATM   23  C30 UNL     1      -8.094   4.983  12.824  1.00  0.00     0.020 C 
ENDROOT
BRANCH   3  24
HETATM   24  O1  UNL     1      -9.607   6.808  14.150  1.00  0.00    -0.377 OA
HETATM   25  H2  UNL     1     -10.132   7.329  14.780  1.00  0.00     0.211 HD
ENDBRANCH   3  24
BRANCH  13  26
HETATM   26  O2  UNL     1       1.311   7.778  16.714  1.00  0.00    -0.271 OA
BRANCH  26  27
HETATM   27  C13 UNL     1       2.052   8.852  16.144  1.00  0.00     0.303 C 
BRANCH  27  28
HETATM   28  C14 UNL     1       2.056  10.064  17.070  1.00  0.00     0.244 C 
HETATM   29  O3  UNL     1       2.557  11.139  16.748  1.00  0.00    -0.271 OA
HETATM   30  N2  UNL     1       1.389   9.879  18.263  1.00  0.00    -0.350 N 
HETATM   31  H16 UNL     1       1.311   8.916  18.577  1.00  0.00     0.163 HD
BRANCH  30  32
HETATM   32  C15 UNL     1       1.396  10.910  19.282  1.00  0.00     0.225 C 
BRANCH  32  33
HETATM   33  C16 UNL     1       2.363  10.545  20.414  1.00  0.00     0.236 C 
HETATM   34  O4  UNL     1       2.983   9.484  20.436  1.00  0.00    -0.272 OA
HETATM   35  N3  UNL     1       2.416  11.479  21.426  1.00  0.00    -0.345 N 
HETATM   36  H19 UNL     1       2.149  12.432  21.190  1.00  0.00     0.163 HD
BRANCH  35  37
HETATM   37  C17 UNL     1       3.380  11.378  22.527  1.00  0.00     0.185 C 
BRANCH  37  38
HETATM   38  C18 UNL     1       3.314   9.975  23.149  1.00  0.00     0.163 C 
HETATM   39  O5  UNL     1       2.792   9.671  24.211  1.00  0.00    -0.648 OA
BRANCH  38  40
HETATM   40  O6  UNL     1       3.952   9.031  22.414  1.00  0.00    -0.775 OA
HETATM   41  H21 UNL     1       3.818   8.202  22.925  1.00  0.00     0.167 HD
ENDBRANCH  38  40
ENDBRANCH  37  38
BRANCH  37  42
HETATM   42  C19 UNL     1       4.825  11.695  22.077  1.00  0.00     0.010 C 
HETATM   43  C20 UNL     1       5.004  11.641  20.557  1.00  0.00     0.012 C 
HETATM   44  C21 UNL     1       5.297  13.049  22.612  1.00  0.00     0.012 C 
ENDBRANCH  37  42
ENDBRANCH  35  37
ENDBRANCH  32  33
ENDBRANCH  30  32
ENDBRANCH  27  28
ENDBRANCH  26  27
ENDBRANCH  13  26
TORSDOF 10
ENDMDL
MODEL 8
REMARK minimizedAffinity -8.26615047
REMARK CNNscore 0.251324952
REMARK CNNaffinity 6.62969732
REMARK  10 active torsions:
REMARK  status: ('A' for Active; 'I' for Inactive)
REMARK    1  A    between atoms: C3_3  and  O1_4 
REMARK    2  A    between atoms: N1_14  and  O2_16 
REMARK    3  A    between atoms: O2_16  and  C13_17 
REMARK    4  A    between atoms: C13_17  and  C14_18 
REMARK       I    between atoms: C14_18  and  N2_20 
REMARK    5  A    between atoms: N2_20  and  C15_21 
REMARK    6  A    between atoms: C15_21  and  C16_22 
REMARK       I    between atoms: C16_22  and  N3_24 
REMARK    7  A    between atoms: N3_24  and  C17_25 
REMARK    8  A    between atoms: C17_25  and  C18_26 
REMARK    9  A    between atoms: C17_25  and  C19_29 
REMARK   10  A    between atoms: C18_26  and  O6_28 
ROOT
HETATM    1  C1  UNL     1      -2.526   9.156  16.796  1.00  0.00     0.015 C 
HETATM    2  C2  UNL     1      -1.981   8.761  15.800  1.00  0.00    -0.078 C 
HETATM    3  C3  UNL     1      -1.267   8.322  14.585  1.00  0.00     0.128 C 
HETATM    4  C4  UNL     1      -1.508   9.315  13.444  1.00  0.00     0.052 C 
HETATM    5  C5  UNL     1      -2.853   8.891  12.877  1.00  0.00     0.010 C 
HETATM    6  C6  UNL     1      -2.856   7.348  12.933  1.00  0.00     0.002 C 
HETATM    7  C7  UNL     1      -4.267   6.789  13.212  1.00  0.00    -0.004 C 
HETATM    8  C8  UNL     1      -4.457   5.365  12.637  1.00  0.00     0.010 C 
HETATM    9  C9  UNL     1      -5.602   4.581  13.291  1.00  0.00     0.035 C 
HETATM   10  C10 UNL     1      -6.648   5.501  13.867  1.00  0.00    -0.069 C 
HETATM   11  C11 UNL     1      -7.911   5.476  13.410  1.00  0.00     0.030 C 
HETATM   12  C12 UNL     1      -8.942   6.418  13.920  1.00  0.00     0.032 C 
HETATM   13  N1  UNL     1     -10.186   6.180  13.613  1.00  0.00    -0.271 N 
ATOM     14  H1  UNL     1     -10.493   5.414  13.014  1.00  0.00     0.194 HD
HETATM   15  C22 UNL     1      -8.500   7.583  14.787  1.00  0.00     0.060 C 
HETATM   16  C23 UNL     1      -6.990   7.801  14.752  1.00  0.00     0.020 C 
HETATM   17  C24 UNL     1      -6.163   6.493  14.925  1.00  0.00    -0.016 C 
HETATM   18  C25 UNL     1      -6.433   5.920  16.335  1.00  0.00     0.020 C 
HETATM   19  C26 UNL     1      -4.634   6.844  14.708  1.00  0.00     0.002 C 
HETATM   20  C27 UNL     1      -3.639   6.016  15.550  1.00  0.00     0.007 C 
HETATM   21  C28 UNL     1      -2.211   5.911  15.006  1.00  0.00     0.014 C 
HETATM   22  C29 UNL     1      -1.753   6.961  13.972  1.00  0.00     0.003 C 
HETATM   23  C30 UNL     1      -0.579   6.300  13.187  1.00  0.00     0.020 C 
ENDROOT
BRANCH   3  24
HETATM   24  O1  UNL     1       0.121   8.291  14.896  1.00  0.00    -0.377 OA
HETATM   25  H2  UNL     1       0.329   9.125  15.349  1.00  0.00     0.211 HD
ENDBRANCH   3  24
BRANCH  13  26
HETATM   26  O2  UNL     1     -11.053   7.110  14.210  1.00  0.00    -0.271 OA
BRANCH  26  27
HETATM   27  C13 UNL     1     -12.340   6.516  14.338  1.00  0.00     0.303 C 
BRANCH  27  28
HETATM   28  C14 UNL     1     -13.369   7.540  14.806  1.00  0.00     0.244 C 
HETATM   29  O3  UNL     1     -13.682   8.518  14.130  1.00  0.00    -0.271 OA
HETATM   30  N2  UNL     1     -13.972   7.242  16.010  1.00  0.00    -0.350 N 
HETATM   31  H16 UNL     1     -13.438   6.639  16.630  1.00  0.00     0.163 HD
BRANCH  30  32
HETATM   32  C15 UNL     1     -14.896   8.174  16.625  1.00  0.00     0.225 C 
BRANCH  32  33
HETATM   33  C16 UNL     1     -14.139   9.344  17.265  1.00  0.00     0.236 C 
HETATM   34  O4  UNL     1     -14.411  10.518  17.022  1.00  0.00    -0.272 OA
HETATM   35  N3  UNL     1     -13.092   8.956  18.074  1.00  0.00    -0.345 N 
HETATM   36  H19 UNL     1     -13.138   8.022  18.472  1.00  0.00     0.163 HD
BRANCH  35  37
HETATM   37  C17 UNL     1     -12.337   9.920  18.882  1.00  0.00     0.185 C 
BRANCH  37  38
HETATM   38  C18 UNL     1     -12.105   9.348  20.290  1.00  0.00     0.163 C 
HETATM   39  O5  UNL     1     -11.037   9.269  20.878  1.00  0.00    -0.648 OA
BRANCH  38  40
HETATM   40  O6  UNL     1     -13.233   8.867  20.866  1.00  0.00    -0.775 OA
HETATM   41  H21 UNL     1     -12.932   8.550  21.747  1.00  0.00     0.167 HD
ENDBRANCH  38  40
ENDBRANCH  37  38
BRANCH  37  42
HETATM   42  C19 UNL     1     -10.988  10.306  18.234  1.00  0.00     0.010 C 
HETATM   43  C20 UNL     1     -10.645   9.450  17.010  1.00  0.00     0.012 C 
HETATM   44  C21 UNL     1     -10.946  11.790  17.862  1.00  0.00     0.012 C 
ENDBRANCH  37  42
ENDBRANCH  35  37
ENDBRANCH  32  33
ENDBRANCH  30  32
ENDBRANCH  27  28
ENDBRANCH  26  27
ENDBRANCH  13  26
TORSDOF 10
ENDMDL
MODEL 9
REMARK minimizedAffinity -6.91039658
REMARK CNNscore 0.247549966
REMARK CNNaffinity 5.15444803
REMARK  10 active torsions:
REMARK  status: ('A' for Active; 'I' for Inactive)
REMARK    1  A    between atoms: C3_3  and  O1_4 
REMARK    2  A    between atoms: N1_14  and  O2_16 
REMARK    3  A    between atoms: O2_16  and  C13_17 
REMARK    4  A    between atoms: C13_17  and  C14_18 
REMARK       I    between atoms: C14_18  and  N2_20 
REMARK    5  A    between atoms: N2_20  and  C15_21 
REMARK    6  A    between atoms: C15_21  and  C16_22 
REMARK       I    between atoms: C16_22  and  N3_24 
REMARK    7  A    between atoms: N3_24  and  C17_25 
REMARK    8  A    between atoms: C17_25  and  C18_26 
REMARK    9  A    between atoms: C17_25  and  C19_29 
REMARK   10  A    between atoms: C18_26  and  O6_28 
ROOT
HETATM    1  C1  UNL     1       6.830   6.760  11.011  1.00  0.00     0.015 C 
HETATM    2  C2  UNL     1       5.936   7.248  11.649  1.00  0.00    -0.078 C 
HETATM    3  C3  UNL     1       4.797   7.832  12.384  1.00  0.00     0.128 C 
HETATM    4  C4  UNL     1       4.402   9.176  11.763  1.00  0.00     0.052 C 
HETATM    5  C5  UNL     1       5.381  10.159  12.383  1.00  0.00     0.010 C 
HETATM    6  C6  UNL     1       5.557   9.699  13.847  1.00  0.00     0.002 C 
HETATM    7  C7  UNL     1       6.988   9.961  14.360  1.00  0.00    -0.004 C 
HETATM    8  C8  UNL     1       7.034  10.152  15.894  1.00  0.00     0.010 C 
HETATM    9  C9  UNL     1       8.420   9.914  16.507  1.00  0.00     0.035 C 
HETATM   10  C10 UNL     1       9.520  10.152  15.505  1.00  0.00    -0.069 C 
HETATM   11  C11 UNL     1      10.438  11.112  15.708  1.00  0.00     0.030 C 
HETATM   12  C12 UNL     1      11.492  11.405  14.702  1.00  0.00     0.032 C 
HETATM   13  N1  UNL     1      12.482  12.172  15.066  1.00  0.00    -0.271 N 
ATOM     14  H1  UNL     1      12.557  12.615  15.982  1.00  0.00     0.194 HD
HETATM   15  C22 UNL     1      11.379  10.780  13.323  1.00  0.00     0.060 C 
HETATM   16  C23 UNL     1      10.002  10.176  13.063  1.00  0.00     0.020 C 
HETATM   17  C24 UNL     1       9.471   9.299  14.236  1.00  0.00    -0.016 C 
HETATM   18  C25 UNL     1      10.400   8.075  14.399  1.00  0.00     0.020 C 
HETATM   19  C26 UNL     1       7.982   8.875  13.900  1.00  0.00     0.002 C 
HETATM   20  C27 UNL     1       7.557   7.484  14.417  1.00  0.00     0.007 C 
HETATM   21  C28 UNL     1       6.054   7.262  14.614  1.00  0.00     0.014 C 
HETATM   22  C29 UNL     1       5.082   8.209  13.881  1.00  0.00     0.003 C 
HETATM   23  C30 UNL     1       3.749   8.159  14.689  1.00  0.00     0.020 C 
ENDROOT
BRANCH   3  24
HETATM   24  O1  UNL     1       3.707   6.924  12.271  1.00  0.00    -0.377 OA
HETATM   25  H2  UNL     1       3.647   6.669  11.335  1.00  0.00     0.211 HD
ENDBRANCH   3  24
BRANCH  13  26
HETATM   26  O2  UNL     1      13.430  12.313  14.041  1.00  0.00    -0.271 OA
BRANCH  26  27
HETATM   27  C13 UNL     1      14.255  13.436  14.335  1.00  0.00     0.303 C 
BRANCH  27  28
HETATM   28  C14 UNL     1      15.588  12.993  14.931  1.00  0.00     0.244 C 
HETATM   29  O3  UNL     1      16.595  12.827  14.245  1.00  0.00    -0.271 OA
HETATM   30  N2  UNL     1      15.591  12.866  16.303  1.00  0.00    -0.350 N 
HETATM   31  H16 UNL     1      14.685  12.693  16.730  1.00  0.00     0.163 HD
BRANCH  30  32
HETATM   32  C15 UNL     1      16.758  12.357  16.996  1.00  0.00     0.225 C 
BRANCH  32  33
HETATM   33  C16 UNL     1      16.592  12.503  18.513  1.00  0.00     0.236 C 
HETATM   34  O4  UNL     1      16.623  11.539  19.276  1.00  0.00    -0.272 OA
HETATM   35  N3  UNL     1      16.340  13.793  18.927  1.00  0.00    -0.345 N 
HETATM   36  H19 UNL     1      16.648  14.543  18.314  1.00  0.00     0.163 HD
BRANCH  35  37
HETATM   37  C17 UNL     1      16.289  14.158  20.347  1.00  0.00     0.185 C 
BRANCH  37  38
HETATM   38  C18 UNL     1      15.687  13.001  21.160  1.00  0.00     0.163 C 
HETATM   39  O5  UNL     1      16.195  12.443  22.120  1.00  0.00    -0.648 OA
BRANCH  38  40
HETATM   40  O6  UNL     1      14.488  12.581  20.688  1.00  0.00    -0.775 OA
HETATM   41  H21 UNL     1      14.231  11.859  21.304  1.00  0.00     0.167 HD
ENDBRANCH  38  40
ENDBRANCH  37  38
BRANCH  37  42
HETATM   42  C19 UNL     1      17.678  14.539  20.909  1.00  0.00     0.010 C 
HETATM   43  C20 UNL     1      18.816  13.709  20.306  1.00  0.00     0.012 C 
HETATM   44  C21 UNL     1      17.967  16.032  20.730  1.00  0.00     0.012 C 
ENDBRANCH  37  42
ENDBRANCH  35  37
ENDBRANCH  32  33
ENDBRANCH  30  32
ENDBRANCH  27  28
ENDBRANCH  26  27
ENDBRANCH  13  26
TORSDOF 10
ENDMDL
