MODEL 1
REMARK minimizedAffinity -7.32274294
REMARK CNNscore 0.542354703
REMARK CNNaffinity 6.6295085
REMARK  7 active torsions:
REMARK  status: ('A' for Active; 'I' for Inactive)
REMARK    1  A    between atoms: C2_2  and  C3_3 
REMARK    2  A    between atoms: C2_2  and  C9_11 
REMARK    3  A    between atoms: C3_3  and  C4_4 
REMARK    4  A    between atoms: C5_5  and  C6_6 
REMARK    5  A    between atoms: C6_6  and  O1_9 
REMARK    6  A    between atoms: O1_9  and  O2_10 
REMARK    7  A    between atoms: C10_12  and  O3_13 
ROOT
HETATM    1  C9  UNL     1      -1.047   7.441  13.654  1.00  0.00     0.028 C 
HETATM    2  C10 UNL     1      -2.371   7.524  12.841  1.00  0.00     0.124 C 
HETATM    3  C11 UNL     1      -3.343   8.421  13.646  1.00  0.00     0.046 C 
HETATM    4  C12 UNL     1      -2.638   8.675  15.001  1.00  0.00    -0.010 C 
HETATM    5  C13 UNL     1      -3.028   7.485  15.934  1.00  0.00     0.021 C 
HETATM    6  C14 UNL     1      -2.996   9.932  15.787  1.00  0.00    -0.070 C 
HETATM    7  C15 UNL     1      -4.245  10.446  15.779  1.00  0.00    -0.022 C 
HETATM    8  C16 UNL     1      -4.698  11.605  16.623  1.00  0.00     0.034 C 
HETATM    9  C17 UNL     1      -3.526  12.312  17.324  1.00  0.00     0.013 C 
HETATM   10  C18 UNL     1      -3.903  13.522  18.236  1.00  0.00     0.018 C 
HETATM   11  C19 UNL     1      -4.732  14.552  17.441  1.00  0.00     0.023 C 
HETATM   12  C20 UNL     1      -4.682  13.156  19.505  1.00  0.00     0.023 C 
HETATM   13  C21 UNL     1      -2.600  14.219  18.668  1.00  0.00     0.135 C 
HETATM   14  O4  UNL     1      -2.599  15.337  19.187  1.00  0.00    -0.297 OA
HETATM   15  C22 UNL     1      -1.296  13.489  18.417  1.00  0.00     0.080 C 
HETATM   16  C23 UNL     1      -1.450  12.023  18.794  1.00  0.00     0.017 C 
HETATM   17  C24 UNL     1      -2.514  11.268  17.943  1.00  0.00    -0.031 C 
HETATM   18  C25 UNL     1      -3.182  10.217  18.871  1.00  0.00     0.016 C 
HETATM   19  C26 UNL     1      -1.888  10.527  16.688  1.00  0.00     0.024 C 
HETATM   20  C27 UNL     1      -0.758   9.511  17.002  1.00  0.00     0.010 C 
HETATM   21  C28 UNL     1      -0.232   8.683  15.805  1.00  0.00     0.011 C 
HETATM   22  C29 UNL     1      -1.136   8.716  14.560  1.00  0.00    -0.026 C 
HETATM   23  C30 UNL     1      -0.770   9.972  13.707  1.00  0.00     0.016 C 
ENDROOT
BRANCH   1  24
HETATM   24  C2  UNL     1       0.285   7.251  12.858  1.00  0.00    -0.008 C 
HETATM   25  C1  UNL     1       1.514   6.865  13.691  1.00  0.00     0.011 C 
BRANCH  24  26
HETATM   26  C3  UNL     1       0.617   8.471  11.956  1.00  0.00     0.031 C 
BRANCH  26  27
HETATM   27  C4  UNL     1       0.928   8.149  10.521  1.00  0.00    -0.027 C 
HETATM   28  C5  UNL     1       2.130   7.721  10.096  1.00  0.00     0.009 C 
BRANCH  28  29
HETATM   29  C6  UNL     1       2.547   7.363   8.677  1.00  0.00     0.106 C 
HETATM   30  C7  UNL     1       1.471   7.654   7.617  1.00  0.00     0.053 C 
HETATM   31  C8  UNL     1       2.913   5.874   8.592  1.00  0.00     0.053 C 
BRANCH  29  32
HETATM   32  O1  UNL     1       3.681   8.173   8.288  1.00  0.00    -0.229 OA
BRANCH  32  33
HETATM   33  O2  UNL     1       3.187   9.340   7.558  1.00  0.00    -0.249 OA
HETATM   34  H15 UNL     1       3.577   9.092   6.702  1.00  0.00     0.253 HD
ENDBRANCH  32  33
ENDBRANCH  29  32
ENDBRANCH  28  29
ENDBRANCH  26  27
ENDBRANCH  24  26
ENDBRANCH   1  24
BRANCH   2  35
HETATM   35  O3  UNL     1      -2.934   6.234  12.641  1.00  0.00    -0.395 OA
HETATM   36  H18 UNL     1      -3.195   5.872  13.504  1.00  0.00     0.210 HD
ENDBRANCH   2  35
TORSDOF 7
ENDMDL
MODEL 2
REMARK minimizedAffinity -10.239398
REMARK CNNscore 0.53198117
REMARK CNNaffinity 7.12843323
REMARK  7 active torsions:
REMARK  status: ('A' for Active; 'I' for Inactive)
REMARK    1  A    between atoms: C2_2  and  C3_3 
REMARK    2  A    between atoms: C2_2  and  C9_11 
REMARK    3  A    between atoms: C3_3  and  C4_4 
REMARK    4  A    between atoms: C5_5  and  C6_6 
REMARK    5  A    between atoms: C6_6  and  O1_9 
REMARK    6  A    between atoms: O1_9  and  O2_10 
REMARK    7  A    between atoms: C10_12  and  O3_13 
ROOT
HETATM    1  C9  UNL     1      -3.173   7.598  14.677  1.00  0.00     0.028 C 
HETATM    2  C10 UNL     1      -4.053   8.463  13.729  1.00  0.00     0.124 C 
HETATM    3  C11 UNL     1      -3.168   8.857  12.520  1.00  0.00     0.046 C 
HETATM    4  C12 UNL     1      -1.740   8.384  12.887  1.00  0.00    -0.010 C 
HETATM    5  C13 UNL     1      -1.082   9.547  13.697  1.00  0.00     0.021 C 
HETATM    6  C14 UNL     1      -0.759   8.077  11.760  1.00  0.00    -0.070 C 
HETATM    7  C15 UNL     1      -0.764   8.773  10.603  1.00  0.00    -0.022 C 
HETATM    8  C16 UNL     1       0.247   8.608   9.502  1.00  0.00     0.034 C 
HETATM    9  C17 UNL     1       1.157   7.387   9.721  1.00  0.00     0.013 C 
HETATM   10  C18 UNL     1       2.251   7.145   8.633  1.00  0.00     0.018 C 
HETATM   11  C19 UNL     1       1.605   7.070   7.234  1.00  0.00     0.023 C 
HETATM   12  C20 UNL     1       3.364   8.198   8.591  1.00  0.00     0.023 C 
HETATM   13  C21 UNL     1       2.905   5.779   8.910  1.00  0.00     0.135 C 
HETATM   14  O4  UNL     1       3.625   5.221   8.080  1.00  0.00    -0.297 OA
HETATM   15  C22 UNL     1       2.620   5.120  10.244  1.00  0.00     0.080 C 
HETATM   16  C23 UNL     1       2.698   6.158  11.354  1.00  0.00     0.017 C 
HETATM   17  C24 UNL     1       1.641   7.295  11.222  1.00  0.00    -0.031 C 
HETATM   18  C25 UNL     1       2.300   8.597  11.753  1.00  0.00     0.016 C 
HETATM   19  C26 UNL     1       0.319   7.007  12.051  1.00  0.00     0.024 C 
HETATM   20  C27 UNL     1       0.520   6.751  13.568  1.00  0.00     0.010 C 
HETATM   21  C28 UNL     1      -0.769   6.604  14.412  1.00  0.00     0.011 C 
HETATM   22  C29 UNL     1      -2.050   7.088  13.709  1.00  0.00    -0.026 C 
HETATM   23  C30 UNL     1      -2.619   5.920  12.843  1.00  0.00     0.016 C 
ENDROOT
BRANCH   1  24
HETATM   24  C2  UNL     1      -3.886   6.510  15.542  1.00  0.00    -0.008 C 
HETATM   25  C1  UNL     1      -3.354   5.079  15.393  1.00  0.00     0.011 C 
BRANCH  24  26
HETATM   26  C3  UNL     1      -5.428   6.523  15.358  1.00  0.00     0.031 C 
BRANCH  26  27
HETATM   27  C4  UNL     1      -5.937   5.858  14.110  1.00  0.00    -0.027 C 
HETATM   28  C5  UNL     1      -6.897   4.917  14.104  1.00  0.00     0.009 C 
BRANCH  28  29
HETATM   29  C6  UNL     1      -7.486   4.189  12.905  1.00  0.00     0.106 C 
HETATM   30  C7  UNL     1      -6.434   3.551  11.982  1.00  0.00     0.053 C 
HETATM   31  C8  UNL     1      -8.339   5.153  12.065  1.00  0.00     0.053 C 
BRANCH  29  32
HETATM   32  O1  UNL     1      -8.299   3.083  13.362  1.00  0.00    -0.229 OA
BRANCH  32  33
HETATM   33  O2  UNL     1      -7.894   1.880  12.637  1.00  0.00    -0.249 OA
HETATM   34  H15 UNL     1      -8.730   1.773  12.149  1.00  0.00     0.253 HD
ENDBRANCH  32  33
ENDBRANCH  29  32
ENDBRANCH  28  29
ENDBRANCH  26  27
ENDBRANCH  24  26
ENDBRANCH   1  24
BRANCH   2  35
HETATM   35  O3  UNL     1      -4.536   9.624  14.391  1.00  0.00    -0.395 OA
HETATM   36  H18 UNL     1      -3.779  10.192  14.614  1.00  0.00     0.210 HD
ENDBRANCH   2  35
TORSDOF 7
ENDMDL
MODEL 3
REMARK minimizedAffinity -9.04595089
REMARK CNNscore 0.530726314
REMARK CNNaffinity 6.91213036
REMARK  7 active torsions:
REMARK  status: ('A' for Active; 'I' for Inactive)
REMARK    1  A    between atoms: C2_2  and  C3_3 
REMARK    2  A    between atoms: C2_2  and  C9_11 
REMARK    3  A    between atoms: C3_3  and  C4_4 
REMARK    4  A    between atoms: C5_5  and  C6_6 
REMARK    5  A    between atoms: C6_6  and  O1_9 
REMARK    6  A    between atoms: O1_9  and  O2_10 
REMARK    7  A    between atoms: C10_12  and  O3_13 
ROOT
HETATM    1  C9  UNL     1      -3.314   7.668  14.556  1.00  0.00     0.028 C 
HETATM    2  C10 UNL     1      -4.157   8.526  13.569  1.00  0.00     0.124 C 
HETATM    3  C11 UNL     1      -3.230   8.899  12.385  1.00  0.00     0.046 C 
HETATM    4  C12 UNL     1      -1.819   8.422  12.805  1.00  0.00    -0.010 C 
HETATM    5  C13 UNL     1      -1.179   9.591  13.621  1.00  0.00     0.021 C 
HETATM    6  C14 UNL     1      -0.803   8.094  11.715  1.00  0.00    -0.070 C 
HETATM    7  C15 UNL     1      -0.766   8.775  10.549  1.00  0.00    -0.022 C 
HETATM    8  C16 UNL     1       0.280   8.590   9.485  1.00  0.00     0.034 C 
HETATM    9  C17 UNL     1       1.173   7.367   9.748  1.00  0.00     0.013 C 
HETATM   10  C18 UNL     1       2.301   7.103   8.700  1.00  0.00     0.018 C 
HETATM   11  C19 UNL     1       1.701   7.015   7.281  1.00  0.00     0.023 C 
HETATM   12  C20 UNL     1       3.422   8.149   8.681  1.00  0.00     0.023 C 
HETATM   13  C21 UNL     1       2.936   5.737   9.015  1.00  0.00     0.135 C 
HETATM   14  O4  UNL     1       3.679   5.163   8.216  1.00  0.00    -0.297 OA
HETATM   15  C22 UNL     1       2.602   5.097  10.346  1.00  0.00     0.080 C 
HETATM   16  C23 UNL     1       2.652   6.148  11.446  1.00  0.00     0.017 C 
HETATM   17  C24 UNL     1       1.608   7.289  11.265  1.00  0.00    -0.031 C 
HETATM   18  C25 UNL     1       2.258   8.594  11.801  1.00  0.00     0.016 C 
HETATM   19  C26 UNL     1       0.257   7.021  12.054  1.00  0.00     0.024 C 
HETATM   20  C27 UNL     1       0.406   6.783  13.580  1.00  0.00     0.010 C 
HETATM   21  C28 UNL     1      -0.911   6.654  14.382  1.00  0.00     0.011 C 
HETATM   22  C29 UNL     1      -2.165   7.138  13.632  1.00  0.00    -0.026 C 
HETATM   23  C30 UNL     1      -2.713   5.963  12.762  1.00  0.00     0.016 C 
ENDROOT
BRANCH   1  24
HETATM   24  C2  UNL     1      -4.064   6.595  15.411  1.00  0.00    -0.008 C 
HETATM   25  C1  UNL     1      -3.197   5.463  15.976  1.00  0.00     0.011 C 
BRANCH  24  26
HETATM   26  C3  UNL     1      -5.294   6.002  14.672  1.00  0.00     0.031 C 
BRANCH  26  27
HETATM   27  C4  UNL     1      -6.634   6.409  15.218  1.00  0.00    -0.027 C 
HETATM   28  C5  UNL     1      -7.333   7.468  14.771  1.00  0.00     0.009 C 
BRANCH  28  29
HETATM   29  C6  UNL     1      -8.692   7.960  15.247  1.00  0.00     0.106 C 
HETATM   30  C7  UNL     1      -8.849   9.489  15.212  1.00  0.00     0.053 C 
HETATM   31  C8  UNL     1      -8.956   7.483  16.683  1.00  0.00     0.053 C 
BRANCH  29  32
HETATM   32  O1  UNL     1      -9.722   7.460  14.363  1.00  0.00    -0.229 OA
BRANCH  32  33
HETATM   33  O2  UNL     1     -10.670   6.676  15.155  1.00  0.00    -0.249 OA
HETATM   34  H15 UNL     1     -10.458   5.820  14.743  1.00  0.00     0.253 HD
ENDBRANCH  32  33
ENDBRANCH  29  32
ENDBRANCH  28  29
ENDBRANCH  26  27
ENDBRANCH  24  26
ENDBRANCH   1  24
BRANCH   2  35
HETATM   35  O3  UNL     1      -4.653   9.699  14.201  1.00  0.00    -0.395 OA
HETATM   36  H18 UNL     1      -3.901  10.264  14.441  1.00  0.00     0.210 HD
ENDBRANCH   2  35
TORSDOF 7
ENDMDL
MODEL 4
REMARK minimizedAffinity -6.40300035
REMARK CNNscore 0.466364086
REMARK CNNaffinity 6.79006577
REMARK  7 active torsions:
REMARK  status: ('A' for Active; 'I' for Inactive)
REMARK    1  A    between atoms: C2_2  and  C3_3 
REMARK    2  A    between atoms: C2_2  and  C9_11 
REMARK    3  A    between atoms: C3_3  and  C4_4 
REMARK    4  A    between atoms: C5_5  and  C6_6 
REMARK    5  A    between atoms: C6_6  and  O1_9 
REMARK    6  A    between atoms: O1_9  and  O2_10 
REMARK    7  A    between atoms: C10_12  and  O3_13 
ROOT
HETATM    1  C9  UNL     1     -12.117  10.427  23.071  1.00  0.00     0.028 C 
HETATM    2  C10 UNL     1     -12.256  10.937  24.534  1.00  0.00     0.124 C 
HETATM    3  C11 UNL     1     -13.032   9.852  25.322  1.00  0.00     0.046 C 
HETATM    4  C12 UNL     1     -13.501   8.831  24.258  1.00  0.00    -0.010 C 
HETATM    5  C13 UNL     1     -14.868   9.355  23.712  1.00  0.00     0.021 C 
HETATM    6  C14 UNL     1     -13.769   7.393  24.691  1.00  0.00    -0.070 C 
HETATM    7  C15 UNL     1     -14.272   7.099  25.910  1.00  0.00    -0.022 C 
HETATM    8  C16 UNL     1     -14.675   5.722  26.359  1.00  0.00     0.034 C 
HETATM    9  C17 UNL     1     -14.228   4.630  25.372  1.00  0.00     0.013 C 
HETATM   10  C18 UNL     1     -14.616   3.165  25.748  1.00  0.00     0.018 C 
HETATM   11  C19 UNL     1     -14.108   2.826  27.165  1.00  0.00     0.023 C 
HETATM   12  C20 UNL     1     -16.118   2.860  25.692  1.00  0.00     0.023 C 
HETATM   13  C21 UNL     1     -13.905   2.216  24.767  1.00  0.00     0.135 C 
HETATM   14  O4  UNL     1     -13.832   1.002  24.972  1.00  0.00    -0.297 OA
HETATM   15  C22 UNL     1     -13.271   2.825  23.534  1.00  0.00     0.080 C 
HETATM   16  C23 UNL     1     -14.214   3.857  22.931  1.00  0.00     0.017 C 
HETATM   17  C24 UNL     1     -14.510   5.058  23.877  1.00  0.00    -0.031 C 
HETATM   18  C25 UNL     1     -15.977   5.497  23.614  1.00  0.00     0.016 C 
HETATM   19  C26 UNL     1     -13.547   6.294  23.626  1.00  0.00     0.024 C 
HETATM   20  C27 UNL     1     -13.532   6.852  22.179  1.00  0.00     0.010 C 
HETATM   21  C28 UNL     1     -12.702   8.138  21.952  1.00  0.00     0.011 C 
HETATM   22  C29 UNL     1     -12.311   8.881  23.241  1.00  0.00    -0.026 C 
HETATM   23  C30 UNL     1     -10.989   8.262  23.796  1.00  0.00     0.016 C 
ENDROOT
BRANCH   1  24
HETATM   24  C2  UNL     1     -10.861  10.880  22.258  1.00  0.00    -0.008 C 
HETATM   25  C1  UNL     1      -9.928  11.872  22.963  1.00  0.00     0.011 C 
BRANCH  24  26
HETATM   26  C3  UNL     1     -11.230  11.411  20.845  1.00  0.00     0.031 C 
BRANCH  26  27
HETATM   27  C4  UNL     1     -10.349  12.508  20.317  1.00  0.00    -0.027 C 
HETATM   28  C5  UNL     1     -10.031  12.649  19.018  1.00  0.00     0.009 C 
BRANCH  28  29
HETATM   29  C6  UNL     1      -9.159  13.720  18.379  1.00  0.00     0.106 C 
HETATM   30  C7  UNL     1      -7.785  13.889  19.049  1.00  0.00     0.053 C 
HETATM   31  C8  UNL     1      -9.878  15.078  18.411  1.00  0.00     0.053 C 
BRANCH  29  32
HETATM   32  O1  UNL     1      -8.864  13.351  17.012  1.00  0.00    -0.229 OA
BRANCH  32  33
HETATM   33  O2  UNL     1      -7.461  13.663  16.741  1.00  0.00    -0.249 OA
HETATM   34  H15 UNL     1      -7.641  14.366  16.093  1.00  0.00     0.253 HD
ENDBRANCH  32  33
ENDBRANCH  29  32
ENDBRANCH  28  29
ENDBRANCH  26  27
ENDBRANCH  24  26
ENDBRANCH   1  24
BRANCH   2  35
HETATM   35  O3  UNL     1     -12.948  12.177  24.584  1.00  0.00    -0.395 OA
HETATM   36  H18 UNL     1     -13.861  12.036  24.282  1.00  0.00     0.210 HD
ENDBRANCH   2  35
TORSDOF 7
ENDMDL
MODEL 5
REMARK minimizedAffinity -7.86050272
REMARK CNNscore 0.46014294
REMARK CNNaffinity 6.85366011
REMARK  7 active torsions:
REMARK  status: ('A' for Active; 'I' for Inactive)
REMARK    1  A    between atoms: C2_2  and  C3_3 
REMARK    2  A    between atoms: C2_2  and  C9_11 
REMARK    3  A    between atoms: C3_3  and  C4_4 
REMARK    4  A    between atoms: C5_5  and  C6_6 
REMARK    5  A    between atoms: C6_6  and  O1_9 
REMARK    6  A    between atoms: O1_9  and  O2_10 
REMARK    7  A    between atoms: C10_12  and  O3_13 
ROOT
HETATM    1  C9  UNL     1       0.282   8.122  14.819  1.00  0.00     0.028 C 
HETATM    2  C10 UNL     1      -0.067   8.640  16.244  1.00  0.00     0.124 C 
HETATM    3  C11 UNL     1      -1.598   8.487  16.420  1.00  0.00     0.046 C 
HETATM    4  C12 UNL     1      -2.132   8.076  15.027  1.00  0.00    -0.010 C 
HETATM    5  C13 UNL     1      -2.394   9.401  14.243  1.00  0.00     0.021 C 
HETATM    6  C14 UNL     1      -3.441   7.298  14.945  1.00  0.00    -0.070 C 
HETATM    7  C15 UNL     1      -4.452   7.513  15.815  1.00  0.00    -0.022 C 
HETATM    8  C16 UNL     1      -5.810   6.874  15.721  1.00  0.00     0.034 C 
HETATM    9  C17 UNL     1      -5.859   5.755  14.668  1.00  0.00     0.013 C 
HETATM   10  C18 UNL     1      -7.238   5.043  14.489  1.00  0.00     0.018 C 
HETATM   11  C19 UNL     1      -7.740   4.504  15.845  1.00  0.00     0.023 C 
HETATM   12  C20 UNL     1      -8.342   5.915  13.881  1.00  0.00     0.023 C 
HETATM   13  C21 UNL     1      -7.032   3.830  13.562  1.00  0.00     0.135 C 
HETATM   14  O4  UNL     1      -7.886   2.950  13.441  1.00  0.00    -0.297 OA
HETATM   15  C22 UNL     1      -5.723   3.737  12.806  1.00  0.00     0.080 C 
HETATM   16  C23 UNL     1      -5.360   5.103  12.243  1.00  0.00     0.017 C 
HETATM   17  C24 UNL     1      -5.127   6.188  13.336  1.00  0.00    -0.031 C 
HETATM   18  C25 UNL     1      -5.625   7.539  12.754  1.00  0.00     0.016 C 
HETATM   19  C26 UNL     1      -3.601   6.332  13.748  1.00  0.00     0.024 C 
HETATM   20  C27 UNL     1      -2.618   6.642  12.589  1.00  0.00     0.010 C 
HETATM   21  C28 UNL     1      -1.150   6.918  12.994  1.00  0.00     0.011 C 
HETATM   22  C29 UNL     1      -0.945   7.205  14.492  1.00  0.00    -0.026 C 
HETATM   23  C30 UNL     1      -0.779   5.847  15.244  1.00  0.00     0.016 C 
ENDROOT
BRANCH   1  24
HETATM   24  C2  UNL     1       1.695   7.491  14.599  1.00  0.00    -0.008 C 
HETATM   25  C1  UNL     1       2.559   7.326  15.855  1.00  0.00     0.011 C 
BRANCH  24  26
HETATM   26  C3  UNL     1       2.504   8.219  13.491  1.00  0.00     0.031 C 
BRANCH  26  27
HETATM   27  C4  UNL     1       2.231   7.762  12.085  1.00  0.00    -0.027 C 
HETATM   28  C5  UNL     1       3.195   7.510  11.182  1.00  0.00     0.009 C 
BRANCH  28  29
HETATM   29  C6  UNL     1       3.030   7.039   9.744  1.00  0.00     0.106 C 
HETATM   30  C7  UNL     1       3.361   8.113   8.694  1.00  0.00     0.053 C 
HETATM   31  C8  UNL     1       1.589   6.562   9.505  1.00  0.00     0.053 C 
BRANCH  29  32
HETATM   32  O1  UNL     1       3.957   5.961   9.480  1.00  0.00    -0.229 OA
BRANCH  32  33
HETATM   33  O2  UNL     1       5.196   6.228  10.209  1.00  0.00    -0.249 OA
HETATM   34  H15 UNL     1       5.748   6.364   9.419  1.00  0.00     0.253 HD
ENDBRANCH  32  33
ENDBRANCH  29  32
ENDBRANCH  28  29
ENDBRANCH  26  27
ENDBRANCH  24  26
ENDBRANCH   1  24
BRANCH   2  35
HETATM   35  O3  UNL     1       0.321   9.997  16.408  1.00  0.00    -0.395 OA
HETATM   36  H18 UNL     1      -0.211  10.547  15.809  1.00  0.00     0.210 HD
ENDBRANCH   2  35
TORSDOF 7
ENDMDL
MODEL 6
REMARK minimizedAffinity -7.61750317
REMARK CNNscore 0.38834551
REMARK CNNaffinity 6.32994032
REMARK  7 active torsions:
REMARK  status: ('A' for Active; 'I' for Inactive)
REMARK    1  A    between atoms: C2_2  and  C3_3 
REMARK    2  A    between atoms: C2_2  and  C9_11 
REMARK    3  A    between atoms: C3_3  and  C4_4 
REMARK    4  A    between atoms: C5_5  and  C6_6 
REMARK    5  A    between atoms: C6_6  and  O1_9 
REMARK    6  A    between atoms: O1_9  and  O2_10 
REMARK    7  A    between atoms: C10_12  and  O3_13 
ROOT
HETATM    1  C9  UNL     1      -1.270   8.043  14.041  1.00  0.00     0.028 C 
HETATM    2  C10 UNL     1      -1.672   7.007  15.130  1.00  0.00     0.124 C 
HETATM    3  C11 UNL     1      -2.075   7.809  16.392  1.00  0.00     0.046 C 
HETATM    4  C12 UNL     1      -1.707   9.279  16.078  1.00  0.00    -0.010 C 
HETATM    5  C13 UNL     1      -0.211   9.460  16.490  1.00  0.00     0.021 C 
HETATM    6  C14 UNL     1      -2.458  10.392  16.803  1.00  0.00    -0.070 C 
HETATM    7  C15 UNL     1      -2.880  10.252  18.078  1.00  0.00    -0.022 C 
HETATM    8  C16 UNL     1      -3.515  11.345  18.893  1.00  0.00     0.034 C 
HETATM    9  C17 UNL     1      -3.862  12.580  18.046  1.00  0.00     0.013 C 
HETATM   10  C18 UNL     1      -4.513  13.776  18.812  1.00  0.00     0.018 C 
HETATM   11  C19 UNL     1      -5.765  13.300  19.577  1.00  0.00     0.023 C 
HETATM   12  C20 UNL     1      -3.587  14.488  19.804  1.00  0.00     0.023 C 
HETATM   13  C21 UNL     1      -4.977  14.813  17.772  1.00  0.00     0.135 C 
HETATM   14  O4  UNL     1      -5.736  15.737  18.069  1.00  0.00    -0.297 OA
HETATM   15  C22 UNL     1      -4.482  14.653  16.350  1.00  0.00     0.080 C 
HETATM   16  C23 UNL     1      -3.001  14.304  16.360  1.00  0.00     0.017 C 
HETATM   17  C24 UNL     1      -2.683  12.950  17.061  1.00  0.00    -0.031 C 
HETATM   18  C25 UNL     1      -1.305  13.109  17.760  1.00  0.00     0.016 C 
HETATM   19  C26 UNL     1      -2.612  11.732  16.047  1.00  0.00     0.024 C 
HETATM   20  C27 UNL     1      -1.600  11.886  14.881  1.00  0.00     0.010 C 
HETATM   21  C28 UNL     1      -1.424  10.652  13.963  1.00  0.00     0.011 C 
HETATM   22  C29 UNL     1      -1.991   9.342  14.540  1.00  0.00    -0.026 C 
HETATM   23  C30 UNL     1      -3.508   9.251  14.180  1.00  0.00     0.016 C 
ENDROOT
BRANCH   1  24
HETATM   24  C2  UNL     1      -1.504   7.655  12.544  1.00  0.00    -0.008 C 
HETATM   25  C1  UNL     1      -1.343   6.168  12.204  1.00  0.00     0.011 C 
BRANCH  24  26
HETATM   26  C3  UNL     1      -0.656   8.517  11.569  1.00  0.00     0.031 C 
BRANCH  26  27
HETATM   27  C4  UNL     1       0.315   7.756  10.711  1.00  0.00    -0.027 C 
HETATM   28  C5  UNL     1       1.645   7.752  10.913  1.00  0.00     0.009 C 
BRANCH  28  29
HETATM   29  C6  UNL     1       2.710   7.015  10.113  1.00  0.00     0.106 C 
HETATM   30  C7  UNL     1       3.951   7.866   9.794  1.00  0.00     0.053 C 
HETATM   31  C8  UNL     1       2.122   6.509   8.787  1.00  0.00     0.053 C 
BRANCH  29  32
HETATM   32  O1  UNL     1       3.211   5.902  10.888  1.00  0.00    -0.229 OA
BRANCH  32  33
HETATM   33  O2  UNL     1       2.452   4.706  10.524  1.00  0.00    -0.249 OA
HETATM   34  H15 UNL     1       2.019   4.597  11.389  1.00  0.00     0.253 HD
ENDBRANCH  32  33
ENDBRANCH  29  32
ENDBRANCH  28  29
ENDBRANCH  26  27
ENDBRANCH  24  26
ENDBRANCH   1  24
BRANCH   2  35
HETATM   35  O3  UNL     1      -0.598   6.125  15.422  1.00  0.00    -0.395 OA
HETATM   36  H18 UNL     1       0.125   6.637  15.822  1.00  0.00     0.210 HD
ENDBRANCH   2  35
TORSDOF 7
ENDMDL
MODEL 7
REMARK minimizedAffinity -6.58022881
REMARK CNNscore 0.368459493
REMARK CNNaffinity 6.5431571
REMARK  7 active torsions:
REMARK  status: ('A' for Active; 'I' for Inactive)
REMARK    1  A    between atoms: C2_2  and  C3_3 
REMARK    2  A    between atoms: C2_2  and  C9_11 
REMARK    3  A    between atoms: C3_3  and  C4_4 
REMARK    4  A    between atoms: C5_5  and  C6_6 
REMARK    5  A    between atoms: C6_6  and  O1_9 
REMARK    6  A    between atoms: O1_9  and  O2_10 
REMARK    7  A    between atoms: C10_12  and  O3_13 
ROOT
HETATM    1  C9  UNL     1     -12.658 -13.266  26.777  1.00  0.00     0.028 C 
HETATM    2  C10 UNL     1     -12.821 -12.630  25.366  1.00  0.00     0.124 C 
HETATM    3  C11 UNL     1     -13.314 -11.177  25.576  1.00  0.00     0.046 C 
HETATM    4  C12 UNL     1     -13.620 -11.064  27.089  1.00  0.00    -0.010 C 
HETATM    5  C13 UNL     1     -15.092 -11.549  27.282  1.00  0.00     0.021 C 
HETATM    6  C14 UNL     1     -13.563  -9.688  27.745  1.00  0.00    -0.070 C 
HETATM    7  C15 UNL     1     -13.929  -8.569  27.084  1.00  0.00    -0.022 C 
HETATM    8  C16 UNL     1     -14.016  -7.201  27.703  1.00  0.00     0.034 C 
HETATM    9  C17 UNL     1     -13.408  -7.157  29.114  1.00  0.00     0.013 C 
HETATM   10  C18 UNL     1     -13.467  -5.777  29.843  1.00  0.00     0.018 C 
HETATM   11  C19 UNL     1     -12.825  -4.682  28.965  1.00  0.00     0.023 C 
HETATM   12  C20 UNL     1     -14.874  -5.312  30.235  1.00  0.00     0.023 C 
HETATM   13  C21 UNL     1     -12.629  -5.881  31.131  1.00  0.00     0.135 C 
HETATM   14  O4  UNL     1     -12.298  -4.884  31.775  1.00  0.00    -0.297 OA
HETATM   15  C22 UNL     1     -12.200  -7.262  31.581  1.00  0.00     0.080 C 
HETATM   16  C23 UNL     1     -13.365  -8.231  31.438  1.00  0.00     0.017 C 
HETATM   17  C24 UNL     1     -13.852  -8.410  29.969  1.00  0.00    -0.031 C 
HETATM   18  C25 UNL     1     -15.389  -8.626  30.018  1.00  0.00     0.016 C 
HETATM   19  C26 UNL     1     -13.177  -9.648  29.242  1.00  0.00     0.024 C 
HETATM   20  C27 UNL     1     -13.354 -11.019  29.946  1.00  0.00     0.010 C 
HETATM   21  C28 UNL     1     -12.819 -12.253  29.182  1.00  0.00     0.011 C 
HETATM   22  C29 UNL     1     -12.521 -12.002  27.693  1.00  0.00    -0.026 C 
HETATM   23  C30 UNL     1     -11.072 -11.433  27.560  1.00  0.00     0.016 C 
ENDROOT
BRANCH   1  24
HETATM   24  C2  UNL     1     -11.567 -14.371  26.956  1.00  0.00    -0.008 C 
HETATM   25  C1  UNL     1     -11.643 -15.183  28.255  1.00  0.00     0.011 C 
BRANCH  24  26
HETATM   26  C3  UNL     1     -10.128 -13.821  26.758  1.00  0.00     0.031 C 
BRANCH  26  27
HETATM   27  C4  UNL     1      -9.639 -13.787  25.337  1.00  0.00    -0.027 C 
HETATM   28  C5  UNL     1      -8.938 -12.766  24.814  1.00  0.00     0.009 C 
BRANCH  28  29
HETATM   29  C6  UNL     1      -8.392 -12.634  23.399  1.00  0.00     0.106 C 
HETATM   30  C7  UNL     1      -9.048 -11.510  22.579  1.00  0.00     0.053 C 
HETATM   31  C8  UNL     1      -8.574 -13.954  22.635  1.00  0.00     0.053 C 
BRANCH  29  32
HETATM   32  O1  UNL     1      -6.990 -12.285  23.453  1.00  0.00    -0.229 OA
BRANCH  32  33
HETATM   33  O2  UNL     1      -6.784 -11.073  22.662  1.00  0.00    -0.249 OA
HETATM   34  H15 UNL     1      -6.242 -11.496  21.973  1.00  0.00     0.253 HD
ENDBRANCH  32  33
ENDBRANCH  29  32
ENDBRANCH  28  29
ENDBRANCH  26  27
ENDBRANCH  24  26
ENDBRANCH   1  24
BRANCH   2  35
HETATM   35  O3  UNL     1     -13.748 -13.362  24.576  1.00  0.00    -0.395 OA
HETATM   36  H18 UNL     1     -14.628 -13.290  24.983  1.00  0.00     0.210 HD
ENDBRANCH   2  35
TORSDOF 7
ENDMDL
MODEL 8
REMARK minimizedAffinity -6.38419819
REMARK CNNscore 0.365901142
REMARK CNNaffinity 6.63462782
REMARK  7 active torsions:
REMARK  status: ('A' for Active; 'I' for Inactive)
REMARK    1  A    between atoms: C2_2  and  C3_3 
REMARK    2  A    between atoms: C2_2  and  C9_11 
REMARK    3  A    between atoms: C3_3  and  C4_4 
REMARK    4  A    between atoms: C5_5  and  C6_6 
REMARK    5  A    between atoms: C6_6  and  O1_9 
REMARK    6  A    between atoms: O1_9  and  O2_10 
REMARK    7  A    between atoms: C10_12  and  O3_13 
ROOT
HETATM    1  C9  UNL     1      -9.847  -7.216  -4.632  1.00  0.00     0.028 C 
HETATM    2  C10 UNL     1      -8.937  -6.271  -3.795  1.00  0.00     0.124 C 
HETATM    3  C11 UNL     1      -7.903  -7.164  -3.066  1.00  0.00     0.046 C 
HETATM    4  C12 UNL     1      -8.358  -8.619  -3.333  1.00  0.00    -0.010 C 
HETATM    5  C13 UNL     1      -9.392  -8.972  -2.216  1.00  0.00     0.021 C 
HETATM    6  C14 UNL     1      -7.317  -9.732  -3.280  1.00  0.00    -0.070 C 
HETATM    7  C15 UNL     1      -6.276  -9.692  -2.421  1.00  0.00    -0.022 C 
HETATM    8  C16 UNL     1      -5.284 -10.806  -2.229  1.00  0.00     0.034 C 
HETATM    9  C17 UNL     1      -5.429 -11.910  -3.290  1.00  0.00     0.013 C 
HETATM   10  C18 UNL     1      -4.448 -13.118  -3.161  1.00  0.00     0.018 C 
HETATM   11  C19 UNL     1      -2.989 -12.619  -3.125  1.00  0.00     0.023 C 
HETATM   12  C20 UNL     1      -4.680 -14.010  -1.936  1.00  0.00     0.023 C 
HETATM   13  C21 UNL     1      -4.602 -13.994  -4.418  1.00  0.00     0.135 C 
HETATM   14  O4  UNL     1      -3.788 -14.875  -4.702  1.00  0.00    -0.297 OA
HETATM   15  C22 UNL     1      -5.790 -13.728  -5.319  1.00  0.00     0.080 C 
HETATM   16  C23 UNL     1      -7.036 -13.513  -4.473  1.00  0.00     0.017 C 
HETATM   17  C24 UNL     1      -6.947 -12.274  -3.534  1.00  0.00    -0.031 C 
HETATM   18  C25 UNL     1      -7.727 -12.626  -2.237  1.00  0.00     0.016 C 
HETATM   19  C26 UNL     1      -7.574 -10.966  -4.177  1.00  0.00     0.024 C 
HETATM   20  C27 UNL     1      -9.053 -11.082  -4.631  1.00  0.00     0.010 C 
HETATM   21  C28 UNL     1      -9.717  -9.778  -5.134  1.00  0.00     0.011 C 
HETATM   22  C29 UNL     1      -8.950  -8.493  -4.777  1.00  0.00    -0.026 C 
HETATM   23  C30 UNL     1      -7.869  -8.232  -5.874  1.00  0.00     0.016 C 
ENDROOT
BRANCH   1  24
HETATM   24  C2  UNL     1     -10.465  -6.652  -5.952  1.00  0.00    -0.008 C 
HETATM   25  C1  UNL     1     -10.782  -7.686  -7.040  1.00  0.00     0.011 C 
BRANCH  24  26
HETATM   26  C3  UNL     1      -9.624  -5.492  -6.552  1.00  0.00     0.031 C 
BRANCH  26  27
HETATM   27  C4  UNL     1      -9.861  -4.139  -5.941  1.00  0.00    -0.027 C 
HETATM   28  C5  UNL     1      -9.604  -2.980  -6.572  1.00  0.00     0.009 C 
BRANCH  28  29
HETATM   29  C6  UNL     1      -9.812  -1.565  -6.052  1.00  0.00     0.106 C 
HETATM   30  C7  UNL     1      -9.699  -0.478  -7.134  1.00  0.00     0.053 C 
HETATM   31  C8  UNL     1      -8.791  -1.250  -4.948  1.00  0.00     0.053 C 
BRANCH  29  32
HETATM   32  O1  UNL     1     -11.155  -1.435  -5.533  1.00  0.00    -0.229 OA
BRANCH  32  33
HETATM   33  O2  UNL     1     -11.118  -1.662  -4.089  1.00  0.00    -0.249 OA
HETATM   34  H15 UNL     1     -11.632  -2.488  -4.106  1.00  0.00     0.253 HD
ENDBRANCH  32  33
ENDBRANCH  29  32
ENDBRANCH  28  29
ENDBRANCH  26  27
ENDBRANCH  24  26
ENDBRANCH   1  24
BRANCH   2  35
HETATM   35  O3  UNL     1      -9.698  -5.521  -2.858  1.00  0.00    -0.395 OA
HETATM   36  H18 UNL     1     -10.081  -6.134  -2.208  1.00  0.00     0.210 HD
ENDBRANCH   2  35
TORSDOF 7
ENDMDL
MODEL 9
REMARK minimizedAffinity -9.04356194
REMARK CNNscore 0.359677702
REMARK CNNaffinity 6.930655
REMARK  7 active torsions:
REMARK  status: ('A' for Active; 'I' for Inactive)
REMARK    1  A    between atoms: C2_2  and  C3_3 
REMARK    2  A    between atoms: C2_2  and  C9_11 
REMARK    3  A    between atoms: C3_3  and  C4_4 
REMARK    4  A    between atoms: C5_5  and  C6_6 
REMARK    5  A    between atoms: C6_6  and  O1_9 
REMARK    6  A    between atoms: O1_9  and  O2_10 
REMARK    7  A    between atoms: C10_12  and  O3_13 
ROOT
HETATM    1  C9  UNL     1      -3.141   7.725  15.076  1.00  0.00     0.028 C 
HETATM    2  C10 UNL     1      -2.241   8.230  16.240  1.00  0.00     0.124 C 
HETATM    3  C11 UNL     1      -0.771   8.096  15.769  1.00  0.00     0.046 C 
HETATM    4  C12 UNL     1      -0.841   7.330  14.425  1.00  0.00    -0.010 C 
HETATM    5  C13 UNL     1      -0.825   5.809  14.780  1.00  0.00     0.021 C 
HETATM    6  C14 UNL     1       0.288   7.517  13.417  1.00  0.00    -0.070 C 
HETATM    7  C15 UNL     1       1.566   7.709  13.808  1.00  0.00    -0.022 C 
HETATM    8  C16 UNL     1       2.744   7.778  12.875  1.00  0.00     0.034 C 
HETATM    9  C17 UNL     1       2.319   7.853  11.400  1.00  0.00     0.013 C 
HETATM   10  C18 UNL     1       3.478   7.913  10.355  1.00  0.00     0.018 C 
HETATM   11  C19 UNL     1       4.431   9.081  10.682  1.00  0.00     0.023 C 
HETATM   12  C20 UNL     1       4.311   6.631  10.240  1.00  0.00     0.023 C 
HETATM   13  C21 UNL     1       2.860   8.199   8.973  1.00  0.00     0.135 C 
HETATM   14  O4  UNL     1       3.549   8.538   8.009  1.00  0.00    -0.297 OA
HETATM   15  C22 UNL     1       1.358   8.067   8.833  1.00  0.00     0.080 C 
HETATM   16  C23 UNL     1       0.886   6.811   9.552  1.00  0.00     0.017 C 
HETATM   17  C24 UNL     1       1.156   6.830  11.085  1.00  0.00    -0.031 C 
HETATM   18  C25 UNL     1       1.469   5.370  11.514  1.00  0.00     0.016 C 
HETATM   19  C26 UNL     1      -0.082   7.362  11.923  1.00  0.00     0.024 C 
HETATM   20  C27 UNL     1      -1.416   6.600  11.710  1.00  0.00     0.010 C 
HETATM   21  C28 UNL     1      -2.596   7.020  12.619  1.00  0.00     0.011 C 
HETATM   22  C29 UNL     1      -2.190   7.866  13.839  1.00  0.00    -0.026 C 
HETATM   23  C30 UNL     1      -2.133   9.367  13.411  1.00  0.00     0.016 C 
ENDROOT
BRANCH   1  24
HETATM   24  C2  UNL     1      -4.564   8.356  14.930  1.00  0.00    -0.008 C 
HETATM   25  C1  UNL     1      -4.811   9.645  15.724  1.00  0.00     0.011 C 
BRANCH  24  26
HETATM   26  C3  UNL     1      -5.698   7.333  15.212  1.00  0.00     0.031 C 
BRANCH  26  27
HETATM   27  C4  UNL     1      -5.956   6.335  14.118  1.00  0.00    -0.027 C 
HETATM   28  C5  UNL     1      -6.938   5.417  14.161  1.00  0.00     0.009 C 
BRANCH  28  29
HETATM   29  C6  UNL     1      -7.287   4.372  13.112  1.00  0.00     0.106 C 
HETATM   30  C7  UNL     1      -6.078   3.864  12.308  1.00  0.00     0.053 C 
HETATM   31  C8  UNL     1      -8.318   4.937  12.123  1.00  0.00     0.053 C 
BRANCH  29  32
HETATM   32  O1  UNL     1      -7.822   3.196  13.762  1.00  0.00    -0.229 OA
BRANCH  32  33
HETATM   33  O2  UNL     1      -8.269   2.260  12.732  1.00  0.00    -0.249 OA
HETATM   34  H15 UNL     1      -9.216   2.321  12.947  1.00  0.00     0.253 HD
ENDBRANCH  32  33
ENDBRANCH  29  32
ENDBRANCH  28  29
ENDBRANCH  26  27
ENDBRANCH  24  26
ENDBRANCH   1  24
BRANCH   2  35
HETATM   35  O3  UNL     1      -2.455   7.472  17.423  1.00  0.00    -0.395 OA
HETATM   36  H18 UNL     1      -2.165   6.559  17.264  1.00  0.00     0.210 HD
ENDBRANCH   2  35
TORSDOF 7
ENDMDL
