MODEL 1
REMARK minimizedAffinity -7.42115402
REMARK CNNscore 0.536679566
REMARK CNNaffinity 6.42201853
REMARK  13 active torsions:
REMARK  status: ('A' for Active; 'I' for Inactive)
REMARK    1  A    between atoms: O1_2  and  C2_3 
REMARK    2  A    between atoms: C2_3  and  C5_6 
REMARK    3  A    between atoms: C6_7  and  C7_8 
REMARK    4  A    between atoms: C7_8  and  C8_9 
REMARK    5  A    between atoms: C8_9  and  C10_11 
REMARK    6  A    between atoms: C16_17  and  O2_18 
REMARK    7  A    between atoms: O2_18  and  C17_19 
REMARK    8  A    between atoms: C18_21  and  C19_22 
REMARK    9  A    between atoms: C19_22  and  O4_23 
REMARK   10  A    between atoms: C20_24  and  O5_25 
REMARK   11  A    between atoms: C21_26  and  O6_27 
REMARK   12  A    between atoms: C22_28  and  O7_29 
REMARK   13  A    between atoms: C32_39  and  C33_40 
ROOT
HETATM    1  C10 UNL     1      -1.956  12.547  18.474  1.00  0.00    -0.002 C 
HETATM    2  C11 UNL     1      -1.768  11.283  17.582  1.00  0.00     0.006 C 
HETATM    3  C12 UNL     1      -0.271  10.914  17.609  1.00  0.00     0.011 C 
HETATM    4  C13 UNL     1       0.325  11.748  18.761  1.00  0.00    -0.029 C 
HETATM    5  C14 UNL     1       0.008  10.938  20.061  1.00  0.00     0.016 C 
HETATM    6  C15 UNL     1       1.862  12.034  18.630  1.00  0.00     0.043 C 
HETATM    7  C16 UNL     1       2.740  10.761  18.766  1.00  0.00     0.153 C 
HETATM    8  C23 UNL     1       3.108  10.483  20.195  1.00  0.00     0.009 C 
HETATM    9  C24 UNL     1       3.479  11.460  21.045  1.00  0.00    -0.068 C 
HETATM   10  C25 UNL     1       3.598  12.859  20.450  1.00  0.00     0.031 C 
HETATM   11  C26 UNL     1       4.033  13.941  21.460  1.00  0.00     0.010 C 
HETATM   12  C27 UNL     1       3.501  13.801  22.882  1.00  0.00     0.002 C 
HETATM   13  C28 UNL     1       3.146  12.384  23.327  1.00  0.00     0.013 C 
HETATM   14  C29 UNL     1       3.808  11.246  22.523  1.00  0.00    -0.024 C 
HETATM   15  C30 UNL     1       5.333  11.214  22.738  1.00  0.00     0.019 C 
HETATM   16  C31 UNL     1       3.242   9.918  23.089  1.00  0.00     0.019 C 
HETATM   17  C32 UNL     1       2.349  13.241  19.552  1.00  0.00     0.027 C 
HETATM   18  C34 UNL     1       1.206  13.851  20.423  1.00  0.00     0.018 C 
HETATM   19  C35 UNL     1      -0.204  13.982  19.815  1.00  0.00     0.011 C 
HETATM   20  C36 UNL     1      -0.489  13.084  18.605  1.00  0.00    -0.032 C 
HETATM   21  C37 UNL     1      -0.159  13.887  17.308  1.00  0.00     0.016 C 
ENDROOT
BRANCH   7  22
HETATM   22  O2  UNL     1       3.977  10.947  18.084  1.00  0.00    -0.349 OA
BRANCH  22  23
HETATM   23  C17 UNL     1       3.969  10.615  16.698  1.00  0.00     0.292 C 
HETATM   24  O3  UNL     1       3.323   9.338  16.597  1.00  0.00    -0.348 OA
HETATM   25  C18 UNL     1       3.299   8.833  15.253  1.00  0.00     0.179 C 
HETATM   26  C20 UNL     1       4.736   8.539  14.826  1.00  0.00     0.180 C 
HETATM   27  C21 UNL     1       5.542   9.840  14.852  1.00  0.00     0.183 C 
HETATM   28  C22 UNL     1       5.431  10.564  16.199  1.00  0.00     0.204 C 
BRANCH  25  29
HETATM   29  C19 UNL     1       2.426   7.577  15.258  1.00  0.00     0.198 C 
BRANCH  29  30
HETATM   30  O4  UNL     1       2.013   7.303  16.599  1.00  0.00    -0.398 OA
HETATM   31  H32 UNL     1       2.841   7.250  17.119  1.00  0.00     0.209 HD
ENDBRANCH  29  30
ENDBRANCH  25  29
BRANCH  26  32
HETATM   32  O5  UNL     1       5.361   7.605  15.726  1.00  0.00    -0.390 OA
HETATM   33  H34 UNL     1       5.021   7.790  16.624  1.00  0.00     0.210 HD
ENDBRANCH  26  32
BRANCH  27  34
HETATM   34  O6  UNL     1       6.928   9.563  14.583  1.00  0.00    -0.390 OA
HETATM   35  H36 UNL     1       7.113   8.699  15.006  1.00  0.00     0.210 HD
ENDBRANCH  27  34
BRANCH  28  36
HETATM   36  O7  UNL     1       5.957  11.895  16.035  1.00  0.00    -0.388 OA
HETATM   37  H38 UNL     1       6.900  11.765  15.802  1.00  0.00     0.210 HD
ENDBRANCH  28  36
ENDBRANCH  22  23
ENDBRANCH   7  22
BRANCH  17  38
HETATM   38  C33 UNL     1       2.880  14.369  18.648  1.00  0.00     0.241 C 
HETATM   39  O8  UNL     1       2.617  15.560  18.778  1.00  0.00    -0.306 OA
ENDBRANCH  17  38
BRANCH   1  40
HETATM   40  C8  UNL     1      -3.092  13.477  17.951  1.00  0.00    -0.010 C 
HETATM   41  C9  UNL     1      -2.996  14.891  18.543  1.00  0.00     0.010 C 
BRANCH  40  42
HETATM   42  C7  UNL     1      -4.483  12.874  18.286  1.00  0.00     0.031 C 
BRANCH  42  43
HETATM   43  C6  UNL     1      -4.965  13.223  19.669  1.00  0.00    -0.027 C 
HETATM   44  C5  UNL     1      -6.257  13.406  19.987  1.00  0.00     0.006 C 
BRANCH  44  45
HETATM   45  C2  UNL     1      -6.836  13.761  21.344  1.00  0.00     0.070 C 
HETATM   46  C3  UNL     1      -6.987  15.264  21.632  1.00  0.00     0.050 C 
HETATM   47  C4  UNL     1      -5.911  13.159  22.416  1.00  0.00     0.050 C 
BRANCH  45  48
HETATM   48  O1  UNL     1      -8.088  13.072  21.492  1.00  0.00    -0.382 OA
HETATM   49  C1  UNL     1      -8.496  12.792  22.825  1.00  0.00     0.202 C 
ENDBRANCH  45  48
ENDBRANCH  44  45
ENDBRANCH  42  43
ENDBRANCH  40  42
ENDBRANCH   1  40
TORSDOF 13
ENDMDL
MODEL 2
REMARK minimizedAffinity -6.9776597
REMARK CNNscore 0.365404934
REMARK CNNaffinity 6.9216094
REMARK  13 active torsions:
REMARK  status: ('A' for Active; 'I' for Inactive)
REMARK    1  A    between atoms: O1_2  and  C2_3 
REMARK    2  A    between atoms: C2_3  and  C5_6 
REMARK    3  A    between atoms: C6_7  and  C7_8 
REMARK    4  A    between atoms: C7_8  and  C8_9 
REMARK    5  A    between atoms: C8_9  and  C10_11 
REMARK    6  A    between atoms: C16_17  and  O2_18 
REMARK    7  A    between atoms: O2_18  and  C17_19 
REMARK    8  A    between atoms: C18_21  and  C19_22 
REMARK    9  A    between atoms: C19_22  and  O4_23 
REMARK   10  A    between atoms: C20_24  and  O5_25 
REMARK   11  A    between atoms: C21_26  and  O6_27 
REMARK   12  A    between atoms: C22_28  and  O7_29 
REMARK   13  A    between atoms: C32_39  and  C33_40 
ROOT
HETATM    1  C10 UNL     1     -10.723   7.919  14.867  1.00  0.00    -0.002 C 
HETATM    2  C11 UNL     1     -10.663   9.476  14.842  1.00  0.00     0.006 C 
HETATM    3  C12 UNL     1     -12.073   9.989  14.489  1.00  0.00     0.011 C 
HETATM    4  C13 UNL     1     -12.995   8.762  14.642  1.00  0.00    -0.029 C 
HETATM    5  C14 UNL     1     -13.310   8.672  16.171  1.00  0.00     0.016 C 
HETATM    6  C15 UNL     1     -14.312   8.827  13.792  1.00  0.00     0.043 C 
HETATM    7  C16 UNL     1     -15.295   9.934  14.261  1.00  0.00     0.153 C 
HETATM    8  C23 UNL     1     -16.232   9.438  15.325  1.00  0.00     0.009 C 
HETATM    9  C24 UNL     1     -16.812   8.223  15.263  1.00  0.00    -0.068 C 
HETATM   10  C25 UNL     1     -16.540   7.413  14.000  1.00  0.00     0.031 C 
HETATM   11  C26 UNL     1     -17.233   6.034  13.972  1.00  0.00     0.010 C 
HETATM   12  C27 UNL     1     -17.334   5.294  15.301  1.00  0.00     0.002 C 
HETATM   13  C28 UNL     1     -17.333   6.166  16.554  1.00  0.00     0.013 C 
HETATM   14  C29 UNL     1     -17.727   7.642  16.341  1.00  0.00    -0.024 C 
HETATM   15  C30 UNL     1     -19.205   7.779  15.928  1.00  0.00     0.019 C 
HETATM   16  C31 UNL     1     -17.574   8.343  17.716  1.00  0.00     0.019 C 
HETATM   17  C32 UNL     1     -15.004   7.401  13.610  1.00  0.00     0.027 C 
HETATM   18  C34 UNL     1     -14.252   6.252  14.352  1.00  0.00     0.018 C 
HETATM   19  C35 UNL     1     -12.711   6.265  14.376  1.00  0.00     0.011 C 
HETATM   20  C36 UNL     1     -12.056   7.624  14.097  1.00  0.00    -0.032 C 
HETATM   21  C37 UNL     1     -11.755   7.719  12.569  1.00  0.00     0.016 C 
ENDROOT
BRANCH   7  22
HETATM   22  O2  UNL     1     -16.128  10.337  13.178  1.00  0.00    -0.349 OA
BRANCH  22  23
HETATM   23  C17 UNL     1     -15.618  11.399  12.376  1.00  0.00     0.292 C 
HETATM   24  O3  UNL     1     -14.742  12.154  13.224  1.00  0.00    -0.348 OA
HETATM   25  C18 UNL     1     -14.197  13.312  12.569  1.00  0.00     0.179 C 
HETATM   26  C20 UNL     1     -15.341  14.283  12.285  1.00  0.00     0.180 C 
HETATM   27  C21 UNL     1     -16.348  13.610  11.347  1.00  0.00     0.183 C 
HETATM   28  C22 UNL     1     -16.809  12.246  11.874  1.00  0.00     0.204 C 
BRANCH  25  29
HETATM   29  C19 UNL     1     -13.147  13.910  13.507  1.00  0.00     0.198 C 
BRANCH  29  30
HETATM   30  O4  UNL     1     -11.958  14.180  12.761  1.00  0.00    -0.398 OA
HETATM   31  H32 UNL     1     -11.718  13.331  12.338  1.00  0.00     0.209 HD
ENDBRANCH  29  30
ENDBRANCH  25  29
BRANCH  26  32
HETATM   32  O5  UNL     1     -16.027  14.642  13.498  1.00  0.00    -0.390 OA
HETATM   33  H34 UNL     1     -16.032  13.855  14.078  1.00  0.00     0.210 HD
ENDBRANCH  26  32
BRANCH  27  34
HETATM   34  O6  UNL     1     -17.497  14.458  11.173  1.00  0.00    -0.390 OA
HETATM   35  H36 UNL     1     -17.637  14.896  12.038  1.00  0.00     0.210 HD
ENDBRANCH  27  34
BRANCH  28  36
HETATM   36  O7  UNL     1     -17.501  11.568  10.809  1.00  0.00    -0.388 OA
HETATM   37  H38 UNL     1     -18.278  12.132  10.614  1.00  0.00     0.210 HD
ENDBRANCH  28  36
ENDBRANCH  22  23
ENDBRANCH   7  22
BRANCH  17  38
HETATM   38  C33 UNL     1     -15.011   7.044  12.112  1.00  0.00     0.241 C 
HETATM   39  O8  UNL     1     -15.688   7.606  11.256  1.00  0.00    -0.306 OA
ENDBRANCH  17  38
BRANCH   1  40
HETATM   40  C8  UNL     1      -9.385   7.268  14.404  1.00  0.00    -0.010 C 
HETATM   41  C9  UNL     1      -9.609   6.198  13.325  1.00  0.00     0.010 C 
BRANCH  40  42
HETATM   42  C7  UNL     1      -8.645   6.631  15.611  1.00  0.00     0.031 C 
BRANCH  42  43
HETATM   43  C6  UNL     1      -7.179   6.967  15.655  1.00  0.00    -0.027 C 
HETATM   44  C5  UNL     1      -6.550   7.697  14.720  1.00  0.00     0.006 C 
BRANCH  44  45
HETATM   45  C2  UNL     1      -5.083   8.083  14.676  1.00  0.00     0.070 C 
HETATM   46  C3  UNL     1      -4.536   8.467  13.290  1.00  0.00     0.050 C 
HETATM   47  C4  UNL     1      -4.271   6.884  15.195  1.00  0.00     0.050 C 
BRANCH  45  48
HETATM   48  O1  UNL     1      -4.865   9.132  15.633  1.00  0.00    -0.382 OA
HETATM   49  C1  UNL     1      -4.029  10.202  15.212  1.00  0.00     0.202 C 
ENDBRANCH  45  48
ENDBRANCH  44  45
ENDBRANCH  42  43
ENDBRANCH  40  42
ENDBRANCH   1  40
TORSDOF 13
ENDMDL
MODEL 3
REMARK minimizedAffinity -6.67144108
REMARK CNNscore 0.303069621
REMARK CNNaffinity 6.83490705
REMARK  13 active torsions:
REMARK  status: ('A' for Active; 'I' for Inactive)
REMARK    1  A    between atoms: O1_2  and  C2_3 
REMARK    2  A    between atoms: C2_3  and  C5_6 
REMARK    3  A    between atoms: C6_7  and  C7_8 
REMARK    4  A    between atoms: C7_8  and  C8_9 
REMARK    5  A    between atoms: C8_9  and  C10_11 
REMARK    6  A    between atoms: C16_17  and  O2_18 
REMARK    7  A    between atoms: O2_18  and  C17_19 
REMARK    8  A    between atoms: C18_21  and  C19_22 
REMARK    9  A    between atoms: C19_22  and  O4_23 
REMARK   10  A    between atoms: C20_24  and  O5_25 
REMARK   11  A    between atoms: C21_26  and  O6_27 
REMARK   12  A    between atoms: C22_28  and  O7_29 
REMARK   13  A    between atoms: C32_39  and  C33_40 
ROOT
HETATM    1  C10 UNL     1     -12.016   8.631  15.525  1.00  0.00    -0.002 C 
HETATM    2  C11 UNL     1     -12.547  10.074  15.775  1.00  0.00     0.006 C 
HETATM    3  C12 UNL     1     -13.993  10.136  15.245  1.00  0.00     0.011 C 
HETATM    4  C13 UNL     1     -14.393   8.666  15.003  1.00  0.00    -0.029 C 
HETATM    5  C14 UNL     1     -14.833   8.125  16.403  1.00  0.00     0.016 C 
HETATM    6  C15 UNL     1     -15.524   8.467  13.935  1.00  0.00     0.043 C 
HETATM    7  C16 UNL     1     -16.902   9.028  14.382  1.00  0.00     0.153 C 
HETATM    8  C23 UNL     1     -17.703   8.009  15.142  1.00  0.00     0.009 C 
HETATM    9  C24 UNL     1     -17.768   6.718  14.762  1.00  0.00    -0.068 C 
HETATM   10  C25 UNL     1     -17.060   6.364  13.459  1.00  0.00     0.031 C 
HETATM   11  C26 UNL     1     -17.172   4.877  13.063  1.00  0.00     0.010 C 
HETATM   12  C27 UNL     1     -17.145   3.863  14.201  1.00  0.00     0.002 C 
HETATM   13  C28 UNL     1     -17.625   4.370  15.559  1.00  0.00     0.013 C 
HETATM   14  C29 UNL     1     -18.519   5.627  15.526  1.00  0.00    -0.024 C 
HETATM   15  C30 UNL     1     -19.877   5.337  14.859  1.00  0.00     0.019 C 
HETATM   16  C31 UNL     1     -18.809   6.002  17.002  1.00  0.00     0.019 C 
HETATM   17  C32 UNL     1     -15.599   6.972  13.382  1.00  0.00     0.027 C 
HETATM   18  C34 UNL     1     -14.564   6.015  14.053  1.00  0.00     0.018 C 
HETATM   19  C35 UNL     1     -13.157   6.553  14.381  1.00  0.00     0.011 C 
HETATM   20  C36 UNL     1     -13.036   8.079  14.469  1.00  0.00    -0.032 C 
HETATM   21  C37 UNL     1     -12.611   8.620  13.069  1.00  0.00     0.016 C 
ENDROOT
BRANCH   7  22
HETATM   22  O2  UNL     1     -17.688   9.357  13.241  1.00  0.00    -0.349 OA
BRANCH  22  23
HETATM   23  C17 UNL     1     -17.309  10.549  12.558  1.00  0.00     0.292 C 
HETATM   24  O3  UNL     1     -17.636  11.633  13.439  1.00  0.00    -0.348 OA
HETATM   25  C18 UNL     1     -17.372  12.920  12.857  1.00  0.00     0.179 C 
HETATM   26  C20 UNL     1     -18.327  13.118  11.680  1.00  0.00     0.180 C 
HETATM   27  C21 UNL     1     -18.060  12.034  10.632  1.00  0.00     0.183 C 
HETATM   28  C22 UNL     1     -18.099  10.624  11.232  1.00  0.00     0.204 C 
BRANCH  25  29
HETATM   29  C19 UNL     1     -17.579  13.964  13.955  1.00  0.00     0.198 C 
BRANCH  29  30
HETATM   30  O4  UNL     1     -18.186  15.126  13.383  1.00  0.00    -0.398 OA
HETATM   31  H32 UNL     1     -17.598  15.391  12.648  1.00  0.00     0.209 HD
ENDBRANCH  29  30
ENDBRANCH  25  29
BRANCH  26  32
HETATM   32  O5  UNL     1     -19.698  13.006  12.104  1.00  0.00    -0.390 OA
HETATM   33  H34 UNL     1     -19.734  12.325  12.806  1.00  0.00     0.210 HD
ENDBRANCH  26  32
BRANCH  27  34
HETATM   34  O6  UNL     1     -19.035  12.123   9.578  1.00  0.00    -0.390 OA
HETATM   35  H36 UNL     1     -19.873  12.385  10.014  1.00  0.00     0.210 HD
ENDBRANCH  27  34
BRANCH  28  36
HETATM   36  O7  UNL     1     -17.550   9.711  10.263  1.00  0.00    -0.388 OA
HETATM   37  H38 UNL     1     -18.156   9.765   9.495  1.00  0.00     0.210 HD
ENDBRANCH  28  36
ENDBRANCH  22  23
ENDBRANCH   7  22
BRANCH  17  38
HETATM   38  C33 UNL     1     -15.289   6.989  11.873  1.00  0.00     0.241 C 
HETATM   39  O8  UNL     1     -15.838   7.714  11.049  1.00  0.00    -0.306 OA
ENDBRANCH  17  38
BRANCH   1  40
HETATM   40  C8  UNL     1     -10.486   8.605  15.230  1.00  0.00    -0.010 C 
HETATM   41  C9  UNL     1      -9.916  10.017  15.025  1.00  0.00     0.010 C 
BRANCH  40  42
HETATM   42  C7  UNL     1     -10.191   7.746  13.972  1.00  0.00     0.031 C 
BRANCH  42  43
HETATM   43  C6  UNL     1      -9.292   6.571  14.252  1.00  0.00    -0.027 C 
HETATM   44  C5  UNL     1      -8.386   6.098  13.381  1.00  0.00     0.006 C 
BRANCH  44  45
HETATM   45  C2  UNL     1      -7.443   4.925  13.570  1.00  0.00     0.070 C 
HETATM   46  C3  UNL     1      -7.436   4.294  14.973  1.00  0.00     0.050 C 
HETATM   47  C4  UNL     1      -6.018   5.419  13.262  1.00  0.00     0.050 C 
BRANCH  45  48
HETATM   48  O1  UNL     1      -7.732   3.946  12.558  1.00  0.00    -0.382 OA
HETATM   49  C1  UNL     1      -7.433   2.596  12.887  1.00  0.00     0.202 C 
ENDBRANCH  45  48
ENDBRANCH  44  45
ENDBRANCH  42  43
ENDBRANCH  40  42
ENDBRANCH   1  40
TORSDOF 13
ENDMDL
MODEL 4
REMARK minimizedAffinity -7.05989838
REMARK CNNscore 0.25888145
REMARK CNNaffinity 6.82305193
REMARK  13 active torsions:
REMARK  status: ('A' for Active; 'I' for Inactive)
REMARK    1  A    between atoms: O1_2  and  C2_3 
REMARK    2  A    between atoms: C2_3  and  C5_6 
REMARK    3  A    between atoms: C6_7  and  C7_8 
REMARK    4  A    between atoms: C7_8  and  C8_9 
REMARK    5  A    between atoms: C8_9  and  C10_11 
REMARK    6  A    between atoms: C16_17  and  O2_18 
REMARK    7  A    between atoms: O2_18  and  C17_19 
REMARK    8  A    between atoms: C18_21  and  C19_22 
REMARK    9  A    between atoms: C19_22  and  O4_23 
REMARK   10  A    between atoms: C20_24  and  O5_25 
REMARK   11  A    between atoms: C21_26  and  O6_27 
REMARK   12  A    between atoms: C22_28  and  O7_29 
REMARK   13  A    between atoms: C32_39  and  C33_40 
ROOT
HETATM    1  C10 UNL     1      -9.953   7.488  14.868  1.00  0.00    -0.002 C 
HETATM    2  C11 UNL     1      -9.508   8.981  14.852  1.00  0.00     0.006 C 
HETATM    3  C12 UNL     1     -10.769   9.840  14.635  1.00  0.00     0.011 C 
HETATM    4  C13 UNL     1     -11.953   8.876  14.860  1.00  0.00    -0.029 C 
HETATM    5  C14 UNL     1     -12.146   8.820  16.411  1.00  0.00     0.016 C 
HETATM    6  C15 UNL     1     -13.280   9.294  14.136  1.00  0.00     0.043 C 
HETATM    7  C16 UNL     1     -13.909  10.596  14.703  1.00  0.00     0.153 C 
HETATM    8  C23 UNL     1     -14.845  10.315  15.844  1.00  0.00     0.009 C 
HETATM    9  C24 UNL     1     -15.714   9.285  15.824  1.00  0.00    -0.068 C 
HETATM   10  C25 UNL     1     -15.764   8.473  14.535  1.00  0.00     0.031 C 
HETATM   11  C26 UNL     1     -16.780   7.312  14.559  1.00  0.00     0.010 C 
HETATM   12  C27 UNL     1     -16.948   6.578  15.885  1.00  0.00     0.002 C 
HETATM   13  C28 UNL     1     -16.620   7.383  17.140  1.00  0.00     0.013 C 
HETATM   14  C29 UNL     1     -16.649   8.917  16.977  1.00  0.00    -0.024 C 
HETATM   15  C30 UNL     1     -18.075   9.430  16.702  1.00  0.00     0.019 C 
HETATM   16  C31 UNL     1     -16.206   9.514  18.338  1.00  0.00     0.019 C 
HETATM   17  C32 UNL     1     -14.320   8.092  14.005  1.00  0.00     0.027 C 
HETATM   18  C34 UNL     1     -13.819   6.769  14.666  1.00  0.00     0.018 C 
HETATM   19  C35 UNL     1     -12.327   6.397  14.548  1.00  0.00     0.011 C 
HETATM   20  C36 UNL     1     -11.379   7.558  14.222  1.00  0.00    -0.032 C 
HETATM   21  C37 UNL     1     -11.198   7.624  12.673  1.00  0.00     0.016 C 
ENDROOT
BRANCH   7  22
HETATM   22  O2  UNL     1     -14.705  11.228  13.705  1.00  0.00    -0.349 OA
BRANCH  22  23
HETATM   23  C17 UNL     1     -14.548  12.640  13.599  1.00  0.00     0.292 C 
HETATM   24  O3  UNL     1     -15.108  13.010  12.331  1.00  0.00    -0.348 OA
HETATM   25  C18 UNL     1     -14.961  14.411  12.047  1.00  0.00     0.179 C 
HETATM   26  C20 UNL     1     -13.473  14.712  11.881  1.00  0.00     0.180 C 
HETATM   27  C21 UNL     1     -12.748  14.393  13.191  1.00  0.00     0.183 C 
HETATM   28  C22 UNL     1     -13.042  12.972  13.685  1.00  0.00     0.204 C 
BRANCH  25  29
HETATM   29  C19 UNL     1     -15.758  14.699  10.774  1.00  0.00     0.198 C 
BRANCH  29  30
HETATM   30  O4  UNL     1     -16.646  13.607  10.523  1.00  0.00    -0.398 OA
HETATM   31  H32 UNL     1     -16.078  12.811  10.500  1.00  0.00     0.209 HD
ENDBRANCH  29  30
ENDBRANCH  25  29
BRANCH  26  32
HETATM   32  O5  UNL     1     -12.896  13.904  10.839  1.00  0.00    -0.390 OA
HETATM   33  H34 UNL     1     -13.338  13.031  10.865  1.00  0.00     0.210 HD
ENDBRANCH  26  32
BRANCH  27  34
HETATM   34  O6  UNL     1     -11.329  14.544  13.015  1.00  0.00    -0.390 OA
HETATM   35  H36 UNL     1     -11.141  14.242  12.102  1.00  0.00     0.210 HD
ENDBRANCH  27  34
BRANCH  28  36
HETATM   36  O7  UNL     1     -12.576  12.867  15.044  1.00  0.00    -0.388 OA
HETATM   37  H38 UNL     1     -11.608  13.009  14.990  1.00  0.00     0.210 HD
ENDBRANCH  28  36
ENDBRANCH  22  23
ENDBRANCH   7  22
BRANCH  17  38
HETATM   38  C33 UNL     1     -14.546   7.795  12.511  1.00  0.00     0.241 C 
HETATM   39  O8  UNL     1     -15.081   8.559  11.714  1.00  0.00    -0.306 OA
ENDBRANCH  17  38
BRANCH   1  40
HETATM   40  C8  UNL     1      -8.867   6.539  14.279  1.00  0.00    -0.010 C 
HETATM   41  C9  UNL     1      -7.476   7.191  14.272  1.00  0.00     0.010 C 
BRANCH  40  42
HETATM   42  C7  UNL     1      -9.242   6.118  12.833  1.00  0.00     0.031 C 
BRANCH  42  43
HETATM   43  C6  UNL     1      -8.206   5.242  12.180  1.00  0.00    -0.027 C 
HETATM   44  C5  UNL     1      -7.331   4.485  12.861  1.00  0.00     0.006 C 
BRANCH  44  45
HETATM   45  C2  UNL     1      -6.254   3.577  12.296  1.00  0.00     0.070 C 
HETATM   46  C3  UNL     1      -4.847   3.760  12.890  1.00  0.00     0.050 C 
HETATM   47  C4  UNL     1      -6.171   3.842  10.782  1.00  0.00     0.050 C 
BRANCH  45  48
HETATM   48  O1  UNL     1      -6.702   2.217  12.419  1.00  0.00    -0.382 OA
HETATM   49  C1  UNL     1      -6.220   1.306  11.440  1.00  0.00     0.202 C 
ENDBRANCH  45  48
ENDBRANCH  44  45
ENDBRANCH  42  43
ENDBRANCH  40  42
ENDBRANCH   1  40
TORSDOF 13
ENDMDL
MODEL 5
REMARK minimizedAffinity -7.54638529
REMARK CNNscore 0.25789842
REMARK CNNaffinity 6.02369881
REMARK  13 active torsions:
REMARK  status: ('A' for Active; 'I' for Inactive)
REMARK    1  A    between atoms: O1_2  and  C2_3 
REMARK    2  A    between atoms: C2_3  and  C5_6 
REMARK    3  A    between atoms: C6_7  and  C7_8 
REMARK    4  A    between atoms: C7_8  and  C8_9 
REMARK    5  A    between atoms: C8_9  and  C10_11 
REMARK    6  A    between atoms: C16_17  and  O2_18 
REMARK    7  A    between atoms: O2_18  and  C17_19 
REMARK    8  A    between atoms: C18_21  and  C19_22 
REMARK    9  A    between atoms: C19_22  and  O4_23 
REMARK   10  A    between atoms: C20_24  and  O5_25 
REMARK   11  A    between atoms: C21_26  and  O6_27 
REMARK   12  A    between atoms: C22_28  and  O7_29 
REMARK   13  A    between atoms: C32_39  and  C33_40 
ROOT
HETATM    1  C10 UNL     1      -1.689  11.736  18.363  1.00  0.00    -0.002 C 
HETATM    2  C11 UNL     1      -1.249  10.464  17.578  1.00  0.00     0.006 C 
HETATM    3  C12 UNL     1       0.289  10.380  17.655  1.00  0.00     0.011 C 
HETATM    4  C13 UNL     1       0.690  11.395  18.746  1.00  0.00    -0.029 C 
HETATM    5  C14 UNL     1       0.489  10.642  20.102  1.00  0.00     0.016 C 
HETATM    6  C15 UNL     1       2.152  11.948  18.613  1.00  0.00     0.043 C 
HETATM    7  C16 UNL     1       3.244  10.872  18.863  1.00  0.00     0.153 C 
HETATM    8  C23 UNL     1       3.615  10.776  20.315  1.00  0.00     0.009 C 
HETATM    9  C24 UNL     1       3.777  11.868  21.089  1.00  0.00    -0.068 C 
HETATM   10  C25 UNL     1       3.656  13.215  20.385  1.00  0.00     0.031 C 
HETATM   11  C26 UNL     1       3.858  14.432  21.312  1.00  0.00     0.010 C 
HETATM   12  C27 UNL     1       3.320  14.306  22.733  1.00  0.00     0.002 C 
HETATM   13  C28 UNL     1       3.217  12.886  23.285  1.00  0.00     0.013 C 
HETATM   14  C29 UNL     1       4.098  11.831  22.584  1.00  0.00    -0.024 C 
HETATM   15  C30 UNL     1       5.597  12.097  22.822  1.00  0.00     0.019 C 
HETATM   16  C31 UNL     1       3.768  10.468  23.247  1.00  0.00     0.019 C 
HETATM   17  C32 UNL     1       2.385  13.291  19.443  1.00  0.00     0.027 C 
HETATM   18  C34 UNL     1       1.125  13.744  20.246  1.00  0.00     0.018 C 
HETATM   19  C35 UNL     1      -0.268  13.567  19.609  1.00  0.00     0.011 C 
HETATM   20  C36 UNL     1      -0.349  12.542  18.471  1.00  0.00    -0.032 C 
HETATM   21  C37 UNL     1      -0.134  13.291  17.119  1.00  0.00     0.016 C 
ENDROOT
BRANCH   7  22
HETATM   22  O2  UNL     1       4.445  11.231  18.186  1.00  0.00    -0.349 OA
BRANCH  22  23
HETATM   23  C17 UNL     1       4.497  10.884  16.804  1.00  0.00     0.292 C 
HETATM   24  O3  UNL     1       3.792   9.640  16.679  1.00  0.00    -0.348 OA
HETATM   25  C18 UNL     1       3.817   9.120  15.340  1.00  0.00     0.179 C 
HETATM   26  C20 UNL     1       5.258   8.749  14.997  1.00  0.00     0.180 C 
HETATM   27  C21 UNL     1       6.128  10.008  15.057  1.00  0.00     0.183 C 
HETATM   28  C22 UNL     1       5.979  10.752  16.389  1.00  0.00     0.204 C 
BRANCH  25  29
HETATM   29  C19 UNL     1       2.881   7.911  15.307  1.00  0.00     0.198 C 
BRANCH  29  30
HETATM   30  O4  UNL     1       3.506   6.821  15.992  1.00  0.00    -0.398 OA
HETATM   31  H32 UNL     1       4.373   6.703  15.553  1.00  0.00     0.209 HD
ENDBRANCH  29  30
ENDBRANCH  25  29
BRANCH  26  32
HETATM   32  O5  UNL     1       5.783   7.794  15.938  1.00  0.00    -0.390 OA
HETATM   33  H34 UNL     1       5.404   8.007  16.815  1.00  0.00     0.210 HD
ENDBRANCH  26  32
BRANCH  27  34
HETATM   34  O6  UNL     1       7.510   9.657  14.868  1.00  0.00    -0.390 OA
HETATM   35  H36 UNL     1       7.626   8.790  15.308  1.00  0.00     0.210 HD
ENDBRANCH  27  34
BRANCH  28  36
HETATM   36  O7  UNL     1       6.582  12.052  16.243  1.00  0.00    -0.388 OA
HETATM   37  H38 UNL     1       7.528  11.872  16.064  1.00  0.00     0.210 HD
ENDBRANCH  28  36
ENDBRANCH  22  23
ENDBRANCH   7  22
BRANCH  17  38
HETATM   38  C33 UNL     1       2.727  14.425  18.459  1.00  0.00     0.241 C 
HETATM   39  O8  UNL     1       3.514  14.332  17.522  1.00  0.00    -0.306 OA
ENDBRANCH  17  38
BRANCH   1  40
HETATM   40  C8  UNL     1      -2.961  12.398  17.752  1.00  0.00    -0.010 C 
HETATM   41  C9  UNL     1      -4.225  12.072  18.562  1.00  0.00     0.010 C 
BRANCH  40  42
HETATM   42  C7  UNL     1      -3.159  11.936  16.283  1.00  0.00     0.031 C 
BRANCH  42  43
HETATM   43  C6  UNL     1      -4.015  10.704  16.158  1.00  0.00    -0.027 C 
HETATM   44  C5  UNL     1      -3.841   9.766  15.213  1.00  0.00     0.006 C 
BRANCH  44  45
HETATM   45  C2  UNL     1      -4.648   8.498  15.005  1.00  0.00     0.070 C 
HETATM   46  C3  UNL     1      -3.928   7.185  15.355  1.00  0.00     0.050 C 
HETATM   47  C4  UNL     1      -5.051   8.442  13.521  1.00  0.00     0.050 C 
BRANCH  45  48
HETATM   48  O1  UNL     1      -5.883   8.627  15.729  1.00  0.00    -0.382 OA
HETATM   49  C1  UNL     1      -7.072   8.382  14.990  1.00  0.00     0.202 C 
ENDBRANCH  45  48
ENDBRANCH  44  45
ENDBRANCH  42  43
ENDBRANCH  40  42
ENDBRANCH   1  40
TORSDOF 13
ENDMDL
MODEL 6
REMARK minimizedAffinity -7.28284264
REMARK CNNscore 0.24906452
REMARK CNNaffinity 6.87066984
REMARK  13 active torsions:
REMARK  status: ('A' for Active; 'I' for Inactive)
REMARK    1  A    between atoms: O1_2  and  C2_3 
REMARK    2  A    between atoms: C2_3  and  C5_6 
REMARK    3  A    between atoms: C6_7  and  C7_8 
REMARK    4  A    between atoms: C7_8  and  C8_9 
REMARK    5  A    between atoms: C8_9  and  C10_11 
REMARK    6  A    between atoms: C16_17  and  O2_18 
REMARK    7  A    between atoms: O2_18  and  C17_19 
REMARK    8  A    between atoms: C18_21  and  C19_22 
REMARK    9  A    between atoms: C19_22  and  O4_23 
REMARK   10  A    between atoms: C20_24  and  O5_25 
REMARK   11  A    between atoms: C21_26  and  O6_27 
REMARK   12  A    between atoms: C22_28  and  O7_29 
REMARK   13  A    between atoms: C32_39  and  C33_40 
ROOT
HETATM    1  C10 UNL     1      -7.222   7.114  13.836  1.00  0.00    -0.002 C 
HETATM    2  C11 UNL     1      -7.224   8.485  14.576  1.00  0.00     0.006 C 
HETATM    3  C12 UNL     1      -5.773   8.786  15.001  1.00  0.00     0.011 C 
HETATM    4  C13 UNL     1      -4.910   7.770  14.224  1.00  0.00    -0.029 C 
HETATM    5  C14 UNL     1      -4.720   8.394  12.803  1.00  0.00     0.016 C 
HETATM    6  C15 UNL     1      -3.529   7.444  14.891  1.00  0.00     0.043 C 
HETATM    7  C16 UNL     1      -2.547   8.647  14.898  1.00  0.00     0.153 C 
HETATM    8  C23 UNL     1      -1.716   8.700  13.648  1.00  0.00     0.009 C 
HETATM    9  C24 UNL     1      -1.176   7.595  13.097  1.00  0.00    -0.068 C 
HETATM   10  C25 UNL     1      -1.376   6.294  13.867  1.00  0.00     0.031 C 
HETATM   11  C26 UNL     1      -0.732   5.060  13.199  1.00  0.00     0.010 C 
HETATM   12  C27 UNL     1      -0.763   5.014  11.676  1.00  0.00     0.002 C 
HETATM   13  C28 UNL     1      -0.832   6.364  10.967  1.00  0.00     0.013 C 
HETATM   14  C29 UNL     1      -0.370   7.579  11.798  1.00  0.00    -0.024 C 
HETATM   15  C30 UNL     1       1.140   7.518  12.098  1.00  0.00     0.019 C 
HETATM   16  C31 UNL     1      -0.607   8.833  10.916  1.00  0.00     0.019 C 
HETATM   17  C32 UNL     1      -2.875   6.097  14.339  1.00  0.00     0.027 C 
HETATM   18  C34 UNL     1      -3.724   5.414  13.221  1.00  0.00     0.018 C 
HETATM   19  C35 UNL     1      -5.261   5.429  13.339  1.00  0.00     0.011 C 
HETATM   20  C36 UNL     1      -5.843   6.504  14.265  1.00  0.00    -0.032 C 
HETATM   21  C37 UNL     1      -6.019   5.885  15.687  1.00  0.00     0.016 C 
ENDROOT
BRANCH   7  22
HETATM   22  O2  UNL     1      -1.617   8.512  15.969  1.00  0.00    -0.349 OA
BRANCH  22  23
HETATM   23  C17 UNL     1      -1.592   9.592  16.898  1.00  0.00     0.292 C 
HETATM   24  O3  UNL     1      -2.722  10.417  16.582  1.00  0.00    -0.348 OA
HETATM   25  C18 UNL     1      -2.793  11.597  17.398  1.00  0.00     0.179 C 
HETATM   26  C20 UNL     1      -1.598  12.486  17.060  1.00  0.00     0.180 C 
HETATM   27  C21 UNL     1      -0.305  11.733  17.389  1.00  0.00     0.183 C 
HETATM   28  C22 UNL     1      -0.256  10.350  16.728  1.00  0.00     0.204 C 
BRANCH  25  29
HETATM   29  C19 UNL     1      -4.128  12.278  17.093  1.00  0.00     0.198 C 
BRANCH  29  30
HETATM   30  O4  UNL     1      -4.488  12.007  15.735  1.00  0.00    -0.398 OA
HETATM   31  H32 UNL     1      -3.725  12.304  15.200  1.00  0.00     0.209 HD
ENDBRANCH  29  30
ENDBRANCH  25  29
BRANCH  26  32
HETATM   32  O5  UNL     1      -1.581  12.819  15.660  1.00  0.00    -0.390 OA
HETATM   33  H34 UNL     1      -1.916  12.042  15.169  1.00  0.00     0.210 HD
ENDBRANCH  26  32
BRANCH  27  34
HETATM   34  O6  UNL     1       0.831  12.501  16.955  1.00  0.00    -0.390 OA
HETATM   35  H36 UNL     1       0.553  12.942  16.126  1.00  0.00     0.210 HD
ENDBRANCH  27  34
BRANCH  28  36
HETATM   36  O7  UNL     1       0.827   9.610  17.323  1.00  0.00    -0.388 OA
HETATM   37  H38 UNL     1       1.633  10.119  17.097  1.00  0.00     0.210 HD
ENDBRANCH  28  36
ENDBRANCH  22  23
ENDBRANCH   7  22
BRANCH  17  38
HETATM   38  C33 UNL     1      -2.763   5.092  15.501  1.00  0.00     0.241 C 
HETATM   39  O8  UNL     1      -3.086   5.318  16.662  1.00  0.00    -0.306 OA
ENDBRANCH  17  38
BRANCH   1  40
HETATM   40  C8  UNL     1      -8.541   6.316  14.063  1.00  0.00    -0.010 C 
HETATM   41  C9  UNL     1      -8.996   5.582  12.792  1.00  0.00     0.010 C 
BRANCH  40  42
HETATM   42  C7  UNL     1      -9.673   7.266  14.539  1.00  0.00     0.031 C 
BRANCH  42  43
HETATM   43  C6  UNL     1     -11.052   6.696  14.336  1.00  0.00    -0.027 C 
HETATM   44  C5  UNL     1     -12.171   7.438  14.306  1.00  0.00     0.006 C 
BRANCH  44  45
HETATM   45  C2  UNL     1     -13.597   6.957  14.111  1.00  0.00     0.070 C 
HETATM   46  C3  UNL     1     -14.261   7.363  12.784  1.00  0.00     0.050 C 
HETATM   47  C4  UNL     1     -14.442   7.529  15.263  1.00  0.00     0.050 C 
BRANCH  45  48
HETATM   48  O1  UNL     1     -13.621   5.532  14.293  1.00  0.00    -0.382 OA
HETATM   49  C1  UNL     1     -14.881   4.963  14.624  1.00  0.00     0.202 C 
ENDBRANCH  45  48
ENDBRANCH  44  45
ENDBRANCH  42  43
ENDBRANCH  40  42
ENDBRANCH   1  40
TORSDOF 13
ENDMDL
MODEL 7
REMARK minimizedAffinity -6.6555624
REMARK CNNscore 0.246900469
REMARK CNNaffinity 6.22360563
REMARK  13 active torsions:
REMARK  status: ('A' for Active; 'I' for Inactive)
REMARK    1  A    between atoms: O1_2  and  C2_3 
REMARK    2  A    between atoms: C2_3  and  C5_6 
REMARK    3  A    between atoms: C6_7  and  C7_8 
REMARK    4  A    between atoms: C7_8  and  C8_9 
REMARK    5  A    between atoms: C8_9  and  C10_11 
REMARK    6  A    between atoms: C16_17  and  O2_18 
REMARK    7  A    between atoms: O2_18  and  C17_19 
REMARK    8  A    between atoms: C18_21  and  C19_22 
REMARK    9  A    between atoms: C19_22  and  O4_23 
REMARK   10  A    between atoms: C20_24  and  O5_25 
REMARK   11  A    between atoms: C21_26  and  O6_27 
REMARK   12  A    between atoms: C22_28  and  O7_29 
REMARK   13  A    between atoms: C32_39  and  C33_40 
ROOT
HETATM    1  C10 UNL     1     -15.286  -4.763  12.916  1.00  0.00    -0.002 C 
HETATM    2  C11 UNL     1     -14.654  -5.085  11.529  1.00  0.00     0.006 C 
HETATM    3  C12 UNL     1     -13.578  -6.168  11.749  1.00  0.00     0.011 C 
HETATM    4  C13 UNL     1     -13.826  -6.692  13.179  1.00  0.00    -0.029 C 
HETATM    5  C14 UNL     1     -14.980  -7.738  13.038  1.00  0.00     0.016 C 
HETATM    6  C15 UNL     1     -12.566  -7.323  13.868  1.00  0.00     0.043 C 
HETATM    7  C16 UNL     1     -12.093  -8.643  13.199  1.00  0.00     0.153 C 
HETATM    8  C23 UNL     1     -12.779  -9.845  13.782  1.00  0.00     0.009 C 
HETATM    9  C24 UNL     1     -12.987  -9.981  15.107  1.00  0.00    -0.068 C 
HETATM   10  C25 UNL     1     -12.400  -8.890  15.995  1.00  0.00     0.031 C 
HETATM   11  C26 UNL     1     -12.657  -9.096  17.503  1.00  0.00     0.010 C 
HETATM   12  C27 UNL     1     -14.002  -9.701  17.890  1.00  0.00     0.002 C 
HETATM   13  C28 UNL     1     -14.667 -10.582  16.835  1.00  0.00     0.013 C 
HETATM   14  C29 UNL     1     -13.728 -11.153  15.752  1.00  0.00    -0.024 C 
HETATM   15  C30 UNL     1     -12.729 -12.164  16.346  1.00  0.00     0.019 C 
HETATM   16  C31 UNL     1     -14.625 -11.933  14.756  1.00  0.00     0.019 C 
HETATM   17  C32 UNL     1     -12.717  -7.435  15.453  1.00  0.00     0.027 C 
HETATM   18  C34 UNL     1     -14.101  -6.937  15.976  1.00  0.00     0.018 C 
HETATM   19  C35 UNL     1     -14.747  -5.704  15.314  1.00  0.00     0.011 C 
HETATM   20  C36 UNL     1     -14.233  -5.361  13.910  1.00  0.00    -0.032 C 
HETATM   21  C37 UNL     1     -13.072  -4.328  14.052  1.00  0.00     0.016 C 
ENDROOT
BRANCH   7  22
HETATM   22  O2  UNL     1     -10.704  -8.842  13.442  1.00  0.00    -0.349 OA
BRANCH  22  23
HETATM   23  C17 UNL     1      -9.963  -9.388  12.354  1.00  0.00     0.292 C 
HETATM   24  O3  UNL     1      -8.579  -9.251  12.706  1.00  0.00    -0.348 OA
HETATM   25  C18 UNL     1      -7.695  -9.700  11.666  1.00  0.00     0.179 C 
HETATM   26  C20 UNL     1      -7.852  -8.765  10.468  1.00  0.00     0.180 C 
HETATM   27  C21 UNL     1      -9.294  -8.839   9.960  1.00  0.00     0.183 C 
HETATM   28  C22 UNL     1     -10.316  -8.594  11.077  1.00  0.00     0.204 C 
BRANCH  25  29
HETATM   29  C19 UNL     1      -6.276  -9.678  12.238  1.00  0.00     0.198 C 
BRANCH  29  30
HETATM   30  O4  UNL     1      -6.189  -8.648  13.225  1.00  0.00    -0.398 OA
HETATM   31  H32 UNL     1      -6.479  -7.830  12.773  1.00  0.00     0.209 HD
ENDBRANCH  29  30
ENDBRANCH  25  29
BRANCH  26  32
HETATM   32  O5  UNL     1      -7.575  -7.401  10.838  1.00  0.00    -0.390 OA
HETATM   33  H34 UNL     1      -7.898  -7.273  11.752  1.00  0.00     0.210 HD
ENDBRANCH  26  32
BRANCH  27  34
HETATM   34  O6  UNL     1      -9.497  -7.869   8.918  1.00  0.00    -0.390 OA
HETATM   35  H36 UNL     1      -8.958  -7.091   9.171  1.00  0.00     0.210 HD
ENDBRANCH  27  34
BRANCH  28  36
HETATM   36  O7  UNL     1     -11.615  -8.976  10.585  1.00  0.00    -0.388 OA
HETATM   37  H38 UNL     1     -11.787  -8.370   9.834  1.00  0.00     0.210 HD
ENDBRANCH  28  36
ENDBRANCH  22  23
ENDBRANCH   7  22
BRANCH  17  38
HETATM   38  C33 UNL     1     -11.639  -6.556  16.113  1.00  0.00     0.241 C 
HETATM   39  O8  UNL     1     -11.845  -5.741  17.006  1.00  0.00    -0.306 OA
ENDBRANCH  17  38
BRANCH   1  40
HETATM   40  C8  UNL     1     -15.724  -3.272  13.034  1.00  0.00    -0.010 C 
HETATM   41  C9  UNL     1     -15.912  -2.616  11.658  1.00  0.00     0.010 C 
BRANCH  40  42
HETATM   42  C7  UNL     1     -14.679  -2.463  13.849  1.00  0.00     0.031 C 
BRANCH  42  43
HETATM   43  C6  UNL     1     -15.300  -1.465  14.789  1.00  0.00    -0.027 C 
HETATM   44  C5  UNL     1     -15.990  -1.803  15.890  1.00  0.00     0.006 C 
BRANCH  44  45
HETATM   45  C2  UNL     1     -16.651  -0.874  16.892  1.00  0.00     0.070 C 
HETATM   46  C3  UNL     1     -18.142  -0.583  16.647  1.00  0.00     0.050 C 
HETATM   47  C4  UNL     1     -15.891   0.463  16.858  1.00  0.00     0.050 C 
BRANCH  45  48
HETATM   48  O1  UNL     1     -16.430  -1.403  18.210  1.00  0.00    -0.382 OA
HETATM   49  C1  UNL     1     -16.716  -2.785  18.388  1.00  0.00     0.202 C 
ENDBRANCH  45  48
ENDBRANCH  44  45
ENDBRANCH  42  43
ENDBRANCH  40  42
ENDBRANCH   1  40
TORSDOF 13
ENDMDL
MODEL 8
REMARK minimizedAffinity -8.29230881
REMARK CNNscore 0.241045237
REMARK CNNaffinity 6.54115295
REMARK  13 active torsions:
REMARK  status: ('A' for Active; 'I' for Inactive)
REMARK    1  A    between atoms: O1_2  and  C2_3 
REMARK    2  A    between atoms: C2_3  and  C5_6 
REMARK    3  A    between atoms: C6_7  and  C7_8 
REMARK    4  A    between atoms: C7_8  and  C8_9 
REMARK    5  A    between atoms: C8_9  and  C10_11 
REMARK    6  A    between atoms: C16_17  and  O2_18 
REMARK    7  A    between atoms: O2_18  and  C17_19 
REMARK    8  A    between atoms: C18_21  and  C19_22 
REMARK    9  A    between atoms: C19_22  and  O4_23 
REMARK   10  A    between atoms: C20_24  and  O5_25 
REMARK   11  A    between atoms: C21_26  and  O6_27 
REMARK   12  A    between atoms: C22_28  and  O7_29 
REMARK   13  A    between atoms: C32_39  and  C33_40 
ROOT
HETATM    1  C10 UNL     1       0.126  12.133  16.942  1.00  0.00    -0.002 C 
HETATM    2  C11 UNL     1       0.790  12.703  15.653  1.00  0.00     0.006 C 
HETATM    3  C12 UNL     1       0.760  11.591  14.585  1.00  0.00     0.011 C 
HETATM    4  C13 UNL     1      -0.202  10.524  15.146  1.00  0.00    -0.029 C 
HETATM    5  C14 UNL     1      -1.636  11.034  14.785  1.00  0.00     0.016 C 
HETATM    6  C15 UNL     1       0.041   9.075  14.597  1.00  0.00     0.043 C 
HETATM    7  C16 UNL     1      -0.279   8.926  13.084  1.00  0.00     0.153 C 
HETATM    8  C23 UNL     1      -1.719   8.569  12.848  1.00  0.00     0.009 C 
HETATM    9  C24 UNL     1      -2.368   7.664  13.606  1.00  0.00    -0.068 C 
HETATM   10  C25 UNL     1      -1.533   6.947  14.661  1.00  0.00     0.031 C 
HETATM   11  C26 UNL     1      -2.319   5.915  15.496  1.00  0.00     0.010 C 
HETATM   12  C27 UNL     1      -3.765   6.266  15.831  1.00  0.00     0.002 C 
HETATM   13  C28 UNL     1      -4.465   7.213  14.859  1.00  0.00     0.013 C 
HETATM   14  C29 UNL     1      -3.846   7.302  13.449  1.00  0.00    -0.024 C 
HETATM   15  C30 UNL     1      -3.999   5.976  12.680  1.00  0.00     0.019 C 
HETATM   16  C31 UNL     1      -4.659   8.372  12.676  1.00  0.00     0.019 C 
HETATM   17  C32 UNL     1      -0.635   7.947  15.501  1.00  0.00     0.027 C 
HETATM   18  C34 UNL     1      -1.432   8.525  16.712  1.00  0.00     0.018 C 
HETATM   19  C35 UNL     1      -0.870   9.751  17.457  1.00  0.00     0.011 C 
HETATM   20  C36 UNL     1       0.152  10.589  16.677  1.00  0.00    -0.032 C 
HETATM   21  C37 UNL     1       1.581  10.070  17.026  1.00  0.00     0.016 C 
ENDROOT
BRANCH   7  22
HETATM   22  O2  UNL     1       0.476   7.853  12.530  1.00  0.00    -0.349 OA
BRANCH  22  23
HETATM   23  C17 UNL     1       1.707   8.223  11.914  1.00  0.00     0.292 C 
HETATM   24  O3  UNL     1       1.693   7.630  10.608  1.00  0.00    -0.348 OA
HETATM   25  C18 UNL     1       2.912   7.859   9.882  1.00  0.00     0.179 C 
HETATM   26  C20 UNL     1       4.042   7.120  10.597  1.00  0.00     0.180 C 
HETATM   27  C21 UNL     1       4.193   7.685  12.012  1.00  0.00     0.183 C 
HETATM   28  C22 UNL     1       2.867   7.685  12.781  1.00  0.00     0.204 C 
BRANCH  25  29
HETATM   29  C19 UNL     1       2.693   7.347   8.458  1.00  0.00     0.198 C 
BRANCH  29  30
HETATM   30  O4  UNL     1       2.186   6.011   8.517  1.00  0.00    -0.398 OA
HETATM   31  H32 UNL     1       2.832   5.512   9.055  1.00  0.00     0.209 HD
ENDBRANCH  29  30
ENDBRANCH  25  29
BRANCH  26  32
HETATM   32  O5  UNL     1       3.752   5.714  10.703  1.00  0.00    -0.390 OA
HETATM   33  H34 UNL     1       2.787   5.622  10.837  1.00  0.00     0.210 HD
ENDBRANCH  26  32
BRANCH  27  34
HETATM   34  O6  UNL     1       5.161   6.914  12.746  1.00  0.00    -0.390 OA
HETATM   35  H36 UNL     1       5.045   5.989  12.446  1.00  0.00     0.210 HD
ENDBRANCH  27  34
BRANCH  28  36
HETATM   36  O7  UNL     1       3.036   8.494  13.961  1.00  0.00    -0.388 OA
HETATM   37  H38 UNL     1       3.726   8.036  14.484  1.00  0.00     0.210 HD
ENDBRANCH  28  36
ENDBRANCH  22  23
ENDBRANCH   7  22
BRANCH  17  38
HETATM   38  C33 UNL     1       0.474   7.047  16.076  1.00  0.00     0.241 C 
HETATM   39  O8  UNL     1       1.638   7.390  16.256  1.00  0.00    -0.306 OA
ENDBRANCH  17  38
BRANCH   1  40
HETATM   40  C8  UNL     1       0.755  12.720  18.241  1.00  0.00    -0.010 C 
HETATM   41  C9  UNL     1       2.290  12.693  18.200  1.00  0.00     0.010 C 
BRANCH  40  42
HETATM   42  C7  UNL     1       0.262  11.934  19.486  1.00  0.00     0.031 C 
BRANCH  42  43
HETATM   43  C6  UNL     1       1.280  10.961  20.017  1.00  0.00    -0.027 C 
HETATM   44  C5  UNL     1       1.824  11.042  21.242  1.00  0.00     0.006 C 
BRANCH  44  45
HETATM   45  C2  UNL     1       2.853  10.116  21.862  1.00  0.00     0.070 C 
HETATM   46  C3  UNL     1       2.332   8.735  22.297  1.00  0.00     0.050 C 
HETATM   47  C4  UNL     1       3.427  10.823  23.103  1.00  0.00     0.050 C 
BRANCH  45  48
HETATM   48  O1  UNL     1       3.957   9.995  20.950  1.00  0.00    -0.382 OA
HETATM   49  C1  UNL     1       4.856  11.095  20.903  1.00  0.00     0.202 C 
ENDBRANCH  45  48
ENDBRANCH  44  45
ENDBRANCH  42  43
ENDBRANCH  40  42
ENDBRANCH   1  40
TORSDOF 13
ENDMDL
MODEL 9
REMARK minimizedAffinity -8.63851738
REMARK CNNscore 0.217246309
REMARK CNNaffinity 7.08496237
REMARK  13 active torsions:
REMARK  status: ('A' for Active; 'I' for Inactive)
REMARK    1  A    between atoms: O1_2  and  C2_3 
REMARK    2  A    between atoms: C2_3  and  C5_6 
REMARK    3  A    between atoms: C6_7  and  C7_8 
REMARK    4  A    between atoms: C7_8  and  C8_9 
REMARK    5  A    between atoms: C8_9  and  C10_11 
REMARK    6  A    between atoms: C16_17  and  O2_18 
REMARK    7  A    between atoms: O2_18  and  C17_19 
REMARK    8  A    between atoms: C18_21  and  C19_22 
REMARK    9  A    between atoms: C19_22  and  O4_23 
REMARK   10  A    between atoms: C20_24  and  O5_25 
REMARK   11  A    between atoms: C21_26  and  O6_27 
REMARK   12  A    between atoms: C22_28  and  O7_29 
REMARK   13  A    between atoms: C32_39  and  C33_40 
ROOT
HETATM    1  C10 UNL     1      -5.655   6.732  14.366  1.00  0.00    -0.002 C 
HETATM    2  C11 UNL     1      -5.949   8.244  14.599  1.00  0.00     0.006 C 
HETATM    3  C12 UNL     1      -4.602   8.993  14.541  1.00  0.00     0.011 C 
HETATM    4  C13 UNL     1      -3.604   7.976  13.952  1.00  0.00    -0.029 C 
HETATM    5  C14 UNL     1      -3.813   8.043  12.404  1.00  0.00     0.016 C 
HETATM    6  C15 UNL     1      -2.106   8.237  14.336  1.00  0.00     0.043 C 
HETATM    7  C16 UNL     1      -1.528   9.538  13.715  1.00  0.00     0.153 C 
HETATM    8  C23 UNL     1      -0.938   9.297  12.355  1.00  0.00     0.009 C 
HETATM    9  C24 UNL     1      -0.186   8.213  12.079  1.00  0.00    -0.068 C 
HETATM   10  C25 UNL     1       0.116   7.289  13.253  1.00  0.00     0.031 C 
HETATM   11  C26 UNL     1       0.987   6.068  12.889  1.00  0.00     0.010 C 
HETATM   12  C27 UNL     1       0.750   5.445  11.518  1.00  0.00     0.002 C 
HETATM   13  C28 UNL     1       0.188   6.378  10.448  1.00  0.00     0.013 C 
HETATM   14  C29 UNL     1       0.391   7.886  10.701  1.00  0.00    -0.024 C 
HETATM   15  C30 UNL     1       1.880   8.275  10.633  1.00  0.00     0.019 C 
HETATM   16  C31 UNL     1      -0.326   8.629   9.545  1.00  0.00     0.019 C 
HETATM   17  C32 UNL     1      -1.175   6.960  14.111  1.00  0.00     0.027 C 
HETATM   18  C34 UNL     1      -1.942   5.738  13.514  1.00  0.00     0.018 C 
HETATM   19  C35 UNL     1      -3.382   5.459  13.987  1.00  0.00     0.011 C 
HETATM   20  C36 UNL     1      -4.111   6.648  14.625  1.00  0.00    -0.032 C 
HETATM   21  C37 UNL     1      -3.890   6.588  16.169  1.00  0.00     0.016 C 
ENDROOT
BRANCH   7  22
HETATM   22  O2  UNL     1      -0.453  10.024  14.515  1.00  0.00    -0.349 OA
BRANCH  22  23
HETATM   23  C17 UNL     1      -0.780  11.097  15.394  1.00  0.00     0.292 C 
HETATM   24  O3  UNL     1      -1.285  10.490  16.592  1.00  0.00    -0.348 OA
HETATM   25  C18 UNL     1      -1.726  11.456  17.560  1.00  0.00     0.179 C 
HETATM   26  C20 UNL     1      -2.943  12.183  16.990  1.00  0.00     0.180 C 
HETATM   27  C21 UNL     1      -2.533  12.915  15.709  1.00  0.00     0.183 C 
HETATM   28  C22 UNL     1      -1.840  11.986  14.706  1.00  0.00     0.204 C 
BRANCH  25  29
HETATM   29  C19 UNL     1      -2.055  10.692  18.844  1.00  0.00     0.198 C 
BRANCH  29  30
HETATM   30  O4  UNL     1      -2.917   9.596  18.525  1.00  0.00    -0.398 OA
HETATM   31  H32 UNL     1      -3.679   9.994  18.058  1.00  0.00     0.209 HD
ENDBRANCH  29  30
ENDBRANCH  25  29
BRANCH  26  32
HETATM   32  O5  UNL     1      -3.992  11.254  16.662  1.00  0.00    -0.390 OA
HETATM   33  H34 UNL     1      -3.568  10.435  16.336  1.00  0.00     0.210 HD
ENDBRANCH  26  32
BRANCH  27  34
HETATM   34  O6  UNL     1      -3.693  13.496  15.087  1.00  0.00    -0.390 OA
HETATM   35  H36 UNL     1      -4.424  12.863  15.244  1.00  0.00     0.210 HD
ENDBRANCH  27  34
BRANCH  28  36
HETATM   36  O7  UNL     1      -1.233  12.803  13.687  1.00  0.00    -0.388 OA
HETATM   37  H38 UNL     1      -1.982  13.264  13.255  1.00  0.00     0.210 HD
ENDBRANCH  28  36
ENDBRANCH  22  23
ENDBRANCH   7  22
BRANCH  17  38
HETATM   38  C33 UNL     1      -0.608   6.518  15.472  1.00  0.00     0.241 C 
HETATM   39  O8  UNL     1       0.108   7.206  16.194  1.00  0.00    -0.306 OA
ENDBRANCH  17  38
BRANCH   1  40
HETATM   40  C8  UNL     1      -6.637   5.810  15.151  1.00  0.00    -0.010 C 
HETATM   41  C9  UNL     1      -7.216   4.699  14.263  1.00  0.00     0.010 C 
BRANCH  40  42
HETATM   42  C7  UNL     1      -7.800   6.644  15.751  1.00  0.00     0.031 C 
BRANCH  42  43
HETATM   43  C6  UNL     1      -8.968   6.797  14.815  1.00  0.00    -0.027 C 
HETATM   44  C5  UNL     1      -9.971   7.669  15.005  1.00  0.00     0.006 C 
BRANCH  44  45
HETATM   45  C2  UNL     1     -11.185   7.893  14.124  1.00  0.00     0.070 C 
HETATM   46  C3  UNL     1     -11.110   7.278  12.716  1.00  0.00     0.050 C 
HETATM   47  C4  UNL     1     -11.376   9.412  13.971  1.00  0.00     0.050 C 
BRANCH  45  48
HETATM   48  O1  UNL     1     -12.348   7.434  14.834  1.00  0.00    -0.382 OA
HETATM   49  C1  UNL     1     -13.022   6.314  14.275  1.00  0.00     0.202 C 
ENDBRANCH  45  48
ENDBRANCH  44  45
ENDBRANCH  42  43
ENDBRANCH  40  42
ENDBRANCH   1  40
TORSDOF 13
ENDMDL
