MODEL 1
REMARK minimizedAffinity -8.98793793
REMARK CNNscore 0.534423888
REMARK CNNaffinity 6.91730499
REMARK  11 active torsions:
REMARK  status: ('A' for Active; 'I' for Inactive)
REMARK    1  A    between atoms: C12_13  and  O2_14 
REMARK    2  A    between atoms: C19_21  and  O3_22 
REMARK    3  A    between atoms: C19_21  and  C20_23 
REMARK    4  A    between atoms: C20_23  and  C21_25 
REMARK    5  A    between atoms: C21_25  and  O5_26 
REMARK    6  A    between atoms: O5_26  and  C22_27 
REMARK    7  A    between atoms: C22_27  and  C23_29 
REMARK    8  A    between atoms: C23_29  and  C24_30 
REMARK    9  A    between atoms: C24_30  and  C25_31 
REMARK       I    between atoms: C25_31  and  N1_33 
REMARK   10  A    between atoms: N1_33  and  C26_34 
REMARK   11  A    between atoms: C26_34  and  C27_35 
ROOT
HETATM    1  C1  UNL     1       3.397   8.069  11.059  1.00  0.00     0.025 C 
HETATM    2  C2  UNL     1       2.437   6.920  10.643  1.00  0.00     0.004 A 
HETATM    3  C3  UNL     1       3.351   5.709  10.493  1.00  0.00    -0.009 A 
HETATM    4  C4  UNL     1       3.524   5.017   9.359  1.00  0.00     0.052 A 
HETATM    5  C5  UNL     1       2.813   5.401   8.123  1.00  0.00     0.172 A 
HETATM    6  O1  UNL     1       2.950   4.765   7.087  1.00  0.00    -0.289 OA
HETATM    7  C6  UNL     1       1.950   6.599   8.183  1.00  0.00     0.058 A 
HETATM    8  C7  UNL     1       1.787   7.308   9.316  1.00  0.00    -0.064 A 
HETATM    9  C8  UNL     1       0.870   8.517   9.332  1.00  0.00     0.036 C 
HETATM   10  C9  UNL     1       0.147   8.709  10.672  1.00  0.00     0.010 C 
HETATM   11  C10 UNL     1      -0.043   7.360  11.380  1.00  0.00    -0.002 C 
HETATM   12  C11 UNL     1       1.328   6.729  11.764  1.00  0.00     0.035 C 
HETATM   13  C12 UNL     1       1.048   5.276  12.215  1.00  0.00     0.124 C 
HETATM   14  C13 UNL     1       0.200   5.270  13.488  1.00  0.00     0.045 C 
HETATM   15  C14 UNL     1      -1.058   6.183  13.504  1.00  0.00     0.001 C 
HETATM   16  C15 UNL     1      -1.168   6.682  14.985  1.00  0.00     0.019 C 
HETATM   17  C16 UNL     1      -0.977   7.456  12.601  1.00  0.00     0.002 C 
HETATM   18  C17 UNL     1      -2.436   7.761  12.181  1.00  0.00     0.009 C 
HETATM   19  C18 UNL     1      -3.323   6.706  12.829  1.00  0.00     0.047 C 
HETATM   20  C19 UNL     1      -2.413   5.502  13.082  1.00  0.00     0.128 C 
ENDROOT
BRANCH  20  21
HETATM   21  O3  UNL     1      -2.967   4.810  14.224  1.00  0.00    -0.381 OA
HETATM   22  H25 UNL     1      -2.866   3.844  14.065  1.00  0.00     0.211 HD
ENDBRANCH  20  21
BRANCH  20  23
HETATM   23  C20 UNL     1      -2.375   4.414  11.976  1.00  0.00     0.185 C 
HETATM   24  O4  UNL     1      -1.864   4.718  10.883  1.00  0.00    -0.292 OA
BRANCH  23  25
HETATM   25  C21 UNL     1      -2.986   3.021  12.152  1.00  0.00     0.260 C 
BRANCH  25  26
HETATM   26  O5  UNL     1      -3.805   2.477  11.129  1.00  0.00    -0.314 OA
BRANCH  26  27
HETATM   27  C22 UNL     1      -5.107   2.275  11.464  1.00  0.00     0.259 C 
HETATM   28  O6  UNL     1      -5.789   1.326  11.107  1.00  0.00    -0.265 OA
BRANCH  27  29
HETATM   29  C23 UNL     1      -5.566   3.386  12.368  1.00  0.00     0.120 C 
BRANCH  29  30
HETATM   30  C24 UNL     1      -7.072   3.359  12.570  1.00  0.00     0.112 C 
BRANCH  30  31
HETATM   31  C25 UNL     1      -7.457   3.971  13.903  1.00  0.00     0.218 C 
HETATM   32  O7  UNL     1      -7.561   3.325  14.941  1.00  0.00    -0.274 OA
HETATM   33  N1  UNL     1      -7.669   5.326  13.829  1.00  0.00    -0.357 N 
HETATM   34  H32 UNL     1      -7.477   5.812  12.960  1.00  0.00     0.162 HD
BRANCH  33  35
HETATM   35  C26 UNL     1      -8.002   6.117  14.989  1.00  0.00     0.161 C 
BRANCH  35  36
HETATM   36  C27 UNL     1      -9.020   7.166  14.636  1.00  0.00    -0.038 A 
HETATM   37  C28 UNL     1     -10.086   6.854  13.790  1.00  0.00     0.025 A 
HETATM   38  C29 UNL     1     -11.021   7.838  13.513  1.00  0.00     0.088 A 
HETATM   39  N2  UNL     1     -10.966   9.092  14.016  1.00  0.00    -0.375 N 
HETATM   40  C30 UNL     1      -9.930   9.371  14.833  1.00  0.00     0.088 A 
ATOM     41  H2  UNL     1     -11.673   9.791  13.789  1.00  0.00     0.164 HD
HETATM   42  C31 UNL     1      -8.948   8.455  15.172  1.00  0.00     0.025 A 
ENDBRANCH  35  36
ENDBRANCH  33  35
ENDBRANCH  30  31
ENDBRANCH  29  30
ENDBRANCH  27  29
ENDBRANCH  26  27
ENDBRANCH  25  26
ENDBRANCH  23  25
ENDBRANCH  20  23
BRANCH  13  43
HETATM   43  O2  UNL     1       0.374   4.545  11.205  1.00  0.00    -0.395 OA
HETATM   44  H14 UNL     1       0.478   3.593  11.426  1.00  0.00     0.210 HD
ENDBRANCH  13  43
TORSDOF 11
ENDMDL
MODEL 2
REMARK minimizedAffinity -7.86454678
REMARK CNNscore 0.476979584
REMARK CNNaffinity 5.87129927
REMARK  11 active torsions:
REMARK  status: ('A' for Active; 'I' for Inactive)
REMARK    1  A    between atoms: C12_13  and  O2_14 
REMARK    2  A    between atoms: C19_21  and  O3_22 
REMARK    3  A    between atoms: C19_21  and  C20_23 
REMARK    4  A    between atoms: C20_23  and  C21_25 
REMARK    5  A    between atoms: C21_25  and  O5_26 
REMARK    6  A    between atoms: O5_26  and  C22_27 
REMARK    7  A    between atoms: C22_27  and  C23_29 
REMARK    8  A    between atoms: C23_29  and  C24_30 
REMARK    9  A    between atoms: C24_30  and  C25_31 
REMARK       I    between atoms: C25_31  and  N1_33 
REMARK   10  A    between atoms: N1_33  and  C26_34 
REMARK   11  A    between atoms: C26_34  and  C27_35 
ROOT
HETATM    1  C1  UNL     1       3.200  13.000  23.004  1.00  0.00     0.025 C 
HETATM    2  C2  UNL     1       3.587  11.956  21.920  1.00  0.00     0.004 A 
HETATM    3  C3  UNL     1       2.257  11.580  21.276  1.00  0.00    -0.009 A 
HETATM    4  C4  UNL     1       1.736  10.346  21.263  1.00  0.00     0.052 A 
HETATM    5  C5  UNL     1       2.443   9.220  21.904  1.00  0.00     0.172 A 
HETATM    6  O1  UNL     1       1.984   8.085  21.881  1.00  0.00    -0.289 OA
HETATM    7  C6  UNL     1       3.714   9.523  22.594  1.00  0.00     0.058 A 
HETATM    8  C7  UNL     1       4.234  10.764  22.625  1.00  0.00    -0.064 A 
HETATM    9  C8  UNL     1       5.555  11.020  23.325  1.00  0.00     0.036 C 
HETATM   10  C9  UNL     1       6.396  12.112  22.650  1.00  0.00     0.010 C 
HETATM   11  C10 UNL     1       6.086  12.180  21.149  1.00  0.00    -0.002 C 
HETATM   12  C11 UNL     1       4.611  12.613  20.898  1.00  0.00     0.035 C 
HETATM   13  C12 UNL     1       4.322  12.390  19.395  1.00  0.00     0.124 C 
HETATM   14  C13 UNL     1       5.193  13.316  18.545  1.00  0.00     0.045 C 
HETATM   15  C14 UNL     1       6.708  13.375  18.888  1.00  0.00     0.001 C 
HETATM   16  C15 UNL     1       7.121  14.860  18.605  1.00  0.00     0.019 C 
HETATM   17  C16 UNL     1       7.072  13.079  20.378  1.00  0.00     0.002 C 
HETATM   18  C17 UNL     1       8.494  12.467  20.344  1.00  0.00     0.009 C 
HETATM   19  C18 UNL     1       8.934  12.425  18.886  1.00  0.00     0.047 C 
HETATM   20  C19 UNL     1       7.642  12.410  18.067  1.00  0.00     0.128 C 
ENDROOT
BRANCH  20  21
HETATM   21  O3  UNL     1       7.960  13.028  16.800  1.00  0.00    -0.381 OA
HETATM   22  H25 UNL     1       7.469  12.539  16.099  1.00  0.00     0.211 HD
ENDBRANCH  20  21
BRANCH  20  23
HETATM   23  C20 UNL     1       7.088  11.016  17.668  1.00  0.00     0.185 C 
HETATM   24  O4  UNL     1       7.205  10.089  18.491  1.00  0.00    -0.292 OA
BRANCH  23  25
HETATM   25  C21 UNL     1       6.464  10.724  16.300  1.00  0.00     0.260 C 
BRANCH  25  26
HETATM   26  O5  UNL     1       5.287   9.936  16.216  1.00  0.00    -0.314 OA
BRANCH  26  27
HETATM   27  C22 UNL     1       5.062   9.341  15.015  1.00  0.00     0.259 C 
HETATM   28  O6  UNL     1       5.927   9.008  14.220  1.00  0.00    -0.265 OA
BRANCH  27  29
HETATM   29  C23 UNL     1       3.584   9.128  14.835  1.00  0.00     0.120 C 
BRANCH  29  30
HETATM   30  C24 UNL     1       3.010  10.052  13.774  1.00  0.00     0.112 C 
BRANCH  30  31
HETATM   31  C25 UNL     1       2.458   9.264  12.601  1.00  0.00     0.218 C 
HETATM   32  O7  UNL     1       3.164   8.733  11.749  1.00  0.00    -0.274 OA
HETATM   33  N1  UNL     1       1.086   9.198  12.599  1.00  0.00    -0.357 N 
HETATM   34  H32 UNL     1       0.569   9.580  13.382  1.00  0.00     0.162 HD
BRANCH  33  35
HETATM   35  C26 UNL     1       0.354   8.460  11.598  1.00  0.00     0.161 C 
BRANCH  35  36
HETATM   36  C27 UNL     1      -0.970   8.004  12.144  1.00  0.00    -0.038 A 
HETATM   37  C28 UNL     1      -1.992   8.928  12.374  1.00  0.00     0.025 A 
HETATM   38  C29 UNL     1      -3.209   8.466  12.849  1.00  0.00     0.088 A 
HETATM   39  N2  UNL     1      -3.472   7.165  13.105  1.00  0.00    -0.375 N 
HETATM   40  C30 UNL     1      -2.472   6.288  12.874  1.00  0.00     0.088 A 
ATOM     41  H2  UNL     1      -4.380   6.861  13.455  1.00  0.00     0.164 HD
HETATM   42  C31 UNL     1      -1.224   6.652  12.397  1.00  0.00     0.025 A 
ENDBRANCH  35  36
ENDBRANCH  33  35
ENDBRANCH  30  31
ENDBRANCH  29  30
ENDBRANCH  27  29
ENDBRANCH  26  27
ENDBRANCH  25  26
ENDBRANCH  23  25
ENDBRANCH  20  23
BRANCH  13  43
HETATM   43  O2  UNL     1       4.569  11.046  19.018  1.00  0.00    -0.395 OA
HETATM   44  H14 UNL     1       4.110  10.903  18.160  1.00  0.00     0.210 HD
ENDBRANCH  13  43
TORSDOF 11
ENDMDL
MODEL 3
REMARK minimizedAffinity -8.3991766
REMARK CNNscore 0.444021374
REMARK CNNaffinity 6.02518654
REMARK  11 active torsions:
REMARK  status: ('A' for Active; 'I' for Inactive)
REMARK    1  A    between atoms: C12_13  and  O2_14 
REMARK    2  A    between atoms: C19_21  and  O3_22 
REMARK    3  A    between atoms: C19_21  and  C20_23 
REMARK    4  A    between atoms: C20_23  and  C21_25 
REMARK    5  A    between atoms: C21_25  and  O5_26 
REMARK    6  A    between atoms: O5_26  and  C22_27 
REMARK    7  A    between atoms: C22_27  and  C23_29 
REMARK    8  A    between atoms: C23_29  and  C24_30 
REMARK    9  A    between atoms: C24_30  and  C25_31 
REMARK       I    between atoms: C25_31  and  N1_33 
REMARK   10  A    between atoms: N1_33  and  C26_34 
REMARK   11  A    between atoms: C26_34  and  C27_35 
ROOT
HETATM    1  C1  UNL     1       3.097  13.047  22.827  1.00  0.00     0.025 C 
HETATM    2  C2  UNL     1       3.520  11.968  21.793  1.00  0.00     0.004 A 
HETATM    3  C3  UNL     1       2.204  11.513  21.172  1.00  0.00    -0.009 A 
HETATM    4  C4  UNL     1       1.729  10.262  21.219  1.00  0.00     0.052 A 
HETATM    5  C5  UNL     1       2.479   9.193  21.910  1.00  0.00     0.172 A 
HETATM    6  O1  UNL     1       2.062   8.043  21.944  1.00  0.00    -0.289 OA
HETATM    7  C6  UNL     1       3.739   9.576  22.580  1.00  0.00     0.058 A 
HETATM    8  C7  UNL     1       4.212  10.836  22.551  1.00  0.00    -0.064 A 
HETATM    9  C8  UNL     1       5.525  11.173  23.234  1.00  0.00     0.036 C 
HETATM   10  C9  UNL     1       6.323  12.262  22.504  1.00  0.00     0.010 C 
HETATM   11  C10 UNL     1       6.007  12.247  21.003  1.00  0.00    -0.002 C 
HETATM   12  C11 UNL     1       4.517  12.613  20.737  1.00  0.00     0.035 C 
HETATM   13  C12 UNL     1       4.234  12.308  19.247  1.00  0.00     0.124 C 
HETATM   14  C13 UNL     1       5.068  13.225  18.351  1.00  0.00     0.045 C 
HETATM   15  C14 UNL     1       6.580  13.355  18.685  1.00  0.00     0.001 C 
HETATM   16  C15 UNL     1       6.938  14.839  18.331  1.00  0.00     0.019 C 
HETATM   17  C16 UNL     1       6.958  13.144  20.187  1.00  0.00     0.002 C 
HETATM   18  C17 UNL     1       8.402  12.585  20.177  1.00  0.00     0.009 C 
HETATM   19  C18 UNL     1       8.840  12.489  18.721  1.00  0.00     0.047 C 
HETATM   20  C19 UNL     1       7.548  12.387  17.908  1.00  0.00     0.128 C 
ENDROOT
BRANCH  20  21
HETATM   21  O3  UNL     1       7.841  12.956  16.612  1.00  0.00    -0.381 OA
HETATM   22  H25 UNL     1       7.367  12.417  15.936  1.00  0.00     0.211 HD
ENDBRANCH  20  21
BRANCH  20  23
HETATM   23  C20 UNL     1       7.045  10.957  17.577  1.00  0.00     0.185 C 
HETATM   24  O4  UNL     1       7.127  10.094  18.470  1.00  0.00    -0.292 OA
BRANCH  23  25
HETATM   25  C21 UNL     1       6.515  10.554  16.198  1.00  0.00     0.260 C 
BRANCH  25  26
HETATM   26  O5  UNL     1       5.248   9.924  16.087  1.00  0.00    -0.314 OA
BRANCH  26  27
HETATM   27  C22 UNL     1       5.219   8.789  15.340  1.00  0.00     0.259 C 
HETATM   28  O6  UNL     1       5.630   7.696  15.701  1.00  0.00    -0.265 OA
BRANCH  27  29
HETATM   29  C23 UNL     1       4.574   9.083  14.014  1.00  0.00     0.120 C 
BRANCH  29  30
HETATM   30  C24 UNL     1       3.394   8.163  13.749  1.00  0.00     0.112 C 
BRANCH  30  31
HETATM   31  C25 UNL     1       3.568   7.409  12.445  1.00  0.00     0.218 C 
HETATM   32  O7  UNL     1       4.566   7.499  11.737  1.00  0.00    -0.274 OA
HETATM   33  N1  UNL     1       2.494   6.606  12.144  1.00  0.00    -0.357 N 
HETATM   34  H32 UNL     1       1.742   6.508  12.817  1.00  0.00     0.162 HD
BRANCH  33  35
HETATM   35  C26 UNL     1       2.468   5.765  10.971  1.00  0.00     0.161 C 
BRANCH  35  36
HETATM   36  C27 UNL     1       1.944   6.529   9.788  1.00  0.00    -0.038 A 
HETATM   37  C28 UNL     1       0.875   7.415   9.940  1.00  0.00     0.025 A 
HETATM   38  C29 UNL     1       0.440   8.124   8.832  1.00  0.00     0.088 A 
HETATM   39  N2  UNL     1       0.992   8.014   7.603  1.00  0.00    -0.375 N 
HETATM   40  C30 UNL     1       2.025   7.155   7.478  1.00  0.00     0.088 A 
ATOM     41  H2  UNL     1       0.644   8.552   6.809  1.00  0.00     0.164 HD
HETATM   42  C31 UNL     1       2.533   6.405   8.526  1.00  0.00     0.025 A 
ENDBRANCH  35  36
ENDBRANCH  33  35
ENDBRANCH  30  31
ENDBRANCH  29  30
ENDBRANCH  27  29
ENDBRANCH  26  27
ENDBRANCH  25  26
ENDBRANCH  23  25
ENDBRANCH  20  23
BRANCH  13  43
HETATM   43  O2  UNL     1       4.529  10.958  18.933  1.00  0.00    -0.395 OA
HETATM   44  H14 UNL     1       4.075  10.758  18.085  1.00  0.00     0.210 HD
ENDBRANCH  13  43
TORSDOF 11
ENDMDL
MODEL 4
REMARK minimizedAffinity -7.29116106
REMARK CNNscore 0.406731308
REMARK CNNaffinity 6.00168371
REMARK  11 active torsions:
REMARK  status: ('A' for Active; 'I' for Inactive)
REMARK    1  A    between atoms: C12_13  and  O2_14 
REMARK    2  A    between atoms: C19_21  and  O3_22 
REMARK    3  A    between atoms: C19_21  and  C20_23 
REMARK    4  A    between atoms: C20_23  and  C21_25 
REMARK    5  A    between atoms: C21_25  and  O5_26 
REMARK    6  A    between atoms: O5_26  and  C22_27 
REMARK    7  A    between atoms: C22_27  and  C23_29 
REMARK    8  A    between atoms: C23_29  and  C24_30 
REMARK    9  A    between atoms: C24_30  and  C25_31 
REMARK       I    between atoms: C25_31  and  N1_33 
REMARK   10  A    between atoms: N1_33  and  C26_34 
REMARK   11  A    between atoms: C26_34  and  C27_35 
ROOT
HETATM    1  C1  UNL     1     -19.894   4.275  15.569  1.00  0.00     0.025 C 
HETATM    2  C2  UNL     1     -18.826   4.492  14.462  1.00  0.00     0.004 A 
HETATM    3  C3  UNL     1     -19.506   4.000  13.190  1.00  0.00    -0.009 A 
HETATM    4  C4  UNL     1     -19.062   2.992  12.426  1.00  0.00     0.052 A 
HETATM    5  C5  UNL     1     -17.833   2.256  12.785  1.00  0.00     0.172 A 
HETATM    6  O1  UNL     1     -17.409   1.346  12.085  1.00  0.00    -0.289 OA
HETATM    7  C6  UNL     1     -17.151   2.646  14.037  1.00  0.00     0.058 A 
HETATM    8  C7  UNL     1     -17.604   3.647  14.816  1.00  0.00    -0.064 A 
HETATM    9  C8  UNL     1     -16.854   4.026  16.080  1.00  0.00     0.036 C 
HETATM   10  C9  UNL     1     -16.915   5.528  16.391  1.00  0.00     0.010 C 
HETATM   11  C10 UNL     1     -17.074   6.340  15.098  1.00  0.00    -0.002 C 
HETATM   12  C11 UNL     1     -18.434   6.031  14.404  1.00  0.00     0.035 C 
HETATM   13  C12 UNL     1     -18.382   6.675  12.999  1.00  0.00     0.124 C 
HETATM   14  C13 UNL     1     -18.296   8.198  13.117  1.00  0.00     0.045 C 
HETATM   15  C14 UNL     1     -17.244   8.772  14.107  1.00  0.00     0.001 C 
HETATM   16  C15 UNL     1     -17.913  10.062  14.693  1.00  0.00     0.019 C 
HETATM   17  C16 UNL     1     -16.891   7.853  15.321  1.00  0.00     0.002 C 
HETATM   18  C17 UNL     1     -15.429   8.202  15.694  1.00  0.00     0.009 C 
HETATM   19  C18 UNL     1     -14.964   9.290  14.734  1.00  0.00     0.047 C 
HETATM   20  C19 UNL     1     -15.845   9.146  13.491  1.00  0.00     0.128 C 
ENDROOT
BRANCH  20  21
HETATM   21  O3  UNL     1     -15.928  10.463  12.900  1.00  0.00    -0.381 OA
HETATM   22  H25 UNL     1     -15.909  10.351  11.921  1.00  0.00     0.211 HD
ENDBRANCH  20  21
BRANCH  20  23
HETATM   23  C20 UNL     1     -15.288   8.262  12.343  1.00  0.00     0.185 C 
HETATM   24  O4  UNL     1     -15.627   8.544  11.179  1.00  0.00    -0.292 OA
BRANCH  23  25
HETATM   25  C21 UNL     1     -14.398   7.040  12.585  1.00  0.00     0.260 C 
BRANCH  25  26
HETATM   26  O5  UNL     1     -12.987   7.191  12.619  1.00  0.00    -0.314 OA
BRANCH  26  27
HETATM   27  C22 UNL     1     -12.375   6.753  13.751  1.00  0.00     0.259 C 
HETATM   28  O6  UNL     1     -12.838   5.935  14.531  1.00  0.00    -0.265 OA
BRANCH  27  29
HETATM   29  C23 UNL     1     -11.028   7.409  13.873  1.00  0.00     0.120 C 
BRANCH  29  30
HETATM   30  C24 UNL     1     -10.014   6.789  12.926  1.00  0.00     0.112 C 
BRANCH  30  31
HETATM   31  C25 UNL     1      -8.837   6.208  13.685  1.00  0.00     0.218 C 
HETATM   32  O7  UNL     1      -8.217   6.821  14.548  1.00  0.00    -0.274 OA
HETATM   33  N1  UNL     1      -8.545   4.918  13.313  1.00  0.00    -0.357 N 
HETATM   34  H32 UNL     1      -9.154   4.439  12.659  1.00  0.00     0.162 HD
BRANCH  33  35
HETATM   35  C26 UNL     1      -7.491   4.157  13.939  1.00  0.00     0.161 C 
BRANCH  35  36
HETATM   36  C27 UNL     1      -6.713   3.389  12.908  1.00  0.00    -0.038 A 
HETATM   37  C28 UNL     1      -5.530   3.914  12.384  1.00  0.00     0.025 A 
HETATM   38  C29 UNL     1      -4.825   3.162  11.457  1.00  0.00     0.088 A 
HETATM   39  N2  UNL     1      -5.212   1.941  11.027  1.00  0.00    -0.375 N 
HETATM   40  C30 UNL     1      -6.356   1.450  11.549  1.00  0.00     0.088 A 
ATOM     41  H2  UNL     1      -4.667   1.416  10.343  1.00  0.00     0.164 HD
HETATM   42  C31 UNL     1      -7.128   2.123  12.481  1.00  0.00     0.025 A 
ENDBRANCH  35  36
ENDBRANCH  33  35
ENDBRANCH  30  31
ENDBRANCH  29  30
ENDBRANCH  27  29
ENDBRANCH  26  27
ENDBRANCH  25  26
ENDBRANCH  23  25
ENDBRANCH  20  23
BRANCH  13  43
HETATM   43  O2  UNL     1     -17.270   6.204  12.257  1.00  0.00    -0.395 OA
HETATM   44  H14 UNL     1     -17.447   6.417  11.314  1.00  0.00     0.210 HD
ENDBRANCH  13  43
TORSDOF 11
ENDMDL
MODEL 5
REMARK minimizedAffinity -8.35898495
REMARK CNNscore 0.40411967
REMARK CNNaffinity 5.98300314
REMARK  11 active torsions:
REMARK  status: ('A' for Active; 'I' for Inactive)
REMARK    1  A    between atoms: C12_13  and  O2_14 
REMARK    2  A    between atoms: C19_21  and  O3_22 
REMARK    3  A    between atoms: C19_21  and  C20_23 
REMARK    4  A    between atoms: C20_23  and  C21_25 
REMARK    5  A    between atoms: C21_25  and  O5_26 
REMARK    6  A    between atoms: O5_26  and  C22_27 
REMARK    7  A    between atoms: C22_27  and  C23_29 
REMARK    8  A    between atoms: C23_29  and  C24_30 
REMARK    9  A    between atoms: C24_30  and  C25_31 
REMARK       I    between atoms: C25_31  and  N1_33 
REMARK   10  A    between atoms: N1_33  and  C26_34 
REMARK   11  A    between atoms: C26_34  and  C27_35 
ROOT
HETATM    1  C1  UNL     1       3.227  13.045  22.840  1.00  0.00     0.025 C 
HETATM    2  C2  UNL     1       3.609  11.958  21.797  1.00  0.00     0.004 A 
HETATM    3  C3  UNL     1       2.274  11.530  21.201  1.00  0.00    -0.009 A 
HETATM    4  C4  UNL     1       1.774  10.288  21.256  1.00  0.00     0.052 A 
HETATM    5  C5  UNL     1       2.515   9.204  21.933  1.00  0.00     0.172 A 
HETATM    6  O1  UNL     1       2.077   8.063  21.973  1.00  0.00    -0.289 OA
HETATM    7  C6  UNL     1       3.795   9.561  22.580  1.00  0.00     0.058 A 
HETATM    8  C7  UNL     1       4.292  10.812  22.542  1.00  0.00    -0.064 A 
HETATM    9  C8  UNL     1       5.624  11.123  23.201  1.00  0.00     0.036 C 
HETATM   10  C9  UNL     1       6.430  12.196  22.458  1.00  0.00     0.010 C 
HETATM   11  C10 UNL     1       6.087  12.188  20.962  1.00  0.00    -0.002 C 
HETATM   12  C11 UNL     1       4.599  12.584  20.724  1.00  0.00     0.035 C 
HETATM   13  C12 UNL     1       4.283  12.286  19.239  1.00  0.00     0.124 C 
HETATM   14  C13 UNL     1       5.119  13.186  18.328  1.00  0.00     0.045 C 
HETATM   15  C14 UNL     1       6.639  13.287  18.635  1.00  0.00     0.001 C 
HETATM   16  C15 UNL     1       7.020  14.764  18.275  1.00  0.00     0.019 C 
HETATM   17  C16 UNL     1       7.040  13.067  20.129  1.00  0.00     0.002 C 
HETATM   18  C17 UNL     1       8.473  12.479  20.093  1.00  0.00     0.009 C 
HETATM   19  C18 UNL     1       8.882  12.376  18.629  1.00  0.00     0.047 C 
HETATM   20  C19 UNL     1       7.573  12.300  17.840  1.00  0.00     0.128 C 
ENDROOT
BRANCH  20  21
HETATM   21  O3  UNL     1       7.854  12.864  16.539  1.00  0.00    -0.381 OA
HETATM   22  H25 UNL     1       7.357  12.335  15.872  1.00  0.00     0.211 HD
ENDBRANCH  20  21
BRANCH  20  23
HETATM   23  C20 UNL     1       7.037  10.880  17.518  1.00  0.00     0.185 C 
HETATM   24  O4  UNL     1       7.100  10.020  18.416  1.00  0.00    -0.292 OA
BRANCH  23  25
HETATM   25  C21 UNL     1       6.494  10.483  16.142  1.00  0.00     0.260 C 
BRANCH  25  26
HETATM   26  O5  UNL     1       6.077   9.147  15.908  1.00  0.00    -0.314 OA
BRANCH  26  27
HETATM   27  C22 UNL     1       6.978   8.353  15.270  1.00  0.00     0.259 C 
HETATM   28  O6  UNL     1       8.114   8.124  15.655  1.00  0.00    -0.265 OA
BRANCH  27  29
HETATM   29  C23 UNL     1       6.343   7.777  14.034  1.00  0.00     0.120 C 
BRANCH  29  30
HETATM   30  C24 UNL     1       7.361   7.578  12.923  1.00  0.00     0.112 C 
BRANCH  30  31
HETATM   31  C25 UNL     1       6.708   7.679  11.557  1.00  0.00     0.218 C 
HETATM   32  O7  UNL     1       7.078   7.035  10.580  1.00  0.00    -0.274 OA
HETATM   33  N1  UNL     1       5.653   8.558  11.531  1.00  0.00    -0.357 N 
HETATM   34  H32 UNL     1       5.343   8.988  12.396  1.00  0.00     0.162 HD
BRANCH  33  35
HETATM   35  C26 UNL     1       4.861   8.774  10.344  1.00  0.00     0.161 C 
BRANCH  35  36
HETATM   36  C27 UNL     1       3.732   7.784  10.278  1.00  0.00    -0.038 A 
HETATM   37  C28 UNL     1       3.093   7.367  11.448  1.00  0.00     0.025 A 
HETATM   38  C29 UNL     1       2.036   6.476  11.343  1.00  0.00     0.088 A 
HETATM   39  N2  UNL     1       1.579   5.984  10.170  1.00  0.00    -0.375 N 
HETATM   40  C30 UNL     1       2.209   6.402   9.052  1.00  0.00     0.088 A 
ATOM     41  H2  UNL     1       0.798   5.329  10.132  1.00  0.00     0.164 HD
HETATM   42  C31 UNL     1       3.270   7.291   9.054  1.00  0.00     0.025 A 
ENDBRANCH  35  36
ENDBRANCH  33  35
ENDBRANCH  30  31
ENDBRANCH  29  30
ENDBRANCH  27  29
ENDBRANCH  26  27
ENDBRANCH  25  26
ENDBRANCH  23  25
ENDBRANCH  20  23
BRANCH  13  43
HETATM   43  O2  UNL     1       4.546  10.930  18.920  1.00  0.00    -0.395 OA
HETATM   44  H14 UNL     1       4.073  10.740  18.080  1.00  0.00     0.210 HD
ENDBRANCH  13  43
TORSDOF 11
ENDMDL
MODEL 6
REMARK minimizedAffinity -7.67835712
REMARK CNNscore 0.32109496
REMARK CNNaffinity 5.92256403
REMARK  11 active torsions:
REMARK  status: ('A' for Active; 'I' for Inactive)
REMARK    1  A    between atoms: C12_13  and  O2_14 
REMARK    2  A    between atoms: C19_21  and  O3_22 
REMARK    3  A    between atoms: C19_21  and  C20_23 
REMARK    4  A    between atoms: C20_23  and  C21_25 
REMARK    5  A    between atoms: C21_25  and  O5_26 
REMARK    6  A    between atoms: O5_26  and  C22_27 
REMARK    7  A    between atoms: C22_27  and  C23_29 
REMARK    8  A    between atoms: C23_29  and  C24_30 
REMARK    9  A    between atoms: C24_30  and  C25_31 
REMARK       I    between atoms: C25_31  and  N1_33 
REMARK   10  A    between atoms: N1_33  and  C26_34 
REMARK   11  A    between atoms: C26_34  and  C27_35 
ROOT
HETATM    1  C1  UNL     1       3.164  13.005  23.000  1.00  0.00     0.025 C 
HETATM    2  C2  UNL     1       3.560  11.962  21.918  1.00  0.00     0.004 A 
HETATM    3  C3  UNL     1       2.235  11.578  21.270  1.00  0.00    -0.009 A 
HETATM    4  C4  UNL     1       1.721  10.341  21.256  1.00  0.00     0.052 A 
HETATM    5  C5  UNL     1       2.434   9.219  21.900  1.00  0.00     0.172 A 
HETATM    6  O1  UNL     1       1.982   8.082  21.877  1.00  0.00    -0.289 OA
HETATM    7  C6  UNL     1       3.701   9.530  22.594  1.00  0.00     0.058 A 
HETATM    8  C7  UNL     1       4.212  10.776  22.626  1.00  0.00    -0.064 A 
HETATM    9  C8  UNL     1       5.530  11.040  23.330  1.00  0.00     0.036 C 
HETATM   10  C9  UNL     1       6.366  12.137  22.657  1.00  0.00     0.010 C 
HETATM   11  C10 UNL     1       6.060  12.202  21.155  1.00  0.00    -0.002 C 
HETATM   12  C11 UNL     1       4.583  12.626  20.899  1.00  0.00     0.035 C 
HETATM   13  C12 UNL     1       4.300  12.400  19.395  1.00  0.00     0.124 C 
HETATM   14  C13 UNL     1       5.168  13.331  18.547  1.00  0.00     0.045 C 
HETATM   15  C14 UNL     1       6.681  13.400  18.895  1.00  0.00     0.001 C 
HETATM   16  C15 UNL     1       7.087  14.887  18.613  1.00  0.00     0.019 C 
HETATM   17  C16 UNL     1       7.043  13.107  20.387  1.00  0.00     0.002 C 
HETATM   18  C17 UNL     1       8.470  12.505  20.358  1.00  0.00     0.009 C 
HETATM   19  C18 UNL     1       8.914  12.464  18.901  1.00  0.00     0.047 C 
HETATM   20  C19 UNL     1       7.624  12.440  18.078  1.00  0.00     0.128 C 
ENDROOT
BRANCH  20  21
HETATM   21  O3  UNL     1       7.943  13.060  16.811  1.00  0.00    -0.381 OA
HETATM   22  H25 UNL     1       7.457  12.568  16.109  1.00  0.00     0.211 HD
ENDBRANCH  20  21
BRANCH  20  23
HETATM   23  C20 UNL     1       7.081  11.043  17.678  1.00  0.00     0.185 C 
HETATM   24  O4  UNL     1       7.195  10.119  18.504  1.00  0.00    -0.292 OA
BRANCH  23  25
HETATM   25  C21 UNL     1       6.471  10.743  16.305  1.00  0.00     0.260 C 
BRANCH  25  26
HETATM   26  O5  UNL     1       7.287  10.211  15.273  1.00  0.00    -0.314 OA
BRANCH  26  27
HETATM   27  C22 UNL     1       7.224   8.863  15.110  1.00  0.00     0.259 C 
HETATM   28  O6  UNL     1       6.580   8.097  15.810  1.00  0.00    -0.265 OA
BRANCH  27  29
HETATM   29  C23 UNL     1       8.047   8.468  13.915  1.00  0.00     0.120 C 
BRANCH  29  30
HETATM   30  C24 UNL     1       9.498   8.219  14.291  1.00  0.00     0.112 C 
BRANCH  30  31
HETATM   31  C25 UNL     1      10.353   9.442  14.021  1.00  0.00     0.218 C 
HETATM   32  O7  UNL     1      10.983   9.613  12.982  1.00  0.00    -0.274 OA
HETATM   33  N1  UNL     1      10.339  10.344  15.057  1.00  0.00    -0.357 N 
HETATM   34  H32 UNL     1       9.725  10.184  15.847  1.00  0.00     0.162 HD
BRANCH  33  35
HETATM   35  C26 UNL     1      11.048  11.599  14.993  1.00  0.00     0.161 C 
BRANCH  35  36
HETATM   36  C27 UNL     1      12.376  11.489  15.689  1.00  0.00    -0.038 A 
HETATM   37  C28 UNL     1      13.520  11.139  14.970  1.00  0.00     0.025 A 
HETATM   38  C29 UNL     1      14.731  11.077  15.641  1.00  0.00     0.088 A 
HETATM   39  N2  UNL     1      14.876  11.340  16.959  1.00  0.00    -0.375 N 
HETATM   40  C30 UNL     1      13.758  11.680  17.634  1.00  0.00     0.088 A 
ATOM     41  H2  UNL     1      15.784  11.284  17.419  1.00  0.00     0.164 HD
HETATM   42  C31 UNL     1      12.505  11.771  17.053  1.00  0.00     0.025 A 
ENDBRANCH  35  36
ENDBRANCH  33  35
ENDBRANCH  30  31
ENDBRANCH  29  30
ENDBRANCH  27  29
ENDBRANCH  26  27
ENDBRANCH  25  26
ENDBRANCH  23  25
ENDBRANCH  20  23
BRANCH  13  43
HETATM   43  O2  UNL     1       4.557  11.057  19.020  1.00  0.00    -0.395 OA
HETATM   44  H14 UNL     1       4.102  10.911  18.161  1.00  0.00     0.210 HD
ENDBRANCH  13  43
TORSDOF 11
ENDMDL
MODEL 7
REMARK minimizedAffinity -7.81443977
REMARK CNNscore 0.273049891
REMARK CNNaffinity 5.49233675
REMARK  11 active torsions:
REMARK  status: ('A' for Active; 'I' for Inactive)
REMARK    1  A    between atoms: C12_13  and  O2_14 
REMARK    2  A    between atoms: C19_21  and  O3_22 
REMARK    3  A    between atoms: C19_21  and  C20_23 
REMARK    4  A    between atoms: C20_23  and  C21_25 
REMARK    5  A    between atoms: C21_25  and  O5_26 
REMARK    6  A    between atoms: O5_26  and  C22_27 
REMARK    7  A    between atoms: C22_27  and  C23_29 
REMARK    8  A    between atoms: C23_29  and  C24_30 
REMARK    9  A    between atoms: C24_30  and  C25_31 
REMARK       I    between atoms: C25_31  and  N1_33 
REMARK   10  A    between atoms: N1_33  and  C26_34 
REMARK   11  A    between atoms: C26_34  and  C27_35 
ROOT
HETATM    1  C1  UNL     1       0.180   7.841   9.233  1.00  0.00     0.025 C 
HETATM    2  C2  UNL     1       1.078   7.615  10.481  1.00  0.00     0.004 A 
HETATM    3  C3  UNL     1       2.408   8.253  10.101  1.00  0.00    -0.009 A 
HETATM    4  C4  UNL     1       3.576   7.601  10.025  1.00  0.00     0.052 A 
HETATM    5  C5  UNL     1       3.654   6.155  10.312  1.00  0.00     0.172 A 
HETATM    6  O1  UNL     1       4.718   5.553  10.264  1.00  0.00    -0.289 OA
HETATM    7  C6  UNL     1       2.390   5.460  10.637  1.00  0.00     0.058 A 
HETATM    8  C7  UNL     1       1.212   6.108  10.697  1.00  0.00    -0.064 A 
HETATM    9  C8  UNL     1      -0.055   5.355  11.059  1.00  0.00     0.036 C 
HETATM   10  C9  UNL     1      -1.052   6.200  11.862  1.00  0.00     0.010 C 
HETATM   11  C10 UNL     1      -0.316   7.271  12.678  1.00  0.00    -0.002 C 
HETATM   12  C11 UNL     1       0.399   8.294  11.747  1.00  0.00     0.035 C 
HETATM   13  C12 UNL     1       1.321   9.155  12.642  1.00  0.00     0.124 C 
HETATM   14  C13 UNL     1       0.486   9.978  13.625  1.00  0.00     0.045 C 
HETATM   15  C14 UNL     1      -0.625   9.228  14.411  1.00  0.00     0.001 C 
HETATM   16  C15 UNL     1      -1.780  10.276  14.563  1.00  0.00     0.019 C 
HETATM   17  C16 UNL     1      -1.235   7.982  13.690  1.00  0.00     0.002 C 
HETATM   18  C17 UNL     1      -1.685   7.026  14.823  1.00  0.00     0.009 C 
HETATM   19  C18 UNL     1      -1.354   7.705  16.146  1.00  0.00     0.047 C 
HETATM   20  C19 UNL     1      -0.223   8.687  15.833  1.00  0.00     0.128 C 
ENDROOT
BRANCH  20  21
HETATM   21  O3  UNL     1      -0.342   9.759  16.796  1.00  0.00    -0.381 OA
HETATM   22  H25 UNL     1       0.569  10.029  17.054  1.00  0.00     0.211 HD
ENDBRANCH  20  21
BRANCH  20  23
HETATM   23  C20 UNL     1       1.225   8.167  16.039  1.00  0.00     0.185 C 
HETATM   24  O4  UNL     1       1.487   7.014  15.651  1.00  0.00    -0.292 OA
BRANCH  23  25
HETATM   25  C21 UNL     1       2.314   8.982  16.743  1.00  0.00     0.260 C 
BRANCH  25  26
HETATM   26  O5  UNL     1       2.101  10.359  17.011  1.00  0.00    -0.314 OA
BRANCH  26  27
HETATM   27  C22 UNL     1       2.859  10.888  18.009  1.00  0.00     0.259 C 
HETATM   28  O6  UNL     1       4.067  10.750  18.126  1.00  0.00    -0.265 OA
BRANCH  27  29
HETATM   29  C23 UNL     1       1.980  11.694  18.926  1.00  0.00     0.120 C 
BRANCH  29  30
HETATM   30  C24 UNL     1       1.166  10.802  19.848  1.00  0.00     0.112 C 
BRANCH  30  31
HETATM   31  C25 UNL     1       2.009  10.285  20.997  1.00  0.00     0.218 C 
HETATM   32  O7  UNL     1       2.315   9.105  21.137  1.00  0.00    -0.274 OA
HETATM   33  N1  UNL     1       2.406  11.278  21.860  1.00  0.00    -0.357 N 
HETATM   34  H32 UNL     1       2.196  12.245  21.636  1.00  0.00     0.162 HD
BRANCH  33  35
HETATM   35  C26 UNL     1       3.253  11.016  22.998  1.00  0.00     0.161 C 
BRANCH  35  36
HETATM   36  C27 UNL     1       4.423  11.959  23.012  1.00  0.00    -0.038 A 
HETATM   37  C28 UNL     1       5.728  11.463  23.013  1.00  0.00     0.025 A 
HETATM   38  C29 UNL     1       6.780  12.364  22.995  1.00  0.00     0.088 A 
HETATM   39  N2  UNL     1       6.621  13.707  22.973  1.00  0.00    -0.375 N 
HETATM   40  C30 UNL     1       5.352  14.165  22.970  1.00  0.00     0.088 A 
ATOM     41  H2  UNL     1       7.420  14.340  22.961  1.00  0.00     0.164 HD
HETATM   42  C31 UNL     1       4.236  13.345  22.984  1.00  0.00     0.025 A 
ENDBRANCH  35  36
ENDBRANCH  33  35
ENDBRANCH  30  31
ENDBRANCH  29  30
ENDBRANCH  27  29
ENDBRANCH  26  27
ENDBRANCH  25  26
ENDBRANCH  23  25
ENDBRANCH  20  23
BRANCH  13  43
HETATM   43  O2  UNL     1       2.231   8.348  13.370  1.00  0.00    -0.395 OA
HETATM   44  H14 UNL     1       2.949   8.942  13.683  1.00  0.00     0.210 HD
ENDBRANCH  13  43
TORSDOF 11
ENDMDL
MODEL 8
REMARK minimizedAffinity -7.01033068
REMARK CNNscore 0.266236395
REMARK CNNaffinity 5.82513809
REMARK  11 active torsions:
REMARK  status: ('A' for Active; 'I' for Inactive)
REMARK    1  A    between atoms: C12_13  and  O2_14 
REMARK    2  A    between atoms: C19_21  and  O3_22 
REMARK    3  A    between atoms: C19_21  and  C20_23 
REMARK    4  A    between atoms: C20_23  and  C21_25 
REMARK    5  A    between atoms: C21_25  and  O5_26 
REMARK    6  A    between atoms: O5_26  and  C22_27 
REMARK    7  A    between atoms: C22_27  and  C23_29 
REMARK    8  A    between atoms: C23_29  and  C24_30 
REMARK    9  A    between atoms: C24_30  and  C25_31 
REMARK       I    between atoms: C25_31  and  N1_33 
REMARK   10  A    between atoms: N1_33  and  C26_34 
REMARK   11  A    between atoms: C26_34  and  C27_35 
ROOT
HETATM    1  C1  UNL     1      -0.031  13.766  19.753  1.00  0.00     0.025 C 
HETATM    2  C2  UNL     1       0.304  12.379  19.137  1.00  0.00     0.004 A 
HETATM    3  C3  UNL     1       0.545  11.484  20.347  1.00  0.00    -0.009 A 
HETATM    4  C4  UNL     1       1.695  10.850  20.612  1.00  0.00     0.052 A 
HETATM    5  C5  UNL     1       2.858  10.985  19.712  1.00  0.00     0.172 A 
HETATM    6  O1  UNL     1       3.907  10.396  19.935  1.00  0.00    -0.289 OA
HETATM    7  C6  UNL     1       2.710  11.881  18.546  1.00  0.00     0.058 A 
HETATM    8  C7  UNL     1       1.562  12.534  18.285  1.00  0.00    -0.064 A 
HETATM    9  C8  UNL     1       1.453  13.424  17.060  1.00  0.00     0.036 C 
HETATM   10  C9  UNL     1       0.051  13.423  16.436  1.00  0.00     0.010 C 
HETATM   11  C10 UNL     1      -0.661  12.092  16.713  1.00  0.00    -0.002 C 
HETATM   12  C11 UNL     1      -0.914  11.896  18.238  1.00  0.00     0.035 C 
HETATM   13  C12 UNL     1      -1.378  10.434  18.436  1.00  0.00     0.124 C 
HETATM   14  C13 UNL     1      -2.723  10.206  17.744  1.00  0.00     0.045 C 
HETATM   15  C14 UNL     1      -2.861  10.713  16.281  1.00  0.00     0.001 C 
HETATM   16  C15 UNL     1      -4.350  11.188  16.164  1.00  0.00     0.019 C 
HETATM   17  C16 UNL     1      -1.964  11.936  15.905  1.00  0.00     0.002 C 
HETATM   18  C17 UNL     1      -1.682  11.795  14.389  1.00  0.00     0.009 C 
HETATM   19  C18 UNL     1      -2.401  10.539  13.911  1.00  0.00     0.047 C 
HETATM   20  C19 UNL     1      -2.561   9.659  15.152  1.00  0.00     0.128 C 
ENDROOT
BRANCH  20  21
HETATM   21  O3  UNL     1      -3.744   8.859  14.929  1.00  0.00    -0.381 OA
HETATM   22  H25 UNL     1      -3.569   7.960  15.293  1.00  0.00     0.211 HD
ENDBRANCH  20  21
BRANCH  20  23
HETATM   23  C20 UNL     1      -1.448   8.607  15.406  1.00  0.00     0.185 C 
HETATM   24  O4  UNL     1      -0.616   8.849  16.299  1.00  0.00    -0.292 OA
BRANCH  23  25
HETATM   25  C21 UNL     1      -1.299   7.329  14.575  1.00  0.00     0.260 C 
BRANCH  25  26
HETATM   26  O5  UNL     1      -0.126   7.123  13.804  1.00  0.00    -0.314 OA
BRANCH  26  27
HETATM   27  C22 UNL     1      -0.095   7.755  12.600  1.00  0.00     0.259 C 
HETATM   28  O6  UNL     1      -1.074   8.039  11.927  1.00  0.00    -0.265 OA
BRANCH  27  29
HETATM   29  C23 UNL     1       1.331   8.076  12.245  1.00  0.00     0.120 C 
BRANCH  29  30
HETATM   30  C24 UNL     1       2.146   6.816  12.006  1.00  0.00     0.112 C 
BRANCH  30  31
HETATM   31  C25 UNL     1       1.794   6.178  10.676  1.00  0.00     0.218 C 
HETATM   32  O7  UNL     1       0.908   5.341  10.539  1.00  0.00    -0.274 OA
HETATM   33  N1  UNL     1       2.564   6.644   9.638  1.00  0.00    -0.357 N 
HETATM   34  H32 UNL     1       3.217   7.402   9.804  1.00  0.00     0.162 HD
BRANCH  33  35
HETATM   35  C26 UNL     1       2.368   6.205   8.277  1.00  0.00     0.161 C 
BRANCH  35  36
HETATM   36  C27 UNL     1       3.219   5.001   7.985  1.00  0.00    -0.038 A 
HETATM   37  C28 UNL     1       3.350   4.532   6.677  1.00  0.00     0.025 A 
HETATM   38  C29 UNL     1       4.168   3.438   6.443  1.00  0.00     0.088 A 
HETATM   39  N2  UNL     1       4.856   2.793   7.411  1.00  0.00    -0.375 N 
HETATM   40  C30 UNL     1       4.718   3.264   8.668  1.00  0.00     0.088 A 
ATOM     41  H2  UNL     1       5.449   1.990   7.202  1.00  0.00     0.164 HD
HETATM   42  C31 UNL     1       3.928   4.351   9.001  1.00  0.00     0.025 A 
ENDBRANCH  35  36
ENDBRANCH  33  35
ENDBRANCH  30  31
ENDBRANCH  29  30
ENDBRANCH  27  29
ENDBRANCH  26  27
ENDBRANCH  25  26
ENDBRANCH  23  25
ENDBRANCH  20  23
BRANCH  13  43
HETATM   43  O2  UNL     1      -0.429   9.518  17.916  1.00  0.00    -0.395 OA
HETATM   44  H14 UNL     1      -0.632   8.642  18.313  1.00  0.00     0.210 HD
ENDBRANCH  13  43
TORSDOF 11
ENDMDL
MODEL 9
REMARK minimizedAffinity -7.37695551
REMARK CNNscore 0.224746734
REMARK CNNaffinity 5.63586283
REMARK  11 active torsions:
REMARK  status: ('A' for Active; 'I' for Inactive)
REMARK    1  A    between atoms: C12_13  and  O2_14 
REMARK    2  A    between atoms: C19_21  and  O3_22 
REMARK    3  A    between atoms: C19_21  and  C20_23 
REMARK    4  A    between atoms: C20_23  and  C21_25 
REMARK    5  A    between atoms: C21_25  and  O5_26 
REMARK    6  A    between atoms: O5_26  and  C22_27 
REMARK    7  A    between atoms: C22_27  and  C23_29 
REMARK    8  A    between atoms: C23_29  and  C24_30 
REMARK    9  A    between atoms: C24_30  and  C25_31 
REMARK       I    between atoms: C25_31  and  N1_33 
REMARK   10  A    between atoms: N1_33  and  C26_34 
REMARK   11  A    between atoms: C26_34  and  C27_35 
ROOT
HETATM    1  C1  UNL     1      -3.628   8.246  12.975  1.00  0.00     0.025 C 
HETATM    2  C2  UNL     1      -2.206   8.685  13.423  1.00  0.00     0.004 A 
HETATM    3  C3  UNL     1      -1.510   9.069  12.123  1.00  0.00    -0.009 A 
HETATM    4  C4  UNL     1      -0.403   8.483  11.646  1.00  0.00     0.052 A 
HETATM    5  C5  UNL     1       0.240   7.373  12.379  1.00  0.00     0.172 A 
HETATM    6  O1  UNL     1       1.260   6.843  11.961  1.00  0.00    -0.289 OA
HETATM    7  C6  UNL     1      -0.414   6.914  13.622  1.00  0.00     0.058 A 
HETATM    8  C7  UNL     1      -1.535   7.489  14.096  1.00  0.00    -0.064 A 
HETATM    9  C8  UNL     1      -2.155   6.997  15.391  1.00  0.00     0.036 C 
HETATM   10  C9  UNL     1      -2.817   8.115  16.207  1.00  0.00     0.010 C 
HETATM   11  C10 UNL     1      -2.134   9.461  15.930  1.00  0.00    -0.002 C 
HETATM   12  C11 UNL     1      -2.328   9.895  14.446  1.00  0.00     0.035 C 
HETATM   13  C12 UNL     1      -1.391  11.101  14.200  1.00  0.00     0.124 C 
HETATM   14  C13 UNL     1      -1.825  12.292  15.056  1.00  0.00     0.045 C 
HETATM   15  C14 UNL     1      -2.107  12.017  16.560  1.00  0.00     0.001 C 
HETATM   16  C15 UNL     1      -3.284  12.984  16.927  1.00  0.00     0.019 C 
HETATM   17  C16 UNL     1      -2.587  10.569  16.900  1.00  0.00     0.002 C 
HETATM   18  C17 UNL     1      -2.097  10.298  18.344  1.00  0.00     0.009 C 
HETATM   19  C18 UNL     1      -1.371  11.550  18.818  1.00  0.00     0.047 C 
HETATM   20  C19 UNL     1      -0.905  12.262  17.546  1.00  0.00     0.128 C 
ENDROOT
BRANCH  20  21
HETATM   21  O3  UNL     1      -0.844  13.670  17.872  1.00  0.00    -0.381 OA
HETATM   22  H25 UNL     1      -0.056  14.046  17.415  1.00  0.00     0.211 HD
ENDBRANCH  20  21
BRANCH  20  23
HETATM   23  C20 UNL     1       0.529  11.936  17.052  1.00  0.00     0.185 C 
HETATM   24  O4  UNL     1       1.123  12.803  16.385  1.00  0.00    -0.292 OA
BRANCH  23  25
HETATM   25  C21 UNL     1       1.213  10.588  17.298  1.00  0.00     0.260 C 
BRANCH  25  26
HETATM   26  O5  UNL     1       1.263  10.053  18.612  1.00  0.00    -0.314 OA
BRANCH  26  27
HETATM   27  C22 UNL     1       2.266  10.523  19.400  1.00  0.00     0.259 C 
HETATM   28  O6  UNL     1       3.379  10.842  19.010  1.00  0.00    -0.265 OA
BRANCH  27  29
HETATM   29  C23 UNL     1       1.779  10.617  20.820  1.00  0.00     0.120 C 
BRANCH  29  30
HETATM   30  C24 UNL     1       2.384   9.530  21.693  1.00  0.00     0.112 C 
BRANCH  30  31
HETATM   31  C25 UNL     1       3.302  10.120  22.746  1.00  0.00     0.218 C 
HETATM   32  O7  UNL     1       3.060  10.095  23.949  1.00  0.00    -0.274 OA
HETATM   33  N1  UNL     1       4.440  10.676  22.213  1.00  0.00    -0.357 N 
HETATM   34  H32 UNL     1       4.621  10.581  21.220  1.00  0.00     0.162 HD
BRANCH  33  35
HETATM   35  C26 UNL     1       5.473  11.254  23.039  1.00  0.00     0.161 C 
BRANCH  35  36
HETATM   36  C27 UNL     1       6.139  12.396  22.324  1.00  0.00    -0.038 A 
HETATM   37  C28 UNL     1       6.136  12.451  20.929  1.00  0.00     0.025 A 
HETATM   38  C29 UNL     1       6.734  13.536  20.308  1.00  0.00     0.088 A 
HETATM   39  N2  UNL     1       7.323  14.555  20.973  1.00  0.00    -0.375 N 
HETATM   40  C30 UNL     1       7.312  14.484  22.321  1.00  0.00     0.088 A 
ATOM     41  H2  UNL     1       7.753  15.337  20.481  1.00  0.00     0.164 HD
HETATM   42  C31 UNL     1       6.738  13.444  23.032  1.00  0.00     0.025 A 
ENDBRANCH  35  36
ENDBRANCH  33  35
ENDBRANCH  30  31
ENDBRANCH  29  30
ENDBRANCH  27  29
ENDBRANCH  26  27
ENDBRANCH  25  26
ENDBRANCH  23  25
ENDBRANCH  20  23
BRANCH  13  43
HETATM   43  O2  UNL     1      -0.045  10.777  14.503  1.00  0.00    -0.395 OA
HETATM   44  H14 UNL     1       0.515  11.459  14.070  1.00  0.00     0.210 HD
ENDBRANCH  13  43
TORSDOF 11
ENDMDL
