MODEL 1
REMARK minimizedAffinity -9.61955452
REMARK  7 active torsions:
REMARK  status: ('A' for Active; 'I' for Inactive)
REMARK    1  A    between atoms: C2_2  and  C30_33 
REMARK    2  A    between atoms: C3_3  and  C4_4 
REMARK    3  A    between atoms: C4_4  and  C5_5 
REMARK    4  A    between atoms: C5_5  and  C6_6 
REMARK    5  A    between atoms: C6_6  and  C8_8 
REMARK    6  A    between atoms: C10_10  and  O1_11 
REMARK    7  A    between atoms: C30_33  and  O5_35 
ROOT
HETATM    1  C8  UNL     1      -0.977   6.380  12.048  1.00  0.00     0.001 C 
HETATM    2  C9  UNL     1      -1.650   7.564  12.788  1.00  0.00     0.038 C 
HETATM    3  C10 UNL     1      -0.540   8.612  13.052  1.00  0.00     0.131 C 
HETATM    4  C11 UNL     1       0.636   8.180  12.130  1.00  0.00     0.014 C 
HETATM    5  C12 UNL     1       0.358   8.735  10.693  1.00  0.00     0.023 C 
HETATM    6  C13 UNL     1       2.071   8.616  12.429  1.00  0.00    -0.058 C 
HETATM    7  C14 UNL     1       3.131   7.899  11.961  1.00  0.00    -0.000 C 
HETATM    8  C15 UNL     1       2.883   6.513  11.368  1.00  0.00     0.157 C 
HETATM    9  O2  UNL     1       3.825   5.809  11.003  1.00  0.00    -0.293 OA
HETATM   10  C16 UNL     1       1.461   5.978  11.244  1.00  0.00     0.094 C 
HETATM   11  C17 UNL     1       0.542   6.621  12.281  1.00  0.00    -0.019 C 
HETATM   12  C18 UNL     1       0.970   6.106  13.691  1.00  0.00     0.017 C 
HETATM   13  C19 UNL     1       4.601   8.406  12.042  1.00  0.00    -0.008 C 
HETATM   14  C20 UNL     1       5.267   7.587  13.172  1.00  0.00     0.021 C 
HETATM   15  C21 UNL     1       5.398   8.169  10.713  1.00  0.00     0.022 C 
HETATM   16  C22 UNL     1       5.986   9.414  10.062  1.00  0.00     0.080 C 
HETATM   17  C23 UNL     1       6.731  10.265  11.060  1.00  0.00     0.135 C 
HETATM   18  O3  UNL     1       7.874  10.669  10.813  1.00  0.00    -0.297 OA
HETATM   19  C24 UNL     1       5.963  10.682  12.325  1.00  0.00     0.018 C 
HETATM   20  C25 UNL     1       6.852  10.414  13.552  1.00  0.00     0.023 C 
HETATM   21  C26 UNL     1       5.739  12.212  12.214  1.00  0.00     0.023 C 
HETATM   22  C27 UNL     1       4.579   9.954  12.326  1.00  0.00     0.014 C 
HETATM   23  C28 UNL     1       3.683  10.274  13.529  1.00  0.00     0.011 C 
HETATM   24  C29 UNL     1       2.237   9.913  13.192  1.00  0.00     0.036 C 
ENDROOT
BRANCH   1  25
HETATM   25  C6  UNL     1      -1.564   4.963  12.318  1.00  0.00    -0.013 C 
HETATM   26  C7  UNL     1      -1.396   4.105  11.048  1.00  0.00     0.010 C 
BRANCH  25  27
HETATM   27  C5  UNL     1      -3.047   4.928  12.753  1.00  0.00     0.008 C 
BRANCH  27  28
HETATM   28  C4  UNL     1      -3.895   3.942  11.937  1.00  0.00     0.028 C 
BRANCH  28  29
HETATM   29  C3  UNL     1      -5.263   3.777  12.541  1.00  0.00    -0.013 C 
HETATM   30  C2  UNL     1      -6.174   2.823  12.255  1.00  0.00     0.008 C 
HETATM   31  C1  UNL     1      -6.011   1.730  11.242  1.00  0.00     0.055 C 
BRANCH  30  32
HETATM   32  C30 UNL     1      -7.479   2.777  12.969  1.00  0.00     0.171 C 
HETATM   33  O4  UNL     1      -7.835   3.558  13.832  1.00  0.00    -0.646 OA
BRANCH  32  34
HETATM   34  O5  UNL     1      -8.289   1.780  12.567  1.00  0.00    -0.773 OA
HETATM   35  H44 UNL     1      -9.085   1.901  13.124  1.00  0.00     0.167 HD
ENDBRANCH  32  34
ENDBRANCH  30  32
ENDBRANCH  28  29
ENDBRANCH  27  28
ENDBRANCH  25  27
ENDBRANCH   1  25
BRANCH   3  36
HETATM   36  O1  UNL     1      -1.058   9.909  12.795  1.00  0.00    -0.394 OA
HETATM   37  H17 UNL     1      -0.371  10.562  13.004  1.00  0.00     0.210 HD
ENDBRANCH   3  36
TORSDOF 7
ENDMDL
MODEL 2
REMARK minimizedAffinity -9.58339119
REMARK  7 active torsions:
REMARK  status: ('A' for Active; 'I' for Inactive)
REMARK    1  A    between atoms: C2_2  and  C30_33 
REMARK    2  A    between atoms: C3_3  and  C4_4 
REMARK    3  A    between atoms: C4_4  and  C5_5 
REMARK    4  A    between atoms: C5_5  and  C6_6 
REMARK    5  A    between atoms: C6_6  and  C8_8 
REMARK    6  A    between atoms: C10_10  and  O1_11 
REMARK    7  A    between atoms: C30_33  and  O5_35 
ROOT
HETATM    1  C8  UNL     1      -2.059   6.523  13.017  1.00  0.00     0.001 C 
HETATM    2  C9  UNL     1      -2.092   5.535  11.823  1.00  0.00     0.038 C 
HETATM    3  C10 UNL     1      -0.645   5.452  11.275  1.00  0.00     0.131 C 
HETATM    4  C11 UNL     1       0.236   6.083  12.391  1.00  0.00     0.014 C 
HETATM    5  C12 UNL     1       0.510   4.988  13.474  1.00  0.00     0.023 C 
HETATM    6  C13 UNL     1       1.620   6.650  12.074  1.00  0.00    -0.058 C 
HETATM    7  C14 UNL     1       2.186   7.599  12.871  1.00  0.00    -0.000 C 
HETATM    8  C15 UNL     1       1.323   8.289  13.928  1.00  0.00     0.157 C 
HETATM    9  O2  UNL     1       1.783   9.201  14.616  1.00  0.00    -0.293 OA
HETATM   10  C16 UNL     1      -0.129   7.867  14.123  1.00  0.00     0.094 C 
HETATM   11  C17 UNL     1      -0.699   7.259  12.843  1.00  0.00    -0.019 C 
HETATM   12  C18 UNL     1      -0.823   8.398  11.782  1.00  0.00     0.017 C 
HETATM   13  C19 UNL     1       3.668   8.053  12.731  1.00  0.00    -0.008 C 
HETATM   14  C20 UNL     1       3.620   9.448  12.065  1.00  0.00     0.021 C 
HETATM   15  C21 UNL     1       4.397   8.181  14.113  1.00  0.00     0.022 C 
HETATM   16  C22 UNL     1       5.647   7.329  14.284  1.00  0.00     0.080 C 
HETATM   17  C23 UNL     1       6.578   7.463  13.105  1.00  0.00     0.135 C 
HETATM   18  O3  UNL     1       7.781   7.695  13.276  1.00  0.00    -0.297 OA
HETATM   19  C24 UNL     1       5.979   7.191  11.715  1.00  0.00     0.018 C 
HETATM   20  C25 UNL     1       6.397   8.330  10.768  1.00  0.00     0.023 C 
HETATM   21  C26 UNL     1       6.629   5.878  11.210  1.00  0.00     0.023 C 
HETATM   22  C27 UNL     1       4.438   6.981  11.873  1.00  0.00     0.014 C 
HETATM   23  C28 UNL     1       3.689   6.690  10.566  1.00  0.00     0.011 C 
HETATM   24  C29 UNL     1       2.342   6.046  10.889  1.00  0.00     0.036 C 
ENDROOT
BRANCH   1  25
HETATM   25  C6  UNL     1      -3.345   7.367  13.262  1.00  0.00    -0.013 C 
HETATM   26  C7  UNL     1      -3.180   8.153  14.579  1.00  0.00     0.010 C 
BRANCH  25  27
HETATM   27  C5  UNL     1      -4.666   6.564  13.320  1.00  0.00     0.008 C 
BRANCH  27  28
HETATM   28  C4  UNL     1      -4.479   5.068  13.029  1.00  0.00     0.028 C 
BRANCH  28  29
HETATM   29  C3  UNL     1      -5.786   4.330  13.133  1.00  0.00    -0.013 C 
HETATM   30  C2  UNL     1      -6.174   3.248  12.425  1.00  0.00     0.008 C 
HETATM   31  C1  UNL     1      -5.372   2.567  11.358  1.00  0.00     0.055 C 
BRANCH  30  32
HETATM   32  C30 UNL     1      -7.496   2.612  12.670  1.00  0.00     0.171 C 
HETATM   33  O4  UNL     1      -8.521   3.206  12.949  1.00  0.00    -0.646 OA
BRANCH  32  34
HETATM   34  O5  UNL     1      -7.492   1.272  12.539  1.00  0.00    -0.773 OA
HETATM   35  H44 UNL     1      -8.421   1.027  12.725  1.00  0.00     0.167 HD
ENDBRANCH  32  34
ENDBRANCH  30  32
ENDBRANCH  28  29
ENDBRANCH  27  28
ENDBRANCH  25  27
ENDBRANCH   1  25
BRANCH   3  36
HETATM   36  O1  UNL     1      -0.344   4.098  10.968  1.00  0.00    -0.394 OA
HETATM   37  H17 UNL     1       0.547   4.060  10.585  1.00  0.00     0.210 HD
ENDBRANCH   3  36
TORSDOF 7
ENDMDL
MODEL 3
REMARK minimizedAffinity -9.19340706
REMARK  7 active torsions:
REMARK  status: ('A' for Active; 'I' for Inactive)
REMARK    1  A    between atoms: C2_2  and  C30_33 
REMARK    2  A    between atoms: C3_3  and  C4_4 
REMARK    3  A    between atoms: C4_4  and  C5_5 
REMARK    4  A    between atoms: C5_5  and  C6_6 
REMARK    5  A    between atoms: C6_6  and  C8_8 
REMARK    6  A    between atoms: C10_10  and  O1_11 
REMARK    7  A    between atoms: C30_33  and  O5_35 
ROOT
HETATM    1  C8  UNL     1      -6.200   7.304  14.515  1.00  0.00     0.001 C 
HETATM    2  C9  UNL     1      -6.018   8.641  15.278  1.00  0.00     0.038 C 
HETATM    3  C10 UNL     1      -4.523   9.027  15.149  1.00  0.00     0.131 C 
HETATM    4  C11 UNL     1      -3.979   8.118  14.010  1.00  0.00     0.014 C 
HETATM    5  C12 UNL     1      -4.340   8.783  12.640  1.00  0.00     0.023 C 
HETATM    6  C13 UNL     1      -2.485   7.810  13.894  1.00  0.00    -0.058 C 
HETATM    7  C14 UNL     1      -2.050   6.691  13.251  1.00  0.00    -0.000 C 
HETATM    8  C15 UNL     1      -3.063   5.608  12.880  1.00  0.00     0.157 C 
HETATM    9  O2  UNL     1      -2.694   4.554  12.364  1.00  0.00    -0.293 OA
HETATM   10  C16 UNL     1      -4.545   5.818  13.171  1.00  0.00     0.094 C 
HETATM   11  C17 UNL     1      -4.744   6.787  14.335  1.00  0.00    -0.019 C 
HETATM   12  C18 UNL     1      -4.245   6.085  15.637  1.00  0.00     0.017 C 
HETATM   13  C19 UNL     1      -0.553   6.435  12.910  1.00  0.00    -0.008 C 
HETATM   14  C20 UNL     1      -0.069   5.362  13.914  1.00  0.00     0.021 C 
HETATM   15  C21 UNL     1      -0.347   5.890  11.454  1.00  0.00     0.022 C 
HETATM   16  C22 UNL     1       0.554   6.727  10.555  1.00  0.00     0.080 C 
HETATM   17  C23 UNL     1       1.846   7.088  11.245  1.00  0.00     0.135 C 
HETATM   18  O3  UNL     1       2.933   6.909  10.680  1.00  0.00    -0.297 OA
HETATM   19  C24 UNL     1       1.731   7.780  12.613  1.00  0.00     0.018 C 
HETATM   20  C25 UNL     1       2.685   7.082  13.599  1.00  0.00     0.023 C 
HETATM   21  C26 UNL     1       2.226   9.235  12.409  1.00  0.00     0.023 C 
HETATM   22  C27 UNL     1       0.226   7.798  13.033  1.00  0.00     0.014 C 
HETATM   23  C28 UNL     1      -0.059   8.466  14.385  1.00  0.00     0.011 C 
HETATM   24  C29 UNL     1      -1.537   8.847  14.458  1.00  0.00     0.036 C 
ENDROOT
BRANCH   1  25
HETATM   25  C6  UNL     1      -7.282   6.328  15.064  1.00  0.00    -0.013 C 
HETATM   26  C7  UNL     1      -7.139   6.239  16.597  1.00  0.00     0.010 C 
BRANCH  25  27
HETATM   27  C5  UNL     1      -7.249   4.898  14.475  1.00  0.00     0.008 C 
BRANCH  27  28
HETATM   28  C4  UNL     1      -7.805   4.819  13.046  1.00  0.00     0.028 C 
BRANCH  28  29
HETATM   29  C3  UNL     1      -6.874   4.053  12.146  1.00  0.00    -0.013 C 
HETATM   30  C2  UNL     1      -6.702   2.715  12.094  1.00  0.00     0.008 C 
HETATM   31  C1  UNL     1      -7.401   1.708  12.957  1.00  0.00     0.055 C 
BRANCH  30  32
HETATM   32  C30 UNL     1      -5.759   2.105  11.119  1.00  0.00     0.171 C 
HETATM   33  O4  UNL     1      -5.440   0.930  11.091  1.00  0.00    -0.646 OA
BRANCH  32  34
HETATM   34  O5  UNL     1      -5.269   2.972  10.214  1.00  0.00    -0.773 OA
HETATM   35  H44 UNL     1      -4.685   2.413   9.663  1.00  0.00     0.167 HD
ENDBRANCH  32  34
ENDBRANCH  30  32
ENDBRANCH  28  29
ENDBRANCH  27  28
ENDBRANCH  25  27
ENDBRANCH   1  25
BRANCH   3  36
HETATM   36  O1  UNL     1      -4.425  10.421  14.901  1.00  0.00    -0.394 OA
HETATM   37  H17 UNL     1      -3.485  10.663  14.864  1.00  0.00     0.210 HD
ENDBRANCH   3  36
TORSDOF 7
ENDMDL
MODEL 4
REMARK minimizedAffinity -9.05030537
REMARK  7 active torsions:
REMARK  status: ('A' for Active; 'I' for Inactive)
REMARK    1  A    between atoms: C2_2  and  C30_33 
REMARK    2  A    between atoms: C3_3  and  C4_4 
REMARK    3  A    between atoms: C4_4  and  C5_5 
REMARK    4  A    between atoms: C5_5  and  C6_6 
REMARK    5  A    between atoms: C6_6  and  C8_8 
REMARK    6  A    between atoms: C10_10  and  O1_11 
REMARK    7  A    between atoms: C30_33  and  O5_35 
ROOT
HETATM    1  C8  UNL     1      -0.965   7.564  13.666  1.00  0.00     0.001 C 
HETATM    2  C9  UNL     1      -0.842   7.466  15.208  1.00  0.00     0.038 C 
HETATM    3  C10 UNL     1       0.656   7.662  15.549  1.00  0.00     0.131 C 
HETATM    4  C11 UNL     1       1.282   8.243  14.249  1.00  0.00     0.014 C 
HETATM    5  C12 UNL     1       1.015   9.785  14.226  1.00  0.00     0.023 C 
HETATM    6  C13 UNL     1       2.782   8.119  13.974  1.00  0.00    -0.058 C 
HETATM    7  C14 UNL     1       3.266   8.170  12.702  1.00  0.00    -0.000 C 
HETATM    8  C15 UNL     1       2.286   8.082  11.533  1.00  0.00     0.157 C 
HETATM    9  O2  UNL     1       2.694   8.053  10.372  1.00  0.00    -0.293 OA
HETATM   10  C16 UNL     1       0.786   8.005  11.797  1.00  0.00     0.094 C 
HETATM   11  C17 UNL     1       0.503   7.407  13.174  1.00  0.00    -0.019 C 
HETATM   12  C18 UNL     1       0.913   5.901  13.140  1.00  0.00     0.017 C 
HETATM   13  C19 UNL     1       4.784   8.271  12.374  1.00  0.00    -0.008 C 
HETATM   14  C20 UNL     1       5.201   6.868  11.874  1.00  0.00     0.021 C 
HETATM   15  C21 UNL     1       5.094   9.317  11.248  1.00  0.00     0.022 C 
HETATM   16  C22 UNL     1       6.052  10.438  11.631  1.00  0.00     0.080 C 
HETATM   17  C23 UNL     1       7.291   9.904  12.305  1.00  0.00     0.135 C 
HETATM   18  O3  UNL     1       8.415  10.263  11.932  1.00  0.00    -0.297 OA
HETATM   19  C24 UNL     1       7.078   8.995  13.527  1.00  0.00     0.018 C 
HETATM   20  C25 UNL     1       7.963   7.746  13.372  1.00  0.00     0.023 C 
HETATM   21  C26 UNL     1       7.579   9.794  14.758  1.00  0.00     0.023 C 
HETATM   22  C27 UNL     1       5.546   8.719  13.677  1.00  0.00     0.014 C 
HETATM   23  C28 UNL     1       5.165   7.825  14.864  1.00  0.00     0.011 C 
HETATM   24  C29 UNL     1       3.684   8.018  15.186  1.00  0.00     0.036 C 
ENDROOT
BRANCH   1  25
HETATM   25  C6  UNL     1      -2.078   6.705  12.997  1.00  0.00    -0.013 C 
HETATM   26  C7  UNL     1      -2.926   6.042  14.102  1.00  0.00     0.010 C 
BRANCH  25  27
HETATM   27  C5  UNL     1      -1.580   5.611  12.025  1.00  0.00     0.008 C 
BRANCH  27  28
HETATM   28  C4  UNL     1      -2.173   4.225  12.318  1.00  0.00     0.028 C 
BRANCH  28  29
HETATM   29  C3  UNL     1      -1.390   3.144  11.621  1.00  0.00    -0.013 C 
HETATM   30  C2  UNL     1      -1.815   1.905  11.297  1.00  0.00     0.008 C 
HETATM   31  C1  UNL     1      -3.171   1.339  11.593  1.00  0.00     0.055 C 
BRANCH  30  32
HETATM   32  C30 UNL     1      -0.923   0.958  10.576  1.00  0.00     0.171 C 
HETATM   33  O4  UNL     1      -0.175   0.156  11.105  1.00  0.00    -0.646 OA
BRANCH  32  34
HETATM   34  O5  UNL     1      -1.012   1.034   9.235  1.00  0.00    -0.773 OA
HETATM   35  H44 UNL     1      -0.377   0.355   8.930  1.00  0.00     0.167 HD
ENDBRANCH  32  34
ENDBRANCH  30  32
ENDBRANCH  28  29
ENDBRANCH  27  28
ENDBRANCH  25  27
ENDBRANCH   1  25
BRANCH   3  36
HETATM   36  O1  UNL     1       0.765   8.497  16.692  1.00  0.00    -0.394 OA
HETATM   37  H17 UNL     1       1.704   8.580  16.925  1.00  0.00     0.210 HD
ENDBRANCH   3  36
TORSDOF 7
ENDMDL
MODEL 5
REMARK minimizedAffinity -9.0480175
REMARK  7 active torsions:
REMARK  status: ('A' for Active; 'I' for Inactive)
REMARK    1  A    between atoms: C2_2  and  C30_33 
REMARK    2  A    between atoms: C3_3  and  C4_4 
REMARK    3  A    between atoms: C4_4  and  C5_5 
REMARK    4  A    between atoms: C5_5  and  C6_6 
REMARK    5  A    between atoms: C6_6  and  C8_8 
REMARK    6  A    between atoms: C10_10  and  O1_11 
REMARK    7  A    between atoms: C30_33  and  O5_35 
ROOT
HETATM    1  C8  UNL     1       3.312   7.707  11.360  1.00  0.00     0.001 C 
HETATM    2  C9  UNL     1       3.370   6.210  10.961  1.00  0.00     0.038 C 
HETATM    3  C10 UNL     1       2.019   5.583  11.387  1.00  0.00     0.131 C 
HETATM    4  C11 UNL     1       1.090   6.800  11.662  1.00  0.00     0.014 C 
HETATM    5  C12 UNL     1       0.510   7.289  10.293  1.00  0.00     0.023 C 
HETATM    6  C13 UNL     1      -0.139   6.664  12.561  1.00  0.00    -0.058 C 
HETATM    7  C14 UNL     1      -0.669   7.751  13.190  1.00  0.00    -0.000 C 
HETATM    8  C15 UNL     1       0.126   9.056  13.208  1.00  0.00     0.157 C 
HETATM    9  O2  UNL     1      -0.290  10.035  13.828  1.00  0.00    -0.293 OA
HETATM   10  C16 UNL     1       1.459   9.149  12.475  1.00  0.00     0.094 C 
HETATM   11  C17 UNL     1       2.111   7.773  12.348  1.00  0.00    -0.019 C 
HETATM   12  C18 UNL     1       2.547   7.312  13.774  1.00  0.00     0.017 C 
HETATM   13  C19 UNL     1      -2.036   7.718  13.935  1.00  0.00    -0.008 C 
HETATM   14  C20 UNL     1      -1.693   7.718  15.443  1.00  0.00     0.021 C 
HETATM   15  C21 UNL     1      -2.926   8.970  13.623  1.00  0.00     0.022 C 
HETATM   16  C22 UNL     1      -4.298   8.676  13.030  1.00  0.00     0.080 C 
HETATM   17  C23 UNL     1      -5.023   7.608  13.810  1.00  0.00     0.135 C 
HETATM   18  O3  UNL     1      -6.193   7.780  14.177  1.00  0.00    -0.297 OA
HETATM   19  C24 UNL     1      -4.279   6.279  14.022  1.00  0.00     0.018 C 
HETATM   20  C25 UNL     1      -4.390   5.884  15.506  1.00  0.00     0.023 C 
HETATM   21  C26 UNL     1      -5.034   5.218  13.181  1.00  0.00     0.023 C 
HETATM   22  C27 UNL     1      -2.823   6.435  13.476  1.00  0.00     0.014 C 
HETATM   23  C28 UNL     1      -1.947   5.183  13.609  1.00  0.00     0.011 C 
HETATM   24  C29 UNL     1      -0.766   5.289  12.645  1.00  0.00     0.036 C 
ENDROOT
BRANCH   1  25
HETATM   25  C6  UNL     1       4.658   8.374  11.767  1.00  0.00    -0.013 C 
HETATM   26  C7  UNL     1       5.245   9.100  10.539  1.00  0.00     0.010 C 
BRANCH  25  27
HETATM   27  C5  UNL     1       5.729   7.417  12.341  1.00  0.00     0.008 C 
BRANCH  27  28
HETATM   28  C4  UNL     1       7.065   8.112  12.639  1.00  0.00     0.028 C 
BRANCH  28  29
HETATM   29  C3  UNL     1       7.306   8.207  14.121  1.00  0.00    -0.013 C 
HETATM   30  C2  UNL     1       8.493   8.158  14.763  1.00  0.00     0.008 C 
HETATM   31  C1  UNL     1       9.832   7.973  14.115  1.00  0.00     0.055 C 
BRANCH  30  32
HETATM   32  C30 UNL     1       8.565   8.299  16.242  1.00  0.00     0.171 C 
HETATM   33  O4  UNL     1       7.607   8.412  16.985  1.00  0.00    -0.646 OA
BRANCH  32  34
HETATM   34  O5  UNL     1       9.818   8.275  16.734  1.00  0.00    -0.773 OA
HETATM   35  H44 UNL     1       9.681   8.372  17.698  1.00  0.00     0.167 HD
ENDBRANCH  32  34
ENDBRANCH  30  32
ENDBRANCH  28  29
ENDBRANCH  27  28
ENDBRANCH  25  27
ENDBRANCH   1  25
BRANCH   3  36
HETATM   36  O1  UNL     1       1.572   4.707  10.362  1.00  0.00    -0.394 OA
HETATM   37  H17 UNL     1       0.748   4.286  10.655  1.00  0.00     0.210 HD
ENDBRANCH   3  36
TORSDOF 7
ENDMDL
MODEL 6
REMARK minimizedAffinity -9.04422855
REMARK  7 active torsions:
REMARK  status: ('A' for Active; 'I' for Inactive)
REMARK    1  A    between atoms: C2_2  and  C30_33 
REMARK    2  A    between atoms: C3_3  and  C4_4 
REMARK    3  A    between atoms: C4_4  and  C5_5 
REMARK    4  A    between atoms: C5_5  and  C6_6 
REMARK    5  A    between atoms: C6_6  and  C8_8 
REMARK    6  A    between atoms: C10_10  and  O1_11 
REMARK    7  A    between atoms: C30_33  and  O5_35 
ROOT
HETATM    1  C8  UNL     1      -1.786   6.931  13.359  1.00  0.00     0.001 C 
HETATM    2  C9  UNL     1      -1.938   6.009  12.122  1.00  0.00     0.038 C 
HETATM    3  C10 UNL     1      -0.534   5.895  11.477  1.00  0.00     0.131 C 
HETATM    4  C11 UNL     1       0.442   6.431  12.562  1.00  0.00     0.014 C 
HETATM    5  C12 UNL     1       0.736   5.269  13.570  1.00  0.00     0.023 C 
HETATM    6  C13 UNL     1       1.828   6.956  12.184  1.00  0.00    -0.058 C 
HETATM    7  C14 UNL     1       2.485   7.838  12.989  1.00  0.00    -0.000 C 
HETATM    8  C15 UNL     1       1.723   8.506  14.132  1.00  0.00     0.157 C 
HETATM    9  O2  UNL     1       2.265   9.360  14.833  1.00  0.00    -0.293 OA
HETATM   10  C16 UNL     1       0.269   8.134  14.401  1.00  0.00     0.094 C 
HETATM   11  C17 UNL     1      -0.408   7.619  13.132  1.00  0.00    -0.019 C 
HETATM   12  C18 UNL     1      -0.548   8.815  12.140  1.00  0.00     0.017 C 
HETATM   13  C19 UNL     1       3.974   8.236  12.773  1.00  0.00    -0.008 C 
HETATM   14  C20 UNL     1       3.946   9.665  12.182  1.00  0.00     0.021 C 
HETATM   15  C21 UNL     1       4.794   8.262  14.109  1.00  0.00     0.022 C 
HETATM   16  C22 UNL     1       6.013   7.350  14.156  1.00  0.00     0.080 C 
HETATM   17  C23 UNL     1       6.873   7.508  12.926  1.00  0.00     0.135 C 
HETATM   18  O3  UNL     1       8.094   7.680  13.029  1.00  0.00    -0.297 OA
HETATM   19  C24 UNL     1       6.175   7.334  11.567  1.00  0.00     0.018 C 
HETATM   20  C25 UNL     1       6.583   8.503  10.652  1.00  0.00     0.023 C 
HETATM   21  C26 UNL     1       6.732   6.023  10.955  1.00  0.00     0.023 C 
HETATM   22  C27 UNL     1       4.639   7.179  11.815  1.00  0.00     0.014 C 
HETATM   23  C28 UNL     1       3.797   6.989  10.547  1.00  0.00     0.011 C 
HETATM   24  C29 UNL     1       2.445   6.385  10.925  1.00  0.00     0.036 C 
ENDROOT
BRANCH   1  25
HETATM   25  C6  UNL     1      -3.015   7.813  13.729  1.00  0.00    -0.013 C 
HETATM   26  C7  UNL     1      -3.126   7.891  15.265  1.00  0.00     0.010 C 
BRANCH  25  27
HETATM   27  C5  UNL     1      -4.370   7.341  13.153  1.00  0.00     0.008 C 
BRANCH  27  28
HETATM   28  C4  UNL     1      -5.316   6.772  14.219  1.00  0.00     0.028 C 
BRANCH  28  29
HETATM   29  C3  UNL     1      -6.599   6.287  13.599  1.00  0.00    -0.013 C 
HETATM   30  C2  UNL     1      -6.848   5.066  13.081  1.00  0.00     0.008 C 
HETATM   31  C1  UNL     1      -5.869   3.934  12.996  1.00  0.00     0.055 C 
BRANCH  30  32
HETATM   32  C30 UNL     1      -8.189   4.730  12.531  1.00  0.00     0.171 C 
HETATM   33  O4  UNL     1      -8.829   5.429  11.766  1.00  0.00    -0.646 OA
BRANCH  32  34
HETATM   34  O5  UNL     1      -8.666   3.539  12.937  1.00  0.00    -0.773 OA
HETATM   35  H44 UNL     1      -9.532   3.481  12.486  1.00  0.00     0.167 HD
ENDBRANCH  32  34
ENDBRANCH  30  32
ENDBRANCH  28  29
ENDBRANCH  27  28
ENDBRANCH  25  27
ENDBRANCH   1  25
BRANCH   3  36
HETATM   36  O1  UNL     1      -0.315   4.548  11.084  1.00  0.00    -0.394 OA
HETATM   37  H17 UNL     1       0.548   4.493  10.642  1.00  0.00     0.210 HD
ENDBRANCH   3  36
TORSDOF 7
ENDMDL
MODEL 7
REMARK minimizedAffinity -8.90224361
REMARK  7 active torsions:
REMARK  status: ('A' for Active; 'I' for Inactive)
REMARK    1  A    between atoms: C2_2  and  C30_33 
REMARK    2  A    between atoms: C3_3  and  C4_4 
REMARK    3  A    between atoms: C4_4  and  C5_5 
REMARK    4  A    between atoms: C5_5  and  C6_6 
REMARK    5  A    between atoms: C6_6  and  C8_8 
REMARK    6  A    between atoms: C10_10  and  O1_11 
REMARK    7  A    between atoms: C30_33  and  O5_35 
ROOT
HETATM    1  C8  UNL     1      -1.239   7.625  13.708  1.00  0.00     0.001 C 
HETATM    2  C9  UNL     1      -1.078   7.471  15.242  1.00  0.00     0.038 C 
HETATM    3  C10 UNL     1       0.433   7.622  15.548  1.00  0.00     0.131 C 
HETATM    4  C11 UNL     1       1.038   8.233  14.252  1.00  0.00     0.014 C 
HETATM    5  C12 UNL     1       0.806   9.781  14.288  1.00  0.00     0.023 C 
HETATM    6  C13 UNL     1       2.527   8.086  13.934  1.00  0.00    -0.058 C 
HETATM    7  C14 UNL     1       2.979   8.170  12.651  1.00  0.00    -0.000 C 
HETATM    8  C15 UNL     1       1.966   8.144  11.506  1.00  0.00     0.157 C 
HETATM    9  O2  UNL     1       2.344   8.145  10.335  1.00  0.00    -0.293 OA
HETATM   10  C16 UNL     1       0.473   8.091  11.808  1.00  0.00     0.094 C 
HETATM   11  C17 UNL     1       0.212   7.453  13.172  1.00  0.00    -0.019 C 
HETATM   12  C18 UNL     1       0.586   5.940  13.076  1.00  0.00     0.017 C 
HETATM   13  C19 UNL     1       4.490   8.249  12.287  1.00  0.00    -0.008 C 
HETATM   14  C20 UNL     1       4.861   6.855  11.729  1.00  0.00     0.021 C 
HETATM   15  C21 UNL     1       4.794   9.326  11.189  1.00  0.00     0.022 C 
HETATM   16  C22 UNL     1       5.787  10.411  11.582  1.00  0.00     0.080 C 
HETATM   17  C23 UNL     1       7.031   9.828  12.205  1.00  0.00     0.135 C 
HETATM   18  O3  UNL     1       8.152  10.174  11.815  1.00  0.00    -0.297 OA
HETATM   19  C24 UNL     1       6.828   8.883  13.401  1.00  0.00     0.018 C 
HETATM   20  C25 UNL     1       7.681   7.620  13.181  1.00  0.00     0.023 C 
HETATM   21  C26 UNL     1       7.379   9.628  14.644  1.00  0.00     0.023 C 
HETATM   22  C27 UNL     1       5.296   8.635  13.583  1.00  0.00     0.014 C 
HETATM   23  C28 UNL     1       4.925   7.710  14.749  1.00  0.00     0.011 C 
HETATM   24  C29 UNL     1       3.457   7.925  15.116  1.00  0.00     0.036 C 
ENDROOT
BRANCH   1  25
HETATM   25  C6  UNL     1      -2.388   6.814  13.040  1.00  0.00    -0.013 C 
HETATM   26  C7  UNL     1      -3.635   7.715  12.933  1.00  0.00     0.010 C 
BRANCH  25  27
HETATM   27  C5  UNL     1      -2.781   5.502  13.759  1.00  0.00     0.008 C 
BRANCH  27  28
HETATM   28  C4  UNL     1      -3.394   4.456  12.817  1.00  0.00     0.028 C 
BRANCH  28  29
HETATM   29  C3  UNL     1      -4.888   4.387  12.986  1.00  0.00    -0.013 C 
HETATM   30  C2  UNL     1      -5.733   3.489  12.438  1.00  0.00     0.008 C 
HETATM   31  C1  UNL     1      -5.348   2.374  11.514  1.00  0.00     0.055 C 
BRANCH  30  32
HETATM   32  C30 UNL     1      -7.191   3.537  12.731  1.00  0.00     0.171 C 
HETATM   33  O4  UNL     1      -7.891   2.572  12.978  1.00  0.00    -0.646 OA
BRANCH  32  34
HETATM   34  O5  UNL     1      -7.711   4.779  12.724  1.00  0.00    -0.773 OA
HETATM   35  H44 UNL     1      -8.654   4.627  12.936  1.00  0.00     0.167 HD
ENDBRANCH  32  34
ENDBRANCH  30  32
ENDBRANCH  28  29
ENDBRANCH  27  28
ENDBRANCH  25  27
ENDBRANCH   1  25
BRANCH   3  36
HETATM   36  O1  UNL     1       0.591   8.416  16.715  1.00  0.00    -0.394 OA
HETATM   37  H17 UNL     1       1.537   8.470  16.926  1.00  0.00     0.210 HD
ENDBRANCH   3  36
TORSDOF 7
ENDMDL
MODEL 8
REMARK minimizedAffinity -8.75300694
REMARK  7 active torsions:
REMARK  status: ('A' for Active; 'I' for Inactive)
REMARK    1  A    between atoms: C2_2  and  C30_33 
REMARK    2  A    between atoms: C3_3  and  C4_4 
REMARK    3  A    between atoms: C4_4  and  C5_5 
REMARK    4  A    between atoms: C5_5  and  C6_6 
REMARK    5  A    between atoms: C6_6  and  C8_8 
REMARK    6  A    between atoms: C10_10  and  O1_11 
REMARK    7  A    between atoms: C30_33  and  O5_35 
ROOT
HETATM    1  C8  UNL     1       2.264   7.576  12.199  1.00  0.00     0.001 C 
HETATM    2  C9  UNL     1       2.390   6.076  11.832  1.00  0.00     0.038 C 
HETATM    3  C10 UNL     1       1.025   5.421  12.161  1.00  0.00     0.131 C 
HETATM    4  C11 UNL     1       0.047   6.617  12.341  1.00  0.00     0.014 C 
HETATM    5  C12 UNL     1      -0.434   7.071  10.923  1.00  0.00     0.023 C 
HETATM    6  C13 UNL     1      -1.245   6.464  13.144  1.00  0.00    -0.058 C 
HETATM    7  C14 UNL     1      -1.849   7.546  13.710  1.00  0.00    -0.000 C 
HETATM    8  C15 UNL     1      -1.090   8.871  13.768  1.00  0.00     0.157 C 
HETATM    9  O2  UNL     1      -1.578   9.849  14.336  1.00  0.00    -0.293 OA
HETATM   10  C16 UNL     1       0.294   8.987  13.140  1.00  0.00     0.094 C 
HETATM   11  C17 UNL     1       0.988   7.626  13.088  1.00  0.00    -0.019 C 
HETATM   12  C18 UNL     1       1.320   7.199  14.552  1.00  0.00     0.017 C 
HETATM   13  C19 UNL     1      -3.269   7.490  14.346  1.00  0.00    -0.008 C 
HETATM   14  C20 UNL     1      -3.047   7.521  15.876  1.00  0.00     0.021 C 
HETATM   15  C21 UNL     1      -4.162   8.714  13.943  1.00  0.00     0.022 C 
HETATM   16  C22 UNL     1      -5.476   8.376  13.250  1.00  0.00     0.080 C 
HETATM   17  C23 UNL     1      -6.234   7.301  13.988  1.00  0.00     0.135 C 
HETATM   18  O3  UNL     1      -7.433   7.450  14.259  1.00  0.00    -0.297 OA
HETATM   19  C24 UNL     1      -5.477   5.996  14.281  1.00  0.00     0.018 C 
HETATM   20  C25 UNL     1      -5.695   5.620  15.758  1.00  0.00     0.023 C 
HETATM   21  C26 UNL     1      -6.137   4.903  13.401  1.00  0.00     0.023 C 
HETATM   22  C27 UNL     1      -3.986   6.180  13.848  1.00  0.00     0.014 C 
HETATM   23  C28 UNL     1      -3.093   4.953  14.071  1.00  0.00     0.011 C 
HETATM   24  C29 UNL     1      -1.843   5.074  13.201  1.00  0.00     0.036 C 
ENDROOT
BRANCH   1  25
HETATM   25  C6  UNL     1       3.557   8.284  12.700  1.00  0.00    -0.013 C 
HETATM   26  C7  UNL     1       3.353   9.810  12.615  1.00  0.00     0.010 C 
BRANCH  25  27
HETATM   27  C5  UNL     1       4.854   7.910  11.946  1.00  0.00     0.008 C 
BRANCH  27  28
HETATM   28  C4  UNL     1       4.819   8.284  10.457  1.00  0.00     0.028 C 
BRANCH  28  29
HETATM   29  C3  UNL     1       4.055   7.261   9.661  1.00  0.00    -0.013 C 
HETATM   30  C2  UNL     1       3.257   7.483   8.595  1.00  0.00     0.008 C 
HETATM   31  C1  UNL     1       2.949   8.821   7.994  1.00  0.00     0.055 C 
BRANCH  30  32
HETATM   32  C30 UNL     1       2.592   6.352   7.893  1.00  0.00     0.171 C 
HETATM   33  O4  UNL     1       2.078   6.414   6.791  1.00  0.00    -0.646 OA
BRANCH  32  34
HETATM   34  O5  UNL     1       2.612   5.194   8.577  1.00  0.00    -0.773 OA
HETATM   35  H44 UNL     1       2.147   4.573   7.980  1.00  0.00     0.167 HD
ENDBRANCH  32  34
ENDBRANCH  30  32
ENDBRANCH  28  29
ENDBRANCH  27  28
ENDBRANCH  25  27
ENDBRANCH   1  25
BRANCH   3  36
HETATM   36  O1  UNL     1       0.682   4.518  11.120  1.00  0.00    -0.394 OA
HETATM   37  H17 UNL     1      -0.152   4.080  11.354  1.00  0.00     0.210 HD
ENDBRANCH   3  36
TORSDOF 7
ENDMDL
MODEL 9
REMARK minimizedAffinity -8.73174667
REMARK  7 active torsions:
REMARK  status: ('A' for Active; 'I' for Inactive)
REMARK    1  A    between atoms: C2_2  and  C30_33 
REMARK    2  A    between atoms: C3_3  and  C4_4 
REMARK    3  A    between atoms: C4_4  and  C5_5 
REMARK    4  A    between atoms: C5_5  and  C6_6 
REMARK    5  A    between atoms: C6_6  and  C8_8 
REMARK    6  A    between atoms: C10_10  and  O1_11 
REMARK    7  A    between atoms: C30_33  and  O5_35 
ROOT
HETATM    1  C8  UNL     1      -5.929   6.508  14.912  1.00  0.00     0.001 C 
HETATM    2  C9  UNL     1      -6.241   5.308  13.982  1.00  0.00     0.038 C 
HETATM    3  C10 UNL     1      -4.978   5.076  13.115  1.00  0.00     0.131 C 
HETATM    4  C11 UNL     1      -3.858   5.886  13.828  1.00  0.00     0.014 C 
HETATM    5  C12 UNL     1      -3.297   5.014  15.001  1.00  0.00     0.023 C 
HETATM    6  C13 UNL     1      -2.610   6.339  13.069  1.00  0.00    -0.058 C 
HETATM    7  C14 UNL     1      -1.881   7.407  13.497  1.00  0.00    -0.000 C 
HETATM    8  C15 UNL     1      -2.463   8.315  14.580  1.00  0.00     0.157 C 
HETATM    9  O2  UNL     1      -1.864   9.329  14.938  1.00  0.00    -0.293 OA
HETATM   10  C16 UNL     1      -3.810   7.983  15.213  1.00  0.00     0.094 C 
HETATM   11  C17 UNL     1      -4.673   7.154  14.261  1.00  0.00    -0.019 C 
HETATM   12  C18 UNL     1      -5.083   8.068  13.064  1.00  0.00     0.017 C 
HETATM   13  C19 UNL     1      -0.491   7.780  12.902  1.00  0.00    -0.008 C 
HETATM   14  C20 UNL     1      -0.734   9.020  12.010  1.00  0.00     0.021 C 
HETATM   15  C21 UNL     1       0.559   8.153  14.004  1.00  0.00     0.022 C 
HETATM   16  C22 UNL     1       1.829   7.313  14.020  1.00  0.00     0.080 C 
HETATM   17  C23 UNL     1       2.430   7.187  12.642  1.00  0.00     0.135 C 
HETATM   18  O3  UNL     1       3.633   7.412  12.457  1.00  0.00    -0.297 OA
HETATM   19  C24 UNL     1       1.506   6.668  11.529  1.00  0.00     0.018 C 
HETATM   20  C25 UNL     1       1.648   7.587  10.302  1.00  0.00     0.023 C 
HETATM   21  C26 UNL     1       2.034   5.262  11.143  1.00  0.00     0.023 C 
HETATM   22  C27 UNL     1       0.059   6.539  12.106  1.00  0.00     0.014 C 
HETATM   23  C28 UNL     1      -0.989   6.022  11.112  1.00  0.00     0.011 C 
HETATM   24  C29 UNL     1      -2.198   5.494  11.883  1.00  0.00     0.036 C 
ENDROOT
BRANCH   1  25
HETATM   25  C6  UNL     1      -7.129   7.421  15.302  1.00  0.00    -0.013 C 
HETATM   26  C7  UNL     1      -7.518   7.133  16.766  1.00  0.00     0.010 C 
BRANCH  25  27
HETATM   27  C5  UNL     1      -8.387   7.282  14.413  1.00  0.00     0.008 C 
BRANCH  27  28
HETATM   28  C4  UNL     1      -9.700   7.395  15.201  1.00  0.00     0.028 C 
BRANCH  28  29
HETATM   29  C3  UNL     1     -10.680   8.289  14.490  1.00  0.00    -0.013 C 
HETATM   30  C2  UNL     1     -11.246   8.086  13.282  1.00  0.00     0.008 C 
HETATM   31  C1  UNL     1     -10.986   6.919  12.378  1.00  0.00     0.055 C 
BRANCH  30  32
HETATM   32  C30 UNL     1     -12.228   9.056  12.728  1.00  0.00     0.171 C 
HETATM   33  O4  UNL     1     -13.311   9.318  13.220  1.00  0.00    -0.646 OA
BRANCH  32  34
HETATM   34  O5  UNL     1     -11.818   9.670  11.603  1.00  0.00    -0.773 OA
HETATM   35  H44 UNL     1     -12.567  10.262  11.386  1.00  0.00     0.167 HD
ENDBRANCH  32  34
ENDBRANCH  30  32
ENDBRANCH  28  29
ENDBRANCH  27  28
ENDBRANCH  25  27
ENDBRANCH   1  25
BRANCH   3  36
HETATM   36  O1  UNL     1      -4.737   3.680  13.014  1.00  0.00    -0.394 OA
HETATM   37  H17 UNL     1      -3.971   3.541  12.435  1.00  0.00     0.210 HD
ENDBRANCH   3  36
TORSDOF 7
ENDMDL
