MODEL 1
REMARK minimizedAffinity -8.97662926
REMARK  4 active torsions:
REMARK  status: ('A' for Active; 'I' for Inactive)
REMARK    1  A    between atoms: C4_4  and  C5_5 
REMARK    2  A    between atoms: C5_5  and  C6_6 
REMARK    3  A    between atoms: C6_6  and  C7_7 
REMARK    4  A    between atoms: C7_7  and  C9_9 
ROOT
HETATM    1  C9  UNL     1      -1.386  49.364 -19.362  1.00  0.00    -0.002 C 
HETATM    2  C10 UNL     1      -2.668  48.504 -19.222  1.00  0.00     0.010 C 
HETATM    3  C11 UNL     1      -3.643  48.966 -20.336  1.00  0.00    -0.013 C 
HETATM    4  C12 UNL     1      -4.107  47.753 -21.140  1.00  0.00     0.010 C 
HETATM    5  C13 UNL     1      -2.836  50.006 -21.131  1.00  0.00     0.003 C 
HETATM    6  C14 UNL     1      -3.543  51.080 -21.992  1.00  0.00    -0.000 C 
HETATM    7  C15 UNL     1      -4.600  50.573 -22.965  1.00  0.00     0.006 C 
HETATM    8  C16 UNL     1      -4.075  49.829 -24.187  1.00  0.00     0.006 C 
HETATM    9  C17 UNL     1      -2.605  50.066 -24.596  1.00  0.00     0.003 C 
HETATM   10  C18 UNL     1      -2.351  49.859 -26.133  1.00  0.00    -0.043 C 
HETATM   11  C19 UNL     1      -3.118  50.877 -27.004  1.00  0.00     0.015 C 
HETATM   12  C20 UNL     1      -2.790  48.442 -26.565  1.00  0.00     0.015 C 
HETATM   13  C21 UNL     1      -0.832  49.979 -26.420  1.00  0.00     0.009 C 
HETATM   14  C22 UNL     1      -0.235  51.285 -25.912  1.00  0.00     0.002 C 
HETATM   15  C23 UNL     1      -0.484  51.462 -24.421  1.00  0.00     0.011 C 
HETATM   16  C24 UNL     1      -1.964  51.364 -24.077  1.00  0.00    -0.027 A 
HETATM   17  C25 UNL     1      -2.751  52.655 -23.984  1.00  0.00     0.021 A 
HETATM   18  C26 UNL     1      -2.445  51.884 -22.712  1.00  0.00    -0.028 A 
HETATM   19  C27 UNL     1      -1.471  52.530 -21.731  1.00  0.00     0.011 C 
HETATM   20  C28 UNL     1      -0.839  51.492 -20.790  1.00  0.00     0.011 C 
HETATM   21  C29 UNL     1      -1.905  50.660 -20.045  1.00  0.00    -0.036 C 
HETATM   22  C30 UNL     1      -2.661  51.571 -19.050  1.00  0.00     0.016 C 
ENDROOT
BRANCH   1  23
HETATM   23  C7  UNL     1      -0.503  49.355 -18.080  1.00  0.00    -0.014 C 
HETATM   24  C8  UNL     1      -1.131  48.758 -16.817  1.00  0.00     0.010 C 
BRANCH  23  25
HETATM   25  C6  UNL     1       0.091  50.754 -17.788  1.00  0.00     0.008 C 
BRANCH  25  26
HETATM   26  C5  UNL     1       0.837  50.885 -16.449  1.00  0.00     0.028 C 
BRANCH  26  27
HETATM   27  C4  UNL     1       1.983  51.858 -16.513  1.00  0.00    -0.025 C 
HETATM   28  C2  UNL     1       3.029  51.968 -15.671  1.00  0.00    -0.091 C 
HETATM   29  C1  UNL     1       3.252  51.136 -14.439  1.00  0.00     0.042 C 
HETATM   30  C3  UNL     1       4.103  52.995 -15.919  1.00  0.00     0.042 C 
ENDBRANCH  26  27
ENDBRANCH  25  26
ENDBRANCH  23  25
ENDBRANCH   1  23
TORSDOF 4
ENDMDL
MODEL 2
REMARK minimizedAffinity -8.94827271
REMARK  4 active torsions:
REMARK  status: ('A' for Active; 'I' for Inactive)
REMARK    1  A    between atoms: C4_4  and  C5_5 
REMARK    2  A    between atoms: C5_5  and  C6_6 
REMARK    3  A    between atoms: C6_6  and  C7_7 
REMARK    4  A    between atoms: C7_7  and  C9_9 
ROOT
HETATM    1  C9  UNL     1      -0.927  51.138 -23.911  1.00  0.00    -0.002 C 
HETATM    2  C10 UNL     1      -0.105  51.848 -22.805  1.00  0.00     0.010 C 
HETATM    3  C11 UNL     1      -0.992  51.873 -21.532  1.00  0.00    -0.013 C 
HETATM    4  C12 UNL     1      -0.211  51.287 -20.358  1.00  0.00     0.010 C 
HETATM    5  C13 UNL     1      -2.249  51.086 -21.938  1.00  0.00     0.003 C 
HETATM    6  C14 UNL     1      -3.590  51.279 -21.190  1.00  0.00    -0.000 C 
HETATM    7  C15 UNL     1      -3.534  51.177 -19.672  1.00  0.00     0.006 C 
HETATM    8  C16 UNL     1      -3.333  49.776 -19.107  1.00  0.00     0.006 C 
HETATM    9  C17 UNL     1      -3.688  48.578 -20.013  1.00  0.00     0.003 C 
HETATM   10  C18 UNL     1      -4.110  47.297 -19.206  1.00  0.00    -0.043 C 
HETATM   11  C19 UNL     1      -5.405  47.507 -18.393  1.00  0.00     0.015 C 
HETATM   12  C20 UNL     1      -2.992  46.890 -18.221  1.00  0.00     0.015 C 
HETATM   13  C21 UNL     1      -4.308  46.116 -20.191  1.00  0.00     0.009 C 
HETATM   14  C22 UNL     1      -5.290  46.437 -21.310  1.00  0.00     0.002 C 
HETATM   15  C23 UNL     1      -4.860  47.675 -22.085  1.00  0.00     0.011 C 
HETATM   16  C24 UNL     1      -4.659  48.874 -21.169  1.00  0.00    -0.027 A 
HETATM   17  C25 UNL     1      -5.817  49.836 -21.006  1.00  0.00     0.021 A 
HETATM   18  C26 UNL     1      -4.596  50.280 -21.792  1.00  0.00    -0.028 A 
HETATM   19  C27 UNL     1      -4.778  50.482 -23.293  1.00  0.00     0.011 C 
HETATM   20  C28 UNL     1      -3.439  50.405 -24.044  1.00  0.00     0.011 C 
HETATM   21  C29 UNL     1      -2.396  51.391 -23.474  1.00  0.00    -0.036 C 
HETATM   22  C30 UNL     1      -2.846  52.840 -23.776  1.00  0.00     0.016 C 
ENDROOT
BRANCH   1  23
HETATM   23  C7  UNL     1      -0.390  51.421 -25.345  1.00  0.00    -0.014 C 
HETATM   24  C8  UNL     1      -0.338  52.888 -25.782  1.00  0.00     0.010 C 
BRANCH  23  25
HETATM   25  C6  UNL     1      -1.114  50.558 -26.404  1.00  0.00     0.008 C 
BRANCH  25  26
HETATM   26  C5  UNL     1      -2.124  51.311 -27.287  1.00  0.00     0.028 C 
BRANCH  26  27
HETATM   27  C4  UNL     1      -3.174  50.407 -27.875  1.00  0.00    -0.025 C 
HETATM   28  C2  UNL     1      -3.512  49.162 -27.486  1.00  0.00    -0.091 C 
HETATM   29  C1  UNL     1      -2.865  48.387 -26.373  1.00  0.00     0.042 C 
HETATM   30  C3  UNL     1      -4.621  48.419 -28.186  1.00  0.00     0.042 C 
ENDBRANCH  26  27
ENDBRANCH  25  26
ENDBRANCH  23  25
ENDBRANCH   1  23
TORSDOF 4
ENDMDL
MODEL 3
REMARK minimizedAffinity -8.83809566
REMARK  4 active torsions:
REMARK  status: ('A' for Active; 'I' for Inactive)
REMARK    1  A    between atoms: C4_4  and  C5_5 
REMARK    2  A    between atoms: C5_5  and  C6_6 
REMARK    3  A    between atoms: C6_6  and  C7_7 
REMARK    4  A    between atoms: C7_7  and  C9_9 
ROOT
HETATM    1  C9  UNL     1      -1.007  52.078 -20.941  1.00  0.00    -0.002 C 
HETATM    2  C10 UNL     1      -0.718  52.334 -22.442  1.00  0.00     0.010 C 
HETATM    3  C11 UNL     1      -1.303  51.128 -23.224  1.00  0.00    -0.013 C 
HETATM    4  C12 UNL     1      -2.225  51.639 -24.330  1.00  0.00     0.010 C 
HETATM    5  C13 UNL     1      -1.990  50.279 -22.141  1.00  0.00     0.003 C 
HETATM    6  C14 UNL     1      -2.258  48.770 -22.359  1.00  0.00    -0.000 C 
HETATM    7  C15 UNL     1      -2.955  48.392 -23.659  1.00  0.00     0.006 C 
HETATM    8  C16 UNL     1      -4.435  48.746 -23.746  1.00  0.00     0.006 C 
HETATM    9  C17 UNL     1      -5.198  48.979 -22.424  1.00  0.00     0.003 C 
HETATM   10  C18 UNL     1      -6.733  48.656 -22.532  1.00  0.00    -0.043 C 
HETATM   11  C19 UNL     1      -7.007  47.166 -22.829  1.00  0.00     0.015 C 
HETATM   12  C20 UNL     1      -7.379  49.490 -23.660  1.00  0.00     0.015 C 
HETATM   13  C21 UNL     1      -7.432  49.053 -21.206  1.00  0.00     0.009 C 
HETATM   14  C22 UNL     1      -6.795  48.404 -19.984  1.00  0.00     0.002 C 
HETATM   15  C23 UNL     1      -5.311  48.735 -19.893  1.00  0.00     0.011 C 
HETATM   16  C24 UNL     1      -4.567  48.357 -21.166  1.00  0.00    -0.027 A 
HETATM   17  C25 UNL     1      -3.883  47.007 -21.206  1.00  0.00     0.021 A 
HETATM   18  C26 UNL     1      -3.033  48.263 -21.128  1.00  0.00    -0.028 A 
HETATM   19  C27 UNL     1      -2.264  48.496 -19.830  1.00  0.00     0.011 C 
HETATM   20  C28 UNL     1      -1.889  49.976 -19.649  1.00  0.00     0.011 C 
HETATM   21  C29 UNL     1      -1.110  50.530 -20.862  1.00  0.00    -0.036 C 
HETATM   22  C30 UNL     1       0.280  49.856 -20.926  1.00  0.00     0.016 C 
ENDROOT
BRANCH   1  23
HETATM   23  C7  UNL     1      -0.116  52.935 -19.995  1.00  0.00    -0.014 C 
HETATM   24  C8  UNL     1       1.170  53.510 -20.596  1.00  0.00     0.010 C 
BRANCH  23  25
HETATM   25  C6  UNL     1       0.180  52.197 -18.668  1.00  0.00     0.008 C 
BRANCH  25  26
HETATM   26  C5  UNL     1       1.432  52.677 -17.914  1.00  0.00     0.028 C 
BRANCH  26  27
HETATM   27  C4  UNL     1       1.564  52.059 -16.549  1.00  0.00    -0.025 C 
HETATM   28  C2  UNL     1       2.666  51.970 -15.778  1.00  0.00    -0.091 C 
HETATM   29  C1  UNL     1       4.037  52.456 -16.154  1.00  0.00     0.042 C 
HETATM   30  C3  UNL     1       2.593  51.336 -14.413  1.00  0.00     0.042 C 
ENDBRANCH  26  27
ENDBRANCH  25  26
ENDBRANCH  23  25
ENDBRANCH   1  23
TORSDOF 4
ENDMDL
MODEL 4
REMARK minimizedAffinity -8.72990322
REMARK  4 active torsions:
REMARK  status: ('A' for Active; 'I' for Inactive)
REMARK    1  A    between atoms: C4_4  and  C5_5 
REMARK    2  A    between atoms: C5_5  and  C6_6 
REMARK    3  A    between atoms: C6_6  and  C7_7 
REMARK    4  A    between atoms: C7_7  and  C9_9 
ROOT
HETATM    1  C9  UNL     1      -2.597  48.321 -22.528  1.00  0.00    -0.002 C 
HETATM    2  C10 UNL     1      -3.890  48.099 -23.353  1.00  0.00     0.010 C 
HETATM    3  C11 UNL     1      -4.087  49.363 -24.230  1.00  0.00    -0.013 C 
HETATM    4  C12 UNL     1      -4.263  48.948 -25.689  1.00  0.00     0.010 C 
HETATM    5  C13 UNL     1      -2.840  50.216 -23.940  1.00  0.00     0.003 C 
HETATM    6  C14 UNL     1      -2.842  51.744 -24.182  1.00  0.00    -0.000 C 
HETATM    7  C15 UNL     1      -3.328  52.208 -25.548  1.00  0.00     0.006 C 
HETATM    8  C16 UNL     1      -2.381  51.948 -26.714  1.00  0.00     0.006 C 
HETATM    9  C17 UNL     1      -0.889  51.718 -26.390  1.00  0.00     0.003 C 
HETATM   10  C18 UNL     1       0.069  52.136 -27.563  1.00  0.00    -0.043 C 
HETATM   11  C19 UNL     1       0.013  53.649 -27.865  1.00  0.00     0.015 C 
HETATM   12  C20 UNL     1      -0.305  51.381 -28.858  1.00  0.00     0.015 C 
HETATM   13  C21 UNL     1       1.524  51.738 -27.201  1.00  0.00     0.009 C 
HETATM   14  C22 UNL     1       1.977  52.305 -25.862  1.00  0.00     0.002 C 
HETATM   15  C23 UNL     1       1.041  51.882 -24.738  1.00  0.00     0.011 C 
HETATM   16  C24 UNL     1      -0.405  52.256 -25.033  1.00  0.00    -0.027 A 
HETATM   17  C25 UNL     1      -0.922  53.563 -24.468  1.00  0.00     0.021 A 
HETATM   18  C26 UNL     1      -1.421  52.256 -23.878  1.00  0.00    -0.028 A 
HETATM   19  C27 UNL     1      -0.988  51.933 -22.452  1.00  0.00     0.011 C 
HETATM   20  C28 UNL     1      -1.085  50.428 -22.154  1.00  0.00     0.011 C 
HETATM   21  C29 UNL     1      -2.495  49.869 -22.445  1.00  0.00    -0.036 C 
HETATM   22  C30 UNL     1      -3.498  50.459 -21.427  1.00  0.00     0.016 C 
ENDROOT
BRANCH   1  23
HETATM   23  C7  UNL     1      -2.494  47.380 -21.292  1.00  0.00    -0.014 C 
HETATM   24  C8  UNL     1      -3.770  47.187 -20.467  1.00  0.00     0.010 C 
BRANCH  23  25
HETATM   25  C6  UNL     1      -1.305  47.764 -20.381  1.00  0.00     0.008 C 
BRANCH  25  26
HETATM   26  C5  UNL     1      -1.688  48.310 -18.995  1.00  0.00     0.028 C 
BRANCH  26  27
HETATM   27  C4  UNL     1      -1.020  49.620 -18.678  1.00  0.00    -0.025 C 
HETATM   28  C2  UNL     1      -0.271  49.934 -17.602  1.00  0.00    -0.091 C 
HETATM   29  C1  UNL     1       0.030  49.019 -16.449  1.00  0.00     0.042 C 
HETATM   30  C3  UNL     1       0.345  51.303 -17.475  1.00  0.00     0.042 C 
ENDBRANCH  26  27
ENDBRANCH  25  26
ENDBRANCH  23  25
ENDBRANCH   1  23
TORSDOF 4
ENDMDL
MODEL 5
REMARK minimizedAffinity -8.57293224
REMARK  4 active torsions:
REMARK  status: ('A' for Active; 'I' for Inactive)
REMARK    1  A    between atoms: C4_4  and  C5_5 
REMARK    2  A    between atoms: C5_5  and  C6_6 
REMARK    3  A    between atoms: C6_6  and  C7_7 
REMARK    4  A    between atoms: C7_7  and  C9_9 
ROOT
HETATM    1  C9  UNL     1      -3.796  51.095 -23.401  1.00  0.00    -0.002 C 
HETATM    2  C10 UNL     1      -5.273  51.103 -23.871  1.00  0.00     0.010 C 
HETATM    3  C11 UNL     1      -5.890  49.748 -23.437  1.00  0.00    -0.013 C 
HETATM    4  C12 UNL     1      -7.172  50.004 -22.647  1.00  0.00     0.010 C 
HETATM    5  C13 UNL     1      -4.763  49.060 -22.648  1.00  0.00     0.003 C 
HETATM    6  C14 UNL     1      -4.737  47.523 -22.466  1.00  0.00    -0.000 C 
HETATM    7  C15 UNL     1      -6.022  46.885 -21.956  1.00  0.00     0.006 C 
HETATM    8  C16 UNL     1      -6.349  47.130 -20.488  1.00  0.00     0.006 C 
HETATM    9  C17 UNL     1      -5.192  47.543 -19.554  1.00  0.00     0.003 C 
HETATM   10  C18 UNL     1      -5.424  47.117 -18.058  1.00  0.00    -0.043 C 
HETATM   11  C19 UNL     1      -5.480  45.584 -17.880  1.00  0.00     0.015 C 
HETATM   12  C20 UNL     1      -6.752  47.703 -17.532  1.00  0.00     0.015 C 
HETATM   13  C21 UNL     1      -4.284  47.695 -17.180  1.00  0.00     0.009 C 
HETATM   14  C22 UNL     1      -2.898  47.307 -17.678  1.00  0.00     0.002 C 
HETATM   15  C23 UNL     1      -2.690  47.735 -19.124  1.00  0.00     0.011 C 
HETATM   16  C24 UNL     1      -3.777  47.187 -20.039  1.00  0.00    -0.027 A 
HETATM   17  C25 UNL     1      -3.491  45.894 -20.773  1.00  0.00     0.021 A 
HETATM   18  C26 UNL     1      -3.537  47.192 -21.559  1.00  0.00    -0.028 A 
HETATM   19  C27 UNL     1      -2.220  47.692 -22.144  1.00  0.00     0.011 C 
HETATM   20  C28 UNL     1      -2.263  49.200 -22.438  1.00  0.00     0.011 C 
HETATM   21  C29 UNL     1      -3.453  49.580 -23.346  1.00  0.00    -0.036 C 
HETATM   22  C30 UNL     1      -3.228  48.988 -24.757  1.00  0.00     0.016 C 
ENDROOT
BRANCH   1  23
HETATM   23  C7  UNL     1      -2.918  52.154 -24.131  1.00  0.00    -0.014 C 
HETATM   24  C8  UNL     1      -3.147  52.316 -25.636  1.00  0.00     0.010 C 
BRANCH  23  25
HETATM   25  C6  UNL     1      -1.415  51.959 -23.822  1.00  0.00     0.008 C 
BRANCH  25  26
HETATM   26  C5  UNL     1      -0.470  52.973 -24.488  1.00  0.00     0.028 C 
BRANCH  26  27
HETATM   27  C4  UNL     1       0.829  52.357 -24.931  1.00  0.00    -0.025 C 
HETATM   28  C2  UNL     1       1.113  51.771 -26.111  1.00  0.00    -0.091 C 
HETATM   29  C1  UNL     1       0.147  51.580 -27.246  1.00  0.00     0.042 C 
HETATM   30  C3  UNL     1       2.494  51.234 -26.383  1.00  0.00     0.042 C 
ENDBRANCH  26  27
ENDBRANCH  25  26
ENDBRANCH  23  25
ENDBRANCH   1  23
TORSDOF 4
ENDMDL
MODEL 6
REMARK minimizedAffinity -8.45412254
REMARK  4 active torsions:
REMARK  status: ('A' for Active; 'I' for Inactive)
REMARK    1  A    between atoms: C4_4  and  C5_5 
REMARK    2  A    between atoms: C5_5  and  C6_6 
REMARK    3  A    between atoms: C6_6  and  C7_7 
REMARK    4  A    between atoms: C7_7  and  C9_9 
ROOT
HETATM    1  C9  UNL     1      -2.001  50.338 -24.995  1.00  0.00    -0.002 C 
HETATM    2  C10 UNL     1      -0.909  51.155 -24.261  1.00  0.00     0.010 C 
HETATM    3  C11 UNL     1      -1.470  51.496 -22.855  1.00  0.00    -0.013 C 
HETATM    4  C12 UNL     1      -0.468  51.061 -21.788  1.00  0.00     0.010 C 
HETATM    5  C13 UNL     1      -2.827  50.772 -22.811  1.00  0.00     0.003 C 
HETATM    6  C14 UNL     1      -3.944  51.226 -21.840  1.00  0.00    -0.000 C 
HETATM    7  C15 UNL     1      -3.539  51.398 -20.382  1.00  0.00     0.006 C 
HETATM    8  C16 UNL     1      -3.284  50.110 -19.608  1.00  0.00     0.006 C 
HETATM    9  C17 UNL     1      -3.903  48.807 -20.157  1.00  0.00     0.003 C 
HETATM   10  C18 UNL     1      -4.190  47.740 -19.038  1.00  0.00    -0.043 C 
HETATM   11  C19 UNL     1      -5.246  48.219 -18.019  1.00  0.00     0.015 C 
HETATM   12  C20 UNL     1      -2.895  47.415 -18.261  1.00  0.00     0.015 C 
HETATM   13  C21 UNL     1      -4.674  46.424 -19.700  1.00  0.00     0.009 C 
HETATM   14  C22 UNL     1      -5.872  46.628 -20.617  1.00  0.00     0.002 C 
HETATM   15  C23 UNL     1      -5.572  47.658 -21.698  1.00  0.00     0.011 C 
HETATM   16  C24 UNL     1      -5.100  48.979 -21.107  1.00  0.00    -0.027 A 
HETATM   17  C25 UNL     1      -6.137  50.061 -20.888  1.00  0.00     0.021 A 
HETATM   18  C26 UNL     1      -5.113  50.235 -21.995  1.00  0.00    -0.028 A 
HETATM   19  C27 UNL     1      -5.630  50.177 -23.429  1.00  0.00     0.011 C 
HETATM   20  C28 UNL     1      -4.510  49.836 -24.425  1.00  0.00     0.011 C 
HETATM   21  C29 UNL     1      -3.313  50.805 -24.306  1.00  0.00    -0.036 C 
HETATM   22  C30 UNL     1      -3.746  52.211 -24.784  1.00  0.00     0.016 C 
ENDROOT
BRANCH   1  23
HETATM   23  C7  UNL     1      -1.801  50.301 -26.539  1.00  0.00    -0.014 C 
HETATM   24  C8  UNL     1      -1.118  51.518 -27.172  1.00  0.00     0.010 C 
BRANCH  23  25
HETATM   25  C6  UNL     1      -3.118  49.966 -27.276  1.00  0.00     0.008 C 
BRANCH  25  26
HETATM   26  C5  UNL     1      -3.478  48.471 -27.333  1.00  0.00     0.028 C 
BRANCH  26  27
HETATM   27  C4  UNL     1      -4.619  48.180 -28.270  1.00  0.00    -0.025 C 
HETATM   28  C2  UNL     1      -5.881  47.826 -27.959  1.00  0.00    -0.091 C 
HETATM   29  C1  UNL     1      -6.413  47.611 -26.570  1.00  0.00     0.042 C 
HETATM   30  C3  UNL     1      -6.900  47.604 -29.047  1.00  0.00     0.042 C 
ENDBRANCH  26  27
ENDBRANCH  25  26
ENDBRANCH  23  25
ENDBRANCH   1  23
TORSDOF 4
ENDMDL
MODEL 7
REMARK minimizedAffinity -8.44059944
REMARK  4 active torsions:
REMARK  status: ('A' for Active; 'I' for Inactive)
REMARK    1  A    between atoms: C4_4  and  C5_5 
REMARK    2  A    between atoms: C5_5  and  C6_6 
REMARK    3  A    between atoms: C6_6  and  C7_7 
REMARK    4  A    between atoms: C7_7  and  C9_9 
ROOT
HETATM    1  C9  UNL     1      -3.976  48.421 -24.539  1.00  0.00    -0.002 C 
HETATM    2  C10 UNL     1      -3.245  48.503 -23.175  1.00  0.00     0.010 C 
HETATM    3  C11 UNL     1      -4.237  47.984 -22.101  1.00  0.00    -0.013 C 
HETATM    4  C12 UNL     1      -3.567  46.887 -21.277  1.00  0.00     0.010 C 
HETATM    5  C13 UNL     1      -5.464  47.534 -22.913  1.00  0.00     0.003 C 
HETATM    6  C14 UNL     1      -6.862  47.429 -22.258  1.00  0.00    -0.000 C 
HETATM    7  C15 UNL     1      -6.937  46.639 -20.958  1.00  0.00     0.006 C 
HETATM    8  C16 UNL     1      -6.801  45.127 -21.090  1.00  0.00     0.006 C 
HETATM    9  C17 UNL     1      -7.090  44.498 -22.470  1.00  0.00     0.003 C 
HETATM   10  C18 UNL     1      -7.594  43.011 -22.377  1.00  0.00    -0.043 C 
HETATM   11  C19 UNL     1      -8.952  42.889 -21.652  1.00  0.00     0.015 C 
HETATM   12  C20 UNL     1      -6.570  42.143 -21.613  1.00  0.00     0.015 C 
HETATM   13  C21 UNL     1      -7.720  42.425 -23.807  1.00  0.00     0.009 C 
HETATM   14  C22 UNL     1      -8.599  43.272 -24.719  1.00  0.00     0.002 C 
HETATM   15  C23 UNL     1      -8.090  44.704 -24.802  1.00  0.00     0.011 C 
HETATM   16  C24 UNL     1      -7.955  45.338 -23.424  1.00  0.00    -0.027 A 
HETATM   17  C25 UNL     1      -9.112  46.174 -22.918  1.00  0.00     0.021 A 
HETATM   18  C26 UNL     1      -7.824  46.868 -23.322  1.00  0.00    -0.028 A 
HETATM   19  C27 UNL     1      -7.873  47.745 -24.570  1.00  0.00     0.011 C 
HETATM   20  C28 UNL     1      -6.476  47.955 -25.174  1.00  0.00     0.011 C 
HETATM   21  C29 UNL     1      -5.475  48.517 -24.141  1.00  0.00    -0.036 C 
HETATM   22  C30 UNL     1      -5.881  49.963 -23.771  1.00  0.00     0.016 C 
ENDROOT
BRANCH   1  23
HETATM   23  C7  UNL     1      -3.315  49.302 -25.639  1.00  0.00    -0.014 C 
HETATM   24  C8  UNL     1      -3.010  48.620 -26.975  1.00  0.00     0.010 C 
BRANCH  23  25
HETATM   25  C6  UNL     1      -2.066  50.040 -25.102  1.00  0.00     0.008 C 
BRANCH  25  26
HETATM   26  C5  UNL     1      -1.376  50.981 -26.106  1.00  0.00     0.028 C 
BRANCH  26  27
HETATM   27  C4  UNL     1       0.120  51.008 -25.946  1.00  0.00    -0.025 C 
HETATM   28  C2  UNL     1       1.048  51.363 -26.856  1.00  0.00    -0.091 C 
HETATM   29  C1  UNL     1       0.768  51.784 -28.271  1.00  0.00     0.042 C 
HETATM   30  C3  UNL     1       2.511  51.355 -26.497  1.00  0.00     0.042 C 
ENDBRANCH  26  27
ENDBRANCH  25  26
ENDBRANCH  23  25
ENDBRANCH   1  23
TORSDOF 4
ENDMDL
MODEL 8
REMARK minimizedAffinity -8.39206409
REMARK  4 active torsions:
REMARK  status: ('A' for Active; 'I' for Inactive)
REMARK    1  A    between atoms: C4_4  and  C5_5 
REMARK    2  A    between atoms: C5_5  and  C6_6 
REMARK    3  A    between atoms: C6_6  and  C7_7 
REMARK    4  A    between atoms: C7_7  and  C9_9 
ROOT
HETATM    1  C9  UNL     1      -1.127  50.529 -22.102  1.00  0.00    -0.002 C 
HETATM    2  C10 UNL     1      -0.494  49.408 -21.238  1.00  0.00     0.010 C 
HETATM    3  C11 UNL     1      -1.632  48.817 -20.364  1.00  0.00    -0.013 C 
HETATM    4  C12 UNL     1      -1.670  47.300 -20.539  1.00  0.00     0.010 C 
HETATM    5  C13 UNL     1      -2.891  49.562 -20.838  1.00  0.00     0.003 C 
HETATM    6  C14 UNL     1      -4.141  49.675 -19.933  1.00  0.00    -0.000 C 
HETATM    7  C15 UNL     1      -4.655  48.375 -19.330  1.00  0.00     0.006 C 
HETATM    8  C16 UNL     1      -5.348  47.422 -20.296  1.00  0.00     0.006 C 
HETATM    9  C17 UNL     1      -5.900  48.010 -21.612  1.00  0.00     0.003 C 
HETATM   10  C18 UNL     1      -7.124  47.204 -22.182  1.00  0.00    -0.043 C 
HETATM   11  C19 UNL     1      -8.351  47.246 -21.246  1.00  0.00     0.015 C 
HETATM   12  C20 UNL     1      -6.740  45.723 -22.394  1.00  0.00     0.015 C 
HETATM   13  C21 UNL     1      -7.515  47.781 -23.567  1.00  0.00     0.009 C 
HETATM   14  C22 UNL     1      -7.784  49.280 -23.529  1.00  0.00     0.002 C 
HETATM   15  C23 UNL     1      -6.585  50.043 -22.982  1.00  0.00     0.011 C 
HETATM   16  C24 UNL     1      -6.160  49.526 -21.615  1.00  0.00    -0.027 A 
HETATM   17  C25 UNL     1      -6.699  50.240 -20.394  1.00  0.00     0.021 A 
HETATM   18  C26 UNL     1      -5.232  50.395 -20.749  1.00  0.00    -0.028 A 
HETATM   19  C27 UNL     1      -4.778  51.772 -21.224  1.00  0.00     0.011 C 
HETATM   20  C28 UNL     1      -3.473  51.694 -22.033  1.00  0.00     0.011 C 
HETATM   21  C29 UNL     1      -2.349  50.978 -21.253  1.00  0.00    -0.036 C 
HETATM   22  C30 UNL     1      -1.924  51.854 -20.051  1.00  0.00     0.016 C 
ENDROOT
BRANCH   1  23
HETATM   23  C7  UNL     1      -0.074  51.512 -22.691  1.00  0.00    -0.014 C 
HETATM   24  C8  UNL     1       0.785  52.283 -21.683  1.00  0.00     0.010 C 
BRANCH  23  25
HETATM   25  C6  UNL     1      -0.708  52.475 -23.721  1.00  0.00     0.008 C 
BRANCH  25  26
HETATM   26  C5  UNL     1       0.291  53.243 -24.605  1.00  0.00     0.028 C 
BRANCH  26  27
HETATM   27  C4  UNL     1       0.192  52.867 -26.059  1.00  0.00    -0.025 C 
HETATM   28  C2  UNL     1       1.015  52.072 -26.770  1.00  0.00    -0.091 C 
HETATM   29  C1  UNL     1       2.256  51.405 -26.246  1.00  0.00     0.042 C 
HETATM   30  C3  UNL     1       0.733  51.787 -28.223  1.00  0.00     0.042 C 
ENDBRANCH  26  27
ENDBRANCH  25  26
ENDBRANCH  23  25
ENDBRANCH   1  23
TORSDOF 4
ENDMDL
MODEL 9
REMARK minimizedAffinity -8.37461376
REMARK  4 active torsions:
REMARK  status: ('A' for Active; 'I' for Inactive)
REMARK    1  A    between atoms: C4_4  and  C5_5 
REMARK    2  A    between atoms: C5_5  and  C6_6 
REMARK    3  A    between atoms: C6_6  and  C7_7 
REMARK    4  A    between atoms: C7_7  and  C9_9 
ROOT
HETATM    1  C9  UNL     1      -3.518  50.851 -23.159  1.00  0.00    -0.002 C 
HETATM    2  C10 UNL     1      -4.971  51.001 -23.677  1.00  0.00     0.010 C 
HETATM    3  C11 UNL     1      -5.719  49.694 -23.305  1.00  0.00    -0.013 C 
HETATM    4  C12 UNL     1      -7.001  50.040 -22.550  1.00  0.00     0.010 C 
HETATM    5  C13 UNL     1      -4.685  48.889 -22.500  1.00  0.00     0.003 C 
HETATM    6  C14 UNL     1      -4.799  47.352 -22.363  1.00  0.00    -0.000 C 
HETATM    7  C15 UNL     1      -6.152  46.815 -21.916  1.00  0.00     0.006 C 
HETATM    8  C16 UNL     1      -6.509  47.048 -20.452  1.00  0.00     0.006 C 
HETATM    9  C17 UNL     1      -5.354  47.332 -19.468  1.00  0.00     0.003 C 
HETATM   10  C18 UNL     1      -5.675  46.888 -17.995  1.00  0.00    -0.043 C 
HETATM   11  C19 UNL     1      -5.870  45.362 -17.865  1.00  0.00     0.015 C 
HETATM   12  C20 UNL     1      -6.965  47.574 -17.495  1.00  0.00     0.015 C 
HETATM   13  C21 UNL     1      -4.522  47.339 -17.062  1.00  0.00     0.009 C 
HETATM   14  C22 UNL     1      -3.158  46.845 -17.525  1.00  0.00     0.002 C 
HETATM   15  C23 UNL     1      -2.862  47.292 -18.950  1.00  0.00     0.011 C 
HETATM   16  C24 UNL     1      -3.958  46.867 -19.917  1.00  0.00    -0.027 A 
HETATM   17  C25 UNL     1      -3.760  45.574 -20.679  1.00  0.00     0.021 A 
HETATM   18  C26 UNL     1      -3.665  46.891 -21.427  1.00  0.00    -0.028 A 
HETATM   19  C27 UNL     1      -2.290  47.289 -21.953  1.00  0.00     0.011 C 
HETATM   20  C28 UNL     1      -2.191  48.803 -22.203  1.00  0.00     0.011 C 
HETATM   21  C29 UNL     1      -3.310  49.311 -23.137  1.00  0.00    -0.036 C 
HETATM   22  C30 UNL     1      -3.087  48.740 -24.558  1.00  0.00     0.016 C 
ENDROOT
BRANCH   1  23
HETATM   23  C7  UNL     1      -2.526  51.848 -23.826  1.00  0.00    -0.014 C 
HETATM   24  C8  UNL     1      -2.893  52.347 -25.227  1.00  0.00     0.010 C 
BRANCH  23  25
HETATM   25  C6  UNL     1      -1.075  51.314 -23.797  1.00  0.00     0.008 C 
BRANCH  25  26
HETATM   26  C5  UNL     1      -0.022  52.301 -23.264  1.00  0.00     0.028 C 
BRANCH  26  27
HETATM   27  C4  UNL     1       0.045  52.328 -21.761  1.00  0.00    -0.025 C 
HETATM   28  C2  UNL     1       0.715  53.192 -20.973  1.00  0.00    -0.091 C 
HETATM   29  C1  UNL     1       1.585  54.319 -21.453  1.00  0.00     0.042 C 
HETATM   30  C3  UNL     1       0.635  53.076 -19.473  1.00  0.00     0.042 C 
ENDBRANCH  26  27
ENDBRANCH  25  26
ENDBRANCH  23  25
ENDBRANCH   1  23
TORSDOF 4
ENDMDL
