MODEL 1
REMARK minimizedAffinity -7.6682601
REMARK CNNscore 0.327851295
REMARK CNNaffinity 6.15191078
REMARK  12 active torsions:
REMARK  status: ('A' for Active; 'I' for Inactive)
REMARK    1  A    between atoms: C3_3  and  O1_4 
REMARK    2  A    between atoms: N1_14  and  O2_16 
REMARK    3  A    between atoms: O2_16  and  C13_17 
REMARK    4  A    between atoms: C13_17  and  C14_18 
REMARK       I    between atoms: C14_18  and  N2_20 
REMARK    5  A    between atoms: N2_20  and  C15_21 
REMARK    6  A    between atoms: C15_21  and  C16_22 
REMARK    7  A    between atoms: C15_21  and  C23_33 
REMARK       I    between atoms: C16_22  and  N3_24 
REMARK    8  A    between atoms: N3_24  and  C17_25 
REMARK    9  A    between atoms: C17_25  and  C18_26 
REMARK   10  A    between atoms: C17_25  and  C19_29 
REMARK   11  A    between atoms: C18_26  and  O6_28 
REMARK   12  A    between atoms: C19_29  and  C21_31 
ROOT
HETATM    1  C1  UNL     1      -0.500   6.040  11.436  1.00  0.00     0.015 C 
HETATM    2  C2  UNL     1      -0.959   6.829  12.213  1.00  0.00    -0.078 C 
HETATM    3  C3  UNL     1      -1.569   7.801  13.146  1.00  0.00     0.128 C 
HETATM    4  C4  UNL     1      -2.941   8.275  12.617  1.00  0.00     0.052 C 
HETATM    5  C5  UNL     1      -3.965   8.015  13.726  1.00  0.00     0.010 C 
HETATM    6  C6  UNL     1      -3.158   7.944  15.027  1.00  0.00     0.002 C 
HETATM    7  C7  UNL     1      -3.053   9.286  15.814  1.00  0.00    -0.004 C 
HETATM    8  C8  UNL     1      -2.922  10.564  14.962  1.00  0.00     0.010 C 
HETATM    9  C9  UNL     1      -2.942  11.828  15.815  1.00  0.00     0.035 C 
HETATM   10  C10 UNL     1      -1.894  11.786  16.896  1.00  0.00    -0.069 C 
HETATM   11  C11 UNL     1      -1.031  12.810  17.032  1.00  0.00     0.030 C 
HETATM   12  C12 UNL     1      -0.079  12.870  18.172  1.00  0.00     0.032 C 
HETATM   13  N1  UNL     1       0.900  13.723  18.095  1.00  0.00    -0.271 N 
ATOM     14  H1  UNL     1       1.072  14.314  17.283  1.00  0.00     0.194 HD
HETATM   15  C26 UNL     1      -0.346  11.938  19.334  1.00  0.00     0.060 C 
HETATM   16  C27 UNL     1      -0.659  10.559  18.752  1.00  0.00     0.020 C 
HETATM   17  C28 UNL     1      -1.901  10.551  17.801  1.00  0.00    -0.016 C 
HETATM   18  C29 UNL     1      -3.162  10.609  18.709  1.00  0.00     0.020 C 
HETATM   19  C30 UNL     1      -1.961   9.224  16.924  1.00  0.00     0.002 C 
HETATM   20  C31 UNL     1      -0.622   8.820  16.267  1.00  0.00     0.007 C 
HETATM   21  C32 UNL     1      -0.696   7.448  15.594  1.00  0.00     0.014 C 
HETATM   22  C33 UNL     1      -1.841   7.237  14.587  1.00  0.00     0.003 C 
HETATM   23  C34 UNL     1      -2.118   5.700  14.541  1.00  0.00     0.020 C 
ENDROOT
BRANCH   3  24
HETATM   24  O1  UNL     1      -0.702   8.929  13.205  1.00  0.00    -0.377 OA
HETATM   25  H2  UNL     1      -0.366   9.087  12.307  1.00  0.00     0.211 HD
ENDBRANCH   3  24
BRANCH  13  26
HETATM   26  O2  UNL     1       1.693  13.740  19.250  1.00  0.00    -0.271 OA
BRANCH  26  27
HETATM   27  C13 UNL     1       3.053  13.575  18.867  1.00  0.00     0.303 C 
BRANCH  27  28
HETATM   28  C14 UNL     1       3.631  12.275  19.424  1.00  0.00     0.244 C 
HETATM   29  O3  UNL     1       3.748  11.247  18.760  1.00  0.00    -0.271 OA
HETATM   30  N2  UNL     1       3.972  12.325  20.766  1.00  0.00    -0.346 N 
HETATM   31  H16 UNL     1       4.303  13.223  21.101  1.00  0.00     0.163 HD
BRANCH  30  32
HETATM   32  C15 UNL     1       4.573  11.154  21.411  1.00  0.00     0.180 C 
BRANCH  32  33
HETATM   33  C16 UNL     1       5.882  11.613  22.102  1.00  0.00     0.241 C 
HETATM   34  O4  UNL     1       6.178  11.249  23.241  1.00  0.00    -0.271 OA
HETATM   35  N3  UNL     1       6.692  12.419  21.336  1.00  0.00    -0.344 N 
HETATM   36  H18 UNL     1       6.283  12.864  20.516  1.00  0.00     0.163 HD
BRANCH  35  37
HETATM   37  C17 UNL     1       7.847  13.116  21.921  1.00  0.00     0.186 C 
BRANCH  37  38
HETATM   38  C18 UNL     1       8.946  12.070  22.137  1.00  0.00     0.163 C 
HETATM   39  O5  UNL     1       9.804  11.758  21.320  1.00  0.00    -0.648 OA
BRANCH  38  40
HETATM   40  O6  UNL     1       8.922  11.490  23.350  1.00  0.00    -0.775 OA
HETATM   41  H20 UNL     1       9.688  10.877  23.336  1.00  0.00     0.167 HD
ENDBRANCH  38  40
ENDBRANCH  37  38
BRANCH  37  42
HETATM   42  C19 UNL     1       7.464  13.909  23.194  1.00  0.00     0.014 C 
HETATM   43  C20 UNL     1       6.205  14.757  22.937  1.00  0.00     0.012 C 
BRANCH  42  44
HETATM   44  C21 UNL     1       8.572  14.819  23.771  1.00  0.00     0.002 C 
HETATM   45  C22 UNL     1       8.128  16.235  24.093  1.00  0.00     0.005 C 
ENDBRANCH  42  44
ENDBRANCH  37  42
ENDBRANCH  35  37
ENDBRANCH  32  33
BRANCH  32  46
HETATM   46  C23 UNL     1       3.559  10.486  22.373  1.00  0.00     0.009 C 
HETATM   47  C24 UNL     1       2.821  11.519  23.227  1.00  0.00     0.012 C 
HETATM   48  C25 UNL     1       2.554   9.566  21.676  1.00  0.00     0.012 C 
ENDBRANCH  32  46
ENDBRANCH  30  32
ENDBRANCH  27  28
ENDBRANCH  26  27
ENDBRANCH  13  26
TORSDOF 12
ENDMDL
MODEL 2
REMARK minimizedAffinity -8.35709476
REMARK CNNscore 0.32399106
REMARK CNNaffinity 6.03407335
REMARK  12 active torsions:
REMARK  status: ('A' for Active; 'I' for Inactive)
REMARK    1  A    between atoms: C3_3  and  O1_4 
REMARK    2  A    between atoms: N1_14  and  O2_16 
REMARK    3  A    between atoms: O2_16  and  C13_17 
REMARK    4  A    between atoms: C13_17  and  C14_18 
REMARK       I    between atoms: C14_18  and  N2_20 
REMARK    5  A    between atoms: N2_20  and  C15_21 
REMARK    6  A    between atoms: C15_21  and  C16_22 
REMARK    7  A    between atoms: C15_21  and  C23_33 
REMARK       I    between atoms: C16_22  and  N3_24 
REMARK    8  A    between atoms: N3_24  and  C17_25 
REMARK    9  A    between atoms: C17_25  and  C18_26 
REMARK   10  A    between atoms: C17_25  and  C19_29 
REMARK   11  A    between atoms: C18_26  and  O6_28 
REMARK   12  A    between atoms: C19_29  and  C21_31 
ROOT
HETATM    1  C1  UNL     1      -0.891   5.291  11.047  1.00  0.00     0.015 C 
HETATM    2  C2  UNL     1       0.252   5.646  11.000  1.00  0.00    -0.078 C 
HETATM    3  C3  UNL     1       1.668   6.060  10.896  1.00  0.00     0.128 C 
HETATM    4  C4  UNL     1       2.354   5.359   9.703  1.00  0.00     0.052 C 
HETATM    5  C5  UNL     1       2.961   6.456   8.824  1.00  0.00     0.010 C 
HETATM    6  C6  UNL     1       3.133   7.674   9.740  1.00  0.00     0.002 C 
HETATM    7  C7  UNL     1       4.537   7.807  10.405  1.00  0.00    -0.004 C 
HETATM    8  C8  UNL     1       5.214   6.490  10.834  1.00  0.00     0.010 C 
HETATM    9  C9  UNL     1       6.625   6.716  11.366  1.00  0.00     0.035 C 
HETATM   10  C10 UNL     1       6.643   7.726  12.484  1.00  0.00    -0.069 C 
HETATM   11  C11 UNL     1       7.239   7.421  13.651  1.00  0.00     0.030 C 
HETATM   12  C12 UNL     1       7.401   8.438  14.723  1.00  0.00     0.032 C 
HETATM   13  N1  UNL     1       7.725   8.016  15.910  1.00  0.00    -0.271 N 
ATOM     14  H1  UNL     1       7.827   7.031  16.152  1.00  0.00     0.194 HD
HETATM   15  C26 UNL     1       7.190   9.884  14.329  1.00  0.00     0.060 C 
HETATM   16  C27 UNL     1       5.915   9.948  13.489  1.00  0.00     0.020 C 
HETATM   17  C28 UNL     1       5.978   9.073  12.192  1.00  0.00    -0.016 C 
HETATM   18  C29 UNL     1       6.858   9.849  11.171  1.00  0.00     0.020 C 
HETATM   19  C30 UNL     1       4.534   8.853  11.561  1.00  0.00     0.002 C 
HETATM   20  C31 UNL     1       3.438   8.453  12.574  1.00  0.00     0.007 C 
HETATM   21  C32 UNL     1       2.043   8.435  11.945  1.00  0.00     0.014 C 
HETATM   22  C33 UNL     1       1.880   7.599  10.662  1.00  0.00     0.003 C 
HETATM   23  C34 UNL     1       0.676   8.215   9.880  1.00  0.00     0.020 C 
ENDROOT
BRANCH   3  24
HETATM   24  O1  UNL     1       2.318   5.641  12.091  1.00  0.00    -0.377 OA
HETATM   25  H2  UNL     1       1.963   4.769  12.327  1.00  0.00     0.211 HD
ENDBRANCH   3  24
BRANCH  13  26
HETATM   26  O2  UNL     1       7.917   9.064  16.821  1.00  0.00    -0.271 OA
BRANCH  26  27
HETATM   27  C13 UNL     1       9.313   9.314  16.934  1.00  0.00     0.303 C 
BRANCH  27  28
HETATM   28  C14 UNL     1       9.598  10.415  17.955  1.00  0.00     0.244 C 
HETATM   29  O3  UNL     1       8.932  10.580  18.974  1.00  0.00    -0.271 OA
HETATM   30  N2  UNL     1      10.644  11.257  17.615  1.00  0.00    -0.346 N 
HETATM   31  H16 UNL     1      11.401  10.829  17.094  1.00  0.00     0.163 HD
BRANCH  30  32
HETATM   32  C15 UNL     1      11.042  12.332  18.530  1.00  0.00     0.180 C 
BRANCH  32  33
HETATM   33  C16 UNL     1      12.450  11.988  19.080  1.00  0.00     0.241 C 
HETATM   34  O4  UNL     1      12.602  11.370  20.134  1.00  0.00    -0.271 OA
HETATM   35  N3  UNL     1      13.499  12.391  18.286  1.00  0.00    -0.344 N 
HETATM   36  H18 UNL     1      13.312  13.089  17.568  1.00  0.00     0.163 HD
BRANCH  35  37
HETATM   37  C17 UNL     1      14.885  12.342  18.772  1.00  0.00     0.186 C 
BRANCH  37  38
HETATM   38  C18 UNL     1      14.954  13.207  20.036  1.00  0.00     0.163 C 
HETATM   39  O5  UNL     1      14.874  14.429  20.068  1.00  0.00    -0.648 OA
BRANCH  38  40
HETATM   40  O6  UNL     1      15.102  12.506  21.174  1.00  0.00    -0.775 OA
HETATM   41  H20 UNL     1      15.104  13.191  21.877  1.00  0.00     0.167 HD
ENDBRANCH  38  40
ENDBRANCH  37  38
BRANCH  37  42
HETATM   42  C19 UNL     1      15.901  12.738  17.674  1.00  0.00     0.014 C 
HETATM   43  C20 UNL     1      15.651  11.919  16.395  1.00  0.00     0.012 C 
BRANCH  42  44
HETATM   44  C21 UNL     1      17.391  12.612  18.067  1.00  0.00     0.002 C 
HETATM   45  C22 UNL     1      18.258  11.892  17.048  1.00  0.00     0.005 C 
ENDBRANCH  42  44
ENDBRANCH  37  42
ENDBRANCH  35  37
ENDBRANCH  32  33
BRANCH  32  46
HETATM   46  C23 UNL     1      10.967  13.705  17.818  1.00  0.00     0.009 C 
HETATM   47  C24 UNL     1       9.715  13.824  16.946  1.00  0.00     0.012 C 
HETATM   48  C25 UNL     1      11.062  14.903  18.765  1.00  0.00     0.012 C 
ENDBRANCH  32  46
ENDBRANCH  30  32
ENDBRANCH  27  28
ENDBRANCH  26  27
ENDBRANCH  13  26
TORSDOF 12
ENDMDL
MODEL 3
REMARK minimizedAffinity -7.40084457
REMARK CNNscore 0.319427758
REMARK CNNaffinity 6.69750452
REMARK  12 active torsions:
REMARK  status: ('A' for Active; 'I' for Inactive)
REMARK    1  A    between atoms: C3_3  and  O1_4 
REMARK    2  A    between atoms: N1_14  and  O2_16 
REMARK    3  A    between atoms: O2_16  and  C13_17 
REMARK    4  A    between atoms: C13_17  and  C14_18 
REMARK       I    between atoms: C14_18  and  N2_20 
REMARK    5  A    between atoms: N2_20  and  C15_21 
REMARK    6  A    between atoms: C15_21  and  C16_22 
REMARK    7  A    between atoms: C15_21  and  C23_33 
REMARK       I    between atoms: C16_22  and  N3_24 
REMARK    8  A    between atoms: N3_24  and  C17_25 
REMARK    9  A    between atoms: C17_25  and  C18_26 
REMARK   10  A    between atoms: C17_25  and  C19_29 
REMARK   11  A    between atoms: C18_26  and  O6_28 
REMARK   12  A    between atoms: C19_29  and  C21_31 
ROOT
HETATM    1  C1  UNL     1      -4.635  10.360  15.995  1.00  0.00     0.015 C 
HETATM    2  C2  UNL     1      -3.806   9.629  15.533  1.00  0.00    -0.078 C 
HETATM    3  C3  UNL     1      -2.802   8.688  14.990  1.00  0.00     0.128 C 
HETATM    4  C4  UNL     1      -2.815   7.362  15.782  1.00  0.00     0.052 C 
HETATM    5  C5  UNL     1      -3.020   6.233  14.768  1.00  0.00     0.010 C 
HETATM    6  C6  UNL     1      -2.567   6.802  13.418  1.00  0.00     0.002 C 
HETATM    7  C7  UNL     1      -1.084   6.503  13.040  1.00  0.00    -0.004 C 
HETATM    8  C8  UNL     1      -0.069   6.527  14.200  1.00  0.00     0.010 C 
HETATM    9  C9  UNL     1       1.328   6.113  13.750  1.00  0.00     0.035 C 
HETATM   10  C10 UNL     1       1.809   6.946  12.591  1.00  0.00    -0.069 C 
HETATM   11  C11 UNL     1       3.007   7.554  12.656  1.00  0.00     0.030 C 
HETATM   12  C12 UNL     1       3.576   8.265  11.481  1.00  0.00     0.032 C 
HETATM   13  N1  UNL     1       4.588   9.056  11.687  1.00  0.00    -0.271 N 
ATOM     14  H1  UNL     1       4.978   9.247  12.609  1.00  0.00     0.194 HD
HETATM   15  C26 UNL     1       2.932   7.989  10.139  1.00  0.00     0.060 C 
HETATM   16  C27 UNL     1       1.418   8.058  10.336  1.00  0.00     0.020 C 
HETATM   17  C28 UNL     1       0.877   7.024  11.379  1.00  0.00    -0.016 C 
HETATM   18  C29 UNL     1       0.863   5.639  10.673  1.00  0.00     0.020 C 
HETATM   19  C30 UNL     1      -0.604   7.378  11.842  1.00  0.00     0.002 C 
HETATM   20  C31 UNL     1      -0.834   8.863  12.202  1.00  0.00     0.007 C 
HETATM   21  C32 UNL     1      -2.309   9.177  12.460  1.00  0.00     0.014 C 
HETATM   22  C33 UNL     1      -3.031   8.287  13.488  1.00  0.00     0.003 C 
HETATM   23  C34 UNL     1      -4.550   8.329  13.125  1.00  0.00     0.020 C 
ENDROOT
BRANCH   3  24
HETATM   24  O1  UNL     1      -1.525   9.293  15.157  1.00  0.00    -0.377 OA
HETATM   25  H2  UNL     1      -1.524   9.742  16.019  1.00  0.00     0.211 HD
ENDBRANCH   3  24
BRANCH  13  26
HETATM   26  O2  UNL     1       5.083   9.618  10.503  1.00  0.00    -0.271 OA
BRANCH  26  27
HETATM   27  C13 UNL     1       6.498   9.472  10.491  1.00  0.00     0.303 C 
BRANCH  27  28
HETATM   28  C14 UNL     1       7.178  10.603  11.261  1.00  0.00     0.244 C 
HETATM   29  O3  UNL     1       8.385  10.830  11.204  1.00  0.00    -0.271 OA
HETATM   30  N2  UNL     1       6.331  11.332  12.080  1.00  0.00    -0.346 N 
HETATM   31  H16 UNL     1       5.379  11.434  11.746  1.00  0.00     0.163 HD
BRANCH  30  32
HETATM   32  C15 UNL     1       6.854  12.469  12.844  1.00  0.00     0.180 C 
BRANCH  32  33
HETATM   33  C16 UNL     1       7.626  11.905  14.064  1.00  0.00     0.241 C 
HETATM   34  O4  UNL     1       7.939  12.616  15.020  1.00  0.00    -0.271 OA
HETATM   35  N3  UNL     1       7.896  10.557  14.009  1.00  0.00    -0.344 N 
HETATM   36  H18 UNL     1       7.822  10.093  13.105  1.00  0.00     0.163 HD
BRANCH  35  37
HETATM   37  C17 UNL     1       8.808   9.923  14.971  1.00  0.00     0.186 C 
BRANCH  37  38
HETATM   38  C18 UNL     1      10.208   9.937  14.345  1.00  0.00     0.163 C 
HETATM   39  O5  UNL     1      11.224  10.361  14.882  1.00  0.00    -0.648 OA
BRANCH  38  40
HETATM   40  O6  UNL     1      10.262   9.412  13.108  1.00  0.00    -0.775 OA
HETATM   41  H20 UNL     1      11.211   9.473  12.864  1.00  0.00     0.167 HD
ENDBRANCH  38  40
ENDBRANCH  37  38
BRANCH  37  42
HETATM   42  C19 UNL     1       8.317   8.519  15.400  1.00  0.00     0.014 C 
HETATM   43  C20 UNL     1       9.464   7.727  16.052  1.00  0.00     0.012 C 
BRANCH  42  44
HETATM   44  C21 UNL     1       7.690   7.660  14.277  1.00  0.00     0.002 C 
HETATM   45  C22 UNL     1       6.189   7.461  14.392  1.00  0.00     0.005 C 
ENDBRANCH  42  44
ENDBRANCH  37  42
ENDBRANCH  35  37
ENDBRANCH  32  33
BRANCH  32  46
HETATM   46  C23 UNL     1       7.706  13.387  11.934  1.00  0.00     0.009 C 
HETATM   47  C24 UNL     1       6.957  14.666  11.556  1.00  0.00     0.012 C 
HETATM   48  C25 UNL     1       9.080  13.735  12.513  1.00  0.00     0.012 C 
ENDBRANCH  32  46
ENDBRANCH  30  32
ENDBRANCH  27  28
ENDBRANCH  26  27
ENDBRANCH  13  26
TORSDOF 12
ENDMDL
MODEL 4
REMARK minimizedAffinity -6.9901247
REMARK CNNscore 0.261403859
REMARK CNNaffinity 5.84274626
REMARK  12 active torsions:
REMARK  status: ('A' for Active; 'I' for Inactive)
REMARK    1  A    between atoms: C3_3  and  O1_4 
REMARK    2  A    between atoms: N1_14  and  O2_16 
REMARK    3  A    between atoms: O2_16  and  C13_17 
REMARK    4  A    between atoms: C13_17  and  C14_18 
REMARK       I    between atoms: C14_18  and  N2_20 
REMARK    5  A    between atoms: N2_20  and  C15_21 
REMARK    6  A    between atoms: C15_21  and  C16_22 
REMARK    7  A    between atoms: C15_21  and  C23_33 
REMARK       I    between atoms: C16_22  and  N3_24 
REMARK    8  A    between atoms: N3_24  and  C17_25 
REMARK    9  A    between atoms: C17_25  and  C18_26 
REMARK   10  A    between atoms: C17_25  and  C19_29 
REMARK   11  A    between atoms: C18_26  and  O6_28 
REMARK   12  A    between atoms: C19_29  and  C21_31 
ROOT
HETATM    1  C1  UNL     1       6.964  19.161  22.258  1.00  0.00     0.015 C 
HETATM    2  C2  UNL     1       6.895  17.969  22.156  1.00  0.00    -0.078 C 
HETATM    3  C3  UNL     1       6.862  16.496  22.030  1.00  0.00     0.128 C 
HETATM    4  C4  UNL     1       8.276  15.941  21.753  1.00  0.00     0.052 C 
HETATM    5  C5  UNL     1       8.566  14.888  22.827  1.00  0.00     0.010 C 
HETATM    6  C6  UNL     1       7.195  14.433  23.341  1.00  0.00     0.002 C 
HETATM    7  C7  UNL     1       6.615  13.165  22.642  1.00  0.00    -0.004 C 
HETATM    8  C8  UNL     1       6.888  13.039  21.130  1.00  0.00     0.010 C 
HETATM    9  C9  UNL     1       6.382  11.717  20.563  1.00  0.00     0.035 C 
HETATM   10  C10 UNL     1       4.924  11.500  20.872  1.00  0.00    -0.069 C 
HETATM   11  C11 UNL     1       4.067  11.200  19.879  1.00  0.00     0.030 C 
HETATM   12  C12 UNL     1       2.653  10.842  20.162  1.00  0.00     0.032 C 
HETATM   13  N1  UNL     1       1.820  10.838  19.163  1.00  0.00    -0.271 N 
ATOM     14  H1  UNL     1       2.074  11.108  18.214  1.00  0.00     0.194 HD
HETATM   15  C26 UNL     1       2.310  10.496  21.596  1.00  0.00     0.060 C 
HETATM   16  C27 UNL     1       2.959  11.553  22.489  1.00  0.00     0.020 C 
HETATM   17  C28 UNL     1       4.516  11.623  22.342  1.00  0.00    -0.016 C 
HETATM   18  C29 UNL     1       5.095  10.408  23.121  1.00  0.00     0.020 C 
HETATM   19  C30 UNL     1       5.104  12.962  22.970  1.00  0.00     0.002 C 
HETATM   20  C31 UNL     1       4.345  14.250  22.579  1.00  0.00     0.007 C 
HETATM   21  C32 UNL     1       4.840  15.474  23.354  1.00  0.00     0.014 C 
HETATM   22  C33 UNL     1       6.356  15.745  23.314  1.00  0.00     0.003 C 
HETATM   23  C34 UNL     1       6.697  16.555  24.605  1.00  0.00     0.020 C 
ENDROOT
BRANCH   3  24
HETATM   24  O1  UNL     1       6.037  16.187  20.912  1.00  0.00    -0.377 OA
HETATM   25  H2  UNL     1       6.222  16.845  20.222  1.00  0.00     0.211 HD
ENDBRANCH   3  24
BRANCH  13  26
HETATM   26  O2  UNL     1       0.535  10.421  19.533  1.00  0.00    -0.271 OA
BRANCH  26  27
HETATM   27  C13 UNL     1      -0.388  11.451  19.197  1.00  0.00     0.303 C 
BRANCH  27  28
HETATM   28  C14 UNL     1      -0.849  11.329  17.746  1.00  0.00     0.244 C 
HETATM   29  O3  UNL     1      -0.730  12.232  16.921  1.00  0.00    -0.271 OA
HETATM   30  N2  UNL     1      -1.466  10.127  17.437  1.00  0.00    -0.346 N 
HETATM   31  H16 UNL     1      -1.123   9.316  17.939  1.00  0.00     0.163 HD
BRANCH  30  32
HETATM   32  C15 UNL     1      -1.921   9.871  16.066  1.00  0.00     0.180 C 
BRANCH  32  33
HETATM   33  C16 UNL     1      -0.804   9.080  15.338  1.00  0.00     0.241 C 
HETATM   34  O4  UNL     1      -0.465   9.348  14.185  1.00  0.00    -0.271 OA
HETATM   35  N3  UNL     1      -0.207   8.093  16.087  1.00  0.00    -0.344 N 
HETATM   36  H18 UNL     1      -0.688   7.776  16.927  1.00  0.00     0.163 HD
BRANCH  35  37
HETATM   37  C17 UNL     1       0.702   7.114  15.473  1.00  0.00     0.186 C 
BRANCH  37  38
HETATM   38  C18 UNL     1       2.130   7.633  15.674  1.00  0.00     0.163 C 
HETATM   39  O5  UNL     1       2.475   8.808  15.628  1.00  0.00    -0.648 OA
BRANCH  38  40
HETATM   40  O6  UNL     1       3.033   6.671  15.932  1.00  0.00    -0.775 OA
HETATM   41  H20 UNL     1       3.875   7.160  16.056  1.00  0.00     0.167 HD
ENDBRANCH  38  40
ENDBRANCH  37  38
BRANCH  37  42
HETATM   42  C19 UNL     1       0.332   6.822  13.999  1.00  0.00     0.014 C 
HETATM   43  C20 UNL     1      -0.611   5.609  13.915  1.00  0.00     0.012 C 
BRANCH  42  44
HETATM   44  C21 UNL     1       1.527   6.596  13.044  1.00  0.00     0.002 C 
HETATM   45  C22 UNL     1       1.712   7.674  11.991  1.00  0.00     0.005 C 
ENDBRANCH  42  44
ENDBRANCH  37  42
ENDBRANCH  35  37
ENDBRANCH  32  33
BRANCH  32  46
HETATM   46  C23 UNL     1      -3.292   9.153  16.076  1.00  0.00     0.009 C 
HETATM   47  C24 UNL     1      -4.383  10.003  15.421  1.00  0.00     0.012 C 
HETATM   48  C25 UNL     1      -3.268   7.757  15.449  1.00  0.00     0.012 C 
ENDBRANCH  32  46
ENDBRANCH  30  32
ENDBRANCH  27  28
ENDBRANCH  26  27
ENDBRANCH  13  26
TORSDOF 12
ENDMDL
MODEL 5
REMARK minimizedAffinity -8.81468773
REMARK CNNscore 0.241378784
REMARK CNNaffinity 5.89448786
REMARK  12 active torsions:
REMARK  status: ('A' for Active; 'I' for Inactive)
REMARK    1  A    between atoms: C3_3  and  O1_4 
REMARK    2  A    between atoms: N1_14  and  O2_16 
REMARK    3  A    between atoms: O2_16  and  C13_17 
REMARK    4  A    between atoms: C13_17  and  C14_18 
REMARK       I    between atoms: C14_18  and  N2_20 
REMARK    5  A    between atoms: N2_20  and  C15_21 
REMARK    6  A    between atoms: C15_21  and  C16_22 
REMARK    7  A    between atoms: C15_21  and  C23_33 
REMARK       I    between atoms: C16_22  and  N3_24 
REMARK    8  A    between atoms: N3_24  and  C17_25 
REMARK    9  A    between atoms: C17_25  and  C18_26 
REMARK   10  A    between atoms: C17_25  and  C19_29 
REMARK   11  A    between atoms: C18_26  and  O6_28 
REMARK   12  A    between atoms: C19_29  and  C21_31 
ROOT
HETATM    1  C1  UNL     1      -0.805   5.247  11.005  1.00  0.00     0.015 C 
HETATM    2  C2  UNL     1       0.335   5.616  11.006  1.00  0.00    -0.078 C 
HETATM    3  C3  UNL     1       1.748   6.050  10.961  1.00  0.00     0.128 C 
HETATM    4  C4  UNL     1       2.491   5.365   9.794  1.00  0.00     0.052 C 
HETATM    5  C5  UNL     1       3.119   6.474   8.945  1.00  0.00     0.010 C 
HETATM    6  C6  UNL     1       3.237   7.689   9.874  1.00  0.00     0.002 C 
HETATM    7  C7  UNL     1       4.611   7.837  10.595  1.00  0.00    -0.004 C 
HETATM    8  C8  UNL     1       5.287   6.526  11.046  1.00  0.00     0.010 C 
HETATM    9  C9  UNL     1       6.673   6.767  11.635  1.00  0.00     0.035 C 
HETATM   10  C10 UNL     1       6.632   7.771  12.758  1.00  0.00    -0.069 C 
HETATM   11  C11 UNL     1       7.185   7.468  13.947  1.00  0.00     0.030 C 
HETATM   12  C12 UNL     1       7.290   8.481  15.029  1.00  0.00     0.032 C 
HETATM   13  N1  UNL     1       7.571   8.057  16.226  1.00  0.00    -0.271 N 
ATOM     14  H1  UNL     1       7.676   7.072  16.467  1.00  0.00     0.194 HD
HETATM   15  C26 UNL     1       7.075   9.926  14.635  1.00  0.00     0.060 C 
HETATM   16  C27 UNL     1       5.835   9.977  13.743  1.00  0.00     0.020 C 
HETATM   17  C28 UNL     1       5.962   9.111  12.446  1.00  0.00    -0.016 C 
HETATM   18  C29 UNL     1       6.872   9.905  11.465  1.00  0.00     0.020 C 
HETATM   19  C30 UNL     1       4.548   8.876  11.756  1.00  0.00     0.002 C 
HETATM   20  C31 UNL     1       3.417   8.456  12.722  1.00  0.00     0.007 C 
HETATM   21  C32 UNL     1       2.049   8.424  12.036  1.00  0.00     0.014 C 
HETATM   22  C33 UNL     1       1.949   7.593  10.744  1.00  0.00     0.003 C 
HETATM   23  C34 UNL     1       0.769   8.198   9.917  1.00  0.00     0.020 C 
ENDROOT
BRANCH   3  24
HETATM   24  O1  UNL     1       2.354   5.633  12.180  1.00  0.00    -0.377 OA
HETATM   25  H2  UNL     1       2.002   4.754  12.396  1.00  0.00     0.211 HD
ENDBRANCH   3  24
BRANCH  13  26
HETATM   26  O2  UNL     1       7.712   9.101  17.150  1.00  0.00    -0.271 OA
BRANCH  26  27
HETATM   27  C13 UNL     1       9.016   9.652  17.012  1.00  0.00     0.303 C 
BRANCH  27  28
HETATM   28  C14 UNL     1       9.077  11.077  17.562  1.00  0.00     0.244 C 
HETATM   29  O3  UNL     1       8.349  11.985  17.168  1.00  0.00    -0.271 OA
HETATM   30  N2  UNL     1      10.061  11.285  18.515  1.00  0.00    -0.346 N 
HETATM   31  H16 UNL     1      10.267  10.491  19.112  1.00  0.00     0.163 HD
BRANCH  30  32
HETATM   32  C15 UNL     1      10.197  12.600  19.149  1.00  0.00     0.180 C 
BRANCH  32  33
HETATM   33  C16 UNL     1       9.441  12.554  20.501  1.00  0.00     0.241 C 
HETATM   34  O4  UNL     1       9.549  11.601  21.274  1.00  0.00    -0.271 OA
HETATM   35  N3  UNL     1       8.680  13.666  20.780  1.00  0.00    -0.344 N 
HETATM   36  H18 UNL     1       8.452  14.292  20.010  1.00  0.00     0.163 HD
BRANCH  35  37
HETATM   37  C17 UNL     1       7.734  13.679  21.905  1.00  0.00     0.186 C 
BRANCH  37  38
HETATM   38  C18 UNL     1       8.553  13.880  23.185  1.00  0.00     0.163 C 
HETATM   39  O5  UNL     1       8.734  14.949  23.755  1.00  0.00    -0.648 OA
BRANCH  38  40
HETATM   40  O6  UNL     1       9.080  12.748  23.683  1.00  0.00    -0.775 OA
HETATM   41  H20 UNL     1       9.545  13.039  24.497  1.00  0.00     0.167 HD
ENDBRANCH  38  40
ENDBRANCH  37  38
BRANCH  37  42
HETATM   42  C19 UNL     1       6.829  12.424  21.919  1.00  0.00     0.014 C 
HETATM   43  C20 UNL     1       6.141  12.245  20.554  1.00  0.00     0.012 C 
BRANCH  42  44
HETATM   44  C21 UNL     1       5.755  12.388  23.030  1.00  0.00     0.002 C 
HETATM   45  C22 UNL     1       4.928  11.115  23.074  1.00  0.00     0.005 C 
ENDBRANCH  42  44
ENDBRANCH  37  42
ENDBRANCH  35  37
ENDBRANCH  32  33
BRANCH  32  46
HETATM   46  C23 UNL     1      11.691  12.985  19.280  1.00  0.00     0.009 C 
HETATM   47  C24 UNL     1      12.525  11.837  19.853  1.00  0.00     0.012 C 
HETATM   48  C25 UNL     1      12.320  13.492  17.980  1.00  0.00     0.012 C 
ENDBRANCH  32  46
ENDBRANCH  30  32
ENDBRANCH  27  28
ENDBRANCH  26  27
ENDBRANCH  13  26
TORSDOF 12
ENDMDL
MODEL 6
REMARK minimizedAffinity -7.84650087
REMARK CNNscore 0.237025887
REMARK CNNaffinity 6.86744356
REMARK  12 active torsions:
REMARK  status: ('A' for Active; 'I' for Inactive)
REMARK    1  A    between atoms: C3_3  and  O1_4 
REMARK    2  A    between atoms: N1_14  and  O2_16 
REMARK    3  A    between atoms: O2_16  and  C13_17 
REMARK    4  A    between atoms: C13_17  and  C14_18 
REMARK       I    between atoms: C14_18  and  N2_20 
REMARK    5  A    between atoms: N2_20  and  C15_21 
REMARK    6  A    between atoms: C15_21  and  C16_22 
REMARK    7  A    between atoms: C15_21  and  C23_33 
REMARK       I    between atoms: C16_22  and  N3_24 
REMARK    8  A    between atoms: N3_24  and  C17_25 
REMARK    9  A    between atoms: C17_25  and  C18_26 
REMARK   10  A    between atoms: C17_25  and  C19_29 
REMARK   11  A    between atoms: C18_26  and  O6_28 
REMARK   12  A    between atoms: C19_29  and  C21_31 
ROOT
HETATM    1  C1  UNL     1      -9.478   7.300  15.904  1.00  0.00     0.015 C 
HETATM    2  C2  UNL     1      -8.391   6.915  15.581  1.00  0.00    -0.078 C 
HETATM    3  C3  UNL     1      -7.065   6.392  15.187  1.00  0.00     0.128 C 
HETATM    4  C4  UNL     1      -6.992   4.866  15.415  1.00  0.00     0.052 C 
HETATM    5  C5  UNL     1      -6.578   4.230  14.085  1.00  0.00     0.010 C 
HETATM    6  C6  UNL     1      -5.882   5.344  13.293  1.00  0.00     0.002 C 
HETATM    7  C7  UNL     1      -4.331   5.390  13.442  1.00  0.00    -0.004 C 
HETATM    8  C8  UNL     1      -3.772   5.052  14.839  1.00  0.00     0.010 C 
HETATM    9  C9  UNL     1      -2.248   5.012  14.854  1.00  0.00     0.035 C 
HETATM   10  C10 UNL     1      -1.652   6.291  14.325  1.00  0.00    -0.069 C 
HETATM   11  C11 UNL     1      -0.728   6.948  15.050  1.00  0.00     0.030 C 
HETATM   12  C12 UNL     1      -0.017   8.132  14.501  1.00  0.00     0.032 C 
HETATM   13  N1  UNL     1       0.646   8.877  15.336  1.00  0.00    -0.271 N 
ATOM     14  H1  UNL     1       0.665   8.719  16.343  1.00  0.00     0.194 HD
HETATM   15  C26 UNL     1      -0.116   8.356  13.007  1.00  0.00     0.060 C 
HETATM   16  C27 UNL     1      -1.581   8.172  12.613  1.00  0.00     0.020 C 
HETATM   17  C28 UNL     1      -2.144   6.752  12.951  1.00  0.00    -0.016 C 
HETATM   18  C29 UNL     1      -1.587   5.780  11.873  1.00  0.00     0.020 C 
HETATM   19  C30 UNL     1      -3.734   6.722  12.895  1.00  0.00     0.002 C 
HETATM   20  C31 UNL     1      -4.431   7.898  13.615  1.00  0.00     0.007 C 
HETATM   21  C32 UNL     1      -5.942   7.916  13.372  1.00  0.00     0.014 C 
HETATM   22  C33 UNL     1      -6.702   6.612  13.675  1.00  0.00     0.003 C 
HETATM   23  C34 UNL     1      -7.989   6.631  12.789  1.00  0.00     0.020 C 
ENDROOT
BRANCH   3  24
HETATM   24  O1  UNL     1      -6.100   7.013  16.029  1.00  0.00    -0.377 OA
HETATM   25  H2  UNL     1      -6.483   7.071  16.920  1.00  0.00     0.211 HD
ENDBRANCH   3  24
BRANCH  13  26
HETATM   26  O2  UNL     1       1.330   9.922  14.701  1.00  0.00    -0.271 OA
BRANCH  26  27
HETATM   27  C13 UNL     1       0.698  11.150  15.044  1.00  0.00     0.303 C 
BRANCH  27  28
HETATM   28  C14 UNL     1       1.027  11.560  16.479  1.00  0.00     0.244 C 
HETATM   29  O3  UNL     1       1.878  12.400  16.763  1.00  0.00    -0.271 OA
HETATM   30  N2  UNL     1       0.323  10.869  17.452  1.00  0.00    -0.346 N 
HETATM   31  H16 UNL     1      -0.619  10.591  17.197  1.00  0.00     0.163 HD
BRANCH  30  32
HETATM   32  C15 UNL     1       0.521  11.195  18.867  1.00  0.00     0.180 C 
BRANCH  32  33
HETATM   33  C16 UNL     1       1.808  10.475  19.344  1.00  0.00     0.241 C 
HETATM   34  O4  UNL     1       2.580   9.933  18.552  1.00  0.00    -0.271 OA
HETATM   35  N3  UNL     1       2.034  10.523  20.700  1.00  0.00    -0.344 N 
HETATM   36  H18 UNL     1       1.253  10.774  21.304  1.00  0.00     0.163 HD
BRANCH  35  37
HETATM   37  C17 UNL     1       3.080   9.703  21.328  1.00  0.00     0.186 C 
BRANCH  37  38
HETATM   38  C18 UNL     1       2.377   8.701  22.251  1.00  0.00     0.163 C 
HETATM   39  O5  UNL     1       1.188   8.409  22.212  1.00  0.00    -0.648 OA
BRANCH  38  40
HETATM   40  O6  UNL     1       3.191   8.116  23.148  1.00  0.00    -0.775 OA
HETATM   41  H20 UNL     1       2.604   7.498  23.635  1.00  0.00     0.167 HD
ENDBRANCH  38  40
ENDBRANCH  37  38
BRANCH  37  42
HETATM   42  C19 UNL     1       4.154  10.569  22.030  1.00  0.00     0.014 C 
HETATM   43  C20 UNL     1       4.329  10.123  23.492  1.00  0.00     0.012 C 
BRANCH  42  44
HETATM   44  C21 UNL     1       3.905  12.095  21.998  1.00  0.00     0.002 C 
HETATM   45  C22 UNL     1       3.231  12.655  23.238  1.00  0.00     0.005 C 
ENDBRANCH  42  44
ENDBRANCH  37  42
ENDBRANCH  35  37
ENDBRANCH  32  33
BRANCH  32  46
HETATM   46  C23 UNL     1       0.551  12.730  19.070  1.00  0.00     0.009 C 
HETATM   47  C24 UNL     1      -0.819  13.363  18.819  1.00  0.00     0.012 C 
HETATM   48  C25 UNL     1       1.089  13.167  20.435  1.00  0.00     0.012 C 
ENDBRANCH  32  46
ENDBRANCH  30  32
ENDBRANCH  27  28
ENDBRANCH  26  27
ENDBRANCH  13  26
TORSDOF 12
ENDMDL
MODEL 7
REMARK minimizedAffinity -8.16499519
REMARK CNNscore 0.230093986
REMARK CNNaffinity 5.48589754
REMARK  12 active torsions:
REMARK  status: ('A' for Active; 'I' for Inactive)
REMARK    1  A    between atoms: C3_3  and  O1_4 
REMARK    2  A    between atoms: N1_14  and  O2_16 
REMARK    3  A    between atoms: O2_16  and  C13_17 
REMARK    4  A    between atoms: C13_17  and  C14_18 
REMARK       I    between atoms: C14_18  and  N2_20 
REMARK    5  A    between atoms: N2_20  and  C15_21 
REMARK    6  A    between atoms: C15_21  and  C16_22 
REMARK    7  A    between atoms: C15_21  and  C23_33 
REMARK       I    between atoms: C16_22  and  N3_24 
REMARK    8  A    between atoms: N3_24  and  C17_25 
REMARK    9  A    between atoms: C17_25  and  C18_26 
REMARK   10  A    between atoms: C17_25  and  C19_29 
REMARK   11  A    between atoms: C18_26  and  O6_28 
REMARK   12  A    between atoms: C19_29  and  C21_31 
ROOT
HETATM    1  C1  UNL     1       2.146   6.670   7.016  1.00  0.00     0.015 C 
HETATM    2  C2  UNL     1       2.526   7.069   8.080  1.00  0.00    -0.078 C 
HETATM    3  C3  UNL     1       2.947   7.574   9.405  1.00  0.00     0.128 C 
HETATM    4  C4  UNL     1       1.787   8.327  10.094  1.00  0.00     0.052 C 
HETATM    5  C5  UNL     1       1.582   7.680  11.467  1.00  0.00     0.010 C 
HETATM    6  C6  UNL     1       2.909   6.989  11.801  1.00  0.00     0.002 C 
HETATM    7  C7  UNL     1       3.901   7.839  12.653  1.00  0.00    -0.004 C 
HETATM    8  C8  UNL     1       3.942   9.349  12.341  1.00  0.00     0.010 C 
HETATM    9  C9  UNL     1       4.853  10.108  13.299  1.00  0.00     0.035 C 
HETATM   10  C10 UNL     1       6.240   9.522  13.330  1.00  0.00    -0.069 C 
HETATM   11  C11 UNL     1       7.308  10.319  13.138  1.00  0.00     0.030 C 
HETATM   12  C12 UNL     1       8.692   9.806  13.301  1.00  0.00     0.032 C 
HETATM   13  N1  UNL     1       9.664  10.534  12.835  1.00  0.00    -0.271 N 
ATOM     14  H1  UNL     1       9.524  11.408  12.329  1.00  0.00     0.194 HD
HETATM   15  C26 UNL     1       8.850   8.480  14.014  1.00  0.00     0.060 C 
HETATM   16  C27 UNL     1       7.810   7.522  13.432  1.00  0.00     0.020 C 
HETATM   17  C28 UNL     1       6.337   8.020  13.606  1.00  0.00    -0.016 C 
HETATM   18  C29 UNL     1       5.949   7.762  15.090  1.00  0.00     0.020 C 
HETATM   19  C30 UNL     1       5.332   7.219  12.668  1.00  0.00     0.002 C 
HETATM   20  C31 UNL     1       5.803   7.051  11.206  1.00  0.00     0.007 C 
HETATM   21  C32 UNL     1       4.890   6.122  10.404  1.00  0.00     0.014 C 
HETATM   22  C33 UNL     1       3.387   6.456  10.418  1.00  0.00     0.003 C 
HETATM   23  C34 UNL     1       2.631   5.119  10.135  1.00  0.00     0.020 C 
ENDROOT
BRANCH   3  24
HETATM   24  O1  UNL     1       4.008   8.497   9.186  1.00  0.00    -0.377 OA
HETATM   25  H2  UNL     1       3.791   9.008   8.389  1.00  0.00     0.211 HD
ENDBRANCH   3  24
BRANCH  13  26
HETATM   26  O2  UNL     1      10.926   9.987  13.104  1.00  0.00    -0.271 OA
BRANCH  26  27
HETATM   27  C13 UNL     1      11.119   9.970  14.514  1.00  0.00     0.303 C 
BRANCH  27  28
HETATM   28  C14 UNL     1      11.893  11.203  14.981  1.00  0.00     0.244 C 
HETATM   29  O3  UNL     1      11.460  12.349  14.884  1.00  0.00    -0.271 OA
HETATM   30  N2  UNL     1      13.156  10.934  15.483  1.00  0.00    -0.346 N 
HETATM   31  H16 UNL     1      13.257  10.047  15.965  1.00  0.00     0.163 HD
BRANCH  30  32
HETATM   32  C15 UNL     1      13.985  12.027  15.999  1.00  0.00     0.180 C 
BRANCH  32  33
HETATM   33  C16 UNL     1      14.444  11.639  17.428  1.00  0.00     0.241 C 
HETATM   34  O4  UNL     1      13.791  10.870  18.134  1.00  0.00    -0.271 OA
HETATM   35  N3  UNL     1      15.643  12.186  17.822  1.00  0.00    -0.344 N 
HETATM   36  H18 UNL     1      16.000  12.981  17.295  1.00  0.00     0.163 HD
BRANCH  35  37
HETATM   37  C17 UNL     1      16.099  12.098  19.217  1.00  0.00     0.186 C 
BRANCH  37  38
HETATM   38  C18 UNL     1      15.134  12.935  20.064  1.00  0.00     0.163 C 
HETATM   39  O5  UNL     1      14.978  14.147  19.977  1.00  0.00    -0.648 OA
BRANCH  38  40
HETATM   40  O6  UNL     1      14.417  12.220  20.948  1.00  0.00    -0.775 OA
HETATM   41  H20 UNL     1      13.843  12.886  21.385  1.00  0.00     0.167 HD
ENDBRANCH  38  40
ENDBRANCH  37  38
BRANCH  37  42
HETATM   42  C19 UNL     1      17.587  12.495  19.368  1.00  0.00     0.014 C 
HETATM   43  C20 UNL     1      17.770  13.997  19.091  1.00  0.00     0.012 C 
BRANCH  42  44
HETATM   44  C21 UNL     1      18.582  11.699  18.492  1.00  0.00     0.002 C 
HETATM   45  C22 UNL     1      19.118  12.457  17.290  1.00  0.00     0.005 C 
ENDBRANCH  42  44
ENDBRANCH  37  42
ENDBRANCH  35  37
ENDBRANCH  32  33
BRANCH  32  46
HETATM   46  C23 UNL     1      15.152  12.328  15.027  1.00  0.00     0.009 C 
HETATM   47  C24 UNL     1      15.391  11.172  14.053  1.00  0.00     0.012 C 
HETATM   48  C25 UNL     1      14.997  13.641  14.256  1.00  0.00     0.012 C 
ENDBRANCH  32  46
ENDBRANCH  30  32
ENDBRANCH  27  28
ENDBRANCH  26  27
ENDBRANCH  13  26
TORSDOF 12
ENDMDL
MODEL 8
REMARK minimizedAffinity -7.76728249
REMARK CNNscore 0.225506961
REMARK CNNaffinity 5.77062845
REMARK  12 active torsions:
REMARK  status: ('A' for Active; 'I' for Inactive)
REMARK    1  A    between atoms: C3_3  and  O1_4 
REMARK    2  A    between atoms: N1_14  and  O2_16 
REMARK    3  A    between atoms: O2_16  and  C13_17 
REMARK    4  A    between atoms: C13_17  and  C14_18 
REMARK       I    between atoms: C14_18  and  N2_20 
REMARK    5  A    between atoms: N2_20  and  C15_21 
REMARK    6  A    between atoms: C15_21  and  C16_22 
REMARK    7  A    between atoms: C15_21  and  C23_33 
REMARK       I    between atoms: C16_22  and  N3_24 
REMARK    8  A    between atoms: N3_24  and  C17_25 
REMARK    9  A    between atoms: C17_25  and  C18_26 
REMARK   10  A    between atoms: C17_25  and  C19_29 
REMARK   11  A    between atoms: C18_26  and  O6_28 
REMARK   12  A    between atoms: C19_29  and  C21_31 
ROOT
HETATM    1  C1  UNL     1      11.056  13.007  19.722  1.00  0.00     0.015 C 
HETATM    2  C2  UNL     1      10.006  12.834  20.272  1.00  0.00    -0.078 C 
HETATM    3  C3  UNL     1       8.734  12.611  20.994  1.00  0.00     0.128 C 
HETATM    4  C4  UNL     1       9.000  11.990  22.383  1.00  0.00     0.052 C 
HETATM    5  C5  UNL     1       8.322  12.893  23.417  1.00  0.00     0.010 C 
HETATM    6  C6  UNL     1       7.238  13.660  22.650  1.00  0.00     0.002 C 
HETATM    7  C7  UNL     1       5.820  13.013  22.687  1.00  0.00    -0.004 C 
HETATM    8  C8  UNL     1       5.774  11.473  22.638  1.00  0.00     0.010 C 
HETATM    9  C9  UNL     1       4.356  10.935  22.794  1.00  0.00     0.035 C 
HETATM   10  C10 UNL     1       3.417  11.539  21.783  1.00  0.00    -0.069 C 
HETATM   11  C11 UNL     1       2.654  10.739  21.017  1.00  0.00     0.030 C 
HETATM   12  C12 UNL     1       1.616  11.298  20.112  1.00  0.00     0.032 C 
HETATM   13  N1  UNL     1       1.116  10.508  19.207  1.00  0.00    -0.271 N 
ATOM     14  H1  UNL     1       1.428   9.549  19.059  1.00  0.00     0.194 HD
HETATM   15  C26 UNL     1       1.221  12.742  20.336  1.00  0.00     0.060 C 
HETATM   16  C27 UNL     1       2.509  13.547  20.509  1.00  0.00     0.020 C 
HETATM   17  C28 UNL     1       3.386  13.068  21.714  1.00  0.00    -0.016 C 
HETATM   18  C29 UNL     1       2.708  13.609  23.005  1.00  0.00     0.020 C 
HETATM   19  C30 UNL     1       4.865  13.649  21.631  1.00  0.00     0.002 C 
HETATM   20  C31 UNL     1       5.531  13.530  20.242  1.00  0.00     0.007 C 
HETATM   21  C32 UNL     1       6.871  14.265  20.175  1.00  0.00     0.014 C 
HETATM   22  C33 UNL     1       7.902  13.915  21.264  1.00  0.00     0.003 C 
HETATM   23  C34 UNL     1       8.840  15.156  21.406  1.00  0.00     0.020 C 
ENDROOT
BRANCH   3  24
HETATM   24  O1  UNL     1       7.975  11.681  20.230  1.00  0.00    -0.377 OA
HETATM   25  H2  UNL     1       8.591  11.018  19.879  1.00  0.00     0.211 HD
ENDBRANCH   3  24
BRANCH  13  26
HETATM   26  O2  UNL     1       0.102  11.119  18.458  1.00  0.00    -0.271 OA
BRANCH  26  27
HETATM   27  C13 UNL     1      -0.315  10.215  17.441  1.00  0.00     0.303 C 
BRANCH  27  28
HETATM   28  C14 UNL     1       0.880   9.672  16.658  1.00  0.00     0.244 C 
HETATM   29  O3  UNL     1       1.704   8.895  17.136  1.00  0.00    -0.271 OA
HETATM   30  N2  UNL     1       0.996  10.166  15.369  1.00  0.00    -0.346 N 
HETATM   31  H16 UNL     1       0.121  10.374  14.899  1.00  0.00     0.163 HD
BRANCH  30  32
HETATM   32  C15 UNL     1       2.079   9.694  14.501  1.00  0.00     0.180 C 
BRANCH  32  33
HETATM   33  C16 UNL     1       1.436   8.941  13.308  1.00  0.00     0.241 C 
HETATM   34  O4  UNL     1       0.218   8.783  13.221  1.00  0.00    -0.271 OA
HETATM   35  N3  UNL     1       2.321   8.505  12.351  1.00  0.00    -0.344 N 
HETATM   36  H18 UNL     1       3.308   8.460  12.599  1.00  0.00     0.163 HD
BRANCH  35  37
HETATM   37  C17 UNL     1       1.898   7.587  11.283  1.00  0.00     0.186 C 
BRANCH  37  38
HETATM   38  C18 UNL     1       2.899   6.426  11.260  1.00  0.00     0.163 C 
HETATM   39  O5  UNL     1       2.819   5.430  10.551  1.00  0.00    -0.648 OA
BRANCH  38  40
HETATM   40  O6  UNL     1       3.938   6.580  12.100  1.00  0.00    -0.775 OA
HETATM   41  H20 UNL     1       4.487   5.779  11.949  1.00  0.00     0.167 HD
ENDBRANCH  38  40
ENDBRANCH  37  38
BRANCH  37  42
HETATM   42  C19 UNL     1       1.732   8.311   9.926  1.00  0.00     0.014 C 
HETATM   43  C20 UNL     1       0.298   8.133   9.396  1.00  0.00     0.012 C 
BRANCH  42  44
HETATM   44  C21 UNL     1       2.730   7.894   8.820  1.00  0.00     0.002 C 
HETATM   45  C22 UNL     1       2.088   7.325   7.567  1.00  0.00     0.005 C 
ENDBRANCH  42  44
ENDBRANCH  37  42
ENDBRANCH  35  37
ENDBRANCH  32  33
BRANCH  32  46
HETATM   46  C23 UNL     1       2.988  10.874  14.079  1.00  0.00     0.009 C 
HETATM   47  C24 UNL     1       2.482  12.207  14.635  1.00  0.00     0.012 C 
HETATM   48  C25 UNL     1       4.464  10.682  14.438  1.00  0.00     0.012 C 
ENDBRANCH  32  46
ENDBRANCH  30  32
ENDBRANCH  27  28
ENDBRANCH  26  27
ENDBRANCH  13  26
TORSDOF 12
ENDMDL
MODEL 9
REMARK minimizedAffinity -7.86235285
REMARK CNNscore 0.218432903
REMARK CNNaffinity 5.66095734
REMARK  12 active torsions:
REMARK  status: ('A' for Active; 'I' for Inactive)
REMARK    1  A    between atoms: C3_3  and  O1_4 
REMARK    2  A    between atoms: N1_14  and  O2_16 
REMARK    3  A    between atoms: O2_16  and  C13_17 
REMARK    4  A    between atoms: C13_17  and  C14_18 
REMARK       I    between atoms: C14_18  and  N2_20 
REMARK    5  A    between atoms: N2_20  and  C15_21 
REMARK    6  A    between atoms: C15_21  and  C16_22 
REMARK    7  A    between atoms: C15_21  and  C23_33 
REMARK       I    between atoms: C16_22  and  N3_24 
REMARK    8  A    between atoms: N3_24  and  C17_25 
REMARK    9  A    between atoms: C17_25  and  C18_26 
REMARK   10  A    between atoms: C17_25  and  C19_29 
REMARK   11  A    between atoms: C18_26  and  O6_28 
REMARK   12  A    between atoms: C19_29  and  C21_31 
ROOT
HETATM    1  C1  UNL     1      10.900  13.085  19.612  1.00  0.00     0.015 C 
HETATM    2  C2  UNL     1       9.867  12.873  20.181  1.00  0.00    -0.078 C 
HETATM    3  C3  UNL     1       8.619  12.597  20.924  1.00  0.00     0.128 C 
HETATM    4  C4  UNL     1       8.926  11.879  22.257  1.00  0.00     0.052 C 
HETATM    5  C5  UNL     1       8.282  12.705  23.374  1.00  0.00     0.010 C 
HETATM    6  C6  UNL     1       7.176  13.524  22.697  1.00  0.00     0.002 C 
HETATM    7  C7  UNL     1       5.759  12.874  22.733  1.00  0.00    -0.004 C 
HETATM    8  C8  UNL     1       5.710  11.342  22.575  1.00  0.00     0.010 C 
HETATM    9  C9  UNL     1       4.296  10.792  22.737  1.00  0.00     0.035 C 
HETATM   10  C10 UNL     1       3.327  11.466  21.801  1.00  0.00    -0.069 C 
HETATM   11  C11 UNL     1       2.539  10.721  21.004  1.00  0.00     0.030 C 
HETATM   12  C12 UNL     1       1.475  11.342  20.173  1.00  0.00     0.032 C 
HETATM   13  N1  UNL     1       0.946  10.619  19.231  1.00  0.00    -0.271 N 
ATOM     14  H1  UNL     1       1.252   9.673  19.005  1.00  0.00     0.194 HD
HETATM   15  C26 UNL     1       1.089  12.766  20.512  1.00  0.00     0.060 C 
HETATM   16  C27 UNL     1       2.382  13.558  20.703  1.00  0.00     0.020 C 
HETATM   17  C28 UNL     1       3.295  12.996  21.843  1.00  0.00    -0.016 C 
HETATM   18  C29 UNL     1       2.658  13.442  23.189  1.00  0.00     0.020 C 
HETATM   19  C30 UNL     1       4.772  13.582  21.754  1.00  0.00     0.002 C 
HETATM   20  C31 UNL     1       5.394  13.564  20.340  1.00  0.00     0.007 C 
HETATM   21  C32 UNL     1       6.733  14.304  20.285  1.00  0.00     0.014 C 
HETATM   22  C33 UNL     1       7.796  13.878  21.313  1.00  0.00     0.003 C 
HETATM   23  C34 UNL     1       8.739  15.107  21.514  1.00  0.00     0.020 C 
ENDROOT
BRANCH   3  24
HETATM   24  O1  UNL     1       7.834  11.723  20.120  1.00  0.00    -0.377 OA
HETATM   25  H2  UNL     1       8.439  11.087  19.704  1.00  0.00     0.211 HD
ENDBRANCH   3  24
BRANCH  13  26
HETATM   26  O2  UNL     1      -0.090  11.281  18.559  1.00  0.00    -0.271 OA
BRANCH  26  27
HETATM   27  C13 UNL     1      -1.075  10.321  18.192  1.00  0.00     0.303 C 
BRANCH  27  28
HETATM   28  C14 UNL     1      -1.449  10.449  16.716  1.00  0.00     0.244 C 
HETATM   29  O3  UNL     1      -1.536  11.526  16.131  1.00  0.00    -0.271 OA
HETATM   30  N2  UNL     1      -1.737   9.247  16.089  1.00  0.00    -0.346 N 
HETATM   31  H16 UNL     1      -1.217   8.443  16.423  1.00  0.00     0.163 HD
BRANCH  30  32
HETATM   32  C15 UNL     1      -2.073   9.230  14.662  1.00  0.00     0.180 C 
BRANCH  32  33
HETATM   33  C16 UNL     1      -1.131   8.215  13.966  1.00  0.00     0.241 C 
HETATM   34  O4  UNL     1      -0.532   8.492  12.926  1.00  0.00    -0.271 OA
HETATM   35  N3  UNL     1      -0.990   7.011  14.617  1.00  0.00    -0.344 N 
HETATM   36  H18 UNL     1      -1.681   6.768  15.324  1.00  0.00     0.163 HD
BRANCH  35  37
HETATM   37  C17 UNL     1      -0.317   5.872  13.975  1.00  0.00     0.186 C 
BRANCH  37  38
HETATM   38  C18 UNL     1       1.101   6.328  13.612  1.00  0.00     0.163 C 
HETATM   39  O5  UNL     1       1.456   6.746  12.517  1.00  0.00    -0.648 OA
BRANCH  38  40
HETATM   40  O6  UNL     1       1.979   6.253  14.628  1.00  0.00    -0.775 OA
HETATM   41  H20 UNL     1       2.816   6.596  14.246  1.00  0.00     0.167 HD
ENDBRANCH  38  40
ENDBRANCH  37  38
BRANCH  37  42
HETATM   42  C19 UNL     1      -1.130   5.313  12.784  1.00  0.00     0.014 C 
HETATM   43  C20 UNL     1      -0.535   5.804  11.452  1.00  0.00     0.012 C 
BRANCH  42  44
HETATM   44  C21 UNL     1      -2.644   5.629  12.802  1.00  0.00     0.002 C 
HETATM   45  C22 UNL     1      -3.497   4.608  13.535  1.00  0.00     0.005 C 
ENDBRANCH  42  44
ENDBRANCH  37  42
ENDBRANCH  35  37
ENDBRANCH  32  33
BRANCH  32  46
HETATM   46  C23 UNL     1      -3.578   8.923  14.464  1.00  0.00     0.009 C 
HETATM   47  C24 UNL     1      -3.902   8.589  13.006  1.00  0.00     0.012 C 
HETATM   48  C25 UNL     1      -4.117   7.827  15.386  1.00  0.00     0.012 C 
ENDBRANCH  32  46
ENDBRANCH  30  32
ENDBRANCH  27  28
ENDBRANCH  26  27
ENDBRANCH  13  26
TORSDOF 12
ENDMDL
