MODEL 1
REMARK minimizedAffinity -9.80391979
REMARK  4 active torsions:
REMARK  status: ('A' for Active; 'I' for Inactive)
REMARK    1  A    between atoms: O1_2  and  C2_3 
REMARK    2  A    between atoms: C6_9  and  C7_10 
REMARK       I    between atoms: C7_10  and  N2_12 
REMARK    3  A    between atoms: C23_29  and  O3_30 
REMARK    4  A    between atoms: C26_33  and  O4_34 
ROOT
HETATM    1  C7  UNL     1      -3.552  51.432 -22.267  1.00  0.00     0.258 C 
HETATM    2  O2  UNL     1      -3.937  52.570 -22.527  1.00  0.00    -0.267 OA
HETATM    3  N2  UNL     1      -3.431  50.426 -23.225  1.00  0.00    -0.339 N 
HETATM    4  C8  UNL     1      -3.284  48.997 -22.915  1.00  0.00     0.127 C 
HETATM    5  C9  UNL     1      -4.341  48.179 -23.641  1.00  0.00     0.024 C 
HETATM    6  C10 UNL     1      -4.188  48.284 -25.155  1.00  0.00     0.037 C 
HETATM    7  C11 UNL     1      -3.530  49.565 -25.587  1.00  0.00    -0.060 C 
HETATM    8  C12 UNL     1      -2.739  49.624 -26.712  1.00  0.00    -0.015 C 
HETATM    9  C13 UNL     1      -2.124  50.957 -27.269  1.00  0.00     0.031 C 
HETATM   10  C14 UNL     1      -2.986  52.011 -26.638  1.00  0.00     0.019 C 
HETATM   11  C15 UNL     1      -2.620  51.742 -25.169  1.00  0.00     0.031 C 
HETATM   12  C16 UNL     1      -1.571  52.755 -24.830  1.00  0.00     0.124 C 
HETATM   13  N3  UNL     1      -0.422  52.411 -25.752  1.00  0.00    -0.407 N 
HETATM   14  C17 UNL     1       0.430  53.541 -26.085  1.00  0.00     0.117 C 
HETATM   15  C18 UNL     1       0.042  54.189 -27.410  1.00  0.00     0.019 C 
HETATM   16  C19 UNL     1      -0.095  53.186 -28.557  1.00  0.00     0.004 C 
HETATM   17  C20 UNL     1       0.184  51.752 -28.116  1.00  0.00     0.026 C 
HETATM   18  C21 UNL     1      -0.614  51.365 -26.856  1.00  0.00     0.086 C 
HETATM   19  C22 UNL     1      -3.686  50.813 -24.617  1.00  0.00     0.122 C 
ENDROOT
BRANCH   1  20
HETATM   20  C6  UNL     1      -3.139  51.155 -20.887  1.00  0.00     0.081 A 
HETATM   21  C5  UNL     1      -4.094  50.698 -19.998  1.00  0.00     0.108 A 
HETATM   22  N1  UNL     1      -3.833  50.406 -18.701  1.00  0.00    -0.364 N 
HETATM   23  C4  UNL     1      -2.583  50.607 -18.242  1.00  0.00     0.048 A 
ATOM     24  H1  UNL     1      -4.564  50.045 -18.089  1.00  0.00     0.165 HD
HETATM   25  C3  UNL     1      -2.310  50.320 -16.912  1.00  0.00     0.070 A 
HETATM   26  C24 UNL     1      -1.544  51.098 -19.059  1.00  0.00     0.028 A 
HETATM   27  C2  UNL     1      -1.038  50.513 -16.358  1.00  0.00     0.103 A 
HETATM   28  C26 UNL     1      -0.000  51.010 -17.163  1.00  0.00     0.102 A 
HETATM   29  C25 UNL     1      -0.259  51.295 -18.506  1.00  0.00     0.056 A 
HETATM   30  C23 UNL     1      -1.849  51.375 -20.407  1.00  0.00     0.095 A 
BRANCH  27  31
HETATM   31  O1  UNL     1      -0.716  50.260 -15.047  1.00  0.00    -0.353 OA
HETATM   32  C1  UNL     1      -1.190  51.170 -14.064  1.00  0.00     0.210 C 
ENDBRANCH  27  31
BRANCH  28  33
HETATM   33  O4  UNL     1       1.218  51.171 -16.555  1.00  0.00    -0.353 OA
HETATM   34  C27 UNL     1       1.797  52.469 -16.575  1.00  0.00     0.210 C 
ENDBRANCH  28  33
BRANCH  30  35
HETATM   35  O3  UNL     1      -0.843  51.870 -21.205  1.00  0.00    -0.359 OA
HETATM   36  H29 UNL     1      -1.184  52.082 -22.093  1.00  0.00     0.217 HD
ENDBRANCH  30  35
ENDBRANCH   1  20
TORSDOF 4
ENDMDL
MODEL 2
REMARK minimizedAffinity -9.25985336
REMARK  4 active torsions:
REMARK  status: ('A' for Active; 'I' for Inactive)
REMARK    1  A    between atoms: O1_2  and  C2_3 
REMARK    2  A    between atoms: C6_9  and  C7_10 
REMARK       I    between atoms: C7_10  and  N2_12 
REMARK    3  A    between atoms: C23_29  and  O3_30 
REMARK    4  A    between atoms: C26_33  and  O4_34 
ROOT
HETATM    1  C7  UNL     1      -2.282  50.759 -20.680  1.00  0.00     0.258 C 
HETATM    2  O2  UNL     1      -2.603  51.942 -20.769  1.00  0.00    -0.267 OA
HETATM    3  N2  UNL     1      -2.505  49.825 -21.691  1.00  0.00    -0.339 N 
HETATM    4  C8  UNL     1      -2.430  48.369 -21.507  1.00  0.00     0.127 C 
HETATM    5  C9  UNL     1      -3.711  47.701 -21.982  1.00  0.00     0.024 C 
HETATM    6  C10 UNL     1      -3.931  47.911 -23.477  1.00  0.00     0.037 C 
HETATM    7  C11 UNL     1      -3.277  49.164 -23.992  1.00  0.00    -0.060 C 
HETATM    8  C12 UNL     1      -2.789  49.244 -25.277  1.00  0.00    -0.015 C 
HETATM    9  C13 UNL     1      -2.202  50.561 -25.899  1.00  0.00     0.031 C 
HETATM   10  C14 UNL     1      -2.769  51.631 -25.011  1.00  0.00     0.019 C 
HETATM   11  C15 UNL     1      -2.077  51.217 -23.702  1.00  0.00     0.031 C 
HETATM   12  C16 UNL     1      -0.880  52.110 -23.588  1.00  0.00     0.124 C 
HETATM   13  N3  UNL     1      -0.038  51.744 -24.790  1.00  0.00    -0.407 N 
HETATM   14  C17 UNL     1       0.813  52.823 -25.267  1.00  0.00     0.117 C 
HETATM   15  C18 UNL     1       0.173  53.603 -26.411  1.00  0.00     0.019 C 
HETATM   16  C19 UNL     1      -0.346  52.707 -27.538  1.00  0.00     0.004 C 
HETATM   17  C20 UNL     1      -0.110  51.226 -27.263  1.00  0.00     0.026 C 
HETATM   18  C21 UNL     1      -0.603  50.808 -25.864  1.00  0.00     0.086 C 
HETATM   19  C22 UNL     1      -3.059  50.340 -22.947  1.00  0.00     0.122 C 
ENDROOT
BRANCH   1  20
HETATM   20  C6  UNL     1      -1.567  50.341 -19.468  1.00  0.00     0.081 A 
HETATM   21  C5  UNL     1      -1.832  49.086 -18.953  1.00  0.00     0.108 A 
HETATM   22  N1  UNL     1      -1.235  48.588 -17.844  1.00  0.00    -0.364 N 
HETATM   23  C4  UNL     1      -0.361  49.374 -17.185  1.00  0.00     0.048 A 
ATOM     24  H1  UNL     1      -1.441  47.645 -17.517  1.00  0.00     0.165 HD
HETATM   25  C3  UNL     1       0.247  48.875 -16.041  1.00  0.00     0.070 A 
HETATM   26  C24 UNL     1      -0.045  50.680 -17.609  1.00  0.00     0.028 A 
HETATM   27  C2  UNL     1       1.157  49.635 -15.295  1.00  0.00     0.103 A 
HETATM   28  C26 UNL     1       1.471  50.941 -15.706  1.00  0.00     0.102 A 
HETATM   29  C25 UNL     1       0.872  51.451 -16.861  1.00  0.00     0.056 A 
HETATM   30  C23 UNL     1      -0.674  51.158 -18.777  1.00  0.00     0.095 A 
BRANCH  27  31
HETATM   31  O1  UNL     1       1.777  49.199 -14.150  1.00  0.00    -0.353 OA
HETATM   32  C1  UNL     1       0.992  49.108 -12.969  1.00  0.00     0.210 C 
ENDBRANCH  27  31
BRANCH  28  33
HETATM   33  O4  UNL     1       2.370  51.625 -14.929  1.00  0.00    -0.353 OA
HETATM   34  C27 UNL     1       3.497  52.200 -15.578  1.00  0.00     0.210 C 
ENDBRANCH  28  33
BRANCH  30  35
HETATM   35  O3  UNL     1      -0.381  52.438 -19.187  1.00  0.00    -0.359 OA
HETATM   36  H29 UNL     1      -0.920  52.679 -19.964  1.00  0.00     0.217 HD
ENDBRANCH  30  35
ENDBRANCH   1  20
TORSDOF 4
ENDMDL
MODEL 3
REMARK minimizedAffinity -9.20389462
REMARK  4 active torsions:
REMARK  status: ('A' for Active; 'I' for Inactive)
REMARK    1  A    between atoms: O1_2  and  C2_3 
REMARK    2  A    between atoms: C6_9  and  C7_10 
REMARK       I    between atoms: C7_10  and  N2_12 
REMARK    3  A    between atoms: C23_29  and  O3_30 
REMARK    4  A    between atoms: C26_33  and  O4_34 
ROOT
HETATM    1  C7  UNL     1      -0.154  50.670 -18.212  1.00  0.00     0.258 C 
HETATM    2  O2  UNL     1      -0.297  49.461 -18.376  1.00  0.00    -0.267 OA
HETATM    3  N2  UNL     1      -0.095  51.585 -19.264  1.00  0.00    -0.339 N 
HETATM    4  C8  UNL     1       0.384  52.968 -19.135  1.00  0.00     0.127 C 
HETATM    5  C9  UNL     1       1.481  53.252 -20.149  1.00  0.00     0.024 C 
HETATM    6  C10 UNL     1       0.967  53.132 -21.580  1.00  0.00     0.037 C 
HETATM    7  C11 UNL     1      -0.207  52.199 -21.701  1.00  0.00    -0.060 C 
HETATM    8  C12 UNL     1      -1.191  52.398 -22.642  1.00  0.00    -0.015 C 
HETATM    9  C13 UNL     1      -2.373  51.394 -22.885  1.00  0.00     0.031 C 
HETATM   10  C14 UNL     1      -1.857  50.120 -22.281  1.00  0.00     0.019 C 
HETATM   11  C15 UNL     1      -1.757  50.596 -20.822  1.00  0.00     0.031 C 
HETATM   12  C16 UNL     1      -3.007  50.108 -20.159  1.00  0.00     0.124 C 
HETATM   13  N3  UNL     1      -4.114  50.831 -20.894  1.00  0.00    -0.407 N 
HETATM   14  C17 UNL     1      -5.382  50.119 -20.904  1.00  0.00     0.117 C 
HETATM   15  C18 UNL     1      -5.575  49.296 -22.174  1.00  0.00     0.019 C 
HETATM   16  C19 UNL     1      -5.327  50.094 -23.455  1.00  0.00     0.004 C 
HETATM   17  C20 UNL     1      -4.937  51.542 -23.176  1.00  0.00     0.026 C 
HETATM   18  C21 UNL     1      -3.792  51.648 -22.150  1.00  0.00     0.086 C 
HETATM   19  C22 UNL     1      -0.323  51.050 -20.610  1.00  0.00     0.122 C 
ENDROOT
BRANCH   1  20
HETATM   20  C6  UNL     1      -0.112  51.167 -16.832  1.00  0.00     0.081 A 
HETATM   21  C5  UNL     1       1.071  51.712 -16.370  1.00  0.00     0.108 A 
HETATM   22  N1  UNL     1       1.232  52.205 -15.119  1.00  0.00    -0.364 N 
HETATM   23  C4  UNL     1       0.193  52.126 -14.265  1.00  0.00     0.048 A 
ATOM     24  H1  UNL     1       2.115  52.624 -14.830  1.00  0.00     0.165 HD
HETATM   25  C3  UNL     1       0.352  52.619 -12.977  1.00  0.00     0.070 A 
HETATM   26  C24 UNL     1      -1.047  51.561 -14.628  1.00  0.00     0.028 A 
HETATM   27  C2  UNL     1      -0.677  52.563 -12.030  1.00  0.00     0.103 A 
HETATM   28  C26 UNL     1      -1.912  51.993 -12.381  1.00  0.00     0.102 A 
HETATM   29  C25 UNL     1      -2.089  51.501 -13.676  1.00  0.00     0.056 A 
HETATM   30  C23 UNL     1      -1.181  51.073 -15.944  1.00  0.00     0.095 A 
BRANCH  27  31
HETATM   31  O1  UNL     1      -0.571  53.022 -10.740  1.00  0.00    -0.353 OA
HETATM   32  C1  UNL     1      -0.467  54.425 -10.545  1.00  0.00     0.210 C 
ENDBRANCH  27  31
BRANCH  28  33
HETATM   33  O4  UNL     1      -2.874  51.974 -11.404  1.00  0.00    -0.353 OA
HETATM   34  C27 UNL     1      -3.952  52.894 -11.522  1.00  0.00     0.210 C 
ENDBRANCH  28  33
BRANCH  30  35
HETATM   35  O3  UNL     1      -2.384  50.506 -16.299  1.00  0.00    -0.359 OA
HETATM   36  H29 UNL     1      -2.338  50.149 -17.206  1.00  0.00     0.217 HD
ENDBRANCH  30  35
ENDBRANCH   1  20
TORSDOF 4
ENDMDL
MODEL 4
REMARK minimizedAffinity -9.16134262
REMARK  4 active torsions:
REMARK  status: ('A' for Active; 'I' for Inactive)
REMARK    1  A    between atoms: O1_2  and  C2_3 
REMARK    2  A    between atoms: C6_9  and  C7_10 
REMARK       I    between atoms: C7_10  and  N2_12 
REMARK    3  A    between atoms: C23_29  and  O3_30 
REMARK    4  A    between atoms: C26_33  and  O4_34 
ROOT
HETATM    1  C7  UNL     1      -0.818  50.377 -18.982  1.00  0.00     0.258 C 
HETATM    2  O2  UNL     1      -0.783  49.222 -19.403  1.00  0.00    -0.267 OA
HETATM    3  N2  UNL     1      -0.450  51.483 -19.747  1.00  0.00    -0.339 N 
HETATM    4  C8  UNL     1      -0.176  52.818 -19.198  1.00  0.00     0.127 C 
HETATM    5  C9  UNL     1       1.192  53.312 -19.644  1.00  0.00     0.024 C 
HETATM    6  C10 UNL     1       1.262  53.473 -21.159  1.00  0.00     0.037 C 
HETATM    7  C11 UNL     1       0.306  52.569 -21.887  1.00  0.00    -0.060 C 
HETATM    8  C12 UNL     1      -0.269  52.941 -23.081  1.00  0.00    -0.015 C 
HETATM    9  C13 UNL     1      -1.181  51.992 -23.936  1.00  0.00     0.031 C 
HETATM   10  C14 UNL     1      -0.820  50.629 -23.420  1.00  0.00     0.019 C 
HETATM   11  C15 UNL     1      -1.314  50.806 -21.975  1.00  0.00     0.031 C 
HETATM   12  C16 UNL     1      -2.675  50.181 -21.942  1.00  0.00     0.124 C 
HETATM   13  N3  UNL     1      -3.484  51.023 -22.903  1.00  0.00    -0.407 N 
HETATM   14  C17 UNL     1      -4.590  50.313 -23.527  1.00  0.00     0.117 C 
HETATM   15  C18 UNL     1      -4.221  49.757 -24.899  1.00  0.00     0.019 C 
HETATM   16  C19 UNL     1      -3.582  50.798 -25.820  1.00  0.00     0.004 C 
HETATM   17  C20 UNL     1      -3.452  52.166 -25.158  1.00  0.00     0.026 C 
HETATM   18  C21 UNL     1      -2.788  52.078 -23.770  1.00  0.00     0.086 C 
HETATM   19  C22 UNL     1      -0.110  51.225 -21.150  1.00  0.00     0.122 C 
ENDROOT
BRANCH   1  20
HETATM   20  C6  UNL     1      -1.338  50.589 -17.627  1.00  0.00     0.081 A 
HETATM   21  C5  UNL     1      -2.709  50.592 -17.446  1.00  0.00     0.108 A 
HETATM   22  N1  UNL     1      -3.307  50.774 -16.245  1.00  0.00    -0.364 N 
HETATM   23  C4  UNL     1      -2.525  51.001 -15.172  1.00  0.00     0.048 A 
ATOM     24  H1  UNL     1      -4.322  50.740 -16.155  1.00  0.00     0.165 HD
HETATM   25  C3  UNL     1      -3.130  51.199 -13.939  1.00  0.00     0.070 A 
HETATM   26  C24 UNL     1      -1.118  51.048 -15.254  1.00  0.00     0.028 A 
HETATM   27  C2  UNL     1      -2.386  51.452 -12.780  1.00  0.00     0.103 A 
HETATM   28  C26 UNL     1      -0.984  51.509 -12.855  1.00  0.00     0.102 A 
HETATM   29  C25 UNL     1      -0.362  51.303 -14.089  1.00  0.00     0.056 A 
HETATM   30  C23 UNL     1      -0.531  50.838 -16.519  1.00  0.00     0.095 A 
BRANCH  27  31
HETATM   31  O1  UNL     1      -2.932  51.670 -11.539  1.00  0.00    -0.353 OA
HETATM   32  C1  UNL     1      -3.812  52.775 -11.390  1.00  0.00     0.210 C 
ENDBRANCH  27  31
BRANCH  28  33
HETATM   33  O4  UNL     1      -0.321  51.759 -11.682  1.00  0.00    -0.353 OA
HETATM   34  C27 UNL     1       0.343  53.009 -11.554  1.00  0.00     0.210 C 
ENDBRANCH  28  33
BRANCH  30  35
HETATM   35  O3  UNL     1       0.841  50.898 -16.608  1.00  0.00    -0.359 OA
HETATM   36  H29 UNL     1       1.127  50.801 -17.535  1.00  0.00     0.217 HD
ENDBRANCH  30  35
ENDBRANCH   1  20
TORSDOF 4
ENDMDL
MODEL 5
REMARK minimizedAffinity -8.78915977
REMARK  4 active torsions:
REMARK  status: ('A' for Active; 'I' for Inactive)
REMARK    1  A    between atoms: O1_2  and  C2_3 
REMARK    2  A    between atoms: C6_9  and  C7_10 
REMARK       I    between atoms: C7_10  and  N2_12 
REMARK    3  A    between atoms: C23_29  and  O3_30 
REMARK    4  A    between atoms: C26_33  and  O4_34 
ROOT
HETATM    1  C7  UNL     1      -5.290  50.759 -23.177  1.00  0.00     0.258 C 
HETATM    2  O2  UNL     1      -5.373  51.981 -23.281  1.00  0.00    -0.267 OA
HETATM    3  N2  UNL     1      -4.770  49.938 -24.177  1.00  0.00    -0.339 N 
HETATM    4  C8  UNL     1      -4.942  48.480 -24.226  1.00  0.00     0.127 C 
HETATM    5  C9  UNL     1      -5.519  48.052 -25.567  1.00  0.00     0.024 C 
HETATM    6  C10 UNL     1      -4.575  48.390 -26.716  1.00  0.00     0.037 C 
HETATM    7  C11 UNL     1      -3.674  49.554 -26.408  1.00  0.00    -0.060 C 
HETATM    8  C12 UNL     1      -2.403  49.639 -26.931  1.00  0.00    -0.015 C 
HETATM    9  C13 UNL     1      -1.468  50.884 -26.734  1.00  0.00     0.031 C 
HETATM   10  C14 UNL     1      -2.434  51.971 -26.360  1.00  0.00     0.019 C 
HETATM   11  C15 UNL     1      -2.932  51.371 -25.034  1.00  0.00     0.031 C 
HETATM   12  C16 UNL     1      -2.138  52.056 -23.966  1.00  0.00     0.124 C 
HETATM   13  N3  UNL     1      -0.712  51.641 -24.251  1.00  0.00    -0.407 N 
HETATM   14  C17 UNL     1       0.286  52.600 -23.805  1.00  0.00     0.117 C 
HETATM   15  C18 UNL     1       0.724  53.543 -24.921  1.00  0.00     0.019 C 
HETATM   16  C19 UNL     1       1.128  52.813 -26.204  1.00  0.00     0.004 C 
HETATM   17  C20 UNL     1       0.998  51.298 -26.081  1.00  0.00     0.026 C 
HETATM   18  C21 UNL     1      -0.380  50.875 -25.537  1.00  0.00     0.086 C 
HETATM   19  C22 UNL     1      -4.208  50.612 -25.351  1.00  0.00     0.122 C 
ENDROOT
BRANCH   1  20
HETATM   20  C6  UNL     1      -5.704  50.158 -21.904  1.00  0.00     0.081 A 
HETATM   21  C5  UNL     1      -4.778  50.099 -20.878  1.00  0.00     0.108 A 
HETATM   22  N1  UNL     1      -5.042  49.571 -19.659  1.00  0.00    -0.364 N 
HETATM   23  C4  UNL     1      -6.262  49.041 -19.445  1.00  0.00     0.048 A 
ATOM     24  H1  UNL     1      -4.336  49.575 -18.923  1.00  0.00     0.165 HD
HETATM   25  C3  UNL     1      -6.537  48.488 -18.202  1.00  0.00     0.070 A 
HETATM   26  C24 UNL     1      -7.266  49.024 -20.435  1.00  0.00     0.028 A 
HETATM   27  C2  UNL     1      -7.777  47.908 -17.907  1.00  0.00     0.103 A 
HETATM   28  C26 UNL     1      -8.780  47.880 -18.890  1.00  0.00     0.102 A 
HETATM   29  C25 UNL     1      -8.519  48.440 -20.142  1.00  0.00     0.056 A 
HETATM   30  C23 UNL     1      -6.960  49.596 -21.686  1.00  0.00     0.095 A 
BRANCH  27  31
HETATM   31  O1  UNL     1      -8.098  47.336 -16.701  1.00  0.00    -0.353 OA
HETATM   32  C1  UNL     1      -7.388  46.167 -16.316  1.00  0.00     0.210 C 
ENDBRANCH  27  31
BRANCH  28  33
HETATM   33  O4  UNL     1      -9.969  47.298 -18.530  1.00  0.00    -0.353 OA
HETATM   34  C27 UNL     1     -11.163  47.863 -19.054  1.00  0.00     0.210 C 
ENDBRANCH  28  33
BRANCH  30  35
HETATM   35  O3  UNL     1      -7.932  49.568 -22.660  1.00  0.00    -0.359 OA
HETATM   36  H29 UNL     1      -7.587  49.933 -23.496  1.00  0.00     0.217 HD
ENDBRANCH  30  35
ENDBRANCH   1  20
TORSDOF 4
ENDMDL
MODEL 6
REMARK minimizedAffinity -8.74048615
REMARK  4 active torsions:
REMARK  status: ('A' for Active; 'I' for Inactive)
REMARK    1  A    between atoms: O1_2  and  C2_3 
REMARK    2  A    between atoms: C6_9  and  C7_10 
REMARK       I    between atoms: C7_10  and  N2_12 
REMARK    3  A    between atoms: C23_29  and  O3_30 
REMARK    4  A    between atoms: C26_33  and  O4_34 
ROOT
HETATM    1  C7  UNL     1      -2.681  51.544 -21.885  1.00  0.00     0.258 C 
HETATM    2  O2  UNL     1      -3.217  52.620 -22.144  1.00  0.00    -0.267 OA
HETATM    3  N2  UNL     1      -2.580  50.498 -22.800  1.00  0.00    -0.339 N 
HETATM    4  C8  UNL     1      -2.242  49.113 -22.444  1.00  0.00     0.127 C 
HETATM    5  C9  UNL     1      -3.291  48.150 -22.977  1.00  0.00     0.024 C 
HETATM    6  C10 UNL     1      -3.352  48.174 -24.501  1.00  0.00     0.037 C 
HETATM    7  C11 UNL     1      -2.898  49.485 -25.081  1.00  0.00    -0.060 C 
HETATM    8  C12 UNL     1      -2.272  49.552 -26.306  1.00  0.00    -0.015 C 
HETATM    9  C13 UNL     1      -1.882  50.902 -27.006  1.00  0.00     0.031 C 
HETATM   10  C14 UNL     1      -2.762  51.903 -26.315  1.00  0.00     0.019 C 
HETATM   11  C15 UNL     1      -2.178  51.764 -24.899  1.00  0.00     0.031 C 
HETATM   12  C16 UNL     1      -1.209  52.896 -24.757  1.00  0.00     0.124 C 
HETATM   13  N3  UNL     1      -0.161  52.610 -25.810  1.00  0.00    -0.407 N 
HETATM   14  C17 UNL     1       0.514  53.797 -26.312  1.00  0.00     0.117 C 
HETATM   15  C18 UNL     1      -0.113  54.319 -27.601  1.00  0.00     0.019 C 
HETATM   16  C19 UNL     1      -0.292  53.237 -28.667  1.00  0.00     0.004 C 
HETATM   17  C20 UNL     1       0.196  51.869 -28.201  1.00  0.00     0.026 C 
HETATM   18  C21 UNL     1      -0.383  51.484 -26.825  1.00  0.00     0.086 C 
HETATM   19  C22 UNL     1      -3.057  50.770 -24.160  1.00  0.00     0.122 C 
ENDROOT
BRANCH   1  20
HETATM   20  C6  UNL     1      -2.063  51.397 -20.562  1.00  0.00     0.081 A 
HETATM   21  C5  UNL     1      -0.700  51.600 -20.452  1.00  0.00     0.108 A 
HETATM   22  N1  UNL     1      -0.017  51.496 -19.287  1.00  0.00    -0.364 N 
HETATM   23  C4  UNL     1      -0.697  51.139 -18.181  1.00  0.00     0.048 A 
ATOM     24  H1  UNL     1       0.985  51.682 -19.249  1.00  0.00     0.165 HD
HETATM   25  C3  UNL     1      -0.003  51.019 -16.984  1.00  0.00     0.070 A 
HETATM   26  C24 UNL     1      -2.083  50.880 -18.192  1.00  0.00     0.028 A 
HETATM   27  C2  UNL     1      -0.638  50.641 -15.794  1.00  0.00     0.103 A 
HETATM   28  C26 UNL     1      -2.017  50.374 -15.799  1.00  0.00     0.102 A 
HETATM   29  C25 UNL     1      -2.729  50.498 -16.994  1.00  0.00     0.056 A 
HETATM   30  C23 UNL     1      -2.763  51.014 -19.420  1.00  0.00     0.095 A 
BRANCH  27  31
HETATM   31  O1  UNL     1       0.000  50.494 -14.588  1.00  0.00    -0.353 OA
HETATM   32  C1  UNL     1       1.103  49.601 -14.530  1.00  0.00     0.210 C 
ENDBRANCH  27  31
BRANCH  28  33
HETATM   33  O4  UNL     1      -2.571  50.011 -14.598  1.00  0.00    -0.353 OA
HETATM   34  C27 UNL     1      -3.154  51.038 -13.806  1.00  0.00     0.210 C 
ENDBRANCH  28  33
BRANCH  30  35
HETATM   35  O3  UNL     1      -4.113  50.748 -19.440  1.00  0.00    -0.359 OA
HETATM   36  H29 UNL     1      -4.459  50.811 -20.349  1.00  0.00     0.217 HD
ENDBRANCH  30  35
ENDBRANCH   1  20
TORSDOF 4
ENDMDL
MODEL 7
REMARK minimizedAffinity -8.71661758
REMARK  4 active torsions:
REMARK  status: ('A' for Active; 'I' for Inactive)
REMARK    1  A    between atoms: O1_2  and  C2_3 
REMARK    2  A    between atoms: C6_9  and  C7_10 
REMARK       I    between atoms: C7_10  and  N2_12 
REMARK    3  A    between atoms: C23_29  and  O3_30 
REMARK    4  A    between atoms: C26_33  and  O4_34 
ROOT
HETATM    1  C7  UNL     1      -3.998  50.613 -21.742  1.00  0.00     0.258 C 
HETATM    2  O2  UNL     1      -4.091  51.839 -21.770  1.00  0.00    -0.267 OA
HETATM    3  N2  UNL     1      -4.044  49.815 -22.884  1.00  0.00    -0.339 N 
HETATM    4  C8  UNL     1      -4.253  48.361 -22.873  1.00  0.00     0.127 C 
HETATM    5  C9  UNL     1      -5.415  47.978 -23.777  1.00  0.00     0.024 C 
HETATM    6  C10 UNL     1      -5.134  48.337 -25.232  1.00  0.00     0.037 C 
HETATM    7  C11 UNL     1      -4.169  49.482 -25.375  1.00  0.00    -0.060 C 
HETATM    8  C12 UNL     1      -3.307  49.567 -26.444  1.00  0.00    -0.015 C 
HETATM    9  C13 UNL     1      -2.363  50.795 -26.700  1.00  0.00     0.031 C 
HETATM   10  C14 UNL     1      -3.002  51.882 -25.885  1.00  0.00     0.019 C 
HETATM   11  C15 UNL     1      -2.814  51.251 -24.495  1.00  0.00     0.031 C 
HETATM   12  C16 UNL     1      -1.587  51.896 -23.930  1.00  0.00     0.124 C 
HETATM   13  N3  UNL     1      -0.485  51.472 -24.876  1.00  0.00    -0.407 N 
HETATM   14  C17 UNL     1       0.627  52.407 -24.948  1.00  0.00     0.117 C 
HETATM   15  C18 UNL     1       0.494  53.376 -26.119  1.00  0.00     0.019 C 
HETATM   16  C19 UNL     1       0.212  52.678 -27.451  1.00  0.00     0.004 C 
HETATM   17  C20 UNL     1       0.122  51.162 -27.310  1.00  0.00     0.026 C 
HETATM   18  C21 UNL     1      -0.833  50.740 -26.176  1.00  0.00     0.086 C 
HETATM   19  C22 UNL     1      -4.102  50.516 -24.171  1.00  0.00     0.122 C 
ENDROOT
BRANCH   1  20
HETATM   20  C6  UNL     1      -3.760  49.982 -20.440  1.00  0.00     0.081 A 
HETATM   21  C5  UNL     1      -4.001  48.626 -20.317  1.00  0.00     0.108 A 
HETATM   22  N1  UNL     1      -3.816  47.932 -19.169  1.00  0.00    -0.364 N 
HETATM   23  C4  UNL     1      -3.411  48.606 -18.076  1.00  0.00     0.048 A 
ATOM     24  H1  UNL     1      -3.980  46.926 -19.133  1.00  0.00     0.165 HD
HETATM   25  C3  UNL     1      -3.229  47.904 -16.892  1.00  0.00     0.070 A 
HETATM   26  C24 UNL     1      -3.167  49.995 -18.087  1.00  0.00     0.028 A 
HETATM   27  C2  UNL     1      -2.821  48.536 -15.711  1.00  0.00     0.103 A 
HETATM   28  C26 UNL     1      -2.585  49.921 -15.712  1.00  0.00     0.102 A 
HETATM   29  C25 UNL     1      -2.755  50.638 -16.898  1.00  0.00     0.056 A 
HETATM   30  C23 UNL     1      -3.355  50.681 -19.304  1.00  0.00     0.095 A 
BRANCH  27  31
HETATM   31  O1  UNL     1      -2.639  47.895 -14.510  1.00  0.00    -0.353 OA
HETATM   32  C1  UNL     1      -2.432  46.489 -14.538  1.00  0.00     0.210 C 
ENDBRANCH  27  31
BRANCH  28  33
HETATM   33  O4  UNL     1      -2.185  50.471 -14.521  1.00  0.00    -0.353 OA
HETATM   34  C27 UNL     1      -3.018  51.470 -13.946  1.00  0.00     0.210 C 
ENDBRANCH  28  33
BRANCH  30  35
HETATM   35  O3  UNL     1      -3.134  52.039 -19.317  1.00  0.00    -0.359 OA
HETATM   36  H29 UNL     1      -3.355  52.412 -20.190  1.00  0.00     0.217 HD
ENDBRANCH  30  35
ENDBRANCH   1  20
TORSDOF 4
ENDMDL
MODEL 8
REMARK minimizedAffinity -8.62243462
REMARK  4 active torsions:
REMARK  status: ('A' for Active; 'I' for Inactive)
REMARK    1  A    between atoms: O1_2  and  C2_3 
REMARK    2  A    between atoms: C6_9  and  C7_10 
REMARK       I    between atoms: C7_10  and  N2_12 
REMARK    3  A    between atoms: C23_29  and  O3_30 
REMARK    4  A    between atoms: C26_33  and  O4_34 
ROOT
HETATM    1  C7  UNL     1      -2.456  49.766 -21.846  1.00  0.00     0.258 C 
HETATM    2  O2  UNL     1      -2.100  48.834 -22.565  1.00  0.00    -0.267 OA
HETATM    3  N2  UNL     1      -1.694  50.916 -21.648  1.00  0.00    -0.339 N 
HETATM    4  C8  UNL     1      -1.927  51.890 -20.573  1.00  0.00     0.127 C 
HETATM    5  C9  UNL     1      -0.655  52.117 -19.770  1.00  0.00     0.024 C 
HETATM    6  C10 UNL     1       0.452  52.718 -20.631  1.00  0.00     0.037 C 
HETATM    7  C11 UNL     1       0.308  52.374 -22.088  1.00  0.00    -0.060 C 
HETATM    8  C12 UNL     1       0.724  53.238 -23.076  1.00  0.00    -0.015 C 
HETATM    9  C13 UNL     1       0.703  52.880 -24.604  1.00  0.00     0.031 C 
HETATM   10  C14 UNL     1       0.643  51.380 -24.594  1.00  0.00     0.019 C 
HETATM   11  C15 UNL     1      -0.728  51.221 -23.915  1.00  0.00     0.031 C 
HETATM   12  C16 UNL     1      -1.701  51.001 -25.032  1.00  0.00     0.124 C 
HETATM   13  N3  UNL     1      -1.632  52.284 -25.831  1.00  0.00    -0.407 N 
HETATM   14  C17 UNL     1      -1.960  52.123 -27.239  1.00  0.00     0.117 C 
HETATM   15  C18 UNL     1      -0.718  51.946 -28.107  1.00  0.00     0.019 C 
HETATM   16  C19 UNL     1       0.349  53.014 -27.859  1.00  0.00     0.004 C 
HETATM   17  C20 UNL     1      -0.067  54.021 -26.792  1.00  0.00     0.026 C 
HETATM   18  C21 UNL     1      -0.563  53.332 -25.506  1.00  0.00     0.086 C 
HETATM   19  C22 UNL     1      -0.460  51.028 -22.433  1.00  0.00     0.122 C 
ENDROOT
BRANCH   1  20
HETATM   20  C6  UNL     1      -3.784  49.674 -21.228  1.00  0.00     0.081 A 
HETATM   21  C5  UNL     1      -4.793  50.478 -21.724  1.00  0.00     0.108 A 
HETATM   22  N1  UNL     1      -6.057  50.481 -21.239  1.00  0.00    -0.364 N 
HETATM   23  C4  UNL     1      -6.338  49.683 -20.191  1.00  0.00     0.048 A 
ATOM     24  H1  UNL     1      -6.776  51.072 -21.656  1.00  0.00     0.165 HD
HETATM   25  C3  UNL     1      -7.630  49.688 -19.681  1.00  0.00     0.070 A 
HETATM   26  C24 UNL     1      -5.374  48.847 -19.592  1.00  0.00     0.028 A 
HETATM   27  C2  UNL     1      -7.997  48.895 -18.586  1.00  0.00     0.103 A 
HETATM   28  C26 UNL     1      -7.039  48.066 -17.979  1.00  0.00     0.102 A 
HETATM   29  C25 UNL     1      -5.738  48.046 -18.488  1.00  0.00     0.056 A 
HETATM   30  C23 UNL     1      -4.073  48.860 -20.135  1.00  0.00     0.095 A 
BRANCH  27  31
HETATM   31  O1  UNL     1      -9.253  48.871 -18.032  1.00  0.00    -0.353 OA
HETATM   32  C1  UNL     1     -10.295  48.267 -18.786  1.00  0.00     0.210 C 
ENDBRANCH  27  31
BRANCH  28  33
HETATM   33  O4  UNL     1      -7.469  47.317 -16.914  1.00  0.00    -0.353 OA
HETATM   34  C27 UNL     1      -6.673  46.204 -16.527  1.00  0.00     0.210 C 
ENDBRANCH  28  33
BRANCH  30  35
HETATM   35  O3  UNL     1      -3.123  48.058 -19.545  1.00  0.00    -0.359 OA
HETATM   36  H29 UNL     1      -2.252  48.196 -19.962  1.00  0.00     0.217 HD
ENDBRANCH  30  35
ENDBRANCH   1  20
TORSDOF 4
ENDMDL
MODEL 9
REMARK minimizedAffinity -8.60364914
REMARK  4 active torsions:
REMARK  status: ('A' for Active; 'I' for Inactive)
REMARK    1  A    between atoms: O1_2  and  C2_3 
REMARK    2  A    between atoms: C6_9  and  C7_10 
REMARK       I    between atoms: C7_10  and  N2_12 
REMARK    3  A    between atoms: C23_29  and  O3_30 
REMARK    4  A    between atoms: C26_33  and  O4_34 
ROOT
HETATM    1  C7  UNL     1      -4.732  49.855 -23.508  1.00  0.00     0.258 C 
HETATM    2  O2  UNL     1      -5.218  50.893 -23.063  1.00  0.00    -0.267 OA
HETATM    3  N2  UNL     1      -3.546  49.815 -24.239  1.00  0.00    -0.339 N 
HETATM    4  C8  UNL     1      -3.105  48.669 -25.044  1.00  0.00     0.127 C 
HETATM    5  C9  UNL     1      -2.797  49.101 -26.470  1.00  0.00     0.024 C 
HETATM    6  C10 UNL     1      -1.643  50.098 -26.516  1.00  0.00     0.037 C 
HETATM    7  C11 UNL     1      -1.502  50.886 -25.242  1.00  0.00    -0.060 C 
HETATM    8  C12 UNL     1      -0.274  51.320 -24.796  1.00  0.00    -0.015 C 
HETATM    9  C13 UNL     1      -0.086  52.241 -23.539  1.00  0.00     0.031 C 
HETATM   10  C14 UNL     1      -1.448  52.847 -23.363  1.00  0.00     0.019 C 
HETATM   11  C15 UNL     1      -2.223  51.554 -23.057  1.00  0.00     0.031 C 
HETATM   12  C16 UNL     1      -2.332  51.501 -21.565  1.00  0.00     0.124 C 
HETATM   13  N3  UNL     1      -0.896  51.399 -21.101  1.00  0.00    -0.407 N 
HETATM   14  C17 UNL     1      -0.662  51.944 -19.773  1.00  0.00     0.117 C 
HETATM   15  C18 UNL     1      -0.161  53.384 -19.818  1.00  0.00     0.019 C 
HETATM   16  C19 UNL     1       1.026  53.582 -20.763  1.00  0.00     0.004 C 
HETATM   17  C20 UNL     1       1.443  52.289 -21.456  1.00  0.00     0.026 C 
HETATM   18  C21 UNL     1       0.248  51.566 -22.107  1.00  0.00     0.086 C 
HETATM   19  C22 UNL     1      -2.817  51.081 -24.372  1.00  0.00     0.122 C 
ENDROOT
BRANCH   1  20
HETATM   20  C6  UNL     1      -5.415  48.596 -23.187  1.00  0.00     0.081 A 
HETATM   21  C5  UNL     1      -4.997  47.891 -22.074  1.00  0.00     0.108 A 
HETATM   22  N1  UNL     1      -5.549  46.721 -21.675  1.00  0.00    -0.364 N 
HETATM   23  C4  UNL     1      -6.537  46.196 -22.425  1.00  0.00     0.048 A 
ATOM     24  H1  UNL     1      -5.227  46.250 -20.830  1.00  0.00     0.165 HD
HETATM   25  C3  UNL     1      -7.102  44.991 -22.030  1.00  0.00     0.070 A 
HETATM   26  C24 UNL     1      -7.016  46.819 -23.596  1.00  0.00     0.028 A 
HETATM   27  C2  UNL     1      -8.125  44.376 -22.763  1.00  0.00     0.103 A 
HETATM   28  C26 UNL     1      -8.601  44.987 -23.935  1.00  0.00     0.102 A 
HETATM   29  C25 UNL     1      -8.047  46.204 -24.340  1.00  0.00     0.056 A 
HETATM   30  C23 UNL     1      -6.427  48.044 -23.970  1.00  0.00     0.095 A 
BRANCH  27  31
HETATM   31  O1  UNL     1      -8.709  43.180 -22.427  1.00  0.00    -0.353 OA
HETATM   32  C1  UNL     1      -7.898  42.014 -22.470  1.00  0.00     0.210 C 
ENDBRANCH  27  31
BRANCH  28  33
HETATM   33  O4  UNL     1      -9.604  44.330 -24.600  1.00  0.00    -0.353 OA
HETATM   34  C27 UNL     1     -10.092  44.915 -25.800  1.00  0.00     0.210 C 
ENDBRANCH  28  33
BRANCH  30  35
HETATM   35  O3  UNL     1      -6.879  48.650 -25.120  1.00  0.00    -0.359 OA
HETATM   36  H29 UNL     1      -6.359  49.452 -25.311  1.00  0.00     0.217 HD
ENDBRANCH  30  35
ENDBRANCH   1  20
TORSDOF 4
ENDMDL
