MODEL 1
REMARK minimizedAffinity -9.27123547
REMARK  9 active torsions:
REMARK  status: ('A' for Active; 'I' for Inactive)
REMARK    1  A    between atoms: C2_2  and  C3_3 
REMARK    2  A    between atoms: C2_2  and  C9_12 
REMARK    3  A    between atoms: C3_3  and  C4_4 
REMARK    4  A    between atoms: C4_4  and  C5_5 
REMARK    5  A    between atoms: C5_5  and  O1_6 
REMARK    6  A    between atoms: C5_5  and  C6_7 
REMARK    7  A    between atoms: C6_7  and  O2_9 
REMARK    8  A    between atoms: C6_7  and  C8_10 
REMARK    9  A    between atoms: C8_10  and  O3_11 
ROOT
HETATM    1  C9  UNL     1      -2.178   5.803  13.312  1.00  0.00    -0.002 C 
HETATM    2  C10 UNL     1      -2.278   5.265  11.858  1.00  0.00     0.007 C 
HETATM    3  C11 UNL     1      -0.899   5.477  11.203  1.00  0.00     0.015 C 
HETATM    4  C12 UNL     1       0.066   5.747  12.376  1.00  0.00    -0.005 C 
HETATM    5  C13 UNL     1       0.457   4.356  12.968  1.00  0.00     0.021 C 
HETATM    6  C14 UNL     1       1.400   6.443  12.150  1.00  0.00    -0.000 C 
HETATM    7  C15 UNL     1       1.974   7.193  13.130  1.00  0.00    -0.060 C 
HETATM    8  C16 UNL     1       1.257   7.416  14.467  1.00  0.00     0.036 C 
HETATM    9  C17 UNL     1      -0.153   6.815  14.639  1.00  0.00     0.015 C 
HETATM   10  C18 UNL     1      -0.865   6.639  13.294  1.00  0.00    -0.028 C 
HETATM   11  C19 UNL     1      -1.133   8.051  12.698  1.00  0.00     0.016 C 
HETATM   12  C20 UNL     1       3.341   7.905  12.948  1.00  0.00    -0.014 C 
HETATM   13  C21 UNL     1       3.008   9.324  12.435  1.00  0.00     0.020 C 
HETATM   14  C22 UNL     1       4.119   8.012  14.285  1.00  0.00     0.021 C 
HETATM   15  C23 UNL     1       5.526   8.567  14.128  1.00  0.00     0.080 C 
HETATM   16  C24 UNL     1       6.326   7.707  13.184  1.00  0.00     0.135 C 
HETATM   17  O4  UNL     1       7.453   7.329  13.506  1.00  0.00    -0.297 OA
HETATM   18  C25 UNL     1       5.719   7.415  11.804  1.00  0.00     0.018 C 
HETATM   19  C26 UNL     1       6.483   6.206  11.203  1.00  0.00     0.023 C 
HETATM   20  C27 UNL     1       5.997   8.619  10.893  1.00  0.00     0.023 C 
HETATM   21  C28 UNL     1       4.204   7.037  11.968  1.00  0.00     0.020 C 
HETATM   22  C29 UNL     1       3.466   6.865  10.636  1.00  0.00     0.090 C 
HETATM   23  C30 UNL     1       2.103   6.248  10.839  1.00  0.00     0.157 C 
HETATM   24  O5  UNL     1       1.581   5.617   9.922  1.00  0.00    -0.293 OA
ENDROOT
BRANCH   1  25
HETATM   25  C2  UNL     1      -3.529   6.338  13.879  1.00  0.00    -0.014 C 
HETATM   26  C1  UNL     1      -3.725   6.235  15.393  1.00  0.00     0.010 C 
BRANCH  25  27
HETATM   27  C3  UNL     1      -4.737   5.750  13.112  1.00  0.00     0.007 C 
BRANCH  27  28
HETATM   28  C4  UNL     1      -4.900   4.223  13.237  1.00  0.00     0.035 C 
BRANCH  28  29
HETATM   29  C5  UNL     1      -5.801   3.593  12.165  1.00  0.00     0.154 C 
BRANCH  29  30
HETATM   30  O1  UNL     1      -6.961   3.037  12.804  1.00  0.00    -0.392 OA
HETATM   31  H10 UNL     1      -7.407   2.527  12.093  1.00  0.00     0.210 HD
ENDBRANCH  29  30
BRANCH  29  32
HETATM   32  C6  UNL     1      -5.125   2.485  11.314  1.00  0.00     0.101 C 
HETATM   33  C7  UNL     1      -6.001   1.234  11.155  1.00  0.00     0.051 C 
BRANCH  32  34
HETATM   34  O2  UNL     1      -4.959   3.036   9.985  1.00  0.00    -0.385 OA
HETATM   35  H14 UNL     1      -4.220   2.532   9.585  1.00  0.00     0.210 HD
ENDBRANCH  32  34
BRANCH  32  36
HETATM   36  C8  UNL     1      -3.726   2.127  11.854  1.00  0.00     0.204 C 
BRANCH  36  37
HETATM   37  O3  UNL     1      -3.351   0.822  11.402  1.00  0.00    -0.398 OA
HETATM   38  H17 UNL     1      -3.753   0.175  12.009  1.00  0.00     0.209 HD
ENDBRANCH  36  37
ENDBRANCH  32  36
ENDBRANCH  29  32
ENDBRANCH  28  29
ENDBRANCH  27  28
ENDBRANCH  25  27
ENDBRANCH   1  25
TORSDOF 9
ENDMDL
MODEL 2
REMARK minimizedAffinity -9.18516541
REMARK  9 active torsions:
REMARK  status: ('A' for Active; 'I' for Inactive)
REMARK    1  A    between atoms: C2_2  and  C3_3 
REMARK    2  A    between atoms: C2_2  and  C9_12 
REMARK    3  A    between atoms: C3_3  and  C4_4 
REMARK    4  A    between atoms: C4_4  and  C5_5 
REMARK    5  A    between atoms: C5_5  and  O1_6 
REMARK    6  A    between atoms: C5_5  and  C6_7 
REMARK    7  A    between atoms: C6_7  and  O2_9 
REMARK    8  A    between atoms: C6_7  and  C8_10 
REMARK    9  A    between atoms: C8_10  and  O3_11 
ROOT
HETATM    1  C9  UNL     1      -3.347   4.059  12.626  1.00  0.00    -0.002 C 
HETATM    2  C10 UNL     1      -3.010   3.910  11.117  1.00  0.00     0.007 C 
HETATM    3  C11 UNL     1      -1.692   4.672  10.871  1.00  0.00     0.015 C 
HETATM    4  C12 UNL     1      -1.090   4.895  12.273  1.00  0.00    -0.005 C 
HETATM    5  C13 UNL     1      -0.360   3.572  12.668  1.00  0.00     0.021 C 
HETATM    6  C14 UNL     1      -0.050   5.980  12.517  1.00  0.00    -0.000 C 
HETATM    7  C15 UNL     1       0.061   6.583  13.731  1.00  0.00    -0.060 C 
HETATM    8  C16 UNL     1      -0.906   6.237  14.870  1.00  0.00     0.036 C 
HETATM    9  C17 UNL     1      -2.038   5.233  14.575  1.00  0.00     0.015 C 
HETATM   10  C18 UNL     1      -2.410   5.213  13.089  1.00  0.00    -0.028 C 
HETATM   11  C19 UNL     1      -3.031   6.592  12.724  1.00  0.00     0.016 C 
HETATM   12  C20 UNL     1       1.118   7.680  14.027  1.00  0.00    -0.014 C 
HETATM   13  C21 UNL     1       0.419   9.026  13.728  1.00  0.00     0.020 C 
HETATM   14  C22 UNL     1       1.574   7.658  15.510  1.00  0.00     0.021 C 
HETATM   15  C23 UNL     1       2.717   8.616  15.809  1.00  0.00     0.080 C 
HETATM   16  C24 UNL     1       3.908   8.296  14.943  1.00  0.00     0.135 C 
HETATM   17  O4  UNL     1       5.025   8.189  15.453  1.00  0.00    -0.297 OA
HETATM   18  C25 UNL     1       3.681   8.208  13.428  1.00  0.00     0.018 C 
HETATM   19  C26 UNL     1       4.897   7.469  12.813  1.00  0.00     0.023 C 
HETATM   20  C27 UNL     1       3.688   9.634  12.858  1.00  0.00     0.023 C 
HETATM   21  C28 UNL     1       2.377   7.382  13.141  1.00  0.00     0.020 C 
HETATM   22  C29 UNL     1       1.979   7.354  11.662  1.00  0.00     0.090 C 
HETATM   23  C30 UNL     1       0.890   6.340  11.404  1.00  0.00     0.157 C 
HETATM   24  O5  UNL     1       0.776   5.845  10.285  1.00  0.00    -0.293 OA
ENDROOT
BRANCH   1  25
HETATM   25  C2  UNL     1      -4.875   4.017  12.937  1.00  0.00    -0.014 C 
HETATM   26  C1  UNL     1      -5.788   3.512  11.817  1.00  0.00     0.010 C 
BRANCH  25  27
HETATM   27  C3  UNL     1      -5.372   5.368  13.505  1.00  0.00     0.007 C 
BRANCH  27  28
HETATM   28  C4  UNL     1      -6.844   5.373  13.962  1.00  0.00     0.035 C 
BRANCH  28  29
HETATM   29  C5  UNL     1      -7.034   5.524  15.478  1.00  0.00     0.154 C 
BRANCH  29  30
HETATM   30  O1  UNL     1      -7.935   4.502  15.935  1.00  0.00    -0.392 OA
HETATM   31  H10 UNL     1      -8.127   4.748  16.865  1.00  0.00     0.210 HD
ENDBRANCH  29  30
BRANCH  29  32
HETATM   32  C6  UNL     1      -7.582   6.904  15.932  1.00  0.00     0.101 C 
HETATM   33  C7  UNL     1      -9.107   7.016  15.799  1.00  0.00     0.051 C 
BRANCH  32  34
HETATM   34  O2  UNL     1      -7.287   7.013  17.346  1.00  0.00    -0.385 OA
HETATM   35  H14 UNL     1      -7.263   7.974  17.532  1.00  0.00     0.210 HD
ENDBRANCH  32  34
BRANCH  32  36
HETATM   36  C8  UNL     1      -6.867   8.064  15.211  1.00  0.00     0.204 C 
BRANCH  36  37
HETATM   37  O3  UNL     1      -7.753   9.184  15.099  1.00  0.00    -0.398 OA
HETATM   38  H17 UNL     1      -8.312   9.037  14.315  1.00  0.00     0.209 HD
ENDBRANCH  36  37
ENDBRANCH  32  36
ENDBRANCH  29  32
ENDBRANCH  28  29
ENDBRANCH  27  28
ENDBRANCH  25  27
ENDBRANCH   1  25
TORSDOF 9
ENDMDL
MODEL 3
REMARK minimizedAffinity -9.0867815
REMARK  9 active torsions:
REMARK  status: ('A' for Active; 'I' for Inactive)
REMARK    1  A    between atoms: C2_2  and  C3_3 
REMARK    2  A    between atoms: C2_2  and  C9_12 
REMARK    3  A    between atoms: C3_3  and  C4_4 
REMARK    4  A    between atoms: C4_4  and  C5_5 
REMARK    5  A    between atoms: C5_5  and  O1_6 
REMARK    6  A    between atoms: C5_5  and  C6_7 
REMARK    7  A    between atoms: C6_7  and  O2_9 
REMARK    8  A    between atoms: C6_7  and  C8_10 
REMARK    9  A    between atoms: C8_10  and  O3_11 
ROOT
HETATM    1  C9  UNL     1       0.812   5.908  11.737  1.00  0.00    -0.002 C 
HETATM    2  C10 UNL     1       0.902   4.369  11.545  1.00  0.00     0.007 C 
HETATM    3  C11 UNL     1      -0.488   3.790  11.882  1.00  0.00     0.015 C 
HETATM    4  C12 UNL     1      -1.442   5.001  11.865  1.00  0.00    -0.005 C 
HETATM    5  C13 UNL     1      -1.811   5.266  10.371  1.00  0.00     0.021 C 
HETATM    6  C14 UNL     1      -2.786   4.950  12.577  1.00  0.00    -0.000 C 
HETATM    7  C15 UNL     1      -3.357   6.079  13.078  1.00  0.00    -0.060 C 
HETATM    8  C16 UNL     1      -2.628   7.426  13.001  1.00  0.00     0.036 C 
HETATM    9  C17 UNL     1      -1.210   7.446  12.395  1.00  0.00     0.015 C 
HETATM   10  C18 UNL     1      -0.511   6.091  12.539  1.00  0.00    -0.028 C 
HETATM   11  C19 UNL     1      -0.265   5.828  14.053  1.00  0.00     0.016 C 
HETATM   12  C20 UNL     1      -4.734   6.075  13.795  1.00  0.00    -0.014 C 
HETATM   13  C21 UNL     1      -4.422   5.895  15.298  1.00  0.00     0.020 C 
HETATM   14  C22 UNL     1      -5.498   7.409  13.586  1.00  0.00     0.021 C 
HETATM   15  C23 UNL     1      -6.912   7.392  14.143  1.00  0.00     0.080 C 
HETATM   16  C24 UNL     1      -7.713   6.285  13.509  1.00  0.00     0.135 C 
HETATM   17  O4  UNL     1      -8.833   6.522  13.053  1.00  0.00    -0.297 OA
HETATM   18  C25 UNL     1      -7.119   4.870  13.545  1.00  0.00     0.018 C 
HETATM   19  C26 UNL     1      -7.876   4.017  12.495  1.00  0.00     0.023 C 
HETATM   20  C27 UNL     1      -7.420   4.258  14.921  1.00  0.00     0.023 C 
HETATM   21  C28 UNL     1      -5.598   4.931  13.161  1.00  0.00     0.020 C 
HETATM   22  C29 UNL     1      -4.873   3.589  13.304  1.00  0.00     0.090 C 
HETATM   23  C30 UNL     1      -3.501   3.635  12.675  1.00  0.00     0.157 C 
HETATM   24  O5  UNL     1      -2.983   2.595  12.276  1.00  0.00    -0.293 OA
ENDROOT
BRANCH   1  25
HETATM   25  C2  UNL     1       2.163   6.570  12.148  1.00  0.00    -0.014 C 
HETATM   26  C1  UNL     1       2.200   7.259  13.514  1.00  0.00     0.010 C 
BRANCH  25  27
HETATM   27  C3  UNL     1       2.699   7.498  11.032  1.00  0.00     0.007 C 
BRANCH  27  28
HETATM   28  C4  UNL     1       3.335   6.768   9.834  1.00  0.00     0.035 C 
BRANCH  28  29
HETATM   29  C5  UNL     1       2.337   6.353   8.744  1.00  0.00     0.154 C 
BRANCH  29  30
HETATM   30  O1  UNL     1       2.906   5.277   7.980  1.00  0.00    -0.392 OA
HETATM   31  H10 UNL     1       2.293   5.169   7.221  1.00  0.00     0.210 HD
ENDBRANCH  29  30
BRANCH  29  32
HETATM   32  C6  UNL     1       1.928   7.489   7.768  1.00  0.00     0.101 C 
HETATM   33  C7  UNL     1       2.912   8.668   7.776  1.00  0.00     0.051 C 
BRANCH  32  34
HETATM   34  O2  UNL     1       1.985   6.922   6.436  1.00  0.00    -0.385 OA
HETATM   35  H14 UNL     1       1.380   7.471   5.895  1.00  0.00     0.210 HD
ENDBRANCH  32  34
BRANCH  32  36
HETATM   36  C8  UNL     1       0.482   7.961   8.019  1.00  0.00     0.204 C 
BRANCH  36  37
HETATM   37  O3  UNL     1       0.462   8.920   9.082  1.00  0.00    -0.398 OA
HETATM   38  H17 UNL     1       0.450   8.426   9.921  1.00  0.00     0.209 HD
ENDBRANCH  36  37
ENDBRANCH  32  36
ENDBRANCH  29  32
ENDBRANCH  28  29
ENDBRANCH  27  28
ENDBRANCH  25  27
ENDBRANCH   1  25
TORSDOF 9
ENDMDL
MODEL 4
REMARK minimizedAffinity -9.06288242
REMARK  9 active torsions:
REMARK  status: ('A' for Active; 'I' for Inactive)
REMARK    1  A    between atoms: C2_2  and  C3_3 
REMARK    2  A    between atoms: C2_2  and  C9_12 
REMARK    3  A    between atoms: C3_3  and  C4_4 
REMARK    4  A    between atoms: C4_4  and  C5_5 
REMARK    5  A    between atoms: C5_5  and  O1_6 
REMARK    6  A    between atoms: C5_5  and  C6_7 
REMARK    7  A    between atoms: C6_7  and  O2_9 
REMARK    8  A    between atoms: C6_7  and  C8_10 
REMARK    9  A    between atoms: C8_10  and  O3_11 
ROOT
HETATM    1  C9  UNL     1      -2.161   5.833  13.209  1.00  0.00    -0.002 C 
HETATM    2  C10 UNL     1      -2.215   5.203  11.790  1.00  0.00     0.007 C 
HETATM    3  C11 UNL     1      -0.814   5.373  11.168  1.00  0.00     0.015 C 
HETATM    4  C12 UNL     1       0.112   5.717  12.352  1.00  0.00    -0.005 C 
HETATM    5  C13 UNL     1       0.481   4.368  13.045  1.00  0.00     0.021 C 
HETATM    6  C14 UNL     1       1.455   6.398  12.125  1.00  0.00    -0.000 C 
HETATM    7  C15 UNL     1       1.997   7.210  13.073  1.00  0.00    -0.060 C 
HETATM    8  C16 UNL     1       1.237   7.518  14.368  1.00  0.00     0.036 C 
HETATM    9  C17 UNL     1      -0.178   6.929  14.533  1.00  0.00     0.015 C 
HETATM   10  C18 UNL     1      -0.847   6.667  13.180  1.00  0.00    -0.028 C 
HETATM   11  C19 UNL     1      -1.092   8.038  12.485  1.00  0.00     0.016 C 
HETATM   12  C20 UNL     1       3.371   7.909  12.890  1.00  0.00    -0.014 C 
HETATM   13  C21 UNL     1       3.057   9.292  12.276  1.00  0.00     0.020 C 
HETATM   14  C22 UNL     1       4.105   8.103  14.243  1.00  0.00     0.021 C 
HETATM   15  C23 UNL     1       5.517   8.646  14.096  1.00  0.00     0.080 C 
HETATM   16  C24 UNL     1       6.346   7.727  13.236  1.00  0.00     0.135 C 
HETATM   17  O4  UNL     1       7.462   7.371  13.618  1.00  0.00    -0.297 OA
HETATM   18  C25 UNL     1       5.784   7.347  11.859  1.00  0.00     0.018 C 
HETATM   19  C26 UNL     1       6.565   6.102  11.362  1.00  0.00     0.023 C 
HETATM   20  C27 UNL     1       6.094   8.490  10.882  1.00  0.00     0.023 C 
HETATM   21  C28 UNL     1       4.264   6.980  11.997  1.00  0.00     0.020 C 
HETATM   22  C29 UNL     1       3.570   6.722  10.656  1.00  0.00     0.090 C 
HETATM   23  C30 UNL     1       2.200   6.119  10.853  1.00  0.00     0.157 C 
HETATM   24  O5  UNL     1       1.707   5.430   9.962  1.00  0.00    -0.293 OA
ENDROOT
BRANCH   1  25
HETATM   25  C2  UNL     1      -3.529   6.404  13.696  1.00  0.00    -0.014 C 
HETATM   26  C1  UNL     1      -3.753   6.447  15.209  1.00  0.00     0.010 C 
BRANCH  25  27
HETATM   27  C3  UNL     1      -4.714   5.727  12.968  1.00  0.00     0.007 C 
BRANCH  27  28
HETATM   28  C4  UNL     1      -5.067   4.317  13.482  1.00  0.00     0.035 C 
BRANCH  28  29
HETATM   29  C5  UNL     1      -6.376   3.748  12.915  1.00  0.00     0.154 C 
BRANCH  29  30
HETATM   30  O1  UNL     1      -6.326   3.813  11.481  1.00  0.00    -0.392 OA
HETATM   31  H10 UNL     1      -7.237   3.581  11.197  1.00  0.00     0.210 HD
ENDBRANCH  29  30
BRANCH  29  32
HETATM   32  C6  UNL     1      -7.663   4.468  13.398  1.00  0.00     0.101 C 
HETATM   33  C7  UNL     1      -8.165   5.527  12.407  1.00  0.00     0.051 C 
BRANCH  32  34
HETATM   34  O2  UNL     1      -8.696   3.454  13.467  1.00  0.00    -0.385 OA
HETATM   35  H14 UNL     1      -9.350   3.793  14.113  1.00  0.00     0.210 HD
ENDBRANCH  32  34
BRANCH  32  36
HETATM   36  C8  UNL     1      -7.488   5.058  14.812  1.00  0.00     0.204 C 
BRANCH  36  37
HETATM   37  O3  UNL     1      -7.938   4.114  15.790  1.00  0.00    -0.398 OA
HETATM   38  H17 UNL     1      -8.905   4.210  15.867  1.00  0.00     0.209 HD
ENDBRANCH  36  37
ENDBRANCH  32  36
ENDBRANCH  29  32
ENDBRANCH  28  29
ENDBRANCH  27  28
ENDBRANCH  25  27
ENDBRANCH   1  25
TORSDOF 9
ENDMDL
MODEL 5
REMARK minimizedAffinity -9.05724239
REMARK  9 active torsions:
REMARK  status: ('A' for Active; 'I' for Inactive)
REMARK    1  A    between atoms: C2_2  and  C3_3 
REMARK    2  A    between atoms: C2_2  and  C9_12 
REMARK    3  A    between atoms: C3_3  and  C4_4 
REMARK    4  A    between atoms: C4_4  and  C5_5 
REMARK    5  A    between atoms: C5_5  and  O1_6 
REMARK    6  A    between atoms: C5_5  and  C6_7 
REMARK    7  A    between atoms: C6_7  and  O2_9 
REMARK    8  A    between atoms: C6_7  and  C8_10 
REMARK    9  A    between atoms: C8_10  and  O3_11 
ROOT
HETATM    1  C9  UNL     1      -2.521   4.893  12.723  1.00  0.00    -0.002 C 
HETATM    2  C10 UNL     1      -2.425   4.533  11.215  1.00  0.00     0.007 C 
HETATM    3  C11 UNL     1      -1.045   5.017  10.723  1.00  0.00     0.015 C 
HETATM    4  C12 UNL     1      -0.228   5.269  12.006  1.00  0.00    -0.005 C 
HETATM    5  C13 UNL     1       0.321   3.883  12.473  1.00  0.00     0.021 C 
HETATM    6  C14 UNL     1       1.001   6.168  11.990  1.00  0.00    -0.000 C 
HETATM    7  C15 UNL     1       1.376   6.862  13.098  1.00  0.00    -0.060 C 
HETATM    8  C16 UNL     1       0.531   6.813  14.377  1.00  0.00     0.036 C 
HETATM    9  C17 UNL     1      -0.781   6.004  14.344  1.00  0.00     0.015 C 
HETATM   10  C18 UNL     1      -1.352   5.900  12.926  1.00  0.00    -0.028 C 
HETATM   11  C19 UNL     1      -1.781   7.325  12.469  1.00  0.00     0.016 C 
HETATM   12  C20 UNL     1       2.630   7.775  13.130  1.00  0.00    -0.014 C 
HETATM   13  C21 UNL     1       2.129   9.187  12.750  1.00  0.00     0.020 C 
HETATM   14  C22 UNL     1       3.276   7.822  14.539  1.00  0.00     0.021 C 
HETATM   15  C23 UNL     1       4.591   8.584  14.581  1.00  0.00     0.080 C 
HETATM   16  C24 UNL     1       5.583   7.969  13.628  1.00  0.00     0.135 C 
HETATM   17  O4  UNL     1       6.726   7.715  14.012  1.00  0.00    -0.297 OA
HETATM   18  C25 UNL     1       5.138   7.770  12.172  1.00  0.00     0.018 C 
HETATM   19  C26 UNL     1       6.119   6.766  11.515  1.00  0.00     0.023 C 
HETATM   20  C27 UNL     1       5.302   9.107  11.434  1.00  0.00     0.023 C 
HETATM   21  C28 UNL     1       3.688   7.167  12.146  1.00  0.00     0.020 C 
HETATM   22  C29 UNL     1       3.092   7.062  10.739  1.00  0.00     0.090 C 
HETATM   23  C30 UNL     1       1.826   6.239  10.738  1.00  0.00     0.157 C 
HETATM   24  O5  UNL     1       1.478   5.661   9.710  1.00  0.00    -0.293 OA
ENDROOT
BRANCH   1  25
HETATM   25  C2  UNL     1      -3.978   5.158  13.214  1.00  0.00    -0.014 C 
HETATM   26  C1  UNL     1      -4.133   5.676  14.646  1.00  0.00     0.010 C 
BRANCH  25  27
HETATM   27  C3  UNL     1      -4.893   3.940  12.952  1.00  0.00     0.007 C 
BRANCH  27  28
HETATM   28  C4  UNL     1      -6.335   4.292  12.537  1.00  0.00     0.035 C 
BRANCH  28  29
HETATM   29  C5  UNL     1      -7.357   4.223  13.681  1.00  0.00     0.154 C 
BRANCH  29  30
HETATM   30  O1  UNL     1      -8.433   3.355  13.289  1.00  0.00    -0.392 OA
HETATM   31  H10 UNL     1      -9.109   3.477  13.990  1.00  0.00     0.210 HD
ENDBRANCH  29  30
BRANCH  29  32
HETATM   32  C6  UNL     1      -7.954   5.592  14.104  1.00  0.00     0.101 C 
HETATM   33  C7  UNL     1      -7.256   6.783  13.433  1.00  0.00     0.051 C 
BRANCH  32  34
HETATM   34  O2  UNL     1      -9.323   5.603  13.628  1.00  0.00    -0.385 OA
HETATM   35  H14 UNL     1      -9.792   6.241  14.204  1.00  0.00     0.210 HD
ENDBRANCH  32  34
BRANCH  32  36
HETATM   36  C8  UNL     1      -7.987   5.748  15.637  1.00  0.00     0.204 C 
BRANCH  36  37
HETATM   37  O3  UNL     1      -8.170   4.468  16.251  1.00  0.00    -0.398 OA
HETATM   38  H17 UNL     1      -9.125   4.275  16.248  1.00  0.00     0.209 HD
ENDBRANCH  36  37
ENDBRANCH  32  36
ENDBRANCH  29  32
ENDBRANCH  28  29
ENDBRANCH  27  28
ENDBRANCH  25  27
ENDBRANCH   1  25
TORSDOF 9
ENDMDL
MODEL 6
REMARK minimizedAffinity -8.97957325
REMARK  9 active torsions:
REMARK  status: ('A' for Active; 'I' for Inactive)
REMARK    1  A    between atoms: C2_2  and  C3_3 
REMARK    2  A    between atoms: C2_2  and  C9_12 
REMARK    3  A    between atoms: C3_3  and  C4_4 
REMARK    4  A    between atoms: C4_4  and  C5_5 
REMARK    5  A    between atoms: C5_5  and  O1_6 
REMARK    6  A    between atoms: C5_5  and  C6_7 
REMARK    7  A    between atoms: C6_7  and  O2_9 
REMARK    8  A    between atoms: C6_7  and  C8_10 
REMARK    9  A    between atoms: C8_10  and  O3_11 
ROOT
HETATM    1  C9  UNL     1      -6.184   7.251  15.102  1.00  0.00    -0.002 C 
HETATM    2  C10 UNL     1      -5.878   8.716  15.520  1.00  0.00     0.007 C 
HETATM    3  C11 UNL     1      -4.450   9.034  15.033  1.00  0.00     0.015 C 
HETATM    4  C12 UNL     1      -4.116   7.926  14.013  1.00  0.00    -0.005 C 
HETATM    5  C13 UNL     1      -4.772   8.344  12.659  1.00  0.00     0.021 C 
HETATM    6  C14 UNL     1      -2.674   7.607  13.645  1.00  0.00    -0.000 C 
HETATM    7  C15 UNL     1      -2.311   6.355  13.258  1.00  0.00    -0.060 C 
HETATM    8  C16 UNL     1      -3.331   5.210  13.249  1.00  0.00     0.036 C 
HETATM    9  C17 UNL     1      -4.758   5.512  13.748  1.00  0.00     0.015 C 
HETATM   10  C18 UNL     1      -4.781   6.683  14.735  1.00  0.00    -0.028 C 
HETATM   11  C19 UNL     1      -4.020   6.250  16.022  1.00  0.00     0.016 C 
HETATM   12  C20 UNL     1      -0.856   5.991  12.857  1.00  0.00    -0.014 C 
HETATM   13  C21 UNL     1      -0.178   5.491  14.152  1.00  0.00     0.020 C 
HETATM   14  C22 UNL     1      -0.815   4.866  11.789  1.00  0.00     0.021 C 
HETATM   15  C23 UNL     1       0.581   4.583  11.258  1.00  0.00     0.080 C 
HETATM   16  C24 UNL     1       1.175   5.829  10.653  1.00  0.00     0.135 C 
HETATM   17  O4  UNL     1       1.689   5.782   9.535  1.00  0.00    -0.297 OA
HETATM   18  C25 UNL     1       1.190   7.098  11.517  1.00  0.00     0.018 C 
HETATM   19  C26 UNL     1       1.433   8.304  10.574  1.00  0.00     0.023 C 
HETATM   20  C27 UNL     1       2.396   7.019  12.464  1.00  0.00     0.023 C 
HETATM   21  C28 UNL     1      -0.202   7.267  12.223  1.00  0.00     0.020 C 
HETATM   22  C29 UNL     1      -0.248   8.427  13.222  1.00  0.00     0.090 C 
HETATM   23  C30 UNL     1      -1.662   8.715  13.667  1.00  0.00     0.157 C 
HETATM   24  O5  UNL     1      -1.957   9.841  14.062  1.00  0.00    -0.293 OA
ENDROOT
BRANCH   1  25
HETATM   25  C2  UNL     1      -7.182   6.522  16.053  1.00  0.00    -0.014 C 
HETATM   26  C1  UNL     1      -7.486   5.056  15.733  1.00  0.00     0.010 C 
BRANCH  25  27
HETATM   27  C3  UNL     1      -8.482   7.339  16.241  1.00  0.00     0.007 C 
BRANCH  27  28
HETATM   28  C4  UNL     1      -9.195   7.729  14.933  1.00  0.00     0.035 C 
BRANCH  28  29
HETATM   29  C5  UNL     1     -10.579   8.365  15.133  1.00  0.00     0.154 C 
BRANCH  29  30
HETATM   30  O1  UNL     1     -10.891   8.363  16.535  1.00  0.00    -0.392 OA
HETATM   31  H10 UNL     1     -11.833   8.637  16.573  1.00  0.00     0.210 HD
ENDBRANCH  29  30
BRANCH  29  32
HETATM   32  C6  UNL     1     -11.734   7.666  14.368  1.00  0.00     0.101 C 
HETATM   33  C7  UNL     1     -11.567   7.728  12.843  1.00  0.00     0.051 C 
BRANCH  32  34
HETATM   34  O2  UNL     1     -11.669   6.263  14.727  1.00  0.00    -0.385 OA
HETATM   35  H14 UNL     1     -12.574   5.917  14.583  1.00  0.00     0.210 HD
ENDBRANCH  32  34
BRANCH  32  36
HETATM   36  C8  UNL     1     -13.112   8.201  14.806  1.00  0.00     0.204 C 
BRANCH  36  37
HETATM   37  O3  UNL     1     -13.570   7.478  15.954  1.00  0.00    -0.398 OA
HETATM   38  H17 UNL     1     -13.987   6.657  15.636  1.00  0.00     0.209 HD
ENDBRANCH  36  37
ENDBRANCH  32  36
ENDBRANCH  29  32
ENDBRANCH  28  29
ENDBRANCH  27  28
ENDBRANCH  25  27
ENDBRANCH   1  25
TORSDOF 9
ENDMDL
MODEL 7
REMARK minimizedAffinity -8.86789417
REMARK  9 active torsions:
REMARK  status: ('A' for Active; 'I' for Inactive)
REMARK    1  A    between atoms: C2_2  and  C3_3 
REMARK    2  A    between atoms: C2_2  and  C9_12 
REMARK    3  A    between atoms: C3_3  and  C4_4 
REMARK    4  A    between atoms: C4_4  and  C5_5 
REMARK    5  A    between atoms: C5_5  and  O1_6 
REMARK    6  A    between atoms: C5_5  and  C6_7 
REMARK    7  A    between atoms: C6_7  and  O2_9 
REMARK    8  A    between atoms: C6_7  and  C8_10 
REMARK    9  A    between atoms: C8_10  and  O3_11 
ROOT
HETATM    1  C9  UNL     1      -2.694   8.498  15.257  1.00  0.00    -0.002 C 
HETATM    2  C10 UNL     1      -1.636   8.125  16.331  1.00  0.00     0.007 C 
HETATM    3  C11 UNL     1      -0.315   7.849  15.586  1.00  0.00     0.015 C 
HETATM    4  C12 UNL     1      -0.514   8.448  14.179  1.00  0.00    -0.005 C 
HETATM    5  C13 UNL     1      -0.237   9.980  14.296  1.00  0.00     0.021 C 
HETATM    6  C14 UNL     1       0.349   8.002  13.007  1.00  0.00    -0.000 C 
HETATM    7  C15 UNL     1      -0.130   8.031  11.734  1.00  0.00    -0.060 C 
HETATM    8  C16 UNL     1      -1.578   8.446  11.451  1.00  0.00     0.036 C 
HETATM    9  C17 UNL     1      -2.485   8.770  12.655  1.00  0.00     0.015 C 
HETATM   10  C18 UNL     1      -2.025   8.048  13.925  1.00  0.00    -0.028 C 
HETATM   11  C19 UNL     1      -2.221   6.519  13.712  1.00  0.00     0.016 C 
HETATM   12  C20 UNL     1       0.722   7.603  10.509  1.00  0.00    -0.014 C 
HETATM   13  C21 UNL     1       0.423   6.101  10.297  1.00  0.00     0.020 C 
HETATM   14  C22 UNL     1       0.332   8.389   9.231  1.00  0.00     0.021 C 
HETATM   15  C23 UNL     1       1.241   8.110   8.044  1.00  0.00     0.080 C 
HETATM   16  C24 UNL     1       2.669   8.446   8.387  1.00  0.00     0.135 C 
HETATM   17  O4  UNL     1       3.337   9.139   7.619  1.00  0.00    -0.297 OA
HETATM   18  C25 UNL     1       3.259   7.819   9.658  1.00  0.00     0.018 C 
HETATM   19  C26 UNL     1       4.535   8.619  10.027  1.00  0.00     0.023 C 
HETATM   20  C27 UNL     1       3.707   6.389   9.324  1.00  0.00     0.023 C 
HETATM   21  C28 UNL     1       2.220   7.936  10.830  1.00  0.00     0.020 C 
HETATM   22  C29 UNL     1       2.653   7.213  12.109  1.00  0.00     0.090 C 
HETATM   23  C30 UNL     1       1.763   7.576  13.274  1.00  0.00     0.157 C 
HETATM   24  O5  UNL     1       2.200   7.494  14.420  1.00  0.00    -0.293 OA
ENDROOT
BRANCH   1  25
HETATM   25  C2  UNL     1      -4.155   8.120  15.654  1.00  0.00    -0.014 C 
HETATM   26  C1  UNL     1      -4.408   6.656  16.020  1.00  0.00     0.010 C 
BRANCH  25  27
HETATM   27  C3  UNL     1      -5.174   8.624  14.605  1.00  0.00     0.007 C 
BRANCH  27  28
HETATM   28  C4  UNL     1      -6.603   8.076  14.777  1.00  0.00     0.035 C 
BRANCH  28  29
HETATM   29  C5  UNL     1      -6.781   6.621  14.321  1.00  0.00     0.154 C 
BRANCH  29  30
HETATM   30  O1  UNL     1      -6.411   6.521  12.936  1.00  0.00    -0.392 OA
HETATM   31  H10 UNL     1      -6.690   5.616  12.676  1.00  0.00     0.210 HD
ENDBRANCH  29  30
BRANCH  29  32
HETATM   32  C6  UNL     1      -8.217   6.056  14.491  1.00  0.00     0.101 C 
HETATM   33  C7  UNL     1      -8.991   5.979  13.167  1.00  0.00     0.051 C 
BRANCH  32  34
HETATM   34  O2  UNL     1      -8.065   4.691  14.953  1.00  0.00    -0.385 OA
HETATM   35  H14 UNL     1      -8.901   4.480  15.418  1.00  0.00     0.210 HD
ENDBRANCH  32  34
BRANCH  32  36
HETATM   36  C8  UNL     1      -9.010   6.830  15.562  1.00  0.00     0.204 C 
BRANCH  36  37
HETATM   37  O3  UNL     1     -10.410   6.767  15.269  1.00  0.00    -0.398 OA
HETATM   38  H17 UNL     1     -10.604   7.465  14.617  1.00  0.00     0.209 HD
ENDBRANCH  36  37
ENDBRANCH  32  36
ENDBRANCH  29  32
ENDBRANCH  28  29
ENDBRANCH  27  28
ENDBRANCH  25  27
ENDBRANCH   1  25
TORSDOF 9
ENDMDL
MODEL 8
REMARK minimizedAffinity -8.83108425
REMARK  9 active torsions:
REMARK  status: ('A' for Active; 'I' for Inactive)
REMARK    1  A    between atoms: C2_2  and  C3_3 
REMARK    2  A    between atoms: C2_2  and  C9_12 
REMARK    3  A    between atoms: C3_3  and  C4_4 
REMARK    4  A    between atoms: C4_4  and  C5_5 
REMARK    5  A    between atoms: C5_5  and  O1_6 
REMARK    6  A    between atoms: C5_5  and  C6_7 
REMARK    7  A    between atoms: C6_7  and  O2_9 
REMARK    8  A    between atoms: C6_7  and  C8_10 
REMARK    9  A    between atoms: C8_10  and  O3_11 
ROOT
HETATM    1  C9  UNL     1      -2.871   7.583  14.205  1.00  0.00    -0.002 C 
HETATM    2  C10 UNL     1      -2.357   7.556  15.671  1.00  0.00     0.007 C 
HETATM    3  C11 UNL     1      -0.819   7.653  15.611  1.00  0.00     0.015 C 
HETATM    4  C12 UNL     1      -0.502   8.135  14.181  1.00  0.00    -0.005 C 
HETATM    5  C13 UNL     1      -0.694   9.684  14.172  1.00  0.00     0.021 C 
HETATM    6  C14 UNL     1       0.877   7.928  13.571  1.00  0.00    -0.000 C 
HETATM    7  C15 UNL     1       1.035   7.786  12.227  1.00  0.00    -0.060 C 
HETATM    8  C16 UNL     1      -0.182   7.760  11.294  1.00  0.00     0.036 C 
HETATM    9  C17 UNL     1      -1.583   7.840  11.932  1.00  0.00     0.015 C 
HETATM   10  C18 UNL     1      -1.585   7.311  13.370  1.00  0.00    -0.028 C 
HETATM   11  C19 UNL     1      -1.281   5.786  13.327  1.00  0.00     0.016 C 
HETATM   12  C20 UNL     1       2.423   7.590  11.562  1.00  0.00    -0.014 C 
HETATM   13  C21 UNL     1       2.632   6.062  11.471  1.00  0.00     0.020 C 
HETATM   14  C22 UNL     1       2.473   8.200  10.136  1.00  0.00     0.021 C 
HETATM   15  C23 UNL     1       3.856   8.165   9.507  1.00  0.00     0.080 C 
HETATM   16  C24 UNL     1       4.844   8.905  10.372  1.00  0.00     0.135 C 
HETATM   17  O4  UNL     1       5.594   9.742   9.866  1.00  0.00    -0.297 OA
HETATM   18  C25 UNL     1       4.930   8.505  11.852  1.00  0.00     0.018 C 
HETATM   19  C26 UNL     1       5.661   9.647  12.603  1.00  0.00     0.023 C 
HETATM   20  C27 UNL     1       5.817   7.257  11.960  1.00  0.00     0.023 C 
HETATM   21  C28 UNL     1       3.482   8.348  12.436  1.00  0.00     0.020 C 
HETATM   22  C29 UNL     1       3.453   7.812  13.871  1.00  0.00     0.090 C 
HETATM   23  C30 UNL     1       2.074   7.932  14.475  1.00  0.00     0.157 C 
HETATM   24  O5  UNL     1       1.952   8.008  15.696  1.00  0.00    -0.293 OA
ENDROOT
BRANCH   1  25
HETATM   25  C2  UNL     1      -4.210   6.811  13.994  1.00  0.00    -0.014 C 
HETATM   26  C1  UNL     1      -4.863   6.218  15.244  1.00  0.00     0.010 C 
BRANCH  25  27
HETATM   27  C3  UNL     1      -4.082   5.756  12.869  1.00  0.00     0.007 C 
BRANCH  27  28
HETATM   28  C4  UNL     1      -4.677   4.376  13.208  1.00  0.00     0.035 C 
BRANCH  28  29
HETATM   29  C5  UNL     1      -5.611   3.808  12.129  1.00  0.00     0.154 C 
BRANCH  29  30
HETATM   30  O1  UNL     1      -6.816   3.343  12.759  1.00  0.00    -0.392 OA
HETATM   31  H10 UNL     1      -7.291   2.864  12.046  1.00  0.00     0.210 HD
ENDBRANCH  29  30
BRANCH  29  32
HETATM   32  C6  UNL     1      -5.010   2.647  11.293  1.00  0.00     0.101 C 
HETATM   33  C7  UNL     1      -5.901   1.397  11.276  1.00  0.00     0.051 C 
BRANCH  32  34
HETATM   34  O2  UNL     1      -4.949   3.120   9.925  1.00  0.00    -0.385 OA
HETATM   35  H14 UNL     1      -4.247   2.588   9.497  1.00  0.00     0.210 HD
ENDBRANCH  32  34
BRANCH  32  36
HETATM   36  C8  UNL     1      -3.574   2.309  11.739  1.00  0.00     0.204 C 
BRANCH  36  37
HETATM   37  O3  UNL     1      -3.297   0.929  11.476  1.00  0.00    -0.398 OA
HETATM   38  H17 UNL     1      -3.653   0.412  12.221  1.00  0.00     0.209 HD
ENDBRANCH  36  37
ENDBRANCH  32  36
ENDBRANCH  29  32
ENDBRANCH  28  29
ENDBRANCH  27  28
ENDBRANCH  25  27
ENDBRANCH   1  25
TORSDOF 9
ENDMDL
MODEL 9
REMARK minimizedAffinity -8.67567921
REMARK  9 active torsions:
REMARK  status: ('A' for Active; 'I' for Inactive)
REMARK    1  A    between atoms: C2_2  and  C3_3 
REMARK    2  A    between atoms: C2_2  and  C9_12 
REMARK    3  A    between atoms: C3_3  and  C4_4 
REMARK    4  A    between atoms: C4_4  and  C5_5 
REMARK    5  A    between atoms: C5_5  and  O1_6 
REMARK    6  A    between atoms: C5_5  and  C6_7 
REMARK    7  A    between atoms: C6_7  and  O2_9 
REMARK    8  A    between atoms: C6_7  and  C8_10 
REMARK    9  A    between atoms: C8_10  and  O3_11 
ROOT
HETATM    1  C9  UNL     1       0.854   8.121  13.687  1.00  0.00    -0.002 C 
HETATM    2  C10 UNL     1       0.875   9.302  14.695  1.00  0.00     0.007 C 
HETATM    3  C11 UNL     1      -0.559   9.456  15.241  1.00  0.00     0.015 C 
HETATM    4  C12 UNL     1      -1.275   8.143  14.864  1.00  0.00    -0.005 C 
HETATM    5  C13 UNL     1      -0.878   7.085  15.942  1.00  0.00     0.021 C 
HETATM    6  C14 UNL     1      -2.794   8.065  14.809  1.00  0.00    -0.000 C 
HETATM    7  C15 UNL     1      -3.421   7.198  13.969  1.00  0.00    -0.060 C 
HETATM    8  C16 UNL     1      -2.615   6.323  13.001  1.00  0.00     0.036 C 
HETATM    9  C17 UNL     1      -1.084   6.502  12.971  1.00  0.00     0.015 C 
HETATM   10  C18 UNL     1      -0.665   7.905  13.422  1.00  0.00    -0.028 C 
HETATM   11  C19 UNL     1      -1.180   8.928  12.368  1.00  0.00     0.016 C 
HETATM   12  C20 UNL     1      -4.966   7.074  13.894  1.00  0.00    -0.014 C 
HETATM   13  C21 UNL     1      -5.410   8.047  12.778  1.00  0.00     0.020 C 
HETATM   14  C22 UNL     1      -5.414   5.635  13.526  1.00  0.00     0.021 C 
HETATM   15  C23 UNL     1      -6.919   5.431  13.589  1.00  0.00     0.080 C 
HETATM   16  C24 UNL     1      -7.433   5.747  14.969  1.00  0.00     0.135 C 
HETATM   17  O4  UNL     1      -8.183   4.953  15.540  1.00  0.00    -0.297 OA
HETATM   18  C25 UNL     1      -7.063   7.111  15.569  1.00  0.00     0.018 C 
HETATM   19  C26 UNL     1      -7.321   7.037  17.096  1.00  0.00     0.023 C 
HETATM   20  C27 UNL     1      -8.029   8.162  15.001  1.00  0.00     0.023 C 
HETATM   21  C28 UNL     1      -5.541   7.398  15.316  1.00  0.00     0.020 C 
HETATM   22  C29 UNL     1      -5.099   8.799  15.750  1.00  0.00     0.090 C 
HETATM   23  C30 UNL     1      -3.595   8.930  15.738  1.00  0.00     0.157 C 
HETATM   24  O5  UNL     1      -3.052   9.756  16.468  1.00  0.00    -0.293 OA
ENDROOT
BRANCH   1  25
HETATM   25  C2  UNL     1       1.914   8.245  12.550  1.00  0.00    -0.014 C 
HETATM   26  C1  UNL     1       3.212   8.976  12.901  1.00  0.00     0.010 C 
BRANCH  25  27
HETATM   27  C3  UNL     1       1.286   8.803  11.251  1.00  0.00     0.007 C 
BRANCH  27  28
HETATM   28  C4  UNL     1       1.056   7.757  10.143  1.00  0.00     0.035 C 
BRANCH  28  29
HETATM   29  C5  UNL     1       1.100   8.325   8.718  1.00  0.00     0.154 C 
BRANCH  29  30
HETATM   30  O1  UNL     1      -0.163   8.073   8.080  1.00  0.00    -0.392 OA
HETATM   31  H10 UNL     1      -0.013   8.320   7.142  1.00  0.00     0.210 HD
ENDBRANCH  29  30
BRANCH  29  32
HETATM   32  C6  UNL     1       2.230   7.751   7.822  1.00  0.00     0.101 C 
HETATM   33  C7  UNL     1       1.714   7.203   6.484  1.00  0.00     0.051 C 
BRANCH  32  34
HETATM   34  O2  UNL     1       3.097   8.866   7.497  1.00  0.00    -0.385 OA
HETATM   35  H14 UNL     1       3.967   8.465   7.290  1.00  0.00     0.210 HD
ENDBRANCH  32  34
BRANCH  32  36
HETATM   36  C8  UNL     1       3.073   6.702   8.573  1.00  0.00     0.204 C 
BRANCH  36  37
HETATM   37  O3  UNL     1       2.818   5.400   8.034  1.00  0.00    -0.398 OA
HETATM   38  H17 UNL     1       2.011   5.059   8.459  1.00  0.00     0.209 HD
ENDBRANCH  36  37
ENDBRANCH  32  36
ENDBRANCH  29  32
ENDBRANCH  28  29
ENDBRANCH  27  28
ENDBRANCH  25  27
ENDBRANCH   1  25
TORSDOF 9
ENDMDL
