MODEL 1
REMARK minimizedAffinity -7.37422848
REMARK CNNscore 0.527770996
REMARK CNNaffinity 6.69431734
REMARK  7 active torsions:
REMARK  status: ('A' for Active; 'I' for Inactive)
REMARK    1  A    between atoms: C2_2  and  C30_34 
REMARK    2  A    between atoms: C3_3  and  C4_4 
REMARK    3  A    between atoms: C4_4  and  C5_5 
REMARK    4  A    between atoms: C5_5  and  C6_6 
REMARK    5  A    between atoms: C6_6  and  C8_8 
REMARK    6  A    between atoms: C15_16  and  O2_17 
REMARK    7  A    between atoms: C30_34  and  O6_36 
ROOT
HETATM    1  C8  UNL     1      -1.504  53.574  -9.559  1.00  0.00     0.006 C 
HETATM    2  C9  UNL     1      -1.809  53.256  -8.076  1.00  0.00     0.085 C 
HETATM    3  C10 UNL     1      -0.562  53.746  -7.343  1.00  0.00     0.141 C 
HETATM    4  O1  UNL     1      -0.372  53.519  -6.158  1.00  0.00    -0.297 OA
HETATM    5  C11 UNL     1       0.378  54.504  -8.295  1.00  0.00     0.055 C 
HETATM    6  C12 UNL     1      -0.129  55.970  -8.323  1.00  0.00     0.030 C 
HETATM    7  C13 UNL     1       1.871  54.548  -8.104  1.00  0.00     0.010 C 
HETATM    8  C14 UNL     1       2.752  54.565  -9.137  1.00  0.00    -0.032 C 
HETATM    9  C15 UNL     1       2.205  54.568 -10.581  1.00  0.00     0.149 C 
HETATM   10  C16 UNL     1       0.684  54.331 -10.779  1.00  0.00     0.047 C 
HETATM   11  C17 UNL     1       0.057  53.632  -9.573  1.00  0.00    -0.018 C 
HETATM   12  C18 UNL     1       0.643  52.183  -9.500  1.00  0.00     0.017 C 
HETATM   13  C19 UNL     1       4.317  54.527  -8.934  1.00  0.00    -0.012 C 
HETATM   14  C20 UNL     1       4.957  55.639  -9.795  1.00  0.00     0.021 C 
HETATM   15  C21 UNL     1       4.797  53.131  -9.419  1.00  0.00     0.021 C 
HETATM   16  C22 UNL     1       6.277  52.868  -9.205  1.00  0.00     0.080 C 
HETATM   17  C23 UNL     1       6.633  52.998  -7.749  1.00  0.00     0.135 C 
HETATM   18  O3  UNL     1       7.288  52.115  -7.191  1.00  0.00    -0.297 OA
HETATM   19  C24 UNL     1       6.254  54.306  -7.045  1.00  0.00     0.018 C 
HETATM   20  C25 UNL     1       6.441  54.113  -5.519  1.00  0.00     0.023 C 
HETATM   21  C26 UNL     1       7.293  55.374  -7.453  1.00  0.00     0.023 C 
HETATM   22  C27 UNL     1       4.767  54.724  -7.415  1.00  0.00     0.020 C 
HETATM   23  C28 UNL     1       3.745  54.039  -6.488  1.00  0.00     0.090 C 
HETATM   24  C29 UNL     1       2.406  54.663  -6.732  1.00  0.00     0.157 C 
HETATM   25  O4  UNL     1       1.818  55.301  -5.866  1.00  0.00    -0.293 OA
ENDROOT
BRANCH   1  26
HETATM   26  C6  UNL     1      -2.187  52.676 -10.631  1.00  0.00    -0.013 C 
HETATM   27  C7  UNL     1      -1.368  51.479 -11.128  1.00  0.00     0.010 C 
BRANCH  26  28
HETATM   28  C5  UNL     1      -3.594  52.207 -10.172  1.00  0.00     0.008 C 
BRANCH  28  29
HETATM   29  C4  UNL     1      -4.008  50.810 -10.638  1.00  0.00     0.028 C 
BRANCH  29  30
HETATM   30  C3  UNL     1      -5.465  50.553 -10.362  1.00  0.00    -0.013 C 
HETATM   31  C2  UNL     1      -6.155  49.439 -10.689  1.00  0.00     0.008 C 
HETATM   32  C1  UNL     1      -5.583  48.292 -11.470  1.00  0.00     0.055 C 
BRANCH  31  33
HETATM   33  C30 UNL     1      -7.583  49.283 -10.305  1.00  0.00     0.171 C 
HETATM   34  O5  UNL     1      -8.285  48.325 -10.574  1.00  0.00    -0.646 OA
BRANCH  33  35
HETATM   35  O6  UNL     1      -8.078  50.318  -9.606  1.00  0.00    -0.773 OA
HETATM   36  H42 UNL     1      -9.005  50.053  -9.433  1.00  0.00     0.167 HD
ENDBRANCH  33  35
ENDBRANCH  31  33
ENDBRANCH  29  30
ENDBRANCH  28  29
ENDBRANCH  26  28
ENDBRANCH   1  26
BRANCH   9  37
HETATM   37  O2  UNL     1       2.492  55.834 -11.168  1.00  0.00    -0.391 OA
HETATM   38  H20 UNL     1       2.267  55.781 -12.111  1.00  0.00     0.210 HD
ENDBRANCH   9  37
TORSDOF 7
ENDMDL
MODEL 2
REMARK minimizedAffinity -7.95873737
REMARK CNNscore 0.523282051
REMARK CNNaffinity 6.00000191
REMARK  7 active torsions:
REMARK  status: ('A' for Active; 'I' for Inactive)
REMARK    1  A    between atoms: C2_2  and  C30_34 
REMARK    2  A    between atoms: C3_3  and  C4_4 
REMARK    3  A    between atoms: C4_4  and  C5_5 
REMARK    4  A    between atoms: C5_5  and  C6_6 
REMARK    5  A    between atoms: C6_6  and  C8_8 
REMARK    6  A    between atoms: C15_16  and  O2_17 
REMARK    7  A    between atoms: C30_34  and  O6_36 
ROOT
HETATM    1  C8  UNL     1     -10.245  46.734 -29.105  1.00  0.00     0.006 C 
HETATM    2  C9  UNL     1     -10.146  48.062 -28.318  1.00  0.00     0.085 C 
HETATM    3  C10 UNL     1     -11.054  47.831 -27.112  1.00  0.00     0.141 C 
HETATM    4  O1  UNL     1     -11.350  48.728 -26.339  1.00  0.00    -0.297 OA
HETATM    5  C11 UNL     1     -11.533  46.371 -27.053  1.00  0.00     0.055 C 
HETATM    6  C12 UNL     1     -10.421  45.583 -26.312  1.00  0.00     0.030 C 
HETATM    7  C13 UNL     1     -12.851  45.969 -26.445  1.00  0.00     0.010 C 
HETATM    8  C14 UNL     1     -13.609  44.949 -26.921  1.00  0.00    -0.032 C 
HETATM    9  C15 UNL     1     -13.089  44.138 -28.129  1.00  0.00     0.149 C 
HETATM   10  C16 UNL     1     -11.833  44.668 -28.871  1.00  0.00     0.047 C 
HETATM   11  C17 UNL     1     -11.612  46.159 -28.617  1.00  0.00    -0.018 C 
HETATM   12  C18 UNL     1     -12.788  46.941 -29.291  1.00  0.00     0.017 C 
HETATM   13  C19 UNL     1     -15.028  44.583 -26.335  1.00  0.00    -0.012 C 
HETATM   14  C20 UNL     1     -15.081  43.060 -26.078  1.00  0.00     0.021 C 
HETATM   15  C21 UNL     1     -16.074  44.982 -27.412  1.00  0.00     0.021 C 
HETATM   16  C22 UNL     1     -17.518  44.797 -26.983  1.00  0.00     0.080 C 
HETATM   17  C23 UNL     1     -17.807  45.595 -25.740  1.00  0.00     0.135 C 
HETATM   18  O3  UNL     1     -18.800  46.324 -25.691  1.00  0.00    -0.297 OA
HETATM   19  C24 UNL     1     -16.896  45.369 -24.529  1.00  0.00     0.018 C 
HETATM   20  C25 UNL     1     -17.181  46.481 -23.487  1.00  0.00     0.023 C 
HETATM   21  C26 UNL     1     -17.335  44.052 -23.852  1.00  0.00     0.023 C 
HETATM   22  C27 UNL     1     -15.372  45.350 -24.978  1.00  0.00     0.020 C 
HETATM   23  C28 UNL     1     -14.786  46.774 -25.035  1.00  0.00     0.090 C 
HETATM   24  C29 UNL     1     -13.305  46.659 -25.220  1.00  0.00     0.157 C 
HETATM   25  O4  UNL     1     -12.511  47.045 -24.370  1.00  0.00    -0.293 OA
ENDROOT
BRANCH   1  26
HETATM   26  C6  UNL     1     -10.016  46.803 -30.643  1.00  0.00    -0.013 C 
HETATM   27  C7  UNL     1     -11.279  46.809 -31.512  1.00  0.00     0.010 C 
BRANCH  26  28
HETATM   28  C5  UNL     1      -9.094  47.991 -31.032  1.00  0.00     0.008 C 
BRANCH  28  29
HETATM   29  C4  UNL     1      -7.595  47.684 -31.049  1.00  0.00     0.028 C 
BRANCH  29  30
HETATM   30  C3  UNL     1      -6.988  48.010 -32.387  1.00  0.00    -0.013 C 
HETATM   31  C2  UNL     1      -5.776  47.613 -32.831  1.00  0.00     0.008 C 
HETATM   32  C1  UNL     1      -4.790  46.836 -32.008  1.00  0.00     0.055 C 
BRANCH  31  33
HETATM   33  C30 UNL     1      -5.314  47.954 -34.202  1.00  0.00     0.171 C 
HETATM   34  O5  UNL     1      -4.178  48.268 -34.507  1.00  0.00    -0.646 OA
BRANCH  33  35
HETATM   35  O6  UNL     1      -6.278  47.889 -35.136  1.00  0.00    -0.773 OA
HETATM   36  H42 UNL     1      -5.812  48.131 -35.962  1.00  0.00     0.167 HD
ENDBRANCH  33  35
ENDBRANCH  31  33
ENDBRANCH  29  30
ENDBRANCH  28  29
ENDBRANCH  26  28
ENDBRANCH   1  26
BRANCH   9  37
HETATM   37  O2  UNL     1     -12.764  42.824 -27.682  1.00  0.00    -0.391 OA
HETATM   38  H20 UNL     1     -12.568  42.285 -28.465  1.00  0.00     0.210 HD
ENDBRANCH   9  37
TORSDOF 7
ENDMDL
MODEL 3
REMARK minimizedAffinity -7.51829004
REMARK CNNscore 0.491723776
REMARK CNNaffinity 6.68552351
REMARK  7 active torsions:
REMARK  status: ('A' for Active; 'I' for Inactive)
REMARK    1  A    between atoms: C2_2  and  C30_34 
REMARK    2  A    between atoms: C3_3  and  C4_4 
REMARK    3  A    between atoms: C4_4  and  C5_5 
REMARK    4  A    between atoms: C5_5  and  C6_6 
REMARK    5  A    between atoms: C6_6  and  C8_8 
REMARK    6  A    between atoms: C15_16  and  O2_17 
REMARK    7  A    between atoms: C30_34  and  O6_36 
ROOT
HETATM    1  C8  UNL     1       0.909  50.030 -14.349  1.00  0.00     0.006 C 
HETATM    2  C9  UNL     1       1.974  48.915 -14.220  1.00  0.00     0.085 C 
HETATM    3  C10 UNL     1       2.632  49.204 -12.873  1.00  0.00     0.141 C 
HETATM    4  O1  UNL     1       3.636  48.617 -12.499  1.00  0.00    -0.297 OA
HETATM    5  C11 UNL     1       1.884  50.316 -12.120  1.00  0.00     0.055 C 
HETATM    6  C12 UNL     1       0.729  49.617 -11.356  1.00  0.00     0.030 C 
HETATM    7  C13 UNL     1       2.566  51.246 -11.150  1.00  0.00     0.010 C 
HETATM    8  C14 UNL     1       2.216  52.549 -10.999  1.00  0.00    -0.032 C 
HETATM    9  C15 UNL     1       1.045  53.106 -11.838  1.00  0.00     0.149 C 
HETATM   10  C16 UNL     1       0.472  52.209 -12.967  1.00  0.00     0.047 C 
HETATM   11  C17 UNL     1       1.472  51.138 -13.404  1.00  0.00    -0.018 C 
HETATM   12  C18 UNL     1       2.678  51.861 -14.093  1.00  0.00     0.017 C 
HETATM   13  C19 UNL     1       2.986  53.542 -10.044  1.00  0.00    -0.012 C 
HETATM   14  C20 UNL     1       1.954  54.295  -9.174  1.00  0.00     0.021 C 
HETATM   15  C21 UNL     1       3.747  54.543 -10.958  1.00  0.00     0.021 C 
HETATM   16  C22 UNL     1       4.634  55.523 -10.212  1.00  0.00     0.080 C 
HETATM   17  C23 UNL     1       5.653  54.789  -9.383  1.00  0.00     0.135 C 
HETATM   18  O3  UNL     1       6.843  55.105  -9.444  1.00  0.00    -0.297 OA
HETATM   19  C24 UNL     1       5.133  53.739  -8.395  1.00  0.00     0.018 C 
HETATM   20  C25 UNL     1       6.339  52.917  -7.875  1.00  0.00     0.023 C 
HETATM   21  C26 UNL     1       4.585  54.488  -7.161  1.00  0.00     0.023 C 
HETATM   22  C27 UNL     1       4.040  52.819  -9.089  1.00  0.00     0.020 C 
HETATM   23  C28 UNL     1       4.692  51.646  -9.847  1.00  0.00     0.090 C 
HETATM   24  C29 UNL     1       3.609  50.699 -10.259  1.00  0.00     0.157 C 
HETATM   25  O4  UNL     1       3.543  49.556  -9.821  1.00  0.00    -0.293 OA
ENDROOT
BRANCH   1  26
HETATM   26  C6  UNL     1       0.508  50.464 -15.788  1.00  0.00    -0.013 C 
HETATM   27  C7  UNL     1       1.445  51.463 -16.475  1.00  0.00     0.010 C 
BRANCH  26  28
HETATM   28  C5  UNL     1       0.267  49.238 -16.710  1.00  0.00     0.008 C 
BRANCH  28  29
HETATM   29  C4  UNL     1      -0.867  49.390 -17.726  1.00  0.00     0.028 C 
BRANCH  29  30
HETATM   30  C3  UNL     1      -0.479  50.326 -18.838  1.00  0.00    -0.013 C 
HETATM   31  C2  UNL     1      -0.515  50.053 -20.160  1.00  0.00     0.008 C 
HETATM   32  C1  UNL     1      -0.878  48.714 -20.735  1.00  0.00     0.055 C 
BRANCH  31  33
HETATM   33  C30 UNL     1      -0.161  51.089 -21.166  1.00  0.00     0.171 C 
HETATM   34  O5  UNL     1      -0.459  51.058 -22.347  1.00  0.00    -0.646 OA
BRANCH  33  35
HETATM   35  O6  UNL     1       0.546  52.117 -20.667  1.00  0.00    -0.773 OA
HETATM   36  H42 UNL     1       0.685  52.697 -21.444  1.00  0.00     0.167 HD
ENDBRANCH  33  35
ENDBRANCH  31  33
ENDBRANCH  29  30
ENDBRANCH  28  29
ENDBRANCH  26  28
ENDBRANCH   1  26
BRANCH   9  37
HETATM   37  O2  UNL     1      -0.042  53.389 -10.962  1.00  0.00    -0.391 OA
HETATM   38  H20 UNL     1      -0.720  53.861 -11.472  1.00  0.00     0.210 HD
ENDBRANCH   9  37
TORSDOF 7
ENDMDL
MODEL 4
REMARK minimizedAffinity -7.34482288
REMARK CNNscore 0.387186676
REMARK CNNaffinity 6.22449875
REMARK  7 active torsions:
REMARK  status: ('A' for Active; 'I' for Inactive)
REMARK    1  A    between atoms: C2_2  and  C30_34 
REMARK    2  A    between atoms: C3_3  and  C4_4 
REMARK    3  A    between atoms: C4_4  and  C5_5 
REMARK    4  A    between atoms: C5_5  and  C6_6 
REMARK    5  A    between atoms: C6_6  and  C8_8 
REMARK    6  A    between atoms: C15_16  and  O2_17 
REMARK    7  A    between atoms: C30_34  and  O6_36 
ROOT
HETATM    1  C8  UNL     1       2.441  53.785 -10.677  1.00  0.00     0.006 C 
HETATM    2  C9  UNL     1       1.194  54.518 -10.128  1.00  0.00     0.085 C 
HETATM    3  C10 UNL     1       1.776  55.503  -9.116  1.00  0.00     0.141 C 
HETATM    4  O1  UNL     1       1.071  56.154  -8.361  1.00  0.00    -0.297 OA
HETATM    5  C11 UNL     1       3.312  55.517  -9.179  1.00  0.00     0.055 C 
HETATM    6  C12 UNL     1       3.688  56.517 -10.304  1.00  0.00     0.030 C 
HETATM    7  C13 UNL     1       4.175  55.838  -7.986  1.00  0.00     0.010 C 
HETATM    8  C14 UNL     1       5.377  55.249  -7.759  1.00  0.00    -0.032 C 
HETATM    9  C15 UNL     1       5.906  54.221  -8.784  1.00  0.00     0.149 C 
HETATM   10  C16 UNL     1       4.941  53.751  -9.904  1.00  0.00     0.047 C 
HETATM   11  C17 UNL     1       3.478  53.985  -9.526  1.00  0.00    -0.018 C 
HETATM   12  C18 UNL     1       3.134  53.036  -8.330  1.00  0.00     0.017 C 
HETATM   13  C19 UNL     1       6.240  55.524  -6.467  1.00  0.00    -0.012 C 
HETATM   14  C20 UNL     1       7.693  55.827  -6.895  1.00  0.00     0.021 C 
HETATM   15  C21 UNL     1       6.193  54.227  -5.612  1.00  0.00     0.021 C 
HETATM   16  C22 UNL     1       6.890  54.336  -4.268  1.00  0.00     0.080 C 
HETATM   17  C23 UNL     1       6.292  55.450  -3.451  1.00  0.00     0.135 C 
HETATM   18  O3  UNL     1       5.961  55.249  -2.281  1.00  0.00    -0.297 OA
HETATM   19  C24 UNL     1       6.230  56.840  -4.093  1.00  0.00     0.018 C 
HETATM   20  C25 UNL     1       5.331  57.746  -3.214  1.00  0.00     0.023 C 
HETATM   21  C26 UNL     1       7.643  57.459  -4.006  1.00  0.00     0.023 C 
HETATM   22  C27 UNL     1       5.696  56.738  -5.585  1.00  0.00     0.020 C 
HETATM   23  C28 UNL     1       4.156  56.752  -5.632  1.00  0.00     0.090 C 
HETATM   24  C29 UNL     1       3.736  56.902  -7.061  1.00  0.00     0.157 C 
HETATM   25  O4  UNL     1       3.129  57.889  -7.461  1.00  0.00    -0.293 OA
ENDROOT
BRANCH   1  26
HETATM   26  C6  UNL     1       2.236  52.334 -11.200  1.00  0.00    -0.013 C 
HETATM   27  C7  UNL     1       0.794  51.816 -11.202  1.00  0.00     0.010 C 
BRANCH  26  28
HETATM   28  C5  UNL     1       2.878  52.134 -12.600  1.00  0.00     0.008 C 
BRANCH  28  29
HETATM   29  C4  UNL     1       2.355  50.939 -13.400  1.00  0.00     0.028 C 
BRANCH  29  30
HETATM   30  C3  UNL     1       1.651  51.389 -14.652  1.00  0.00    -0.013 C 
HETATM   31  C2  UNL     1       2.235  51.898 -15.758  1.00  0.00     0.008 C 
HETATM   32  C1  UNL     1       3.705  52.177 -15.882  1.00  0.00     0.055 C 
BRANCH  31  33
HETATM   33  C30 UNL     1       1.429  52.251 -16.957  1.00  0.00     0.171 C 
HETATM   34  O5  UNL     1       0.364  51.748 -17.264  1.00  0.00    -0.646 OA
BRANCH  33  35
HETATM   35  O6  UNL     1       1.979  53.210 -17.721  1.00  0.00    -0.773 OA
HETATM   36  H42 UNL     1       1.330  53.322 -18.446  1.00  0.00     0.167 HD
ENDBRANCH  33  35
ENDBRANCH  31  33
ENDBRANCH  29  30
ENDBRANCH  28  29
ENDBRANCH  26  28
ENDBRANCH   1  26
BRANCH   9  37
HETATM   37  O2  UNL     1       7.038  54.784  -9.441  1.00  0.00    -0.391 OA
HETATM   38  H20 UNL     1       7.444  54.086  -9.982  1.00  0.00     0.210 HD
ENDBRANCH   9  37
TORSDOF 7
ENDMDL
MODEL 5
REMARK minimizedAffinity -7.39359665
REMARK CNNscore 0.369123369
REMARK CNNaffinity 6.33569765
REMARK  7 active torsions:
REMARK  status: ('A' for Active; 'I' for Inactive)
REMARK    1  A    between atoms: C2_2  and  C30_34 
REMARK    2  A    between atoms: C3_3  and  C4_4 
REMARK    3  A    between atoms: C4_4  and  C5_5 
REMARK    4  A    between atoms: C5_5  and  C6_6 
REMARK    5  A    between atoms: C6_6  and  C8_8 
REMARK    6  A    between atoms: C15_16  and  O2_17 
REMARK    7  A    between atoms: C30_34  and  O6_36 
ROOT
HETATM    1  C8  UNL     1      -3.609  49.580 -21.616  1.00  0.00     0.006 C 
HETATM    2  C9  UNL     1      -3.014  50.009 -20.254  1.00  0.00     0.085 C 
HETATM    3  C10 UNL     1      -3.771  49.145 -19.246  1.00  0.00     0.141 C 
HETATM    4  O1  UNL     1      -3.678  49.319 -18.041  1.00  0.00    -0.297 OA
HETATM    5  C11 UNL     1      -4.645  48.101 -19.960  1.00  0.00     0.055 C 
HETATM    6  C12 UNL     1      -3.721  46.887 -20.240  1.00  0.00     0.030 C 
HETATM    7  C13 UNL     1      -5.923  47.566 -19.369  1.00  0.00     0.010 C 
HETATM    8  C14 UNL     1      -7.007  47.238 -20.118  1.00  0.00    -0.032 C 
HETATM    9  C15 UNL     1      -6.924  47.390 -21.653  1.00  0.00     0.149 C 
HETATM   10  C16 UNL     1      -5.685  48.116 -22.243  1.00  0.00     0.047 C 
HETATM   11  C17 UNL     1      -5.002  49.006 -21.205  1.00  0.00    -0.018 C 
HETATM   12  C18 UNL     1      -5.979  50.179 -20.860  1.00  0.00     0.017 C 
HETATM   13  C19 UNL     1      -8.373  46.757 -19.490  1.00  0.00    -0.012 C 
HETATM   14  C20 UNL     1      -8.836  45.480 -20.227  1.00  0.00     0.021 C 
HETATM   15  C21 UNL     1      -9.397  47.905 -19.714  1.00  0.00     0.021 C 
HETATM   16  C22 UNL     1     -10.756  47.664 -19.082  1.00  0.00     0.080 C 
HETATM   17  C23 UNL     1     -10.619  47.450 -17.599  1.00  0.00     0.135 C 
HETATM   18  O3  UNL     1     -11.337  48.076 -16.815  1.00  0.00    -0.297 OA
HETATM   19  C24 UNL     1      -9.654  46.356 -17.131  1.00  0.00     0.018 C 
HETATM   20  C25 UNL     1      -9.450  46.504 -15.602  1.00  0.00     0.023 C 
HETATM   21  C26 UNL     1     -10.361  44.996 -17.319  1.00  0.00     0.023 C 
HETATM   22  C27 UNL     1      -8.283  46.450 -17.927  1.00  0.00     0.020 C 
HETATM   23  C28 UNL     1      -7.318  47.453 -17.266  1.00  0.00     0.090 C 
HETATM   24  C29 UNL     1      -5.977  47.306 -17.916  1.00  0.00     0.157 C 
HETATM   25  O4  UNL     1      -4.994  46.915 -17.298  1.00  0.00    -0.293 OA
ENDROOT
BRANCH   1  26
HETATM   26  C6  UNL     1      -3.589  50.634 -22.761  1.00  0.00    -0.013 C 
HETATM   27  C7  UNL     1      -4.930  51.301 -23.085  1.00  0.00     0.010 C 
BRANCH  26  28
HETATM   28  C5  UNL     1      -2.499  51.714 -22.525  1.00  0.00     0.008 C 
BRANCH  28  29
HETATM   29  C4  UNL     1      -1.130  51.414 -23.141  1.00  0.00     0.028 C 
BRANCH  29  30
HETATM   30  C3  UNL     1      -0.202  52.591 -23.005  1.00  0.00    -0.013 C 
HETATM   31  C2  UNL     1       0.476  52.948 -21.893  1.00  0.00     0.008 C 
HETATM   32  C1  UNL     1       0.343  52.257 -20.566  1.00  0.00     0.055 C 
BRANCH  31  33
HETATM   33  C30 UNL     1       1.412  54.103 -21.905  1.00  0.00     0.171 C 
HETATM   34  O5  UNL     1       2.095  54.468 -20.965  1.00  0.00    -0.646 OA
BRANCH  33  35
HETATM   35  O6  UNL     1       1.461  54.755 -23.079  1.00  0.00    -0.773 OA
HETATM   36  H42 UNL     1       2.116  55.465 -22.918  1.00  0.00     0.167 HD
ENDBRANCH  33  35
ENDBRANCH  31  33
ENDBRANCH  29  30
ENDBRANCH  28  29
ENDBRANCH  26  28
ENDBRANCH   1  26
BRANCH   9  37
HETATM   37  O2  UNL     1      -6.940  46.090 -22.235  1.00  0.00    -0.391 OA
HETATM   38  H20 UNL     1      -7.024  46.197 -23.197  1.00  0.00     0.210 HD
ENDBRANCH   9  37
TORSDOF 7
ENDMDL
MODEL 6
REMARK minimizedAffinity -7.9658823
REMARK CNNscore 0.358954459
REMARK CNNaffinity 6.50934029
REMARK  7 active torsions:
REMARK  status: ('A' for Active; 'I' for Inactive)
REMARK    1  A    between atoms: C2_2  and  C30_34 
REMARK    2  A    between atoms: C3_3  and  C4_4 
REMARK    3  A    between atoms: C4_4  and  C5_5 
REMARK    4  A    between atoms: C5_5  and  C6_6 
REMARK    5  A    between atoms: C6_6  and  C8_8 
REMARK    6  A    between atoms: C15_16  and  O2_17 
REMARK    7  A    between atoms: C30_34  and  O6_36 
ROOT
HETATM    1  C8  UNL     1      -3.698  50.083 -20.294  1.00  0.00     0.006 C 
HETATM    2  C9  UNL     1      -3.860  50.787 -21.662  1.00  0.00     0.085 C 
HETATM    3  C10 UNL     1      -5.076  50.097 -22.277  1.00  0.00     0.141 C 
HETATM    4  O1  UNL     1      -5.415  50.285 -23.435  1.00  0.00    -0.297 OA
HETATM    5  C11 UNL     1      -5.748  49.155 -21.264  1.00  0.00     0.055 C 
HETATM    6  C12 UNL     1      -6.720  50.036 -20.437  1.00  0.00     0.030 C 
HETATM    7  C13 UNL     1      -6.502  47.918 -21.676  1.00  0.00     0.010 C 
HETATM    8  C14 UNL     1      -6.511  46.775 -20.943  1.00  0.00    -0.032 C 
HETATM    9  C15 UNL     1      -5.736  46.742 -19.607  1.00  0.00     0.149 C 
HETATM   10  C16 UNL     1      -4.809  47.943 -19.278  1.00  0.00     0.047 C 
HETATM   11  C17 UNL     1      -4.416  48.717 -20.536  1.00  0.00    -0.018 C 
HETATM   12  C18 UNL     1      -3.508  47.787 -21.409  1.00  0.00     0.017 C 
HETATM   13  C19 UNL     1      -7.233  45.454 -21.418  1.00  0.00    -0.012 C 
HETATM   14  C20 UNL     1      -8.099  44.917 -20.256  1.00  0.00     0.021 C 
HETATM   15  C21 UNL     1      -6.114  44.433 -21.767  1.00  0.00     0.021 C 
HETATM   16  C22 UNL     1      -6.619  43.123 -22.345  1.00  0.00     0.080 C 
HETATM   17  C23 UNL     1      -7.425  43.370 -23.591  1.00  0.00     0.135 C 
HETATM   18  O3  UNL     1      -7.193  42.724 -24.616  1.00  0.00    -0.297 OA
HETATM   19  C24 UNL     1      -8.597  44.353 -23.490  1.00  0.00     0.018 C 
HETATM   20  C25 UNL     1      -9.090  44.676 -24.923  1.00  0.00     0.023 C 
HETATM   21  C26 UNL     1      -9.770  43.613 -22.810  1.00  0.00     0.023 C 
HETATM   22  C27 UNL     1      -8.157  45.660 -22.702  1.00  0.00     0.020 C 
HETATM   23  C28 UNL     1      -7.500  46.688 -23.643  1.00  0.00     0.090 C 
HETATM   24  C29 UNL     1      -7.341  47.972 -22.890  1.00  0.00     0.157 C 
HETATM   25  O4  UNL     1      -7.934  48.994 -23.215  1.00  0.00    -0.293 OA
ENDROOT
BRANCH   1  26
HETATM   26  C6  UNL     1      -2.264  50.030 -19.690  1.00  0.00    -0.013 C 
HETATM   27  C7  UNL     1      -2.145  49.409 -18.294  1.00  0.00     0.010 C 
BRANCH  26  28
HETATM   28  C5  UNL     1      -1.258  49.357 -20.662  1.00  0.00     0.008 C 
BRANCH  28  29
HETATM   29  C4  UNL     1      -0.525  50.306 -21.613  1.00  0.00     0.028 C 
BRANCH  29  30
HETATM   30  C3  UNL     1       0.030  51.495 -20.875  1.00  0.00    -0.013 C 
HETATM   31  C2  UNL     1       0.443  52.655 -21.427  1.00  0.00     0.008 C 
HETATM   32  C1  UNL     1       0.490  52.915 -22.905  1.00  0.00     0.055 C 
BRANCH  31  33
HETATM   33  C30 UNL     1       0.917  53.781 -20.580  1.00  0.00     0.171 C 
HETATM   34  O5  UNL     1       1.866  54.502 -20.830  1.00  0.00    -0.646 OA
BRANCH  33  35
HETATM   35  O6  UNL     1       0.195  53.965 -19.462  1.00  0.00    -0.773 OA
HETATM   36  H42 UNL     1       0.629  54.732 -19.035  1.00  0.00     0.167 HD
ENDBRANCH  33  35
ENDBRANCH  31  33
ENDBRANCH  29  30
ENDBRANCH  28  29
ENDBRANCH  26  28
ENDBRANCH   1  26
BRANCH   9  37
HETATM   37  O2  UNL     1      -6.679  46.662 -18.542  1.00  0.00    -0.391 OA
HETATM   38  H20 UNL     1      -6.186  46.506 -17.721  1.00  0.00     0.210 HD
ENDBRANCH   9  37
TORSDOF 7
ENDMDL
MODEL 7
REMARK minimizedAffinity -8.11694527
REMARK CNNscore 0.335956335
REMARK CNNaffinity 6.28143692
REMARK  7 active torsions:
REMARK  status: ('A' for Active; 'I' for Inactive)
REMARK    1  A    between atoms: C2_2  and  C30_34 
REMARK    2  A    between atoms: C3_3  and  C4_4 
REMARK    3  A    between atoms: C4_4  and  C5_5 
REMARK    4  A    between atoms: C5_5  and  C6_6 
REMARK    5  A    between atoms: C6_6  and  C8_8 
REMARK    6  A    between atoms: C15_16  and  O2_17 
REMARK    7  A    between atoms: C30_34  and  O6_36 
ROOT
HETATM    1  C8  UNL     1      -3.385  49.647 -22.773  1.00  0.00     0.006 C 
HETATM    2  C9  UNL     1      -4.210  48.338 -22.803  1.00  0.00     0.085 C 
HETATM    3  C10 UNL     1      -4.516  48.076 -21.330  1.00  0.00     0.141 C 
HETATM    4  O1  UNL     1      -5.025  47.034 -20.946  1.00  0.00    -0.297 OA
HETATM    5  C11 UNL     1      -4.073  49.259 -20.454  1.00  0.00     0.055 C 
HETATM    6  C12 UNL     1      -5.248  50.271 -20.472  1.00  0.00     0.030 C 
HETATM    7  C13 UNL     1      -3.642  49.097 -19.020  1.00  0.00     0.010 C 
HETATM    8  C14 UNL     1      -2.668  49.850 -18.446  1.00  0.00    -0.032 C 
HETATM    9  C15 UNL     1      -1.985  50.948 -19.290  1.00  0.00     0.149 C 
HETATM   10  C16 UNL     1      -2.290  50.989 -20.812  1.00  0.00     0.047 C 
HETATM   11  C17 UNL     1      -2.810  49.644 -21.322  1.00  0.00    -0.018 C 
HETATM   12  C18 UNL     1      -1.643  48.607 -21.214  1.00  0.00     0.017 C 
HETATM   13  C19 UNL     1      -2.161  49.621 -16.970  1.00  0.00    -0.012 C 
HETATM   14  C20 UNL     1      -2.132  50.983 -16.239  1.00  0.00     0.021 C 
HETATM   15  C21 UNL     1      -0.723  49.040 -17.075  1.00  0.00     0.021 C 
HETATM   16  C22 UNL     1      -0.103  48.657 -15.744  1.00  0.00     0.080 C 
HETATM   17  C23 UNL     1      -0.960  47.645 -15.032  1.00  0.00     0.135 C 
HETATM   18  O3  UNL     1      -0.452  46.620 -14.572  1.00  0.00    -0.297 OA
HETATM   19  C24 UNL     1      -2.433  48.001 -14.809  1.00  0.00     0.018 C 
HETATM   20  C25 UNL     1      -3.179  46.727 -14.337  1.00  0.00     0.023 C 
HETATM   21  C26 UNL     1      -2.502  48.981 -13.617  1.00  0.00     0.023 C 
HETATM   22  C27 UNL     1      -3.064  48.604 -16.136  1.00  0.00     0.020 C 
HETATM   23  C28 UNL     1      -3.573  47.491 -17.071  1.00  0.00     0.090 C 
HETATM   24  C29 UNL     1      -4.366  48.131 -18.168  1.00  0.00     0.157 C 
HETATM   25  O4  UNL     1      -5.566  47.928 -18.307  1.00  0.00    -0.293 OA
ENDROOT
BRANCH   1  26
HETATM   26  C6  UNL     1      -2.373  49.873 -23.934  1.00  0.00    -0.013 C 
HETATM   27  C7  UNL     1      -2.689  49.156 -25.251  1.00  0.00     0.010 C 
BRANCH  26  28
HETATM   28  C5  UNL     1      -2.128  51.384 -24.193  1.00  0.00     0.008 C 
BRANCH  28  29
HETATM   29  C4  UNL     1      -0.663  51.795 -24.359  1.00  0.00     0.028 C 
BRANCH  29  30
HETATM   30  C3  UNL     1      -0.039  52.133 -23.032  1.00  0.00    -0.013 C 
HETATM   31  C2  UNL     1       0.686  53.235 -22.748  1.00  0.00     0.008 C 
HETATM   32  C1  UNL     1       1.061  54.280 -23.760  1.00  0.00     0.055 C 
BRANCH  31  33
HETATM   33  C30 UNL     1       1.200  53.483 -21.376  1.00  0.00     0.171 C 
HETATM   34  O5  UNL     1       1.821  54.469 -21.021  1.00  0.00    -0.646 OA
BRANCH  33  35
HETATM   35  O6  UNL     1       0.922  52.500 -20.503  1.00  0.00    -0.773 OA
HETATM   36  H42 UNL     1       1.317  52.820 -19.666  1.00  0.00     0.167 HD
ENDBRANCH  33  35
ENDBRANCH  31  33
ENDBRANCH  29  30
ENDBRANCH  28  29
ENDBRANCH  26  28
ENDBRANCH   1  26
BRANCH   9  37
HETATM   37  O2  UNL     1      -2.368  52.218 -18.772  1.00  0.00    -0.391 OA
HETATM   38  H20 UNL     1      -1.832  52.895 -19.217  1.00  0.00     0.210 HD
ENDBRANCH   9  37
TORSDOF 7
ENDMDL
MODEL 8
REMARK minimizedAffinity -7.32029581
REMARK CNNscore 0.327388078
REMARK CNNaffinity 5.92577219
REMARK  7 active torsions:
REMARK  status: ('A' for Active; 'I' for Inactive)
REMARK    1  A    between atoms: C2_2  and  C30_34 
REMARK    2  A    between atoms: C3_3  and  C4_4 
REMARK    3  A    between atoms: C4_4  and  C5_5 
REMARK    4  A    between atoms: C5_5  and  C6_6 
REMARK    5  A    between atoms: C6_6  and  C8_8 
REMARK    6  A    between atoms: C15_16  and  O2_17 
REMARK    7  A    between atoms: C30_34  and  O6_36 
ROOT
HETATM    1  C8  UNL     1      -9.296  45.672 -34.322  1.00  0.00     0.006 C 
HETATM    2  C9  UNL     1      -8.447  46.962 -34.416  1.00  0.00     0.085 C 
HETATM    3  C10 UNL     1      -7.816  47.075 -33.030  1.00  0.00     0.141 C 
HETATM    4  O1  UNL     1      -7.195  48.066 -32.676  1.00  0.00    -0.297 OA
HETATM    5  C11 UNL     1      -8.101  45.821 -32.188  1.00  0.00     0.055 C 
HETATM    6  C12 UNL     1      -6.999  44.794 -32.558  1.00  0.00     0.030 C 
HETATM    7  C13 UNL     1      -8.200  45.852 -30.685  1.00  0.00     0.010 C 
HETATM    8  C14 UNL     1      -9.053  45.064 -29.980  1.00  0.00    -0.032 C 
HETATM    9  C15 UNL     1      -9.947  44.065 -30.747  1.00  0.00     0.149 C 
HETATM   10  C16 UNL     1      -9.985  44.167 -32.295  1.00  0.00     0.047 C 
HETATM   11  C17 UNL     1      -9.538  45.544 -32.784  1.00  0.00    -0.018 C 
HETATM   12  C18 UNL     1     -10.612  46.587 -32.327  1.00  0.00     0.017 C 
HETATM   13  C19 UNL     1      -9.215  45.158 -28.413  1.00  0.00    -0.012 C 
HETATM   14  C20 UNL     1      -9.135  43.733 -27.820  1.00  0.00     0.021 C 
HETATM   15  C21 UNL     1     -10.616  45.772 -28.144  1.00  0.00     0.021 C 
HETATM   16  C22 UNL     1     -10.914  46.036 -26.679  1.00  0.00     0.080 C 
HETATM   17  C23 UNL     1      -9.883  46.959 -26.087  1.00  0.00     0.135 C 
HETATM   18  O3  UNL     1     -10.237  47.944 -25.434  1.00  0.00    -0.297 OA
HETATM   19  C24 UNL     1      -8.411  46.556 -26.229  1.00  0.00     0.018 C 
HETATM   20  C25 UNL     1      -7.531  47.765 -25.822  1.00  0.00     0.023 C 
HETATM   21  C26 UNL     1      -8.121  45.464 -25.176  1.00  0.00     0.023 C 
HETATM   22  C27 UNL     1      -8.111  46.073 -27.713  1.00  0.00     0.020 C 
HETATM   23  C28 UNL     1      -7.777  47.263 -28.633  1.00  0.00     0.090 C 
HETATM   24  C29 UNL     1      -7.270  46.717 -29.932  1.00  0.00     0.157 C 
HETATM   25  O4  UNL     1      -6.122  46.911 -30.315  1.00  0.00    -0.293 OA
ENDROOT
BRANCH   1  26
HETATM   26  C6  UNL     1     -10.546  45.578 -35.244  1.00  0.00    -0.013 C 
HETATM   27  C7  UNL     1     -11.907  45.646 -34.542  1.00  0.00     0.010 C 
BRANCH  26  28
HETATM   28  C5  UNL     1     -10.487  46.617 -36.396  1.00  0.00     0.008 C 
BRANCH  28  29
HETATM   29  C4  UNL     1     -11.278  46.252 -37.654  1.00  0.00     0.028 C 
BRANCH  29  30
HETATM   30  C3  UNL     1     -12.400  47.225 -37.893  1.00  0.00    -0.013 C 
HETATM   31  C2  UNL     1     -12.439  48.181 -38.846  1.00  0.00     0.008 C 
HETATM   32  C1  UNL     1     -11.306  48.481 -39.785  1.00  0.00     0.055 C 
BRANCH  31  33
HETATM   33  C30 UNL     1     -13.637  49.045 -39.017  1.00  0.00     0.171 C 
HETATM   34  O5  UNL     1     -13.633  50.262 -39.037  1.00  0.00    -0.646 OA
BRANCH  33  35
HETATM   35  O6  UNL     1     -14.787  48.363 -39.156  1.00  0.00    -0.773 OA
HETATM   36  H42 UNL     1     -15.458  49.068 -39.263  1.00  0.00     0.167 HD
ENDBRANCH  33  35
ENDBRANCH  31  33
ENDBRANCH  29  30
ENDBRANCH  28  29
ENDBRANCH  26  28
ENDBRANCH   1  26
BRANCH   9  37
HETATM   37  O2  UNL     1      -9.509  42.744 -30.443  1.00  0.00    -0.391 OA
HETATM   38  H20 UNL     1     -10.155  42.124 -30.818  1.00  0.00     0.210 HD
ENDBRANCH   9  37
TORSDOF 7
ENDMDL
MODEL 9
REMARK minimizedAffinity -8.76470566
REMARK CNNscore 0.316623628
REMARK CNNaffinity 6.23198462
REMARK  7 active torsions:
REMARK  status: ('A' for Active; 'I' for Inactive)
REMARK    1  A    between atoms: C2_2  and  C30_34 
REMARK    2  A    between atoms: C3_3  and  C4_4 
REMARK    3  A    between atoms: C4_4  and  C5_5 
REMARK    4  A    between atoms: C5_5  and  C6_6 
REMARK    5  A    between atoms: C6_6  and  C8_8 
REMARK    6  A    between atoms: C15_16  and  O2_17 
REMARK    7  A    between atoms: C30_34  and  O6_36 
ROOT
HETATM    1  C8  UNL     1      -5.249  48.296 -20.358  1.00  0.00     0.006 C 
HETATM    2  C9  UNL     1      -4.048  48.283 -19.383  1.00  0.00     0.085 C 
HETATM    3  C10 UNL     1      -3.106  49.335 -19.964  1.00  0.00     0.141 C 
HETATM    4  O1  UNL     1      -1.970  49.496 -19.544  1.00  0.00    -0.297 OA
HETATM    5  C11 UNL     1      -3.773  50.096 -21.121  1.00  0.00     0.055 C 
HETATM    6  C12 UNL     1      -4.584  51.246 -20.469  1.00  0.00     0.030 C 
HETATM    7  C13 UNL     1      -2.993  50.690 -22.265  1.00  0.00     0.010 C 
HETATM    8  C14 UNL     1      -3.463  50.740 -23.538  1.00  0.00    -0.032 C 
HETATM    9  C15 UNL     1      -4.876  50.189 -23.831  1.00  0.00     0.149 C 
HETATM   10  C16 UNL     1      -5.599  49.410 -22.700  1.00  0.00     0.047 C 
HETATM   11  C17 UNL     1      -4.613  48.872 -21.662  1.00  0.00    -0.018 C 
HETATM   12  C18 UNL     1      -3.737  47.776 -22.355  1.00  0.00     0.017 C 
HETATM   13  C19 UNL     1      -2.611  51.285 -24.750  1.00  0.00    -0.012 C 
HETATM   14  C20 UNL     1      -3.471  52.289 -25.549  1.00  0.00     0.021 C 
HETATM   15  C21 UNL     1      -2.257  50.059 -25.636  1.00  0.00     0.021 C 
HETATM   16  C22 UNL     1      -1.345  50.375 -26.808  1.00  0.00     0.080 C 
HETATM   17  C23 UNL     1      -0.056  50.985 -26.326  1.00  0.00     0.135 C 
HETATM   18  O3  UNL     1       1.024  50.548 -26.730  1.00  0.00    -0.297 OA
HETATM   19  C24 UNL     1      -0.154  52.221 -25.426  1.00  0.00     0.018 C 
HETATM   20  C25 UNL     1       1.245  52.498 -24.820  1.00  0.00     0.023 C 
HETATM   21  C26 UNL     1      -0.456  53.436 -26.331  1.00  0.00     0.023 C 
HETATM   22  C27 UNL     1      -1.257  52.003 -24.304  1.00  0.00     0.020 C 
HETATM   23  C28 UNL     1      -0.674  51.273 -23.078  1.00  0.00     0.090 C 
HETATM   24  C29 UNL     1      -1.690  51.324 -21.980  1.00  0.00     0.157 C 
HETATM   25  O4  UNL     1      -1.486  51.925 -20.932  1.00  0.00    -0.293 OA
ENDROOT
BRANCH   1  26
HETATM   26  C6  UNL     1      -6.066  46.978 -20.492  1.00  0.00    -0.013 C 
HETATM   27  C7  UNL     1      -5.485  45.750 -19.783  1.00  0.00     0.010 C 
BRANCH  26  28
HETATM   28  C5  UNL     1      -7.549  47.181 -20.080  1.00  0.00     0.008 C 
BRANCH  28  29
HETATM   29  C4  UNL     1      -7.857  48.487 -19.345  1.00  0.00     0.028 C 
BRANCH  29  30
HETATM   30  C3  UNL     1      -8.689  48.236 -18.116  1.00  0.00    -0.013 C 
HETATM   31  C2  UNL     1     -10.024  48.041 -18.082  1.00  0.00     0.008 C 
HETATM   32  C1  UNL     1     -10.919  48.127 -19.285  1.00  0.00     0.055 C 
BRANCH  31  33
HETATM   33  C30 UNL     1     -10.723  47.743 -16.804  1.00  0.00     0.171 C 
HETATM   34  O5  UNL     1     -11.912  47.507 -16.688  1.00  0.00    -0.646 OA
BRANCH  33  35
HETATM   35  O6  UNL     1      -9.919  47.749 -15.727  1.00  0.00    -0.773 OA
HETATM   36  H42 UNL     1     -10.525  47.532 -14.989  1.00  0.00     0.167 HD
ENDBRANCH  33  35
ENDBRANCH  31  33
ENDBRANCH  29  30
ENDBRANCH  28  29
ENDBRANCH  26  28
ENDBRANCH   1  26
BRANCH   9  37
HETATM   37  O2  UNL     1      -5.724  51.284 -24.167  1.00  0.00    -0.391 OA
HETATM   38  H20 UNL     1      -6.569  50.919 -24.479  1.00  0.00     0.210 HD
ENDBRANCH   9  37
TORSDOF 7
ENDMDL
