MODEL 1
REMARK minimizedAffinity -8.46361828
REMARK CNNscore 0.776622415
REMARK CNNaffinity 6.9997983
REMARK  13 active torsions:
REMARK  status: ('A' for Active; 'I' for Inactive)
REMARK    1  A    between atoms: C4_4  and  C5_5 
REMARK    2  A    between atoms: C5_5  and  C6_6 
REMARK    3  A    between atoms: C6_6  and  C7_7 
REMARK    4  A    between atoms: C7_7  and  O1_9 
REMARK    5  A    between atoms: C7_7  and  C9_10 
REMARK    6  A    between atoms: C9_10  and  O2_11 
REMARK    7  A    between atoms: C9_10  and  C10_12 
REMARK    8  A    between atoms: C10_12  and  C11_13 
REMARK    9  A    between atoms: C11_13  and  C12_14 
REMARK   10  A    between atoms: C14_16  and  C15_17 
REMARK   11  A    between atoms: C15_17  and  C16_18 
REMARK   12  A    between atoms: C16_18  and  C17_19 
REMARK   13  A    between atoms: C23_25  and  O3_26 
ROOT
HETATM    1  C12 UNL     1      -1.785   8.994  13.190  1.00  0.00    -0.087 C 
HETATM    2  C13 UNL     1      -1.531  10.069  14.215  1.00  0.00     0.043 C 
HETATM    3  C14 UNL     1      -3.000   8.468  12.922  1.00  0.00    -0.024 C 
ENDROOT
BRANCH   1   4
HETATM    4  C11 UNL     1      -0.520   8.503  12.494  1.00  0.00     0.036 C 
BRANCH   4   5
HETATM    5  C10 UNL     1       0.728   8.235  13.340  1.00  0.00     0.039 C 
BRANCH   5   6
HETATM    6  C9  UNL     1       1.589   7.016  12.968  1.00  0.00     0.152 C 
BRANCH   6   7
HETATM    7  C7  UNL     1       1.979   6.794  11.469  1.00  0.00     0.080 C 
HETATM    8  C8  UNL     1       0.834   6.203  10.644  1.00  0.00     0.048 C 
BRANCH   7   9
HETATM    9  C6  UNL     1       2.562   8.078  10.826  1.00  0.00     0.044 C 
BRANCH   9  10
HETATM   10  C5  UNL     1       3.395   7.901   9.546  1.00  0.00     0.030 C 
BRANCH  10  11
HETATM   11  C4  UNL     1       2.592   7.975   8.277  1.00  0.00    -0.025 C 
HETATM   12  C2  UNL     1       2.358   6.987   7.390  1.00  0.00    -0.091 C 
HETATM   13  C1  UNL     1       2.829   5.567   7.532  1.00  0.00     0.042 C 
HETATM   14  C3  UNL     1       1.553   7.253   6.145  1.00  0.00     0.042 C 
ENDBRANCH  10  11
ENDBRANCH   9  10
ENDBRANCH   7   9
BRANCH   7  15
HETATM   15  O1  UNL     1       3.005   5.779  11.486  1.00  0.00    -0.388 OA
HETATM   16  H15 UNL     1       3.610   6.058  12.205  1.00  0.00     0.210 HD
ENDBRANCH   7  15
ENDBRANCH   6   7
BRANCH   6  17
HETATM   17  O2  UNL     1       2.835   7.154  13.698  1.00  0.00    -0.393 OA
HETATM   18  H17 UNL     1       2.613   7.135  14.646  1.00  0.00     0.210 HD
ENDBRANCH   6  17
ENDBRANCH   5   6
ENDBRANCH   4   5
ENDBRANCH   1   4
BRANCH   3  19
HETATM   19  C15 UNL     1      -4.395   8.737  13.444  1.00  0.00     0.030 C 
BRANCH  19  20
HETATM   20  C16 UNL     1      -5.467   7.652  13.346  1.00  0.00     0.042 C 
BRANCH  20  21
HETATM   21  C17 UNL     1      -5.258   6.368  14.198  1.00  0.00     0.065 C 
HETATM   22  C18 UNL     1      -4.529   6.821  15.486  1.00  0.00     0.046 C 
HETATM   23  C19 UNL     1      -6.550   5.662  14.645  1.00  0.00     0.043 C 
HETATM   24  C20 UNL     1      -7.164   4.767  13.587  1.00  0.00     0.044 C 
HETATM   25  C21 UNL     1      -6.107   3.994  12.864  1.00  0.00    -0.021 A 
HETATM   26  C22 UNL     1      -6.471   2.856  12.132  1.00  0.00     0.046 A 
HETATM   27  C27 UNL     1      -4.770   4.399  12.878  1.00  0.00     0.082 A 
HETATM   28  C23 UNL     1      -5.506   2.125  11.450  1.00  0.00     0.066 A 
HETATM   29  C24 UNL     1      -4.172   2.512  11.470  1.00  0.00     0.046 A 
HETATM   30  C25 UNL     1      -3.793   3.658  12.185  1.00  0.00    -0.025 A 
HETATM   31  C26 UNL     1      -2.352   4.088  12.201  1.00  0.00     0.051 C 
HETATM   32  O4  UNL     1      -4.319   5.504  13.542  1.00  0.00    -0.340 OA
BRANCH  28  33
HETATM   33  O3  UNL     1      -5.915   1.015  10.767  1.00  0.00    -0.361 OA
HETATM   34  H38 UNL     1      -5.137   0.601  10.361  1.00  0.00     0.217 HD
ENDBRANCH  28  33
ENDBRANCH  20  21
ENDBRANCH  19  20
ENDBRANCH   3  19
TORSDOF 13
ENDMDL
MODEL 2
REMARK minimizedAffinity -8.29100227
REMARK CNNscore 0.748220086
REMARK CNNaffinity 7.21375132
REMARK  13 active torsions:
REMARK  status: ('A' for Active; 'I' for Inactive)
REMARK    1  A    between atoms: C4_4  and  C5_5 
REMARK    2  A    between atoms: C5_5  and  C6_6 
REMARK    3  A    between atoms: C6_6  and  C7_7 
REMARK    4  A    between atoms: C7_7  and  O1_9 
REMARK    5  A    between atoms: C7_7  and  C9_10 
REMARK    6  A    between atoms: C9_10  and  O2_11 
REMARK    7  A    between atoms: C9_10  and  C10_12 
REMARK    8  A    between atoms: C10_12  and  C11_13 
REMARK    9  A    between atoms: C11_13  and  C12_14 
REMARK   10  A    between atoms: C14_16  and  C15_17 
REMARK   11  A    between atoms: C15_17  and  C16_18 
REMARK   12  A    between atoms: C16_18  and  C17_19 
REMARK   13  A    between atoms: C23_25  and  O3_26 
ROOT
HETATM    1  C12 UNL     1      -3.430   8.809  13.514  1.00  0.00    -0.087 C 
HETATM    2  C13 UNL     1      -2.798   9.188  14.828  1.00  0.00     0.043 C 
HETATM    3  C14 UNL     1      -4.716   8.418  13.371  1.00  0.00    -0.024 C 
ENDROOT
BRANCH   1   4
HETATM    4  C11 UNL     1      -2.465   8.862  12.335  1.00  0.00     0.036 C 
BRANCH   4   5
HETATM    5  C10 UNL     1      -0.972   9.050  12.615  1.00  0.00     0.039 C 
BRANCH   5   6
HETATM    6  C9  UNL     1       0.018   8.226  11.774  1.00  0.00     0.152 C 
BRANCH   6   7
HETATM    7  C7  UNL     1       1.538   8.263  12.143  1.00  0.00     0.080 C 
HETATM    8  C8  UNL     1       1.889   7.312  13.289  1.00  0.00     0.048 C 
BRANCH   7   9
HETATM    9  C6  UNL     1       2.442   8.044  10.904  1.00  0.00     0.044 C 
BRANCH   9  10
HETATM   10  C5  UNL     1       2.365   6.671  10.217  1.00  0.00     0.030 C 
BRANCH  10  11
HETATM   11  C4  UNL     1       2.464   6.727   8.718  1.00  0.00    -0.025 C 
HETATM   12  C2  UNL     1       1.626   7.339   7.858  1.00  0.00    -0.091 C 
HETATM   13  C1  UNL     1       0.422   8.150   8.252  1.00  0.00     0.042 C 
HETATM   14  C3  UNL     1       1.865   7.263   6.373  1.00  0.00     0.042 C 
ENDBRANCH  10  11
ENDBRANCH   9  10
ENDBRANCH   7   9
BRANCH   7  15
HETATM   15  O1  UNL     1       1.775   9.590  12.658  1.00  0.00    -0.388 OA
HETATM   16  H15 UNL     1       1.321  10.182  12.023  1.00  0.00     0.210 HD
ENDBRANCH   7  15
ENDBRANCH   6   7
BRANCH   6  17
HETATM   17  O2  UNL     1      -0.396   6.841  11.889  1.00  0.00    -0.393 OA
HETATM   18  H17 UNL     1      -1.292   6.780  11.514  1.00  0.00     0.210 HD
ENDBRANCH   6  17
ENDBRANCH   5   6
ENDBRANCH   4   5
ENDBRANCH   1   4
BRANCH   3  19
HETATM   19  C15 UNL     1      -5.875   8.261  14.332  1.00  0.00     0.030 C 
BRANCH  19  20
HETATM   20  C16 UNL     1      -6.914   7.165  14.099  1.00  0.00     0.042 C 
BRANCH  20  21
HETATM   21  C17 UNL     1      -6.546   5.728  14.566  1.00  0.00     0.065 C 
HETATM   22  C18 UNL     1      -6.847   5.678  16.084  1.00  0.00     0.046 C 
HETATM   23  C19 UNL     1      -7.365   4.599  13.915  1.00  0.00     0.043 C 
HETATM   24  C20 UNL     1      -6.875   4.194  12.539  1.00  0.00     0.044 C 
HETATM   25  C21 UNL     1      -5.381   4.148  12.497  1.00  0.00    -0.021 A 
HETATM   26  C22 UNL     1      -4.747   3.445  11.463  1.00  0.00     0.046 A 
HETATM   27  C27 UNL     1      -4.604   4.814  13.448  1.00  0.00     0.082 A 
HETATM   28  C23 UNL     1      -3.360   3.391  11.403  1.00  0.00     0.066 A 
HETATM   29  C24 UNL     1      -2.579   4.039  12.353  1.00  0.00     0.046 A 
HETATM   30  C25 UNL     1      -3.198   4.760  13.385  1.00  0.00    -0.025 A 
HETATM   31  C26 UNL     1      -2.358   5.473  14.408  1.00  0.00     0.051 C 
HETATM   32  O4  UNL     1      -5.127   5.543  14.478  1.00  0.00    -0.340 OA
BRANCH  28  33
HETATM   33  O3  UNL     1      -2.796   2.678  10.385  1.00  0.00    -0.361 OA
HETATM   34  H38 UNL     1      -1.831   2.714  10.482  1.00  0.00     0.217 HD
ENDBRANCH  28  33
ENDBRANCH  20  21
ENDBRANCH  19  20
ENDBRANCH   3  19
TORSDOF 13
ENDMDL
MODEL 3
REMARK minimizedAffinity -8.3829298
REMARK CNNscore 0.68812871
REMARK CNNaffinity 6.66604233
REMARK  13 active torsions:
REMARK  status: ('A' for Active; 'I' for Inactive)
REMARK    1  A    between atoms: C4_4  and  C5_5 
REMARK    2  A    between atoms: C5_5  and  C6_6 
REMARK    3  A    between atoms: C6_6  and  C7_7 
REMARK    4  A    between atoms: C7_7  and  O1_9 
REMARK    5  A    between atoms: C7_7  and  C9_10 
REMARK    6  A    between atoms: C9_10  and  O2_11 
REMARK    7  A    between atoms: C9_10  and  C10_12 
REMARK    8  A    between atoms: C10_12  and  C11_13 
REMARK    9  A    between atoms: C11_13  and  C12_14 
REMARK   10  A    between atoms: C14_16  and  C15_17 
REMARK   11  A    between atoms: C15_17  and  C16_18 
REMARK   12  A    between atoms: C16_18  and  C17_19 
REMARK   13  A    between atoms: C23_25  and  O3_26 
ROOT
HETATM    1  C12 UNL     1      -2.729   8.970  13.187  1.00  0.00    -0.087 C 
HETATM    2  C13 UNL     1      -2.415   9.879  14.348  1.00  0.00     0.043 C 
HETATM    3  C14 UNL     1      -3.926   8.380  12.982  1.00  0.00    -0.024 C 
ENDROOT
BRANCH   1   4
HETATM    4  C11 UNL     1      -1.540   8.731  12.262  1.00  0.00     0.036 C 
BRANCH   4   5
HETATM    5  C10 UNL     1      -0.444   7.761  12.711  1.00  0.00     0.039 C 
BRANCH   5   6
HETATM    6  C9  UNL     1       0.865   7.746  11.903  1.00  0.00     0.152 C 
BRANCH   6   7
HETATM    7  C7  UNL     1       0.935   6.892  10.593  1.00  0.00     0.080 C 
HETATM    8  C8  UNL     1       0.587   7.703   9.343  1.00  0.00     0.048 C 
BRANCH   7   9
HETATM    9  C6  UNL     1       2.291   6.155  10.454  1.00  0.00     0.044 C 
BRANCH   9  10
HETATM   10  C5  UNL     1       3.258   6.668   9.375  1.00  0.00     0.030 C 
BRANCH  10  11
HETATM   11  C4  UNL     1       4.175   7.764   9.843  1.00  0.00    -0.025 C 
HETATM   12  C2  UNL     1       5.292   7.642  10.587  1.00  0.00    -0.091 C 
HETATM   13  C1  UNL     1       5.879   6.342  11.063  1.00  0.00     0.042 C 
HETATM   14  C3  UNL     1       6.075   8.863  10.994  1.00  0.00     0.042 C 
ENDBRANCH  10  11
ENDBRANCH   9  10
ENDBRANCH   7   9
BRANCH   7  15
HETATM   15  O1  UNL     1      -0.114   5.910  10.719  1.00  0.00    -0.388 OA
HETATM   16  H15 UNL     1      -0.021   5.571  11.634  1.00  0.00     0.210 HD
ENDBRANCH   7  15
ENDBRANCH   6   7
BRANCH   6  17
HETATM   17  O2  UNL     1       1.122   9.118  11.510  1.00  0.00    -0.393 OA
HETATM   18  H17 UNL     1       1.236   9.632  12.329  1.00  0.00     0.210 HD
ENDBRANCH   6  17
ENDBRANCH   5   6
ENDBRANCH   4   5
ENDBRANCH   1   4
BRANCH   3  19
HETATM   19  C15 UNL     1      -5.251   8.418  13.714  1.00  0.00     0.030 C 
BRANCH  19  20
HETATM   20  C16 UNL     1      -6.232   7.254  13.577  1.00  0.00     0.042 C 
BRANCH  20  21
HETATM   21  C17 UNL     1      -5.906   5.955  14.367  1.00  0.00     0.065 C 
HETATM   22  C18 UNL     1      -5.181   6.407  15.658  1.00  0.00     0.046 C 
HETATM   23  C19 UNL     1      -7.130   5.135  14.810  1.00  0.00     0.043 C 
HETATM   24  C20 UNL     1      -7.701   4.241  13.727  1.00  0.00     0.044 C 
HETATM   25  C21 UNL     1      -6.608   3.582  12.948  1.00  0.00    -0.021 A 
HETATM   26  C22 UNL     1      -6.904   2.451  12.175  1.00  0.00     0.046 A 
HETATM   27  C27 UNL     1      -5.305   4.086  12.952  1.00  0.00     0.082 A 
HETATM   28  C23 UNL     1      -5.904   1.825  11.441  1.00  0.00     0.066 A 
HETATM   29  C24 UNL     1      -4.603   2.311  11.450  1.00  0.00     0.046 A 
HETATM   30  C25 UNL     1      -4.292   3.451  12.206  1.00  0.00    -0.025 A 
HETATM   31  C26 UNL     1      -2.888   3.988  12.210  1.00  0.00     0.051 C 
HETATM   32  O4  UNL     1      -4.921   5.193  13.654  1.00  0.00    -0.340 OA
BRANCH  28  33
HETATM   33  O3  UNL     1      -6.245   0.717  10.720  1.00  0.00    -0.361 OA
HETATM   34  H38 UNL     1      -5.449   0.381  10.278  1.00  0.00     0.217 HD
ENDBRANCH  28  33
ENDBRANCH  20  21
ENDBRANCH  19  20
ENDBRANCH   3  19
TORSDOF 13
ENDMDL
MODEL 4
REMARK minimizedAffinity -8.47043037
REMARK CNNscore 0.672389448
REMARK CNNaffinity 6.84995079
REMARK  13 active torsions:
REMARK  status: ('A' for Active; 'I' for Inactive)
REMARK    1  A    between atoms: C4_4  and  C5_5 
REMARK    2  A    between atoms: C5_5  and  C6_6 
REMARK    3  A    between atoms: C6_6  and  C7_7 
REMARK    4  A    between atoms: C7_7  and  O1_9 
REMARK    5  A    between atoms: C7_7  and  C9_10 
REMARK    6  A    between atoms: C9_10  and  O2_11 
REMARK    7  A    between atoms: C9_10  and  C10_12 
REMARK    8  A    between atoms: C10_12  and  C11_13 
REMARK    9  A    between atoms: C11_13  and  C12_14 
REMARK   10  A    between atoms: C14_16  and  C15_17 
REMARK   11  A    between atoms: C15_17  and  C16_18 
REMARK   12  A    between atoms: C16_18  and  C17_19 
REMARK   13  A    between atoms: C23_25  and  O3_26 
ROOT
HETATM    1  C12 UNL     1      -0.103   7.355  15.059  1.00  0.00    -0.087 C 
HETATM    2  C13 UNL     1       0.448   8.263  16.129  1.00  0.00     0.043 C 
HETATM    3  C14 UNL     1      -1.414   7.066  14.907  1.00  0.00    -0.024 C 
ENDROOT
BRANCH   1   4
HETATM    4  C11 UNL     1       0.971   6.740  14.168  1.00  0.00     0.036 C 
BRANCH   4   5
HETATM    5  C10 UNL     1       1.879   7.672  13.362  1.00  0.00     0.039 C 
BRANCH   5   6
HETATM    6  C9  UNL     1       1.261   8.394  12.152  1.00  0.00     0.152 C 
BRANCH   6   7
HETATM    7  C7  UNL     1       0.472   7.556  11.092  1.00  0.00     0.080 C 
HETATM    8  C8  UNL     1       0.101   8.373   9.854  1.00  0.00     0.048 C 
BRANCH   7   9
HETATM    9  C6  UNL     1       1.209   6.242  10.728  1.00  0.00     0.044 C 
BRANCH   9  10
HETATM   10  C5  UNL     1       2.449   6.363   9.828  1.00  0.00     0.030 C 
BRANCH  10  11
HETATM   11  C4  UNL     1       2.140   6.382   8.356  1.00  0.00    -0.025 C 
HETATM   12  C2  UNL     1       2.346   7.387   7.483  1.00  0.00    -0.091 C 
HETATM   13  C1  UNL     1       2.990   8.705   7.815  1.00  0.00     0.042 C 
HETATM   14  C3  UNL     1       1.941   7.241   6.040  1.00  0.00     0.042 C 
ENDBRANCH  10  11
ENDBRANCH   9  10
ENDBRANCH   7   9
BRANCH   7  15
HETATM   15  O1  UNL     1      -0.781   7.223  11.724  1.00  0.00    -0.388 OA
HETATM   16  H15 UNL     1      -0.529   6.925  12.623  1.00  0.00     0.210 HD
ENDBRANCH   7  15
ENDBRANCH   6   7
BRANCH   6  17
HETATM   17  O2  UNL     1       0.324   9.364  12.686  1.00  0.00    -0.393 OA
HETATM   18  H17 UNL     1       0.838   9.989  13.227  1.00  0.00     0.210 HD
ENDBRANCH   6  17
ENDBRANCH   5   6
ENDBRANCH   4   5
ENDBRANCH   1   4
BRANCH   3  19
HETATM   19  C15 UNL     1      -2.673   7.502  15.625  1.00  0.00     0.030 C 
BRANCH  19  20
HETATM   20  C16 UNL     1      -4.004   6.819  15.312  1.00  0.00     0.042 C 
BRANCH  20  21
HETATM   21  C17 UNL     1      -4.463   6.804  13.826  1.00  0.00     0.065 C 
HETATM   22  C18 UNL     1      -4.252   8.244  13.296  1.00  0.00     0.046 C 
HETATM   23  C19 UNL     1      -3.660   5.871  12.904  1.00  0.00     0.043 C 
HETATM   24  C20 UNL     1      -4.088   4.418  12.969  1.00  0.00     0.044 C 
HETATM   25  C21 UNL     1      -5.578   4.304  13.029  1.00  0.00    -0.021 A 
HETATM   26  C22 UNL     1      -6.183   3.079  12.715  1.00  0.00     0.046 A 
HETATM   27  C27 UNL     1      -6.377   5.382  13.418  1.00  0.00     0.082 A 
HETATM   28  C23 UNL     1      -7.566   2.949  12.767  1.00  0.00     0.066 A 
HETATM   29  C24 UNL     1      -8.369   4.020  13.139  1.00  0.00     0.046 A 
HETATM   30  C25 UNL     1      -7.779   5.248  13.471  1.00  0.00    -0.025 A 
HETATM   31  C26 UNL     1      -8.642   6.407  13.886  1.00  0.00     0.051 C 
HETATM   32  O4  UNL     1      -5.882   6.607  13.763  1.00  0.00    -0.340 OA
BRANCH  28  33
HETATM   33  O3  UNL     1      -8.103   1.739  12.435  1.00  0.00    -0.361 OA
HETATM   34  H38 UNL     1      -9.069   1.804  12.498  1.00  0.00     0.217 HD
ENDBRANCH  28  33
ENDBRANCH  20  21
ENDBRANCH  19  20
ENDBRANCH   3  19
TORSDOF 13
ENDMDL
MODEL 5
REMARK minimizedAffinity -7.13529205
REMARK CNNscore 0.670560598
REMARK CNNaffinity 6.4258914
REMARK  13 active torsions:
REMARK  status: ('A' for Active; 'I' for Inactive)
REMARK    1  A    between atoms: C4_4  and  C5_5 
REMARK    2  A    between atoms: C5_5  and  C6_6 
REMARK    3  A    between atoms: C6_6  and  C7_7 
REMARK    4  A    between atoms: C7_7  and  O1_9 
REMARK    5  A    between atoms: C7_7  and  C9_10 
REMARK    6  A    between atoms: C9_10  and  O2_11 
REMARK    7  A    between atoms: C9_10  and  C10_12 
REMARK    8  A    between atoms: C10_12  and  C11_13 
REMARK    9  A    between atoms: C11_13  and  C12_14 
REMARK   10  A    between atoms: C14_16  and  C15_17 
REMARK   11  A    between atoms: C15_17  and  C16_18 
REMARK   12  A    between atoms: C16_18  and  C17_19 
REMARK   13  A    between atoms: C23_25  and  O3_26 
ROOT
HETATM    1  C12 UNL     1     -11.177   8.081  13.437  1.00  0.00    -0.087 C 
HETATM    2  C13 UNL     1     -11.146   8.572  14.862  1.00  0.00     0.043 C 
HETATM    3  C14 UNL     1     -10.482   7.015  12.982  1.00  0.00    -0.024 C 
ENDROOT
BRANCH   1   4
HETATM    4  C11 UNL     1     -12.045   8.933  12.517  1.00  0.00     0.036 C 
BRANCH   4   5
HETATM    5  C10 UNL     1     -13.204   9.726  13.127  1.00  0.00     0.039 C 
BRANCH   5   6
HETATM    6  C9  UNL     1     -14.606   9.095  13.068  1.00  0.00     0.152 C 
BRANCH   6   7
HETATM    7  C7  UNL     1     -15.811   9.972  12.590  1.00  0.00     0.080 C 
HETATM    8  C8  UNL     1     -15.466  11.461  12.528  1.00  0.00     0.048 C 
BRANCH   7   9
HETATM    9  C6  UNL     1     -16.414   9.454  11.260  1.00  0.00     0.044 C 
BRANCH   9  10
HETATM   10  C5  UNL     1     -17.897   9.053  11.276  1.00  0.00     0.030 C 
BRANCH  10  11
HETATM   11  C4  UNL     1     -18.652   9.445  10.036  1.00  0.00    -0.025 C 
HETATM   12  C2  UNL     1     -19.810   8.928   9.577  1.00  0.00    -0.091 C 
HETATM   13  C1  UNL     1     -20.616   7.863  10.266  1.00  0.00     0.042 C 
HETATM   14  C3  UNL     1     -20.409   9.424   8.288  1.00  0.00     0.042 C 
ENDBRANCH  10  11
ENDBRANCH   9  10
ENDBRANCH   7   9
BRANCH   7  15
HETATM   15  O1  UNL     1     -16.807   9.851  13.627  1.00  0.00    -0.388 OA
HETATM   16  H15 UNL     1     -16.835   8.892  13.827  1.00  0.00     0.210 HD
ENDBRANCH   7  15
ENDBRANCH   6   7
BRANCH   6  17
HETATM   17  O2  UNL     1     -14.518   7.983  12.141  1.00  0.00    -0.393 OA
HETATM   18  H17 UNL     1     -13.878   7.351  12.514  1.00  0.00     0.210 HD
ENDBRANCH   6  17
ENDBRANCH   5   6
ENDBRANCH   4   5
ENDBRANCH   1   4
BRANCH   3  19
HETATM   19  C15 UNL     1      -9.555   6.013  13.637  1.00  0.00     0.030 C 
BRANCH  19  20
HETATM   20  C16 UNL     1      -8.121   5.859  13.132  1.00  0.00     0.042 C 
BRANCH  20  21
HETATM   21  C17 UNL     1      -7.191   4.893  13.921  1.00  0.00     0.065 C 
HETATM   22  C18 UNL     1      -7.465   5.161  15.421  1.00  0.00     0.046 C 
HETATM   23  C19 UNL     1      -7.452   3.396  13.683  1.00  0.00     0.043 C 
HETATM   24  C20 UNL     1      -6.819   2.850  12.418  1.00  0.00     0.044 C 
HETATM   25  C21 UNL     1      -5.442   3.404  12.230  1.00  0.00    -0.021 A 
HETATM   26  C22 UNL     1      -4.557   2.755  11.358  1.00  0.00     0.046 A 
HETATM   27  C27 UNL     1      -5.029   4.568  12.882  1.00  0.00     0.082 A 
HETATM   28  C23 UNL     1      -3.274   3.253  11.166  1.00  0.00     0.066 A 
HETATM   29  C24 UNL     1      -2.851   4.403  11.821  1.00  0.00     0.046 A 
HETATM   30  C25 UNL     1      -3.729   5.073  12.686  1.00  0.00    -0.025 A 
HETATM   31  C26 UNL     1      -3.280   6.324  13.388  1.00  0.00     0.051 C 
HETATM   32  O4  UNL     1      -5.824   5.283  13.733  1.00  0.00    -0.340 OA
BRANCH  28  33
HETATM   33  O3  UNL     1      -2.449   2.572  10.318  1.00  0.00    -0.361 OA
HETATM   34  H38 UNL     1      -1.589   3.023  10.299  1.00  0.00     0.217 HD
ENDBRANCH  28  33
ENDBRANCH  20  21
ENDBRANCH  19  20
ENDBRANCH   3  19
TORSDOF 13
ENDMDL
MODEL 6
REMARK minimizedAffinity -8.21387672
REMARK CNNscore 0.64259088
REMARK CNNaffinity 6.8676796
REMARK  13 active torsions:
REMARK  status: ('A' for Active; 'I' for Inactive)
REMARK    1  A    between atoms: C4_4  and  C5_5 
REMARK    2  A    between atoms: C5_5  and  C6_6 
REMARK    3  A    between atoms: C6_6  and  C7_7 
REMARK    4  A    between atoms: C7_7  and  O1_9 
REMARK    5  A    between atoms: C7_7  and  C9_10 
REMARK    6  A    between atoms: C9_10  and  O2_11 
REMARK    7  A    between atoms: C9_10  and  C10_12 
REMARK    8  A    between atoms: C10_12  and  C11_13 
REMARK    9  A    between atoms: C11_13  and  C12_14 
REMARK   10  A    between atoms: C14_16  and  C15_17 
REMARK   11  A    between atoms: C15_17  and  C16_18 
REMARK   12  A    between atoms: C16_18  and  C17_19 
REMARK   13  A    between atoms: C23_25  and  O3_26 
ROOT
HETATM    1  C12 UNL     1      -0.355   8.628  12.271  1.00  0.00    -0.087 C 
HETATM    2  C13 UNL     1      -0.223   8.154  10.846  1.00  0.00     0.043 C 
HETATM    3  C14 UNL     1      -1.532   8.811  12.907  1.00  0.00    -0.024 C 
ENDROOT
BRANCH   1   4
HETATM    4  C11 UNL     1       0.982   8.935  12.938  1.00  0.00     0.036 C 
BRANCH   4   5
HETATM    5  C10 UNL     1       2.260   8.837  12.101  1.00  0.00     0.039 C 
BRANCH   5   6
HETATM    6  C9  UNL     1       3.134   7.584  12.283  1.00  0.00     0.152 C 
BRANCH   6   7
HETATM    7  C7  UNL     1       4.486   7.484  11.500  1.00  0.00     0.080 C 
HETATM    8  C8  UNL     1       5.649   7.043  12.390  1.00  0.00     0.048 C 
BRANCH   7   9
HETATM    9  C6  UNL     1       4.356   6.608  10.229  1.00  0.00     0.044 C 
BRANCH   9  10
HETATM   10  C5  UNL     1       2.990   5.954   9.968  1.00  0.00     0.030 C 
BRANCH  10  11
HETATM   11  C4  UNL     1       2.546   6.012   8.532  1.00  0.00    -0.025 C 
HETATM   12  C2  UNL     1       2.342   7.108   7.775  1.00  0.00    -0.091 C 
HETATM   13  C1  UNL     1       2.575   8.525   8.222  1.00  0.00     0.042 C 
HETATM   14  C3  UNL     1       1.861   6.976   6.354  1.00  0.00     0.042 C 
ENDBRANCH  10  11
ENDBRANCH   9  10
ENDBRANCH   7   9
BRANCH   7  15
HETATM   15  O1  UNL     1       4.797   8.835  11.101  1.00  0.00    -0.388 OA
HETATM   16  H15 UNL     1       3.952   9.186  10.750  1.00  0.00     0.210 HD
ENDBRANCH   7  15
ENDBRANCH   6   7
BRANCH   6  17
HETATM   17  O2  UNL     1       3.473   7.519  13.692  1.00  0.00    -0.393 OA
HETATM   18  H17 UNL     1       2.637   7.422  14.181  1.00  0.00     0.210 HD
ENDBRANCH   6  17
ENDBRANCH   5   6
ENDBRANCH   4   5
ENDBRANCH   1   4
BRANCH   3  19
HETATM   19  C15 UNL     1      -2.979   8.608  12.511  1.00  0.00     0.030 C 
BRANCH  19  20
HETATM   20  C16 UNL     1      -4.015   8.241  13.573  1.00  0.00     0.042 C 
BRANCH  20  21
HETATM   21  C17 UNL     1      -3.851   6.866  14.281  1.00  0.00     0.065 C 
HETATM   22  C18 UNL     1      -2.930   7.116  15.499  1.00  0.00     0.046 C 
HETATM   23  C19 UNL     1      -5.152   6.252  14.827  1.00  0.00     0.043 C 
HETATM   24  C20 UNL     1      -5.982   5.530  13.784  1.00  0.00     0.044 C 
HETATM   25  C21 UNL     1      -5.109   4.730  12.870  1.00  0.00    -0.021 A 
HETATM   26  C22 UNL     1      -5.681   3.710  12.097  1.00  0.00     0.046 A 
HETATM   27  C27 UNL     1      -3.743   4.996  12.748  1.00  0.00     0.082 A 
HETATM   28  C23 UNL     1      -4.889   2.956  11.239  1.00  0.00     0.066 A 
HETATM   29  C24 UNL     1      -3.527   3.204  11.122  1.00  0.00     0.046 A 
HETATM   30  C25 UNL     1      -2.942   4.231  11.877  1.00  0.00    -0.025 A 
HETATM   31  C26 UNL     1      -1.471   4.512  11.746  1.00  0.00     0.051 C 
HETATM   32  O4  UNL     1      -3.097   5.981  13.441  1.00  0.00    -0.340 OA
BRANCH  28  33
HETATM   33  O3  UNL     1      -5.496   1.964  10.523  1.00  0.00    -0.361 OA
HETATM   34  H38 UNL     1      -4.822   1.516   9.987  1.00  0.00     0.217 HD
ENDBRANCH  28  33
ENDBRANCH  20  21
ENDBRANCH  19  20
ENDBRANCH   3  19
TORSDOF 13
ENDMDL
MODEL 7
REMARK minimizedAffinity -8.30108643
REMARK CNNscore 0.629032731
REMARK CNNaffinity 6.68666124
REMARK  13 active torsions:
REMARK  status: ('A' for Active; 'I' for Inactive)
REMARK    1  A    between atoms: C4_4  and  C5_5 
REMARK    2  A    between atoms: C5_5  and  C6_6 
REMARK    3  A    between atoms: C6_6  and  C7_7 
REMARK    4  A    between atoms: C7_7  and  O1_9 
REMARK    5  A    between atoms: C7_7  and  C9_10 
REMARK    6  A    between atoms: C9_10  and  O2_11 
REMARK    7  A    between atoms: C9_10  and  C10_12 
REMARK    8  A    between atoms: C10_12  and  C11_13 
REMARK    9  A    between atoms: C11_13  and  C12_14 
REMARK   10  A    between atoms: C14_16  and  C15_17 
REMARK   11  A    between atoms: C15_17  and  C16_18 
REMARK   12  A    between atoms: C16_18  and  C17_19 
REMARK   13  A    between atoms: C23_25  and  O3_26 
ROOT
HETATM    1  C12 UNL     1       0.505   6.990  12.537  1.00  0.00    -0.087 C 
HETATM    2  C13 UNL     1       0.569   6.017  11.388  1.00  0.00     0.043 C 
HETATM    3  C14 UNL     1      -0.147   6.758  13.697  1.00  0.00    -0.024 C 
ENDROOT
BRANCH   1   4
HETATM    4  C11 UNL     1       1.217   8.309  12.260  1.00  0.00     0.036 C 
BRANCH   4   5
HETATM    5  C10 UNL     1       2.609   8.534  12.859  1.00  0.00     0.039 C 
BRANCH   5   6
HETATM    6  C9  UNL     1       3.628   7.389  12.736  1.00  0.00     0.152 C 
BRANCH   6   7
HETATM    7  C7  UNL     1       4.740   7.481  11.639  1.00  0.00     0.080 C 
HETATM    8  C8  UNL     1       5.919   6.546  11.915  1.00  0.00     0.048 C 
BRANCH   7   9
HETATM    9  C6  UNL     1       4.164   7.291  10.213  1.00  0.00     0.044 C 
BRANCH   9  10
HETATM   10  C5  UNL     1       3.885   8.563   9.397  1.00  0.00     0.030 C 
BRANCH  10  11
HETATM   11  C4  UNL     1       2.996   8.346   8.204  1.00  0.00    -0.025 C 
HETATM   12  C2  UNL     1       2.524   7.176   7.730  1.00  0.00    -0.091 C 
HETATM   13  C1  UNL     1       2.766   5.828   8.352  1.00  0.00     0.042 C 
HETATM   14  C3  UNL     1       1.666   7.144   6.493  1.00  0.00     0.042 C 
ENDBRANCH  10  11
ENDBRANCH   9  10
ENDBRANCH   7   9
BRANCH   7  15
HETATM   15  O1  UNL     1       5.275   8.816  11.747  1.00  0.00    -0.388 OA
HETATM   16  H15 UNL     1       4.483   9.390  11.815  1.00  0.00     0.210 HD
ENDBRANCH   7  15
ENDBRANCH   6   7
BRANCH   6  17
HETATM   17  O2  UNL     1       4.317   7.312  14.010  1.00  0.00    -0.393 OA
HETATM   18  H17 UNL     1       3.648   7.098  14.683  1.00  0.00     0.210 HD
ENDBRANCH   6  17
ENDBRANCH   5   6
ENDBRANCH   4   5
ENDBRANCH   1   4
BRANCH   3  19
HETATM   19  C15 UNL     1      -0.932   5.583  14.240  1.00  0.00     0.030 C 
BRANCH  19  20
HETATM   20  C16 UNL     1      -2.404   5.755  14.610  1.00  0.00     0.042 C 
BRANCH  20  21
HETATM   21  C17 UNL     1      -3.382   6.153  13.467  1.00  0.00     0.065 C 
HETATM   22  C18 UNL     1      -3.162   7.666  13.222  1.00  0.00     0.046 C 
HETATM   23  C19 UNL     1      -3.139   5.446  12.123  1.00  0.00     0.043 C 
HETATM   24  C20 UNL     1      -3.732   4.053  12.040  1.00  0.00     0.044 C 
HETATM   25  C21 UNL     1      -5.090   4.015  12.666  1.00  0.00    -0.021 A 
HETATM   26  C22 UNL     1      -5.952   2.951  12.365  1.00  0.00     0.046 A 
HETATM   27  C27 UNL     1      -5.507   4.999  13.565  1.00  0.00     0.082 A 
HETATM   28  C23 UNL     1      -7.217   2.893  12.937  1.00  0.00     0.066 A 
HETATM   29  C24 UNL     1      -7.645   3.875  13.822  1.00  0.00     0.046 A 
HETATM   30  C25 UNL     1      -6.789   4.939  14.145  1.00  0.00    -0.025 A 
HETATM   31  C26 UNL     1      -7.243   5.998  15.111  1.00  0.00     0.051 C 
HETATM   32  O4  UNL     1      -4.734   6.062  13.938  1.00  0.00    -0.340 OA
BRANCH  28  33
HETATM   33  O3  UNL     1      -8.021   1.844  12.596  1.00  0.00    -0.361 OA
HETATM   34  H38 UNL     1      -8.871   1.946  13.054  1.00  0.00     0.217 HD
ENDBRANCH  28  33
ENDBRANCH  20  21
ENDBRANCH  19  20
ENDBRANCH   3  19
TORSDOF 13
ENDMDL
MODEL 8
REMARK minimizedAffinity -7.76532173
REMARK CNNscore 0.616393924
REMARK CNNaffinity 6.75789595
REMARK  13 active torsions:
REMARK  status: ('A' for Active; 'I' for Inactive)
REMARK    1  A    between atoms: C4_4  and  C5_5 
REMARK    2  A    between atoms: C5_5  and  C6_6 
REMARK    3  A    between atoms: C6_6  and  C7_7 
REMARK    4  A    between atoms: C7_7  and  O1_9 
REMARK    5  A    between atoms: C7_7  and  C9_10 
REMARK    6  A    between atoms: C9_10  and  O2_11 
REMARK    7  A    between atoms: C9_10  and  C10_12 
REMARK    8  A    between atoms: C10_12  and  C11_13 
REMARK    9  A    between atoms: C11_13  and  C12_14 
REMARK   10  A    between atoms: C14_16  and  C15_17 
REMARK   11  A    between atoms: C15_17  and  C16_18 
REMARK   12  A    between atoms: C16_18  and  C17_19 
REMARK   13  A    between atoms: C23_25  and  O3_26 
ROOT
HETATM    1  C12 UNL     1      -2.019   9.322  15.999  1.00  0.00    -0.087 C 
HETATM    2  C13 UNL     1      -2.863  10.056  17.009  1.00  0.00     0.043 C 
HETATM    3  C14 UNL     1      -2.263   8.063  15.573  1.00  0.00    -0.024 C 
ENDROOT
BRANCH   1   4
HETATM    4  C11 UNL     1      -0.811  10.119  15.519  1.00  0.00     0.036 C 
BRANCH   4   5
HETATM    5  C10 UNL     1       0.135   9.478  14.499  1.00  0.00     0.039 C 
BRANCH   5   6
HETATM    6  C9  UNL     1       0.834   8.169  14.903  1.00  0.00     0.152 C 
BRANCH   6   7
HETATM    7  C7  UNL     1       0.977   7.029  13.841  1.00  0.00     0.080 C 
HETATM    8  C8  UNL     1      -0.077   5.933  14.007  1.00  0.00     0.048 C 
BRANCH   7   9
HETATM    9  C6  UNL     1       1.020   7.585  12.395  1.00  0.00     0.044 C 
BRANCH   9  10
HETATM   10  C5  UNL     1       2.193   7.138  11.509  1.00  0.00     0.030 C 
BRANCH  10  11
HETATM   11  C4  UNL     1       2.338   7.928  10.238  1.00  0.00    -0.025 C 
HETATM   12  C2  UNL     1       2.699   7.474   9.021  1.00  0.00    -0.091 C 
HETATM   13  C1  UNL     1       2.986   6.037   8.683  1.00  0.00     0.042 C 
HETATM   14  C3  UNL     1       2.827   8.423   7.859  1.00  0.00     0.042 C 
ENDBRANCH  10  11
ENDBRANCH   9  10
ENDBRANCH   7   9
BRANCH   7  15
HETATM   15  O1  UNL     1       2.241   6.395  14.128  1.00  0.00    -0.388 OA
HETATM   16  H15 UNL     1       2.862   7.140  14.262  1.00  0.00     0.210 HD
ENDBRANCH   7  15
ENDBRANCH   6   7
BRANCH   6  17
HETATM   17  O2  UNL     1       2.182   8.528  15.301  1.00  0.00    -0.393 OA
HETATM   18  H17 UNL     1       2.103   9.120  16.070  1.00  0.00     0.210 HD
ENDBRANCH   6  17
ENDBRANCH   5   6
ENDBRANCH   4   5
ENDBRANCH   1   4
BRANCH   3  19
HETATM   19  C15 UNL     1      -3.346   7.048  15.871  1.00  0.00     0.030 C 
BRANCH  19  20
HETATM   20  C16 UNL     1      -4.767   7.278  15.357  1.00  0.00     0.042 C 
BRANCH  20  21
HETATM   21  C17 UNL     1      -5.009   7.091  13.831  1.00  0.00     0.065 C 
HETATM   22  C18 UNL     1      -4.856   8.495  13.197  1.00  0.00     0.046 C 
HETATM   23  C19 UNL     1      -4.004   6.171  13.118  1.00  0.00     0.043 C 
HETATM   24  C20 UNL     1      -4.305   4.692  13.267  1.00  0.00     0.044 C 
HETATM   25  C21 UNL     1      -5.772   4.432  13.141  1.00  0.00    -0.021 A 
HETATM   26  C22 UNL     1      -6.214   3.129  12.870  1.00  0.00     0.046 A 
HETATM   27  C27 UNL     1      -6.711   5.451  13.315  1.00  0.00     0.082 A 
HETATM   28  C23 UNL     1      -7.573   2.864  12.751  1.00  0.00     0.066 A 
HETATM   29  C24 UNL     1      -8.514   3.874  12.908  1.00  0.00     0.046 A 
HETATM   30  C25 UNL     1      -8.088   5.180  13.195  1.00  0.00    -0.025 A 
HETATM   31  C26 UNL     1      -9.102   6.275  13.378  1.00  0.00     0.051 C 
HETATM   32  O4  UNL     1      -6.381   6.745  13.602  1.00  0.00    -0.340 OA
BRANCH  28  33
HETATM   33  O3  UNL     1      -7.947   1.581  12.470  1.00  0.00    -0.361 OA
HETATM   34  H38 UNL     1      -8.915   1.552  12.399  1.00  0.00     0.217 HD
ENDBRANCH  28  33
ENDBRANCH  20  21
ENDBRANCH  19  20
ENDBRANCH   3  19
TORSDOF 13
ENDMDL
MODEL 9
REMARK minimizedAffinity -7.88537598
REMARK CNNscore 0.613747597
REMARK CNNaffinity 6.43715143
REMARK  13 active torsions:
REMARK  status: ('A' for Active; 'I' for Inactive)
REMARK    1  A    between atoms: C4_4  and  C5_5 
REMARK    2  A    between atoms: C5_5  and  C6_6 
REMARK    3  A    between atoms: C6_6  and  C7_7 
REMARK    4  A    between atoms: C7_7  and  O1_9 
REMARK    5  A    between atoms: C7_7  and  C9_10 
REMARK    6  A    between atoms: C9_10  and  O2_11 
REMARK    7  A    between atoms: C9_10  and  C10_12 
REMARK    8  A    between atoms: C10_12  and  C11_13 
REMARK    9  A    between atoms: C11_13  and  C12_14 
REMARK   10  A    between atoms: C14_16  and  C15_17 
REMARK   11  A    between atoms: C15_17  and  C16_18 
REMARK   12  A    between atoms: C16_18  and  C17_19 
REMARK   13  A    between atoms: C23_25  and  O3_26 
ROOT
HETATM    1  C12 UNL     1      -3.422   8.303  13.414  1.00  0.00    -0.087 C 
HETATM    2  C13 UNL     1      -3.597   9.364  14.470  1.00  0.00     0.043 C 
HETATM    3  C14 UNL     1      -4.279   7.280  13.212  1.00  0.00    -0.024 C 
ENDROOT
BRANCH   1   4
HETATM    4  C11 UNL     1      -2.142   8.459  12.599  1.00  0.00     0.036 C 
BRANCH   4   5
HETATM    5  C10 UNL     1      -0.976   9.245  13.205  1.00  0.00     0.039 C 
BRANCH   5   6
HETATM    6  C9  UNL     1       0.415   8.590  13.173  1.00  0.00     0.152 C 
BRANCH   6   7
HETATM    7  C7  UNL     1       0.662   7.386  12.204  1.00  0.00     0.080 C 
HETATM    8  C8  UNL     1       0.440   6.032  12.879  1.00  0.00     0.048 C 
BRANCH   7   9
HETATM    9  C6  UNL     1      -0.146   7.525  10.889  1.00  0.00     0.044 C 
BRANCH   9  10
HETATM   10  C5  UNL     1       0.372   8.536   9.854  1.00  0.00     0.030 C 
BRANCH  10  11
HETATM   11  C4  UNL     1       0.616   7.950   8.491  1.00  0.00    -0.025 C 
HETATM   12  C2  UNL     1       1.799   7.768   7.871  1.00  0.00    -0.091 C 
HETATM   13  C1  UNL     1       3.144   8.082   8.464  1.00  0.00     0.042 C 
HETATM   14  C3  UNL     1       1.851   7.192   6.481  1.00  0.00     0.042 C 
ENDBRANCH  10  11
ENDBRANCH   9  10
ENDBRANCH   7   9
BRANCH   7  15
HETATM   15  O1  UNL     1       2.069   7.432  11.888  1.00  0.00    -0.388 OA
HETATM   16  H15 UNL     1       2.243   8.377  11.691  1.00  0.00     0.210 HD
ENDBRANCH   7  15
ENDBRANCH   6   7
BRANCH   6  17
HETATM   17  O2  UNL     1       1.351   9.627  12.783  1.00  0.00    -0.393 OA
HETATM   18  H17 UNL     1       1.316  10.315  13.471  1.00  0.00     0.210 HD
ENDBRANCH   6  17
ENDBRANCH   5   6
ENDBRANCH   4   5
ENDBRANCH   1   4
BRANCH   3  19
HETATM   19  C15 UNL     1      -5.589   6.869  13.852  1.00  0.00     0.030 C 
BRANCH  19  20
HETATM   20  C16 UNL     1      -6.431   5.762  13.221  1.00  0.00     0.042 C 
BRANCH  20  21
HETATM   21  C17 UNL     1      -7.614   5.202  14.062  1.00  0.00     0.065 C 
HETATM   22  C18 UNL     1      -7.863   3.762  13.550  1.00  0.00     0.046 C 
HETATM   23  C19 UNL     1      -7.347   5.094  15.574  1.00  0.00     0.043 C 
HETATM   24  C20 UNL     1      -7.528   6.396  16.328  1.00  0.00     0.044 C 
HETATM   25  C21 UNL     1      -8.732   7.134  15.836  1.00  0.00    -0.021 A 
HETATM   26  C22 UNL     1      -9.288   8.145  16.633  1.00  0.00     0.046 A 
HETATM   27  C27 UNL     1      -9.297   6.859  14.589  1.00  0.00     0.082 A 
HETATM   28  C23 UNL     1     -10.406   8.845  16.195  1.00  0.00     0.066 A 
HETATM   29  C24 UNL     1     -10.982   8.568  14.961  1.00  0.00     0.046 A 
HETATM   30  C25 UNL     1     -10.429   7.571  14.145  1.00  0.00    -0.025 A 
HETATM   31  C26 UNL     1     -11.042   7.275  12.804  1.00  0.00     0.051 C 
HETATM   32  O4  UNL     1      -8.816   5.910  13.731  1.00  0.00    -0.340 OA
BRANCH  28  33
HETATM   33  O3  UNL     1     -10.915   9.807  17.019  1.00  0.00    -0.361 OA
HETATM   34  H38 UNL     1     -11.697  10.194  16.592  1.00  0.00     0.217 HD
ENDBRANCH  28  33
ENDBRANCH  20  21
ENDBRANCH  19  20
ENDBRANCH   3  19
TORSDOF 13
ENDMDL
