MODEL 1
REMARK minimizedAffinity -9.20379162
REMARK  8 active torsions:
REMARK  status: ('A' for Active; 'I' for Inactive)
REMARK    1  A    between atoms: C2_2  and  O1_3 
REMARK    2  A    between atoms: O1_3  and  C3_4 
REMARK    3  A    between atoms: C3_4  and  C4_6 
REMARK    4  A    between atoms: C4_6  and  O3_7 
REMARK    5  A    between atoms: C6_11  and  C7_12 
REMARK    6  A    between atoms: C7_12  and  C8_13 
REMARK    7  A    between atoms: C19_25  and  C20_26 
REMARK    8  A    between atoms: C23_29  and  O7_30 
ROOT
HETATM    1  C4  UNL     1      -5.045   7.264  14.417  1.00  0.00     0.291 A 
HETATM    2  O4  UNL     1      -4.255   8.077  15.281  1.00  0.00    -0.265 OA
HETATM    3  C5  UNL     1      -2.970   7.647  15.259  1.00  0.00     0.293 A 
HETATM    4  O5  UNL     1      -2.058   8.135  15.900  1.00  0.00    -0.259 OA
HETATM    5  C6  UNL     1      -2.838   6.508  14.344  1.00  0.00     0.034 A 
HETATM    6  C19 UNL     1      -4.067   6.270  13.879  1.00  0.00     0.037 A 
ENDROOT
BRANCH   5   7
HETATM    7  C7  UNL     1      -1.531   5.835  14.119  1.00  0.00     0.084 C 
BRANCH   7   8
HETATM    8  C8  UNL     1      -0.777   6.441  12.959  1.00  0.00    -0.053 A 
HETATM    9  C9  UNL     1      -1.061   7.743  12.526  1.00  0.00     0.010 A 
HETATM   10  C10 UNL     1      -0.330   8.313  11.485  1.00  0.00     0.038 A 
HETATM   11  C11 UNL     1       0.695   7.596  10.868  1.00  0.00     0.076 A 
HETATM   12  O6  UNL     1       1.355   8.250   9.863  1.00  0.00    -0.340 OA
HETATM   13  C17 UNL     1       0.981   6.290  11.272  1.00  0.00    -0.024 A 
HETATM   14  C12 UNL     1       2.561   7.640   9.368  1.00  0.00     0.061 C 
HETATM   15  C13 UNL     1       2.768   8.209   7.956  1.00  0.00     0.046 C 
HETATM   16  C14 UNL     1       3.740   8.082  10.248  1.00  0.00     0.046 C 
HETATM   17  C15 UNL     1       2.430   6.113   9.269  1.00  0.00     0.042 C 
HETATM   18  C16 UNL     1       2.077   5.503  10.618  1.00  0.00     0.044 C 
HETATM   19  C18 UNL     1       0.251   5.724  12.328  1.00  0.00     0.017 A 
ENDBRANCH   7   8
ENDBRANCH   5   7
BRANCH   6  20
HETATM   20  C20 UNL     1      -4.446   5.163  13.000  1.00  0.00    -0.023 A 
HETATM   21  C21 UNL     1      -5.729   4.601  13.108  1.00  0.00     0.015 A 
HETATM   22  C22 UNL     1      -6.117   3.545  12.279  1.00  0.00     0.037 A 
HETATM   23  C23 UNL     1      -5.221   3.052  11.339  1.00  0.00     0.065 A 
HETATM   24  C24 UNL     1      -3.949   3.598  11.215  1.00  0.00     0.037 A 
HETATM   25  C25 UNL     1      -3.561   4.653  12.044  1.00  0.00     0.015 A 
BRANCH  23  26
HETATM   26  O7  UNL     1      -5.553   2.023  10.509  1.00  0.00    -0.361 OA
HETATM   27  H24 UNL     1      -6.462   1.743  10.704  1.00  0.00     0.217 HD
ENDBRANCH  23  26
ENDBRANCH   6  20
BRANCH   1  28
HETATM   28  C3  UNL     1      -6.110   6.484  15.260  1.00  0.00     0.328 C 
HETATM   29  O2  UNL     1      -5.848   5.698  16.167  1.00  0.00    -0.259 OA
BRANCH  28  30
HETATM   30  O1  UNL     1      -7.373   6.741  14.805  1.00  0.00    -0.317 OA
BRANCH  30  31
HETATM   31  C2  UNL     1      -8.418   6.364  15.706  1.00  0.00     0.174 C 
HETATM   32  C1  UNL     1      -8.929   7.619  16.388  1.00  0.00     0.034 C 
ENDBRANCH  30  31
ENDBRANCH  28  30
ENDBRANCH   1  28
BRANCH   1  33
HETATM   33  O3  UNL     1      -5.567   8.094  13.395  1.00  0.00    -0.353 OA
HETATM   34  H6  UNL     1      -4.906   8.137  12.688  1.00  0.00     0.214 HD
ENDBRANCH   1  33
TORSDOF 8
ENDMDL
MODEL 2
REMARK minimizedAffinity -9.17237282
REMARK  8 active torsions:
REMARK  status: ('A' for Active; 'I' for Inactive)
REMARK    1  A    between atoms: C2_2  and  O1_3 
REMARK    2  A    between atoms: O1_3  and  C3_4 
REMARK    3  A    between atoms: C3_4  and  C4_6 
REMARK    4  A    between atoms: C4_6  and  O3_7 
REMARK    5  A    between atoms: C6_11  and  C7_12 
REMARK    6  A    between atoms: C7_12  and  C8_13 
REMARK    7  A    between atoms: C19_25  and  C20_26 
REMARK    8  A    between atoms: C23_29  and  O7_30 
ROOT
HETATM    1  C4  UNL     1      -5.326   6.934  14.246  1.00  0.00     0.291 A 
HETATM    2  O4  UNL     1      -4.586   7.760  15.142  1.00  0.00    -0.265 OA
HETATM    3  C5  UNL     1      -3.353   7.229  15.334  1.00  0.00     0.293 A 
HETATM    4  O5  UNL     1      -2.492   7.701  16.054  1.00  0.00    -0.259 OA
HETATM    5  C6  UNL     1      -3.206   6.003  14.543  1.00  0.00     0.034 A 
HETATM    6  C19 UNL     1      -4.381   5.821  13.933  1.00  0.00     0.037 A 
ENDROOT
BRANCH   5   7
HETATM    7  C7  UNL     1      -1.948   5.212  14.557  1.00  0.00     0.084 C 
BRANCH   7   8
HETATM    8  C8  UNL     1      -1.069   5.528  13.370  1.00  0.00    -0.053 A 
HETATM    9  C9  UNL     1      -0.705   4.522  12.465  1.00  0.00     0.010 A 
HETATM   10  C10 UNL     1       0.069   4.830  11.346  1.00  0.00     0.038 A 
HETATM   11  C11 UNL     1       0.483   6.141  11.114  1.00  0.00     0.076 A 
HETATM   12  O6  UNL     1       1.230   6.336   9.984  1.00  0.00    -0.340 OA
HETATM   13  C17 UNL     1       0.146   7.154  12.014  1.00  0.00    -0.024 A 
HETATM   14  C12 UNL     1       1.472   7.699   9.587  1.00  0.00     0.061 C 
HETATM   15  C13 UNL     1       2.731   7.660   8.708  1.00  0.00     0.046 C 
HETATM   16  C14 UNL     1       0.294   8.184   8.729  1.00  0.00     0.046 C 
HETATM   17  C15 UNL     1       1.743   8.606  10.796  1.00  0.00     0.042 C 
HETATM   18  C16 UNL     1       0.585   8.569  11.782  1.00  0.00     0.044 C 
HETATM   19  C18 UNL     1      -0.643   6.844  13.132  1.00  0.00     0.017 A 
ENDBRANCH   7   8
ENDBRANCH   5   7
BRANCH   6  20
HETATM   20  C20 UNL     1      -4.740   4.671  13.102  1.00  0.00    -0.023 A 
HETATM   21  C21 UNL     1      -6.094   4.361  12.896  1.00  0.00     0.015 A 
HETATM   22  C22 UNL     1      -6.464   3.270  12.107  1.00  0.00     0.037 A 
HETATM   23  C23 UNL     1      -5.477   2.487  11.519  1.00  0.00     0.065 A 
HETATM   24  C24 UNL     1      -4.133   2.780  11.709  1.00  0.00     0.037 A 
HETATM   25  C25 UNL     1      -3.762   3.871  12.499  1.00  0.00     0.015 A 
BRANCH  23  26
HETATM   26  O7  UNL     1      -5.789   1.412  10.742  1.00  0.00    -0.361 OA
HETATM   27  H24 UNL     1      -6.756   1.327  10.696  1.00  0.00     0.217 HD
ENDBRANCH  23  26
ENDBRANCH   6  20
BRANCH   1  28
HETATM   28  C3  UNL     1      -6.558   6.323  14.994  1.00  0.00     0.328 C 
HETATM   29  O2  UNL     1      -6.493   5.640  16.012  1.00  0.00    -0.259 OA
BRANCH  28  30
HETATM   30  O1  UNL     1      -7.718   6.594  14.322  1.00  0.00    -0.317 OA
BRANCH  30  31
HETATM   31  C2  UNL     1      -8.486   7.669  14.870  1.00  0.00     0.174 C 
HETATM   32  C1  UNL     1      -8.417   7.575  16.381  1.00  0.00     0.034 C 
ENDBRANCH  30  31
ENDBRANCH  28  30
ENDBRANCH   1  28
BRANCH   1  33
HETATM   33  O3  UNL     1      -5.631   7.704  13.098  1.00  0.00    -0.353 OA
HETATM   34  H6  UNL     1      -4.882   7.629  12.488  1.00  0.00     0.214 HD
ENDBRANCH   1  33
TORSDOF 8
ENDMDL
MODEL 3
REMARK minimizedAffinity -8.92917728
REMARK  8 active torsions:
REMARK  status: ('A' for Active; 'I' for Inactive)
REMARK    1  A    between atoms: C2_2  and  O1_3 
REMARK    2  A    between atoms: O1_3  and  C3_4 
REMARK    3  A    between atoms: C3_4  and  C4_6 
REMARK    4  A    between atoms: C4_6  and  O3_7 
REMARK    5  A    between atoms: C6_11  and  C7_12 
REMARK    6  A    between atoms: C7_12  and  C8_13 
REMARK    7  A    between atoms: C19_25  and  C20_26 
REMARK    8  A    between atoms: C23_29  and  O7_30 
ROOT
HETATM    1  C4  UNL     1       1.906   7.232  12.799  1.00  0.00     0.291 A 
HETATM    2  O4  UNL     1       1.352   6.649  13.976  1.00  0.00    -0.265 OA
HETATM    3  C5  UNL     1       0.439   5.708  13.630  1.00  0.00     0.293 A 
HETATM    4  O5  UNL     1      -0.210   5.041  14.415  1.00  0.00    -0.259 OA
HETATM    5  C6  UNL     1       0.353   5.606  12.169  1.00  0.00     0.034 A 
HETATM    6  C19 UNL     1       1.193   6.527  11.690  1.00  0.00     0.037 A 
ENDROOT
BRANCH   5   7
HETATM    7  C7  UNL     1      -0.569   4.645  11.507  1.00  0.00     0.084 C 
BRANCH   7   8
HETATM    8  C8  UNL     1      -1.986   4.782  12.012  1.00  0.00    -0.053 A 
HETATM    9  C9  UNL     1      -2.806   3.655  12.147  1.00  0.00     0.010 A 
HETATM   10  C10 UNL     1      -4.099   3.784  12.656  1.00  0.00     0.038 A 
HETATM   11  C11 UNL     1      -4.584   5.033  13.041  1.00  0.00     0.076 A 
HETATM   12  O6  UNL     1      -5.860   5.046  13.535  1.00  0.00    -0.340 OA
HETATM   13  C17 UNL     1      -3.788   6.171  12.897  1.00  0.00    -0.024 A 
HETATM   14  C12 UNL     1      -6.307   6.265  14.159  1.00  0.00     0.061 C 
HETATM   15  C13 UNL     1      -7.841   6.228  14.097  1.00  0.00     0.046 C 
HETATM   16  C14 UNL     1      -5.878   6.255  15.634  1.00  0.00     0.046 C 
HETATM   17  C15 UNL     1      -5.812   7.508  13.404  1.00  0.00     0.042 C 
HETATM   18  C16 UNL     1      -4.294   7.523  13.303  1.00  0.00     0.044 C 
HETATM   19  C18 UNL     1      -2.484   6.037  12.396  1.00  0.00     0.017 A 
ENDBRANCH   7   8
ENDBRANCH   5   7
BRANCH   6  20
HETATM   20  C20 UNL     1       1.378   6.858  10.277  1.00  0.00    -0.023 A 
HETATM   21  C21 UNL     1       2.395   6.225   9.544  1.00  0.00     0.015 A 
HETATM   22  C22 UNL     1       2.591   6.522   8.193  1.00  0.00     0.037 A 
HETATM   23  C23 UNL     1       1.767   7.453   7.572  1.00  0.00     0.065 A 
HETATM   24  C24 UNL     1       0.753   8.087   8.280  1.00  0.00     0.037 A 
HETATM   25  C25 UNL     1       0.558   7.791   9.631  1.00  0.00     0.015 A 
BRANCH  23  26
HETATM   26  O7  UNL     1       1.920   7.776   6.258  1.00  0.00    -0.361 OA
HETATM   27  H24 UNL     1       2.658   7.261   5.891  1.00  0.00     0.217 HD
ENDBRANCH  23  26
ENDBRANCH   6  20
BRANCH   1  28
HETATM   28  C3  UNL     1       1.519   8.747  12.732  1.00  0.00     0.328 C 
HETATM   29  O2  UNL     1       2.321   9.673  12.638  1.00  0.00    -0.259 OA
BRANCH  28  30
HETATM   30  O1  UNL     1       0.167   8.910  12.861  1.00  0.00    -0.317 OA
BRANCH  30  31
HETATM   31  C2  UNL     1      -0.233   9.688  13.993  1.00  0.00     0.174 C 
HETATM   32  C1  UNL     1      -1.672  10.116  13.785  1.00  0.00     0.034 C 
ENDBRANCH  30  31
ENDBRANCH  28  30
ENDBRANCH   1  28
BRANCH   1  33
HETATM   33  O3  UNL     1       3.294   6.957  12.789  1.00  0.00    -0.353 OA
HETATM   34  H6  UNL     1       3.418   6.090  12.374  1.00  0.00     0.214 HD
ENDBRANCH   1  33
TORSDOF 8
ENDMDL
MODEL 4
REMARK minimizedAffinity -8.75276375
REMARK  8 active torsions:
REMARK  status: ('A' for Active; 'I' for Inactive)
REMARK    1  A    between atoms: C2_2  and  O1_3 
REMARK    2  A    between atoms: O1_3  and  C3_4 
REMARK    3  A    between atoms: C3_4  and  C4_6 
REMARK    4  A    between atoms: C4_6  and  O3_7 
REMARK    5  A    between atoms: C6_11  and  C7_12 
REMARK    6  A    between atoms: C7_12  and  C8_13 
REMARK    7  A    between atoms: C19_25  and  C20_26 
REMARK    8  A    between atoms: C23_29  and  O7_30 
ROOT
HETATM    1  C4  UNL     1       1.240   7.265  13.605  1.00  0.00     0.291 A 
HETATM    2  O4  UNL     1       0.555   6.797  14.764  1.00  0.00    -0.265 OA
HETATM    3  C5  UNL     1      -0.486   6.013  14.390  1.00  0.00     0.293 A 
HETATM    4  O5  UNL     1      -1.265   5.473  15.154  1.00  0.00    -0.259 OA
HETATM    5  C6  UNL     1      -0.533   5.906  12.928  1.00  0.00     0.034 A 
HETATM    6  C19 UNL     1       0.465   6.669  12.475  1.00  0.00     0.037 A 
ENDROOT
BRANCH   5   7
HETATM    7  C7  UNL     1      -1.573   5.098  12.238  1.00  0.00     0.084 C 
BRANCH   7   8
HETATM    8  C8  UNL     1      -2.969   5.505  12.649  1.00  0.00    -0.053 A 
HETATM    9  C9  UNL     1      -3.288   6.855  12.848  1.00  0.00     0.010 A 
HETATM   10  C10 UNL     1      -4.590   7.227  13.182  1.00  0.00     0.038 A 
HETATM   11  C11 UNL     1      -5.587   6.261  13.317  1.00  0.00     0.076 A 
HETATM   12  O6  UNL     1      -6.830   6.734  13.639  1.00  0.00    -0.340 OA
HETATM   13  C17 UNL     1      -5.285   4.910  13.141  1.00  0.00    -0.024 A 
HETATM   14  C12 UNL     1      -7.926   5.804  13.553  1.00  0.00     0.061 C 
HETATM   15  C13 UNL     1      -9.025   6.367  14.466  1.00  0.00     0.046 C 
HETATM   16  C14 UNL     1      -8.453   5.787  12.110  1.00  0.00     0.046 C 
HETATM   17  C15 UNL     1      -7.531   4.408  14.060  1.00  0.00     0.042 C 
HETATM   18  C16 UNL     1      -6.343   3.858  13.285  1.00  0.00     0.044 C 
HETATM   19  C18 UNL     1      -3.977   4.539  12.793  1.00  0.00     0.017 A 
ENDBRANCH   7   8
ENDBRANCH   5   7
BRANCH   6  20
HETATM   20  C20 UNL     1       0.754   6.945  11.068  1.00  0.00    -0.023 A 
HETATM   21  C21 UNL     1       0.016   7.929  10.389  1.00  0.00     0.015 A 
HETATM   22  C22 UNL     1       0.274   8.213   9.045  1.00  0.00     0.037 A 
HETATM   23  C23 UNL     1       1.274   7.514   8.380  1.00  0.00     0.065 A 
HETATM   24  C24 UNL     1       2.017   6.541   9.036  1.00  0.00     0.037 A 
HETATM   25  C25 UNL     1       1.759   6.256  10.379  1.00  0.00     0.015 A 
BRANCH  23  26
HETATM   26  O7  UNL     1       1.561   7.756   7.070  1.00  0.00    -0.361 OA
HETATM   27  H24 UNL     1       0.971   8.454   6.742  1.00  0.00     0.217 HD
ENDBRANCH  23  26
ENDBRANCH   6  20
BRANCH   1  28
HETATM   28  C3  UNL     1       1.110   8.822  13.511  1.00  0.00     0.328 C 
HETATM   29  O2  UNL     1       1.894   9.557  12.916  1.00  0.00    -0.259 OA
BRANCH  28  30
HETATM   30  O1  UNL     1       0.041   9.265  14.239  1.00  0.00    -0.317 OA
BRANCH  30  31
HETATM   31  C2  UNL     1      -1.056   9.742  13.455  1.00  0.00     0.174 C 
HETATM   32  C1  UNL     1      -1.884  10.672  14.320  1.00  0.00     0.034 C 
ENDBRANCH  30  31
ENDBRANCH  28  30
ENDBRANCH   1  28
BRANCH   1  33
HETATM   33  O3  UNL     1       2.565   6.766  13.654  1.00  0.00    -0.353 OA
HETATM   34  H6  UNL     1       2.561   5.885  13.251  1.00  0.00     0.214 HD
ENDBRANCH   1  33
TORSDOF 8
ENDMDL
MODEL 5
REMARK minimizedAffinity -8.53355885
REMARK  8 active torsions:
REMARK  status: ('A' for Active; 'I' for Inactive)
REMARK    1  A    between atoms: C2_2  and  O1_3 
REMARK    2  A    between atoms: O1_3  and  C3_4 
REMARK    3  A    between atoms: C3_4  and  C4_6 
REMARK    4  A    between atoms: C4_6  and  O3_7 
REMARK    5  A    between atoms: C6_11  and  C7_12 
REMARK    6  A    between atoms: C7_12  and  C8_13 
REMARK    7  A    between atoms: C19_25  and  C20_26 
REMARK    8  A    between atoms: C23_29  and  O7_30 
ROOT
HETATM    1  C4  UNL     1       0.880   7.256  14.514  1.00  0.00     0.291 A 
HETATM    2  O4  UNL     1       0.262   7.352  15.794  1.00  0.00    -0.265 OA
HETATM    3  C5  UNL     1      -1.052   7.646  15.643  1.00  0.00     0.293 A 
HETATM    4  O5  UNL     1      -1.844   7.800  16.555  1.00  0.00    -0.259 OA
HETATM    5  C6  UNL     1      -1.383   7.746  14.218  1.00  0.00     0.034 A 
HETATM    6  C19 UNL     1      -0.236   7.547  13.563  1.00  0.00     0.037 A 
ENDROOT
BRANCH   5   7
HETATM    7  C7  UNL     1      -2.762   8.055  13.757  1.00  0.00     0.084 C 
BRANCH   7   8
HETATM    8  C8  UNL     1      -3.526   6.806  13.383  1.00  0.00    -0.053 A 
HETATM    9  C9  UNL     1      -4.887   6.685  13.690  1.00  0.00     0.010 A 
HETATM   10  C10 UNL     1      -5.596   5.548  13.301  1.00  0.00     0.038 A 
HETATM   11  C11 UNL     1      -4.960   4.526  12.599  1.00  0.00     0.076 A 
HETATM   12  O6  UNL     1      -5.748   3.460  12.259  1.00  0.00    -0.340 OA
HETATM   13  C17 UNL     1      -3.599   4.619  12.300  1.00  0.00    -0.024 A 
HETATM   14  C12 UNL     1      -5.192   2.504  11.337  1.00  0.00     0.061 C 
HETATM   15  C13 UNL     1      -5.975   1.201  11.564  1.00  0.00     0.046 C 
HETATM   16  C14 UNL     1      -5.455   2.985   9.902  1.00  0.00     0.046 C 
HETATM   17  C15 UNL     1      -3.705   2.240  11.615  1.00  0.00     0.042 C 
HETATM   18  C16 UNL     1      -2.897   3.528  11.549  1.00  0.00     0.044 C 
HETATM   19  C18 UNL     1      -2.891   5.769  12.682  1.00  0.00     0.017 A 
ENDBRANCH   7   8
ENDBRANCH   5   7
BRANCH   6  20
HETATM   20  C20 UNL     1      -0.054   7.644  12.115  1.00  0.00    -0.023 A 
HETATM   21  C21 UNL     1      -0.607   8.731  11.418  1.00  0.00     0.015 A 
HETATM   22  C22 UNL     1      -0.446   8.848  10.035  1.00  0.00     0.037 A 
HETATM   23  C23 UNL     1       0.271   7.878   9.347  1.00  0.00     0.065 A 
HETATM   24  C24 UNL     1       0.829   6.798  10.020  1.00  0.00     0.037 A 
HETATM   25  C25 UNL     1       0.667   6.679  11.402  1.00  0.00     0.015 A 
BRANCH  23  26
HETATM   26  O7  UNL     1       0.454   7.948   7.999  1.00  0.00    -0.361 OA
HETATM   27  H24 UNL     1       0.016   8.748   7.663  1.00  0.00     0.217 HD
ENDBRANCH  23  26
ENDBRANCH   6  20
BRANCH   1  28
HETATM   28  C3  UNL     1       1.950   8.388  14.361  1.00  0.00     0.328 C 
HETATM   29  O2  UNL     1       2.054   9.129  13.387  1.00  0.00    -0.259 OA
BRANCH  28  30
HETATM   30  O1  UNL     1       2.801   8.399  15.431  1.00  0.00    -0.317 OA
BRANCH  30  31
HETATM   31  C2  UNL     1       4.125   7.940  15.144  1.00  0.00     0.174 C 
HETATM   32  C1  UNL     1       5.050   9.140  15.137  1.00  0.00     0.034 C 
ENDBRANCH  30  31
ENDBRANCH  28  30
ENDBRANCH   1  28
BRANCH   1  33
HETATM   33  O3  UNL     1       1.366   5.934  14.363  1.00  0.00    -0.353 OA
HETATM   34  H6  UNL     1       0.642   5.394  14.013  1.00  0.00     0.214 HD
ENDBRANCH   1  33
TORSDOF 8
ENDMDL
MODEL 6
REMARK minimizedAffinity -8.52642536
REMARK  8 active torsions:
REMARK  status: ('A' for Active; 'I' for Inactive)
REMARK    1  A    between atoms: C2_2  and  O1_3 
REMARK    2  A    between atoms: O1_3  and  C3_4 
REMARK    3  A    between atoms: C3_4  and  C4_6 
REMARK    4  A    between atoms: C4_6  and  O3_7 
REMARK    5  A    between atoms: C6_11  and  C7_12 
REMARK    6  A    between atoms: C7_12  and  C8_13 
REMARK    7  A    between atoms: C19_25  and  C20_26 
REMARK    8  A    between atoms: C23_29  and  O7_30 
ROOT
HETATM    1  C4  UNL     1      -3.388   6.758  14.616  1.00  0.00     0.291 A 
HETATM    2  O4  UNL     1      -4.297   7.297  15.572  1.00  0.00    -0.265 OA
HETATM    3  C5  UNL     1      -5.475   6.631  15.504  1.00  0.00     0.293 A 
HETATM    4  O5  UNL     1      -6.453   6.866  16.190  1.00  0.00    -0.259 OA
HETATM    5  C6  UNL     1      -5.399   5.580  14.484  1.00  0.00     0.034 A 
HETATM    6  C19 UNL     1      -4.180   5.683  13.946  1.00  0.00     0.037 A 
ENDROOT
BRANCH   5   7
HETATM    7  C7  UNL     1      -6.551   4.685  14.197  1.00  0.00     0.084 C 
BRANCH   7   8
HETATM    8  C8  UNL     1      -7.756   5.454  13.711  1.00  0.00    -0.053 A 
HETATM    9  C9  UNL     1      -8.096   5.460  12.352  1.00  0.00     0.010 A 
HETATM   10  C10 UNL     1      -9.237   6.135  11.916  1.00  0.00     0.038 A 
HETATM   11  C11 UNL     1     -10.051   6.805  12.827  1.00  0.00     0.076 A 
HETATM   12  O6  UNL     1     -11.149   7.427  12.296  1.00  0.00    -0.340 OA
HETATM   13  C17 UNL     1      -9.719   6.826  14.183  1.00  0.00    -0.024 A 
HETATM   14  C12 UNL     1     -12.132   7.922  13.224  1.00  0.00     0.061 C 
HETATM   15  C13 UNL     1     -12.904   9.015  12.471  1.00  0.00     0.046 C 
HETATM   16  C14 UNL     1     -13.109   6.786  13.567  1.00  0.00     0.046 C 
HETATM   17  C15 UNL     1     -11.482   8.545  14.468  1.00  0.00     0.042 C 
HETATM   18  C16 UNL     1     -10.582   7.544  15.178  1.00  0.00     0.044 C 
HETATM   19  C18 UNL     1      -8.578   6.136  14.621  1.00  0.00     0.017 A 
ENDBRANCH   7   8
ENDBRANCH   5   7
BRANCH   6  20
HETATM   20  C20 UNL     1      -3.677   4.897  12.819  1.00  0.00    -0.023 A 
HETATM   21  C21 UNL     1      -2.293   4.809  12.599  1.00  0.00     0.015 A 
HETATM   22  C22 UNL     1      -1.787   4.064  11.531  1.00  0.00     0.037 A 
HETATM   23  C23 UNL     1      -2.666   3.403  10.683  1.00  0.00     0.065 A 
HETATM   24  C24 UNL     1      -4.038   3.475  10.887  1.00  0.00     0.037 A 
HETATM   25  C25 UNL     1      -4.545   4.221  11.954  1.00  0.00     0.015 A 
BRANCH  23  26
HETATM   26  O7  UNL     1      -2.220   2.665   9.628  1.00  0.00    -0.361 OA
HETATM   27  H24 UNL     1      -1.250   2.701   9.607  1.00  0.00     0.217 HD
ENDBRANCH  23  26
ENDBRANCH   6  20
BRANCH   1  28
HETATM   28  C3  UNL     1      -3.049   7.846  13.543  1.00  0.00     0.328 C 
HETATM   29  O2  UNL     1      -3.844   8.290  12.718  1.00  0.00    -0.259 OA
BRANCH  28  30
HETATM   30  O1  UNL     1      -1.727   8.190  13.600  1.00  0.00    -0.317 OA
BRANCH  30  31
HETATM   31  C2  UNL     1      -1.446   9.348  14.391  1.00  0.00     0.174 C 
HETATM   32  C1  UNL     1       0.059   9.497  14.491  1.00  0.00     0.034 C 
ENDBRANCH  30  31
ENDBRANCH  28  30
ENDBRANCH   1  28
BRANCH   1  33
HETATM   33  O3  UNL     1      -2.278   6.231  15.321  1.00  0.00    -0.353 OA
HETATM   34  H6  UNL     1      -2.496   5.321  15.572  1.00  0.00     0.214 HD
ENDBRANCH   1  33
TORSDOF 8
ENDMDL
MODEL 7
REMARK minimizedAffinity -8.44043732
REMARK  8 active torsions:
REMARK  status: ('A' for Active; 'I' for Inactive)
REMARK    1  A    between atoms: C2_2  and  O1_3 
REMARK    2  A    between atoms: O1_3  and  C3_4 
REMARK    3  A    between atoms: C3_4  and  C4_6 
REMARK    4  A    between atoms: C4_6  and  O3_7 
REMARK    5  A    between atoms: C6_11  and  C7_12 
REMARK    6  A    between atoms: C7_12  and  C8_13 
REMARK    7  A    between atoms: C19_25  and  C20_26 
REMARK    8  A    between atoms: C23_29  and  O7_30 
ROOT
HETATM    1  C4  UNL     1       0.872   6.686  10.752  1.00  0.00     0.291 A 
HETATM    2  O4  UNL     1       0.991   5.305  10.421  1.00  0.00    -0.265 OA
HETATM    3  C5  UNL     1       0.401   4.555  11.384  1.00  0.00     0.293 A 
HETATM    4  O5  UNL     1       0.346   3.339  11.388  1.00  0.00    -0.259 OA
HETATM    5  C6  UNL     1      -0.167   5.425  12.419  1.00  0.00     0.034 A 
HETATM    6  C19 UNL     1       0.142   6.673  12.056  1.00  0.00     0.037 A 
ENDROOT
BRANCH   5   7
HETATM    7  C7  UNL     1      -0.883   4.870  13.598  1.00  0.00     0.084 C 
BRANCH   7   8
HETATM    8  C8  UNL     1      -2.382   4.952  13.439  1.00  0.00    -0.053 A 
HETATM    9  C9  UNL     1      -3.060   4.057  12.601  1.00  0.00     0.010 A 
HETATM   10  C10 UNL     1      -4.449   4.109  12.494  1.00  0.00     0.038 A 
HETATM   11  C11 UNL     1      -5.178   5.047  13.223  1.00  0.00     0.076 A 
HETATM   12  O6  UNL     1      -6.535   5.007  13.052  1.00  0.00    -0.340 OA
HETATM   13  C17 UNL     1      -4.520   5.960  14.050  1.00  0.00    -0.024 A 
HETATM   14  C12 UNL     1      -7.332   5.792  13.959  1.00  0.00     0.061 C 
HETATM   15  C13 UNL     1      -8.668   6.032  13.240  1.00  0.00     0.046 C 
HETATM   16  C14 UNL     1      -7.602   4.967  15.226  1.00  0.00     0.046 C 
HETATM   17  C15 UNL     1      -6.683   7.151  14.260  1.00  0.00     0.042 C 
HETATM   18  C16 UNL     1      -5.287   6.978  14.840  1.00  0.00     0.044 C 
HETATM   19  C18 UNL     1      -3.123   5.897  14.165  1.00  0.00     0.017 A 
ENDBRANCH   7   8
ENDBRANCH   5   7
BRANCH   6  20
HETATM   20  C20 UNL     1      -0.138   7.880  12.833  1.00  0.00    -0.023 A 
HETATM   21  C21 UNL     1      -1.299   8.624  12.562  1.00  0.00     0.015 A 
HETATM   22  C22 UNL     1      -1.591   9.780  13.291  1.00  0.00     0.037 A 
HETATM   23  C23 UNL     1      -0.722  10.192  14.294  1.00  0.00     0.065 A 
HETATM   24  C24 UNL     1       0.428   9.467  14.579  1.00  0.00     0.037 A 
HETATM   25  C25 UNL     1       0.721   8.312  13.850  1.00  0.00     0.015 A 
BRANCH  23  26
HETATM   26  O7  UNL     1      -0.964  11.312  15.031  1.00  0.00    -0.361 OA
HETATM   27  H24 UNL     1      -1.795  11.715  14.728  1.00  0.00     0.217 HD
ENDBRANCH  23  26
ENDBRANCH   6  20
BRANCH   1  28
HETATM   28  C3  UNL     1       2.295   7.290  11.003  1.00  0.00     0.328 C 
HETATM   29  O2  UNL     1       3.074   6.911  11.874  1.00  0.00    -0.259 OA
BRANCH  28  30
HETATM   30  O1  UNL     1       2.529   8.346  10.167  1.00  0.00    -0.317 OA
BRANCH  30  31
HETATM   31  C2  UNL     1       3.435   8.066   9.095  1.00  0.00     0.174 C 
HETATM   32  C1  UNL     1       2.703   8.293   7.788  1.00  0.00     0.034 C 
ENDBRANCH  30  31
ENDBRANCH  28  30
ENDBRANCH   1  28
BRANCH   1  33
HETATM   33  O3  UNL     1       0.116   7.314   9.733  1.00  0.00    -0.353 OA
HETATM   34  H6  UNL     1      -0.821   7.217   9.962  1.00  0.00     0.214 HD
ENDBRANCH   1  33
TORSDOF 8
ENDMDL
MODEL 8
REMARK minimizedAffinity -8.43371296
REMARK  8 active torsions:
REMARK  status: ('A' for Active; 'I' for Inactive)
REMARK    1  A    between atoms: C2_2  and  O1_3 
REMARK    2  A    between atoms: O1_3  and  C3_4 
REMARK    3  A    between atoms: C3_4  and  C4_6 
REMARK    4  A    between atoms: C4_6  and  O3_7 
REMARK    5  A    between atoms: C6_11  and  C7_12 
REMARK    6  A    between atoms: C7_12  and  C8_13 
REMARK    7  A    between atoms: C19_25  and  C20_26 
REMARK    8  A    between atoms: C23_29  and  O7_30 
ROOT
HETATM    1  C4  UNL     1       1.112   7.228  14.319  1.00  0.00     0.291 A 
HETATM    2  O4  UNL     1       0.435   7.421  15.558  1.00  0.00    -0.265 OA
HETATM    3  C5  UNL     1      -0.844   7.803  15.322  1.00  0.00     0.293 A 
HETATM    4  O5  UNL     1      -1.670   8.051  16.181  1.00  0.00    -0.259 OA
HETATM    5  C6  UNL     1      -1.089   7.867  13.877  1.00  0.00     0.034 A 
HETATM    6  C19 UNL     1       0.074   7.559  13.297  1.00  0.00     0.037 A 
ENDROOT
BRANCH   5   7
HETATM    7  C7  UNL     1      -2.415   8.254  13.327  1.00  0.00     0.084 C 
BRANCH   7   8
HETATM    8  C8  UNL     1      -3.354   7.074  13.233  1.00  0.00    -0.053 A 
HETATM    9  C9  UNL     1      -2.852   5.772  13.112  1.00  0.00     0.010 A 
HETATM   10  C10 UNL     1      -3.723   4.684  13.072  1.00  0.00     0.038 A 
HETATM   11  C11 UNL     1      -5.101   4.880  13.157  1.00  0.00     0.076 A 
HETATM   12  O6  UNL     1      -5.865   3.745  13.116  1.00  0.00    -0.340 OA
HETATM   13  C17 UNL     1      -5.622   6.171  13.259  1.00  0.00    -0.024 A 
HETATM   14  C12 UNL     1      -7.262   3.886  13.438  1.00  0.00     0.061 C 
HETATM   15  C13 UNL     1      -7.963   2.683  12.790  1.00  0.00     0.046 C 
HETATM   16  C14 UNL     1      -7.434   3.786  14.962  1.00  0.00     0.046 C 
HETATM   17  C15 UNL     1      -7.855   5.177  12.854  1.00  0.00     0.042 C 
HETATM   18  C16 UNL     1      -7.101   6.402  13.349  1.00  0.00     0.044 C 
HETATM   19  C18 UNL     1      -4.742   7.264  13.312  1.00  0.00     0.017 A 
ENDBRANCH   7   8
ENDBRANCH   5   7
BRANCH   6  20
HETATM   20  C20 UNL     1       0.340   7.582  11.858  1.00  0.00    -0.023 A 
HETATM   21  C21 UNL     1      -0.252   8.574  11.060  1.00  0.00     0.015 A 
HETATM   22  C22 UNL     1      -0.013   8.619   9.684  1.00  0.00     0.037 A 
HETATM   23  C23 UNL     1       0.823   7.671   9.105  1.00  0.00     0.065 A 
HETATM   24  C24 UNL     1       1.420   6.685   9.880  1.00  0.00     0.037 A 
HETATM   25  C25 UNL     1       1.180   6.638  11.255  1.00  0.00     0.015 A 
BRANCH  23  26
HETATM   26  O7  UNL     1       1.085   7.674   7.768  1.00  0.00    -0.361 OA
HETATM   27  H24 UNL     1       0.607   8.412   7.355  1.00  0.00     0.217 HD
ENDBRANCH  23  26
ENDBRANCH   6  20
BRANCH   1  28
HETATM   28  C3  UNL     1       2.270   8.273  14.185  1.00  0.00     0.328 C 
HETATM   29  O2  UNL     1       2.111   9.488  14.094  1.00  0.00    -0.259 OA
BRANCH  28  30
HETATM   30  O1  UNL     1       3.484   7.648  14.114  1.00  0.00    -0.317 OA
BRANCH  30  31
HETATM   31  C2  UNL     1       4.520   8.427  13.510  1.00  0.00     0.174 C 
HETATM   32  C1  UNL     1       4.948   7.733  12.232  1.00  0.00     0.034 C 
ENDBRANCH  30  31
ENDBRANCH  28  30
ENDBRANCH   1  28
BRANCH   1  33
HETATM   33  O3  UNL     1       1.507   5.870  14.247  1.00  0.00    -0.353 OA
HETATM   34  H6  UNL     1       0.764   5.369  13.877  1.00  0.00     0.214 HD
ENDBRANCH   1  33
TORSDOF 8
ENDMDL
MODEL 9
REMARK minimizedAffinity -8.32044983
REMARK  8 active torsions:
REMARK  status: ('A' for Active; 'I' for Inactive)
REMARK    1  A    between atoms: C2_2  and  O1_3 
REMARK    2  A    between atoms: O1_3  and  C3_4 
REMARK    3  A    between atoms: C3_4  and  C4_6 
REMARK    4  A    between atoms: C4_6  and  O3_7 
REMARK    5  A    between atoms: C6_11  and  C7_12 
REMARK    6  A    between atoms: C7_12  and  C8_13 
REMARK    7  A    between atoms: C19_25  and  C20_26 
REMARK    8  A    between atoms: C23_29  and  O7_30 
ROOT
HETATM    1  C4  UNL     1       0.529   6.827  14.135  1.00  0.00     0.291 A 
HETATM    2  O4  UNL     1      -0.314   6.277  15.143  1.00  0.00    -0.265 OA
HETATM    3  C5  UNL     1      -1.388   5.686  14.564  1.00  0.00     0.293 A 
HETATM    4  O5  UNL     1      -2.292   5.134  15.165  1.00  0.00    -0.259 OA
HETATM    5  C6  UNL     1      -1.300   5.805  13.105  1.00  0.00     0.034 A 
HETATM    6  C19 UNL     1      -0.188   6.505  12.864  1.00  0.00     0.037 A 
ENDROOT
BRANCH   5   7
HETATM    7  C7  UNL     1      -2.345   5.240  12.211  1.00  0.00     0.084 C 
BRANCH   7   8
HETATM    8  C8  UNL     1      -3.736   5.458  12.760  1.00  0.00    -0.053 A 
HETATM    9  C9  UNL     1      -4.668   4.413  12.775  1.00  0.00     0.010 A 
HETATM   10  C10 UNL     1      -5.935   4.609  13.325  1.00  0.00     0.038 A 
HETATM   11  C11 UNL     1      -6.284   5.844  13.869  1.00  0.00     0.076 A 
HETATM   12  O6  UNL     1      -7.547   5.927  14.389  1.00  0.00    -0.340 OA
HETATM   13  C17 UNL     1      -5.376   6.904  13.846  1.00  0.00    -0.024 A 
HETATM   14  C12 UNL     1      -7.859   7.099  15.165  1.00  0.00     0.061 C 
HETATM   15  C13 UNL     1      -9.389   7.226  15.134  1.00  0.00     0.046 C 
HETATM   16  C14 UNL     1      -7.420   6.864  16.619  1.00  0.00     0.046 C 
HETATM   17  C15 UNL     1      -7.245   8.368  14.555  1.00  0.00     0.042 C 
HETATM   18  C16 UNL     1      -5.735   8.241  14.424  1.00  0.00     0.044 C 
HETATM   19  C18 UNL     1      -4.098   6.700  13.304  1.00  0.00     0.017 A 
ENDBRANCH   7   8
ENDBRANCH   5   7
BRANCH   6  20
HETATM   20  C20 UNL     1       0.268   6.952  11.547  1.00  0.00    -0.023 A 
HETATM   21  C21 UNL     1      -0.372   8.037  10.925  1.00  0.00     0.015 A 
HETATM   22  C22 UNL     1       0.045   8.485   9.669  1.00  0.00     0.037 A 
HETATM   23  C23 UNL     1       1.106   7.849   9.035  1.00  0.00     0.065 A 
HETATM   24  C24 UNL     1       1.752   6.777   9.637  1.00  0.00     0.037 A 
HETATM   25  C25 UNL     1       1.335   6.328  10.892  1.00  0.00     0.015 A 
BRANCH  23  26
HETATM   26  O7  UNL     1       1.547   8.250   7.810  1.00  0.00    -0.361 OA
HETATM   27  H24 UNL     1       1.010   9.003   7.512  1.00  0.00     0.217 HD
ENDBRANCH  23  26
ENDBRANCH   6  20
BRANCH   1  28
HETATM   28  C3  UNL     1       0.572   8.385  14.280  1.00  0.00     0.328 C 
HETATM   29  O2  UNL     1      -0.407   9.124  14.208  1.00  0.00    -0.259 OA
BRANCH  28  30
HETATM   30  O1  UNL     1       1.858   8.824  14.431  1.00  0.00    -0.317 OA
BRANCH  30  31
HETATM   31  C2  UNL     1       2.214   9.925  13.590  1.00  0.00     0.174 C 
HETATM   32  C1  UNL     1       3.573  10.433  14.029  1.00  0.00     0.034 C 
ENDBRANCH  30  31
ENDBRANCH  28  30
ENDBRANCH   1  28
BRANCH   1  33
HETATM   33  O3  UNL     1       1.783   6.174  14.211  1.00  0.00    -0.353 OA
HETATM   34  H6  UNL     1       1.727   5.370  13.673  1.00  0.00     0.214 HD
ENDBRANCH   1  33
TORSDOF 8
ENDMDL
