MODEL 1
REMARK minimizedAffinity -8.34446907
REMARK  2 active torsions:
REMARK  status: ('A' for Active; 'I' for Inactive)
REMARK    1  A    between atoms: C14_15  and  C15_16 
REMARK    2  A    between atoms: C19_21  and  O3_22 
ROOT
HETATM    1  C1  UNL     1      -8.273   5.778  12.411  1.00  0.00     0.023 C 
HETATM    2  C2  UNL     1      -7.554   5.787  13.777  1.00  0.00     0.017 C 
HETATM    3  C3  UNL     1      -7.502   4.330  14.280  1.00  0.00     0.023 C 
HETATM    4  C4  UNL     1      -8.432   6.613  14.725  1.00  0.00     0.135 C 
HETATM    5  O1  UNL     1      -9.385   6.129  15.337  1.00  0.00    -0.297 OA
HETATM    6  C5  UNL     1      -8.137   8.088  14.808  1.00  0.00     0.080 C 
HETATM    7  C6  UNL     1      -6.697   8.373  15.221  1.00  0.00     0.017 C 
HETATM    8  C7  UNL     1      -5.653   7.244  14.908  1.00  0.00    -0.035 C 
HETATM    9  C8  UNL     1      -5.585   6.342  16.160  1.00  0.00     0.016 C 
HETATM   10  C9  UNL     1      -4.258   7.934  14.583  1.00  0.00     0.003 C 
HETATM   11  C10 UNL     1      -3.717   8.842  15.720  1.00  0.00     0.006 C 
HETATM   12  C11 UNL     1      -2.463   9.643  15.337  1.00  0.00     0.006 C 
HETATM   13  C12 UNL     1      -1.392   8.708  14.790  1.00  0.00    -0.000 C 
HETATM   14  C13 UNL     1      -0.001   9.277  14.520  1.00  0.00     0.008 C 
HETATM   15  C14 UNL     1       0.642  10.382  15.367  1.00  0.00     0.030 C 
HETATM   16  C18 UNL     1       2.162  10.219  15.052  1.00  0.00     0.040 C 
HETATM   17  C19 UNL     1       2.312   8.901  14.256  1.00  0.00     0.127 C 
HETATM   18  C20 UNL     1       1.030   8.115  14.593  1.00  0.00    -0.013 C 
HETATM   19  C21 UNL     1       1.231   7.495  16.009  1.00  0.00     0.018 C 
HETATM   20  C22 UNL     1       0.626   6.962  13.646  1.00  0.00     0.013 C 
HETATM   21  C23 UNL     1      -0.676   7.152  12.843  1.00  0.00     0.011 C 
HETATM   22  C24 UNL     1      -1.883   7.932  13.508  1.00  0.00    -0.032 C 
HETATM   23  C25 UNL     1      -2.328   8.945  12.391  1.00  0.00     0.016 C 
HETATM   24  C26 UNL     1      -3.134   7.004  13.953  1.00  0.00    -0.032 C 
HETATM   25  C27 UNL     1      -2.629   5.928  14.956  1.00  0.00     0.016 C 
HETATM   26  C28 UNL     1      -3.764   6.258  12.743  1.00  0.00     0.011 C 
HETATM   27  C29 UNL     1      -5.073   5.528  13.060  1.00  0.00     0.007 C 
HETATM   28  C30 UNL     1      -6.147   6.472  13.631  1.00  0.00     0.009 C 
ENDROOT
BRANCH  15  29
HETATM   29  C15 UNL     1       0.159  11.790  15.082  1.00  0.00     0.083 A 
HETATM   30  C16 UNL     1       1.155  12.857  14.734  1.00  0.00     0.049 C 
HETATM   31  C17 UNL     1      -1.295  12.015  14.709  1.00  0.00     0.207 A 
HETATM   32  O2  UNL     1      -0.822  12.238  16.039  1.00  0.00    -0.375 OA
ENDBRANCH  15  29
BRANCH  17  33
HETATM   33  O3  UNL     1       2.368   9.195  12.862  1.00  0.00    -0.395 OA
HETATM   34  H30 UNL     1       3.170   9.724  12.710  1.00  0.00     0.210 HD
ENDBRANCH  17  33
TORSDOF 2
ENDMDL
MODEL 2
REMARK minimizedAffinity -8.16001987
REMARK  2 active torsions:
REMARK  status: ('A' for Active; 'I' for Inactive)
REMARK    1  A    between atoms: C14_15  and  C15_16 
REMARK    2  A    between atoms: C19_21  and  O3_22 
ROOT
HETATM    1  C1  UNL     1      -3.836   8.496  13.286  1.00  0.00     0.023 C 
HETATM    2  C2  UNL     1      -2.882   7.336  13.642  1.00  0.00     0.017 C 
HETATM    3  C3  UNL     1      -3.280   6.127  12.771  1.00  0.00     0.023 C 
HETATM    4  C4  UNL     1      -3.139   6.998  15.116  1.00  0.00     0.135 C 
HETATM    5  O1  UNL     1      -4.041   6.241  15.475  1.00  0.00    -0.297 OA
HETATM    6  C5  UNL     1      -2.291   7.716  16.132  1.00  0.00     0.080 C 
HETATM    7  C6  UNL     1      -0.799   7.494  15.911  1.00  0.00     0.017 C 
HETATM    8  C7  UNL     1      -0.367   7.131  14.446  1.00  0.00    -0.035 C 
HETATM    9  C8  UNL     1      -0.371   5.589  14.351  1.00  0.00     0.016 C 
HETATM   10  C9  UNL     1       1.075   7.748  14.186  1.00  0.00     0.003 C 
HETATM   11  C10 UNL     1       2.162   7.269  15.184  1.00  0.00     0.006 C 
HETATM   12  C11 UNL     1       3.508   7.999  15.042  1.00  0.00     0.006 C 
HETATM   13  C12 UNL     1       3.986   7.937  13.598  1.00  0.00    -0.000 C 
HETATM   14  C13 UNL     1       5.390   8.444  13.275  1.00  0.00     0.008 C 
HETATM   15  C14 UNL     1       6.579   8.312  14.234  1.00  0.00     0.030 C 
HETATM   16  C18 UNL     1       7.808   8.461  13.283  1.00  0.00     0.040 C 
HETATM   17  C19 UNL     1       7.258   8.420  11.838  1.00  0.00     0.127 C 
HETATM   18  C20 UNL     1       5.884   7.737  11.981  1.00  0.00    -0.013 C 
HETATM   19  C21 UNL     1       6.144   6.207  12.119  1.00  0.00     0.018 C 
HETATM   20  C22 UNL     1       4.868   7.922  10.831  1.00  0.00     0.013 C 
HETATM   21  C23 UNL     1       3.594   8.727  11.159  1.00  0.00     0.011 C 
HETATM   22  C24 UNL     1       2.961   8.609  12.605  1.00  0.00    -0.032 C 
HETATM   23  C25 UNL     1       2.700  10.103  13.017  1.00  0.00     0.016 C 
HETATM   24  C26 UNL     1       1.584   7.758  12.681  1.00  0.00    -0.032 C 
HETATM   25  C27 UNL     1       1.849   6.324  12.140  1.00  0.00     0.016 C 
HETATM   26  C28 UNL     1       0.463   8.389  11.808  1.00  0.00     0.011 C 
HETATM   27  C29 UNL     1      -0.919   7.754  11.996  1.00  0.00     0.007 C 
HETATM   28  C30 UNL     1      -1.391   7.801  13.461  1.00  0.00     0.009 C 
ENDROOT
BRANCH  15  29
HETATM   29  C15 UNL     1       6.622   9.318  15.366  1.00  0.00     0.083 A 
HETATM   30  C16 UNL     1       7.664   9.183  16.437  1.00  0.00     0.049 C 
HETATM   31  C17 UNL     1       5.946  10.666  15.188  1.00  0.00     0.207 A 
HETATM   32  O2  UNL     1       5.312   9.601  15.899  1.00  0.00    -0.375 OA
ENDBRANCH  15  29
BRANCH  17  33
HETATM   33  O3  UNL     1       7.109   9.752  11.351  1.00  0.00    -0.395 OA
HETATM   34  H30 UNL     1       7.996  10.149  11.319  1.00  0.00     0.210 HD
ENDBRANCH  17  33
TORSDOF 2
ENDMDL
MODEL 3
REMARK minimizedAffinity -7.87308407
REMARK  2 active torsions:
REMARK  status: ('A' for Active; 'I' for Inactive)
REMARK    1  A    between atoms: C14_15  and  C15_16 
REMARK    2  A    between atoms: C19_21  and  O3_22 
ROOT
HETATM    1  C1  UNL     1      -4.717   3.687  10.142  1.00  0.00     0.023 C 
HETATM    2  C2  UNL     1      -4.213   3.666  11.601  1.00  0.00     0.017 C 
HETATM    3  C3  UNL     1      -3.522   2.308  11.832  1.00  0.00     0.023 C 
HETATM    4  C4  UNL     1      -5.459   3.752  12.492  1.00  0.00     0.135 C 
HETATM    5  O1  UNL     1      -6.119   2.761  12.806  1.00  0.00    -0.297 OA
HETATM    6  C5  UNL     1      -5.907   5.131  12.898  1.00  0.00     0.080 C 
HETATM    7  C6  UNL     1      -4.819   5.907  13.632  1.00  0.00     0.017 C 
HETATM    8  C7  UNL     1      -3.341   5.474  13.330  1.00  0.00    -0.035 C 
HETATM    9  C8  UNL     1      -2.966   4.410  14.386  1.00  0.00     0.016 C 
HETATM   10  C9  UNL     1      -2.417   6.764  13.417  1.00  0.00     0.003 C 
HETATM   11  C10 UNL     1      -2.476   7.498  14.784  1.00  0.00     0.006 C 
HETATM   12  C11 UNL     1      -1.723   8.838  14.808  1.00  0.00     0.006 C 
HETATM   13  C12 UNL     1      -0.293   8.642  14.321  1.00  0.00    -0.000 C 
HETATM   14  C13 UNL     1       0.680   9.813  14.439  1.00  0.00     0.008 C 
HETATM   15  C14 UNL     1       0.644  10.834  15.583  1.00  0.00     0.030 C 
HETATM   16  C18 UNL     1       2.080  11.443  15.549  1.00  0.00     0.040 C 
HETATM   17  C19 UNL     1       2.908  10.575  14.572  1.00  0.00     0.127 C 
HETATM   18  C20 UNL     1       2.127   9.248  14.502  1.00  0.00    -0.013 C 
HETATM   19  C21 UNL     1       2.471   8.445  15.792  1.00  0.00     0.018 C 
HETATM   20  C22 UNL     1       2.406   8.316  13.300  1.00  0.00     0.013 C 
HETATM   21  C23 UNL     1       1.247   8.109  12.304  1.00  0.00     0.011 C 
HETATM   22  C24 UNL     1      -0.240   8.081  12.849  1.00  0.00    -0.032 C 
HETATM   23  C25 UNL     1      -1.010   9.040  11.869  1.00  0.00     0.016 C 
HETATM   24  C26 UNL     1      -0.935   6.617  12.862  1.00  0.00    -0.032 C 
HETATM   25  C27 UNL     1      -0.073   5.660  13.733  1.00  0.00     0.016 C 
HETATM   26  C28 UNL     1      -1.024   6.003  11.437  1.00  0.00     0.011 C 
HETATM   27  C29 UNL     1      -1.853   4.718  11.353  1.00  0.00     0.007 C 
HETATM   28  C30 UNL     1      -3.293   4.914  11.862  1.00  0.00     0.009 C 
ENDROOT
BRANCH  15  29
HETATM   29  C15 UNL     1      -0.422  11.906  15.469  1.00  0.00     0.083 A 
HETATM   30  C16 UNL     1      -0.075  13.231  14.855  1.00  0.00     0.049 C 
HETATM   31  C17 UNL     1      -1.886  11.510  15.542  1.00  0.00     0.207 A 
HETATM   32  O2  UNL     1      -1.197  12.040  16.677  1.00  0.00    -0.375 OA
ENDBRANCH  15  29
BRANCH  17  33
HETATM   33  O3  UNL     1       2.943  11.205  13.293  1.00  0.00    -0.395 OA
HETATM   34  H30 UNL     1       3.407  12.053  13.402  1.00  0.00     0.210 HD
ENDBRANCH  17  33
TORSDOF 2
ENDMDL
MODEL 4
REMARK minimizedAffinity -7.75104046
REMARK  2 active torsions:
REMARK  status: ('A' for Active; 'I' for Inactive)
REMARK    1  A    between atoms: C14_15  and  C15_16 
REMARK    2  A    between atoms: C19_21  and  O3_22 
ROOT
HETATM    1  C1  UNL     1      -2.908   9.993  18.577  1.00  0.00     0.023 C 
HETATM    2  C2  UNL     1      -2.426  10.839  17.380  1.00  0.00     0.017 C 
HETATM    3  C3  UNL     1      -1.942  12.193  17.937  1.00  0.00     0.023 C 
HETATM    4  C4  UNL     1      -3.653  11.073  16.490  1.00  0.00     0.135 C 
HETATM    5  O1  UNL     1      -4.454  11.987  16.692  1.00  0.00    -0.297 OA
HETATM    6  C5  UNL     1      -3.899  10.066  15.398  1.00  0.00     0.080 C 
HETATM    7  C6  UNL     1      -2.716   9.937  14.445  1.00  0.00     0.017 C 
HETATM    8  C7  UNL     1      -1.314  10.335  15.029  1.00  0.00    -0.035 C 
HETATM    9  C8  UNL     1      -1.107  11.832  14.708  1.00  0.00     0.016 C 
HETATM   10  C9  UNL     1      -0.212   9.413  14.349  1.00  0.00     0.003 C 
HETATM   11  C10 UNL     1      -0.175   9.504  12.800  1.00  0.00     0.006 C 
HETATM   12  C11 UNL     1       0.766   8.485  12.136  1.00  0.00     0.006 C 
HETATM   13  C12 UNL     1       2.156   8.579  12.751  1.00  0.00    -0.000 C 
HETATM   14  C13 UNL     1       3.289   7.780  12.110  1.00  0.00     0.008 C 
HETATM   15  C14 UNL     1       3.392   7.515  10.603  1.00  0.00     0.030 C 
HETATM   16  C18 UNL     1       4.902   7.170  10.415  1.00  0.00     0.040 C 
HETATM   17  C19 UNL     1       5.602   7.495  11.755  1.00  0.00     0.127 C 
HETATM   18  C20 UNL     1       4.637   8.476  12.451  1.00  0.00    -0.013 C 
HETATM   19  C21 UNL     1       4.848   9.872  11.792  1.00  0.00     0.018 C 
HETATM   20  C22 UNL     1       4.786   8.667  13.977  1.00  0.00     0.013 C 
HETATM   21  C23 UNL     1       3.618   8.170  14.852  1.00  0.00     0.011 C 
HETATM   22  C24 UNL     1       2.139   8.288  14.300  1.00  0.00    -0.032 C 
HETATM   23  C25 UNL     1       1.525   6.868  14.583  1.00  0.00     0.016 C 
HETATM   24  C26 UNL     1       1.237   9.437  15.001  1.00  0.00    -0.032 C 
HETATM   25  C27 UNL     1       1.943  10.810  14.816  1.00  0.00     0.016 C 
HETATM   26  C28 UNL     1       1.072   9.196  16.527  1.00  0.00     0.011 C 
HETATM   27  C29 UNL     1       0.064  10.127  17.209  1.00  0.00     0.007 C 
HETATM   28  C30 UNL     1      -1.335  10.044  16.574  1.00  0.00     0.009 C 
ENDROOT
BRANCH  15  29
HETATM   29  C15 UNL     1       2.495   6.415  10.070  1.00  0.00     0.083 A 
HETATM   30  C16 UNL     1       2.054   5.311  10.986  1.00  0.00     0.049 C 
HETATM   31  C17 UNL     1       1.699   6.656   8.800  1.00  0.00     0.207 A 
HETATM   32  O2  UNL     1       2.929   5.928   8.784  1.00  0.00    -0.375 OA
ENDBRANCH  15  29
BRANCH  17  33
HETATM   33  O3  UNL     1       5.740   6.300  12.520  1.00  0.00    -0.395 OA
HETATM   34  H30 UNL     1       6.322   5.703  12.020  1.00  0.00     0.210 HD
ENDBRANCH  17  33
TORSDOF 2
ENDMDL
MODEL 5
REMARK minimizedAffinity -7.72672892
REMARK  2 active torsions:
REMARK  status: ('A' for Active; 'I' for Inactive)
REMARK    1  A    between atoms: C14_15  and  C15_16 
REMARK    2  A    between atoms: C19_21  and  O3_22 
ROOT
HETATM    1  C1  UNL     1       4.737  11.392  13.139  1.00  0.00     0.023 C 
HETATM    2  C2  UNL     1       4.423  10.203  14.072  1.00  0.00     0.017 C 
HETATM    3  C3  UNL     1       4.584  10.700  15.522  1.00  0.00     0.023 C 
HETATM    4  C4  UNL     1       5.486   9.135  13.787  1.00  0.00     0.135 C 
HETATM    5  O1  UNL     1       6.593   9.142  14.325  1.00  0.00    -0.297 OA
HETATM    6  C5  UNL     1       5.152   8.112  12.733  1.00  0.00     0.080 C 
HETATM    7  C6  UNL     1       3.871   7.348  13.045  1.00  0.00     0.017 C 
HETATM    8  C7  UNL     1       2.838   8.083  13.971  1.00  0.00    -0.035 C 
HETATM    9  C8  UNL     1       3.163   7.663  15.421  1.00  0.00     0.016 C 
HETATM   10  C9  UNL     1       1.375   7.646  13.528  1.00  0.00     0.003 C 
HETATM   11  C10 UNL     1       1.124   6.116  13.582  1.00  0.00     0.006 C 
HETATM   12  C11 UNL     1      -0.226   5.681  12.989  1.00  0.00     0.006 C 
HETATM   13  C12 UNL     1      -1.358   6.472  13.631  1.00  0.00    -0.000 C 
HETATM   14  C13 UNL     1      -2.796   6.068  13.314  1.00  0.00     0.008 C 
HETATM   15  C14 UNL     1      -3.235   4.619  13.067  1.00  0.00     0.030 C 
HETATM   16  C18 UNL     1      -4.772   4.674  13.328  1.00  0.00     0.040 C 
HETATM   17  C19 UNL     1      -5.070   6.064  13.937  1.00  0.00     0.127 C 
HETATM   18  C20 UNL     1      -3.707   6.529  14.487  1.00  0.00    -0.013 C 
HETATM   19  C21 UNL     1      -3.479   5.785  15.837  1.00  0.00     0.018 C 
HETATM   20  C22 UNL     1      -3.524   8.039  14.765  1.00  0.00     0.013 C 
HETATM   21  C23 UNL     1      -2.505   8.784  13.879  1.00  0.00     0.011 C 
HETATM   22  C24 UNL     1      -1.202   8.024  13.399  1.00  0.00    -0.032 C 
HETATM   23  C25 UNL     1      -1.133   8.344  11.862  1.00  0.00     0.016 C 
HETATM   24  C26 UNL     1       0.168   8.488  14.130  1.00  0.00    -0.032 C 
HETATM   25  C27 UNL     1       0.014   8.282  15.663  1.00  0.00     0.016 C 
HETATM   26  C28 UNL     1       0.476   9.992  13.887  1.00  0.00     0.011 C 
HETATM   27  C29 UNL     1       1.856  10.443  14.375  1.00  0.00     0.007 C 
HETATM   28  C30 UNL     1       2.998   9.629  13.738  1.00  0.00     0.009 C 
ENDROOT
BRANCH  15  29
HETATM   29  C15 UNL     1      -2.919   4.066  11.692  1.00  0.00     0.083 A 
HETATM   30  C16 UNL     1      -4.033   3.848  10.709  1.00  0.00     0.049 C 
HETATM   31  C17 UNL     1      -1.501   4.161  11.160  1.00  0.00     0.207 A 
HETATM   32  O2  UNL     1      -2.000   2.956  11.743  1.00  0.00    -0.375 OA
ENDBRANCH  15  29
BRANCH  17  33
HETATM   33  O3  UNL     1      -5.523   6.943  12.910  1.00  0.00    -0.395 OA
HETATM   34  H30 UNL     1      -6.361   6.583  12.571  1.00  0.00     0.210 HD
ENDBRANCH  17  33
TORSDOF 2
ENDMDL
MODEL 6
REMARK minimizedAffinity -7.43274021
REMARK  2 active torsions:
REMARK  status: ('A' for Active; 'I' for Inactive)
REMARK    1  A    between atoms: C14_15  and  C15_16 
REMARK    2  A    between atoms: C19_21  and  O3_22 
ROOT
HETATM    1  C1  UNL     1      -3.794   6.048  15.856  1.00  0.00     0.023 C 
HETATM    2  C2  UNL     1      -3.388   7.021  14.729  1.00  0.00     0.017 C 
HETATM    3  C3  UNL     1      -4.286   8.268  14.851  1.00  0.00     0.023 C 
HETATM    4  C4  UNL     1      -3.697   6.308  13.407  1.00  0.00     0.135 C 
HETATM    5  O1  UNL     1      -4.814   6.325  12.890  1.00  0.00    -0.297 OA
HETATM    6  C5  UNL     1      -2.585   5.492  12.802  1.00  0.00     0.080 C 
HETATM    7  C6  UNL     1      -1.329   6.316  12.544  1.00  0.00     0.017 C 
HETATM    8  C7  UNL     1      -1.149   7.595  13.436  1.00  0.00    -0.035 C 
HETATM    9  C8  UNL     1      -1.792   8.769  12.664  1.00  0.00     0.016 C 
HETATM   10  C9  UNL     1       0.407   7.814  13.682  1.00  0.00     0.003 C 
HETATM   11  C10 UNL     1       1.242   7.963  12.383  1.00  0.00     0.006 C 
HETATM   12  C11 UNL     1       2.761   7.997  12.616  1.00  0.00     0.006 C 
HETATM   13  C12 UNL     1       3.108   9.062  13.648  1.00  0.00    -0.000 C 
HETATM   14  C13 UNL     1       4.581   9.385  13.891  1.00  0.00     0.008 C 
HETATM   15  C14 UNL     1       5.650   9.342  12.793  1.00  0.00     0.030 C 
HETATM   16  C18 UNL     1       6.789  10.231  13.384  1.00  0.00     0.040 C 
HETATM   17  C19 UNL     1       6.209  10.914  14.645  1.00  0.00     0.127 C 
HETATM   18  C20 UNL     1       4.683  10.835  14.443  1.00  0.00    -0.013 C 
HETATM   19  C21 UNL     1       4.295  11.958  13.434  1.00  0.00     0.018 C 
HETATM   20  C22 UNL     1       3.785  11.014  15.688  1.00  0.00     0.013 C 
HETATM   21  C23 UNL     1       2.971   9.783  16.135  1.00  0.00     0.011 C 
HETATM   22  C24 UNL     1       2.409   8.792  15.035  1.00  0.00    -0.032 C 
HETATM   23  C25 UNL     1       2.805   7.372  15.581  1.00  0.00     0.016 C 
HETATM   24  C26 UNL     1       0.808   8.874  14.796  1.00  0.00    -0.032 C 
HETATM   25  C27 UNL     1       0.436  10.327  14.387  1.00  0.00     0.016 C 
HETATM   26  C28 UNL     1       0.010   8.529  16.085  1.00  0.00     0.011 C 
HETATM   27  C29 UNL     1      -1.500   8.386  15.874  1.00  0.00     0.007 C 
HETATM   28  C30 UNL     1      -1.847   7.322  14.817  1.00  0.00     0.009 C 
ENDROOT
BRANCH  15  29
HETATM   29  C15 UNL     1       6.153   7.961  12.424  1.00  0.00     0.083 A 
HETATM   30  C16 UNL     1       6.440   6.963  13.509  1.00  0.00     0.049 C 
HETATM   31  C17 UNL     1       5.939   7.444  11.012  1.00  0.00     0.207 A 
HETATM   32  O2  UNL     1       7.189   8.003  11.422  1.00  0.00    -0.375 OA
ENDBRANCH  15  29
BRANCH  17  33
HETATM   33  O3  UNL     1       6.601  10.180  15.803  1.00  0.00    -0.395 OA
HETATM   34  H30 UNL     1       7.570  10.228  15.860  1.00  0.00     0.210 HD
ENDBRANCH  17  33
TORSDOF 2
ENDMDL
MODEL 7
REMARK minimizedAffinity -7.41519833
REMARK  2 active torsions:
REMARK  status: ('A' for Active; 'I' for Inactive)
REMARK    1  A    between atoms: C14_15  and  C15_16 
REMARK    2  A    between atoms: C19_21  and  O3_22 
ROOT
HETATM    1  C1  UNL     1      -3.590   2.471  12.340  1.00  0.00     0.023 C 
HETATM    2  C2  UNL     1      -2.859   3.639  11.643  1.00  0.00     0.017 C 
HETATM    3  C3  UNL     1      -3.673   4.009  10.388  1.00  0.00     0.023 C 
HETATM    4  C4  UNL     1      -1.490   3.099  11.211  1.00  0.00     0.135 C 
HETATM    5  O1  UNL     1      -1.321   2.487  10.155  1.00  0.00    -0.297 OA
HETATM    6  C5  UNL     1      -0.357   3.263  12.190  1.00  0.00     0.080 C 
HETATM    7  C6  UNL     1      -0.125   4.720  12.575  1.00  0.00     0.017 C 
HETATM    8  C7  UNL     1      -1.361   5.676  12.431  1.00  0.00    -0.035 C 
HETATM    9  C8  UNL     1      -1.290   6.285  11.013  1.00  0.00     0.016 C 
HETATM   10  C9  UNL     1      -1.269   6.783  13.569  1.00  0.00     0.003 C 
HETATM   11  C10 UNL     1       0.040   7.616  13.541  1.00  0.00     0.006 C 
HETATM   12  C11 UNL     1       0.206   8.561  14.742  1.00  0.00     0.006 C 
HETATM   13  C12 UNL     1      -1.030   9.437  14.893  1.00  0.00    -0.000 C 
HETATM   14  C13 UNL     1      -0.996  10.572  15.916  1.00  0.00     0.008 C 
HETATM   15  C14 UNL     1       0.267  11.375  16.248  1.00  0.00     0.030 C 
HETATM   16  C18 UNL     1      -0.309  12.680  16.880  1.00  0.00     0.040 C 
HETATM   17  C19 UNL     1      -1.838  12.648  16.647  1.00  0.00     0.127 C 
HETATM   18  C20 UNL     1      -2.016  11.661  15.478  1.00  0.00    -0.013 C 
HETATM   19  C21 UNL     1      -1.649  12.426  14.171  1.00  0.00     0.018 C 
HETATM   20  C22 UNL     1      -3.418  11.047  15.265  1.00  0.00     0.013 C 
HETATM   21  C23 UNL     1      -3.550   9.528  15.500  1.00  0.00     0.011 C 
HETATM   22  C24 UNL     1      -2.336   8.584  15.123  1.00  0.00    -0.032 C 
HETATM   23  C25 UNL     1      -2.175   7.666  16.389  1.00  0.00     0.016 C 
HETATM   24  C26 UNL     1      -2.562   7.677  13.799  1.00  0.00    -0.032 C 
HETATM   25  C27 UNL     1      -2.851   8.615  12.592  1.00  0.00     0.016 C 
HETATM   26  C28 UNL     1      -3.777   6.719  13.950  1.00  0.00     0.011 C 
HETATM   27  C29 UNL     1      -3.919   5.694  12.821  1.00  0.00     0.007 C 
HETATM   28  C30 UNL     1      -2.661   4.822  12.659  1.00  0.00     0.009 C 
ENDROOT
BRANCH  15  29
HETATM   29  C15 UNL     1       1.253  10.691  17.174  1.00  0.00     0.083 A 
HETATM   30  C16 UNL     1       2.593  10.267  16.647  1.00  0.00     0.049 C 
HETATM   31  C17 UNL     1       1.087  10.838  18.676  1.00  0.00     0.207 A 
HETATM   32  O2  UNL     1       0.630   9.674  17.985  1.00  0.00    -0.375 OA
ENDBRANCH  15  29
BRANCH  17  33
HETATM   33  O3  UNL     1      -2.485  12.160  17.820  1.00  0.00    -0.395 OA
HETATM   34  H30 UNL     1      -2.308  12.796  18.534  1.00  0.00     0.210 HD
ENDBRANCH  17  33
TORSDOF 2
ENDMDL
MODEL 8
REMARK minimizedAffinity -7.41395187
REMARK  2 active torsions:
REMARK  status: ('A' for Active; 'I' for Inactive)
REMARK    1  A    between atoms: C14_15  and  C15_16 
REMARK    2  A    between atoms: C19_21  and  O3_22 
ROOT
HETATM    1  C1  UNL     1      -4.814   7.799  13.250  1.00  0.00     0.023 C 
HETATM    2  C2  UNL     1      -5.730   6.942  14.150  1.00  0.00     0.017 C 
HETATM    3  C3  UNL     1      -5.031   6.800  15.517  1.00  0.00     0.023 C 
HETATM    4  C4  UNL     1      -5.821   5.562  13.488  1.00  0.00     0.135 C 
HETATM    5  O1  UNL     1      -4.979   4.682  13.670  1.00  0.00    -0.297 OA
HETATM    6  C5  UNL     1      -6.950   5.351  12.514  1.00  0.00     0.080 C 
HETATM    7  C6  UNL     1      -8.317   5.600  13.142  1.00  0.00     0.017 C 
HETATM    8  C7  UNL     1      -8.341   6.563  14.381  1.00  0.00    -0.035 C 
HETATM    9  C8  UNL     1      -8.189   5.675  15.636  1.00  0.00     0.016 C 
HETATM   10  C9  UNL     1      -9.718   7.358  14.367  1.00  0.00     0.003 C 
HETATM   11  C10 UNL     1     -10.977   6.451  14.387  1.00  0.00     0.006 C 
HETATM   12  C11 UNL     1     -12.299   7.211  14.195  1.00  0.00     0.006 C 
HETATM   13  C12 UNL     1     -12.396   8.353  15.199  1.00  0.00    -0.000 C 
HETATM   14  C13 UNL     1     -13.712   9.121  15.299  1.00  0.00     0.008 C 
HETATM   15  C14 UNL     1     -15.088   8.476  15.095  1.00  0.00     0.030 C 
HETATM   16  C18 UNL     1     -16.050   9.478  15.806  1.00  0.00     0.040 C 
HETATM   17  C19 UNL     1     -15.157  10.484  16.570  1.00  0.00     0.127 C 
HETATM   18  C20 UNL     1     -13.811   9.748  16.719  1.00  0.00    -0.013 C 
HETATM   19  C21 UNL     1     -13.972   8.726  17.885  1.00  0.00     0.018 C 
HETATM   20  C22 UNL     1     -12.559  10.599  17.032  1.00  0.00     0.013 C 
HETATM   21  C23 UNL     1     -11.476  10.662  15.936  1.00  0.00     0.011 C 
HETATM   22  C24 UNL     1     -11.215   9.384  15.039  1.00  0.00    -0.032 C 
HETATM   23  C25 UNL     1     -11.185   9.961  13.576  1.00  0.00     0.016 C 
HETATM   24  C26 UNL     1      -9.835   8.596  15.357  1.00  0.00    -0.032 C 
HETATM   25  C27 UNL     1      -9.842   8.157  16.849  1.00  0.00     0.016 C 
HETATM   26  C28 UNL     1      -8.587   9.495  15.137  1.00  0.00     0.011 C 
HETATM   27  C29 UNL     1      -7.250   8.754  15.221  1.00  0.00     0.007 C 
HETATM   28  C30 UNL     1      -7.161   7.589  14.218  1.00  0.00     0.009 C 
ENDROOT
BRANCH  15  29
HETATM   29  C15 UNL     1     -15.492   8.239  13.653  1.00  0.00     0.083 A 
HETATM   30  C16 UNL     1     -15.695   6.834  13.164  1.00  0.00     0.049 C 
HETATM   31  C17 UNL     1     -16.115   9.373  12.860  1.00  0.00     0.207 A 
HETATM   32  O2  UNL     1     -14.731   9.043  12.730  1.00  0.00    -0.375 OA
ENDBRANCH  15  29
BRANCH  17  33
HETATM   33  O3  UNL     1     -14.999  11.665  15.788  1.00  0.00    -0.395 OA
HETATM   34  H30 UNL     1     -15.879  12.067  15.691  1.00  0.00     0.210 HD
ENDBRANCH  17  33
TORSDOF 2
ENDMDL
MODEL 9
REMARK minimizedAffinity -7.32736683
REMARK  2 active torsions:
REMARK  status: ('A' for Active; 'I' for Inactive)
REMARK    1  A    between atoms: C14_15  and  C15_16 
REMARK    2  A    between atoms: C19_21  and  O3_22 
ROOT
HETATM    1  C1  UNL     1     -11.891   7.980  12.620  1.00  0.00     0.023 C 
HETATM    2  C2  UNL     1     -11.234   7.659  13.980  1.00  0.00     0.017 C 
HETATM    3  C3  UNL     1     -11.853   6.344  14.492  1.00  0.00     0.023 C 
HETATM    4  C4  UNL     1     -11.621   8.799  14.929  1.00  0.00     0.135 C 
HETATM    5  O1  UNL     1     -12.683   8.811  15.553  1.00  0.00    -0.297 OA
HETATM    6  C5  UNL     1     -10.678   9.972  14.999  1.00  0.00     0.080 C 
HETATM    7  C6  UNL     1      -9.265   9.563  15.398  1.00  0.00     0.017 C 
HETATM    8  C7  UNL     1      -8.863   8.079  15.083  1.00  0.00    -0.035 C 
HETATM    9  C8  UNL     1      -9.204   7.249  16.341  1.00  0.00     0.016 C 
HETATM   10  C9  UNL     1      -7.310   8.046  14.741  1.00  0.00     0.003 C 
HETATM   11  C10 UNL     1      -6.399   8.605  15.867  1.00  0.00     0.006 C 
HETATM   12  C11 UNL     1      -4.921   8.737  15.467  1.00  0.00     0.006 C 
HETATM   13  C12 UNL     1      -4.408   7.413  14.917  1.00  0.00    -0.000 C 
HETATM   14  C13 UNL     1      -2.914   7.275  14.631  1.00  0.00     0.008 C 
HETATM   15  C14 UNL     1      -1.825   7.960  15.464  1.00  0.00     0.030 C 
HETATM   16  C18 UNL     1      -0.555   7.115  15.137  1.00  0.00     0.040 C 
HETATM   17  C19 UNL     1      -1.039   5.875  14.349  1.00  0.00     0.127 C 
HETATM   18  C20 UNL     1      -2.535   5.769  14.703  1.00  0.00    -0.013 C 
HETATM   19  C21 UNL     1      -2.627   5.129  16.121  1.00  0.00     0.018 C 
HETATM   20  C22 UNL     1      -3.435   4.930  13.768  1.00  0.00     0.013 C 
HETATM   21  C23 UNL     1      -4.512   5.697  12.975  1.00  0.00     0.011 C 
HETATM   22  C24 UNL     1      -5.216   6.947  13.645  1.00  0.00    -0.032 C 
HETATM   23  C25 UNL     1      -5.156   8.049  12.525  1.00  0.00     0.016 C 
HETATM   24  C26 UNL     1      -6.749   6.701  14.107  1.00  0.00    -0.032 C 
HETATM   25  C27 UNL     1      -6.786   5.516  15.114  1.00  0.00     0.016 C 
HETATM   26  C28 UNL     1      -7.665   6.327  12.908  1.00  0.00     0.011 C 
HETATM   27  C29 UNL     1      -9.159   6.284  13.243  1.00  0.00     0.007 C 
HETATM   28  C30 UNL     1      -9.671   7.618  13.816  1.00  0.00     0.009 C 
ENDROOT
BRANCH  15  29
HETATM   29  C15 UNL     1      -1.608   9.432  15.174  1.00  0.00     0.083 A 
HETATM   30  C16 UNL     1      -1.748   9.937  13.767  1.00  0.00     0.049 C 
HETATM   31  C17 UNL     1      -1.701  10.436  16.309  1.00  0.00     0.207 A 
HETATM   32  O2  UNL     1      -0.440   9.957  15.837  1.00  0.00    -0.375 OA
ENDBRANCH  15  29
BRANCH  17  33
HETATM   33  O3  UNL     1      -0.869   6.106  12.952  1.00  0.00    -0.395 OA
HETATM   34  H30 UNL     1       0.085   6.206  12.790  1.00  0.00     0.210 HD
ENDBRANCH  17  33
TORSDOF 2
ENDMDL
