MODEL 1
REMARK minimizedAffinity -9.07746029
REMARK CNNscore 0.489343256
REMARK CNNaffinity 7.36837339
REMARK  12 active torsions:
REMARK  status: ('A' for Active; 'I' for Inactive)
REMARK    1  A    between atoms: O1_2  and  C2_3 
REMARK    2  A    between atoms: C2_3  and  C3_4 
REMARK    3  A    between atoms: C2_3  and  C7_8 
REMARK    4  A    between atoms: C7_8  and  C8_9 
REMARK    5  A    between atoms: C8_9  and  C10_11 
REMARK    6  A    between atoms: C28_30  and  O3_31 
REMARK    7  A    between atoms: O3_31  and  C29_32 
REMARK    8  A    between atoms: C30_34  and  C31_35 
REMARK    9  A    between atoms: C31_35  and  O5_36 
REMARK   10  A    between atoms: C32_37  and  O6_38 
REMARK   11  A    between atoms: C33_39  and  O7_40 
REMARK   12  A    between atoms: C34_41  and  O8_42 
ROOT
HETATM    1  C10 UNL     1      -1.729  50.694 -17.160  1.00  0.00    -0.002 C 
HETATM    2  C11 UNL     1      -0.407  51.265 -17.771  1.00  0.00     0.006 C 
HETATM    3  C12 UNL     1      -0.338  50.799 -19.242  1.00  0.00     0.011 C 
HETATM    4  C13 UNL     1      -1.753  50.276 -19.541  1.00  0.00    -0.029 C 
HETATM    5  C14 UNL     1      -2.612  51.556 -19.826  1.00  0.00     0.016 C 
HETATM    6  C15 UNL     1      -1.866  49.253 -20.718  1.00  0.00     0.028 C 
HETATM    7  C16 UNL     1      -1.426  49.825 -22.047  1.00  0.00    -0.021 C 
HETATM    8  C17 UNL     1      -2.209  49.757 -23.138  1.00  0.00     0.008 C 
HETATM    9  C18 UNL     1      -3.605  49.147 -23.089  1.00  0.00     0.092 C 
HETATM   10  O2  UNL     1      -3.361  47.722 -23.076  1.00  0.00    -0.374 OA
HETATM   11  C19 UNL     1      -3.205  47.305 -21.705  1.00  0.00     0.179 C 
HETATM   12  C20 UNL     1      -3.301  48.564 -20.803  1.00  0.00    -0.004 C 
HETATM   13  C21 UNL     1      -3.802  48.133 -19.400  1.00  0.00     0.014 C 
HETATM   14  C22 UNL     1      -3.566  49.116 -18.239  1.00  0.00     0.011 C 
HETATM   15  C23 UNL     1      -2.096  49.565 -18.172  1.00  0.00    -0.032 C 
HETATM   16  C24 UNL     1      -1.211  48.316 -17.860  1.00  0.00     0.016 C 
HETATM   17  C25 UNL     1      -4.240  49.424 -21.699  1.00  0.00     0.036 C 
HETATM   18  C26 UNL     1      -5.748  49.121 -21.650  1.00  0.00     0.011 C 
HETATM   19  C27 UNL     1      -6.258  48.283 -22.808  1.00  0.00     0.033 C 
HETATM   20  C28 UNL     1      -5.981  48.959 -24.152  1.00  0.00     0.136 C 
HETATM   21  C35 UNL     1      -4.519  49.531 -24.306  1.00  0.00     0.014 C 
HETATM   22  C36 UNL     1      -3.895  49.044 -25.640  1.00  0.00     0.021 C 
HETATM   23  C37 UNL     1      -4.643  51.075 -24.401  1.00  0.00     0.021 C 
ENDROOT
BRANCH  20  24
HETATM   24  O3  UNL     1      -6.286  48.032 -25.202  1.00  0.00    -0.352 OA
BRANCH  24  25
HETATM   25  C29 UNL     1      -7.510  47.322 -25.032  1.00  0.00     0.292 C 
HETATM   26  O4  UNL     1      -7.776  46.513 -26.179  1.00  0.00    -0.348 OA
HETATM   27  C30 UNL     1      -7.853  47.243 -27.417  1.00  0.00     0.179 C 
HETATM   28  C32 UNL     1      -8.276  48.717 -27.250  1.00  0.00     0.180 C 
HETATM   29  C33 UNL     1      -9.292  48.798 -26.116  1.00  0.00     0.183 C 
HETATM   30  C34 UNL     1      -8.667  48.324 -24.794  1.00  0.00     0.204 C 
BRANCH  27  31
HETATM   31  C31 UNL     1      -6.546  47.130 -28.215  1.00  0.00     0.198 C 
BRANCH  31  32
HETATM   32  O5  UNL     1      -5.935  48.403 -28.409  1.00  0.00    -0.398 OA
HETATM   33  H48 UNL     1      -6.024  48.905 -27.570  1.00  0.00     0.209 HD
ENDBRANCH  31  32
ENDBRANCH  27  31
BRANCH  28  34
HETATM   34  O6  UNL     1      -8.841  49.220 -28.468  1.00  0.00    -0.390 OA
HETATM   35  H50 UNL     1      -9.309  50.040 -28.207  1.00  0.00     0.210 HD
ENDBRANCH  28  34
BRANCH  29  36
HETATM   36  O7  UNL     1      -9.769  50.148 -25.996  1.00  0.00    -0.390 OA
HETATM   37  H52 UNL     1     -10.333  50.169 -25.198  1.00  0.00     0.210 HD
ENDBRANCH  29  36
BRANCH  30  38
HETATM   38  O8  UNL     1      -9.716  47.739 -24.000  1.00  0.00    -0.388 OA
HETATM   39  H54 UNL     1      -9.957  46.891 -24.420  1.00  0.00     0.210 HD
ENDBRANCH  30  38
ENDBRANCH  24  25
ENDBRANCH  20  24
BRANCH   1  40
HETATM   40  C8  UNL     1      -1.583  50.384 -15.645  1.00  0.00    -0.011 C 
HETATM   41  C9  UNL     1      -2.425  51.296 -14.750  1.00  0.00     0.010 C 
BRANCH  40  42
HETATM   42  C7  UNL     1      -0.104  50.369 -15.161  1.00  0.00     0.040 C 
BRANCH  42  43
HETATM   43  C2  UNL     1       0.455  51.621 -14.446  1.00  0.00     0.144 C 
BRANCH  43  44
HETATM   44  O1  UNL     1       0.933  51.163 -13.168  1.00  0.00    -0.387 OA
HETATM   45  C1  UNL     1       0.464  49.862 -12.833  1.00  0.00     0.202 C 
ENDBRANCH  43  44
BRANCH  43  46
HETATM   46  C3  UNL     1       1.616  52.242 -15.173  1.00  0.00     0.007 C 
HETATM   47  C4  UNL     1       2.919  51.894 -15.124  1.00  0.00    -0.089 C 
HETATM   48  C5  UNL     1       3.485  50.749 -14.331  1.00  0.00     0.042 C 
HETATM   49  C6  UNL     1       3.948  52.685 -15.887  1.00  0.00     0.042 C 
ENDBRANCH  43  46
ENDBRANCH  42  43
ENDBRANCH  40  42
ENDBRANCH   1  40
TORSDOF 12
ENDMDL
MODEL 2
REMARK minimizedAffinity -8.00399399
REMARK CNNscore 0.48305589
REMARK CNNaffinity 6.59797716
REMARK  12 active torsions:
REMARK  status: ('A' for Active; 'I' for Inactive)
REMARK    1  A    between atoms: O1_2  and  C2_3 
REMARK    2  A    between atoms: C2_3  and  C3_4 
REMARK    3  A    between atoms: C2_3  and  C7_8 
REMARK    4  A    between atoms: C7_8  and  C8_9 
REMARK    5  A    between atoms: C8_9  and  C10_11 
REMARK    6  A    between atoms: C28_30  and  O3_31 
REMARK    7  A    between atoms: O3_31  and  C29_32 
REMARK    8  A    between atoms: C30_34  and  C31_35 
REMARK    9  A    between atoms: C31_35  and  O5_36 
REMARK   10  A    between atoms: C32_37  and  O6_38 
REMARK   11  A    between atoms: C33_39  and  O7_40 
REMARK   12  A    between atoms: C34_41  and  O8_42 
ROOT
HETATM    1  C10 UNL     1      -7.559  47.759 -25.902  1.00  0.00    -0.002 C 
HETATM    2  C11 UNL     1      -6.927  46.941 -27.076  1.00  0.00     0.006 C 
HETATM    3  C12 UNL     1      -7.915  45.812 -27.440  1.00  0.00     0.011 C 
HETATM    4  C13 UNL     1      -9.218  46.202 -26.721  1.00  0.00    -0.029 C 
HETATM    5  C14 UNL     1      -9.883  47.287 -27.637  1.00  0.00     0.016 C 
HETATM    6  C15 UNL     1     -10.212  45.031 -26.429  1.00  0.00     0.028 C 
HETATM    7  C16 UNL     1     -10.707  44.345 -27.682  1.00  0.00    -0.021 C 
HETATM    8  C17 UNL     1     -12.018  44.168 -27.918  1.00  0.00     0.008 C 
HETATM    9  C18 UNL     1     -13.085  44.694 -26.964  1.00  0.00     0.092 C 
HETATM   10  O2  UNL     1     -13.071  43.746 -25.872  1.00  0.00    -0.374 OA
HETATM   11  C19 UNL     1     -12.092  44.183 -24.910  1.00  0.00     0.179 C 
HETATM   12  C20 UNL     1     -11.406  45.460 -25.463  1.00  0.00    -0.004 C 
HETATM   13  C21 UNL     1     -10.890  46.304 -24.269  1.00  0.00     0.014 C 
HETATM   14  C22 UNL     1      -9.821  47.368 -24.575  1.00  0.00     0.011 C 
HETATM   15  C23 UNL     1      -8.642  46.773 -25.364  1.00  0.00    -0.032 C 
HETATM   16  C24 UNL     1      -7.937  45.705 -24.468  1.00  0.00     0.016 C 
HETATM   17  C25 UNL     1     -12.589  46.012 -26.311  1.00  0.00     0.036 C 
HETATM   18  C26 UNL     1     -13.701  46.779 -25.573  1.00  0.00     0.011 C 
HETATM   19  C27 UNL     1     -14.951  45.963 -25.300  1.00  0.00     0.033 C 
HETATM   20  C28 UNL     1     -15.562  45.426 -26.594  1.00  0.00     0.136 C 
HETATM   21  C35 UNL     1     -14.522  44.781 -27.589  1.00  0.00     0.014 C 
HETATM   22  C36 UNL     1     -15.015  43.381 -28.040  1.00  0.00     0.021 C 
HETATM   23  C37 UNL     1     -14.489  45.679 -28.856  1.00  0.00     0.021 C 
ENDROOT
BRANCH  20  24
HETATM   24  O3  UNL     1     -16.601  44.497 -26.259  1.00  0.00    -0.352 OA
BRANCH  24  25
HETATM   25  C29 UNL     1     -17.685  44.456 -27.182  1.00  0.00     0.292 C 
HETATM   26  O4  UNL     1     -18.636  45.477 -26.874  1.00  0.00    -0.348 OA
HETATM   27  C30 UNL     1     -19.182  45.400 -25.544  1.00  0.00     0.179 C 
HETATM   28  C32 UNL     1     -19.176  43.979 -24.946  1.00  0.00     0.180 C 
HETATM   29  C33 UNL     1     -19.453  42.985 -26.070  1.00  0.00     0.183 C 
HETATM   30  C34 UNL     1     -18.355  43.061 -27.142  1.00  0.00     0.204 C 
BRANCH  27  31
HETATM   31  C31 UNL     1     -18.497  46.399 -24.601  1.00  0.00     0.198 C 
BRANCH  31  32
HETATM   32  O5  UNL     1     -19.032  47.713 -24.744  1.00  0.00    -0.398 OA
HETATM   33  H48 UNL     1     -20.005  47.627 -24.840  1.00  0.00     0.209 HD
ENDBRANCH  31  32
ENDBRANCH  27  31
BRANCH  28  34
HETATM   34  O6  UNL     1     -20.168  43.862 -23.917  1.00  0.00    -0.390 OA
HETATM   35  H50 UNL     1     -20.277  42.897 -23.783  1.00  0.00     0.210 HD
ENDBRANCH  28  34
BRANCH  29  36
HETATM   36  O7  UNL     1     -19.542  41.659 -25.525  1.00  0.00    -0.390 OA
HETATM   37  H52 UNL     1     -19.615  41.054 -26.290  1.00  0.00     0.210 HD
ENDBRANCH  29  36
BRANCH  30  38
HETATM   38  O8  UNL     1     -18.956  42.727 -28.408  1.00  0.00    -0.388 OA
HETATM   39  H54 UNL     1     -19.530  43.476 -28.660  1.00  0.00     0.210 HD
ENDBRANCH  30  38
ENDBRANCH  24  25
ENDBRANCH  20  24
BRANCH   1  40
HETATM   40  C8  UNL     1      -6.477  48.344 -24.952  1.00  0.00    -0.011 C 
HETATM   41  C9  UNL     1      -5.066  48.316 -25.542  1.00  0.00     0.010 C 
BRANCH  40  42
HETATM   42  C7  UNL     1      -6.485  47.694 -23.538  1.00  0.00     0.040 C 
BRANCH  42  43
HETATM   43  C2  UNL     1      -5.739  48.411 -22.389  1.00  0.00     0.144 C 
BRANCH  43  44
HETATM   44  O1  UNL     1      -6.638  48.391 -21.265  1.00  0.00    -0.387 OA
HETATM   45  C1  UNL     1      -6.433  49.477 -20.369  1.00  0.00     0.202 C 
ENDBRANCH  43  44
BRANCH  43  46
HETATM   46  C3  UNL     1      -4.477  47.705 -21.978  1.00  0.00     0.007 C 
HETATM   47  C4  UNL     1      -3.198  48.070 -22.207  1.00  0.00    -0.089 C 
HETATM   48  C5  UNL     1      -2.765  49.326 -22.913  1.00  0.00     0.042 C 
HETATM   49  C6  UNL     1      -2.062  47.189 -21.763  1.00  0.00     0.042 C 
ENDBRANCH  43  46
ENDBRANCH  42  43
ENDBRANCH  40  42
ENDBRANCH   1  40
TORSDOF 12
ENDMDL
MODEL 3
REMARK minimizedAffinity -9.92627335
REMARK CNNscore 0.464259684
REMARK CNNaffinity 7.88564825
REMARK  12 active torsions:
REMARK  status: ('A' for Active; 'I' for Inactive)
REMARK    1  A    between atoms: O1_2  and  C2_3 
REMARK    2  A    between atoms: C2_3  and  C3_4 
REMARK    3  A    between atoms: C2_3  and  C7_8 
REMARK    4  A    between atoms: C7_8  and  C8_9 
REMARK    5  A    between atoms: C8_9  and  C10_11 
REMARK    6  A    between atoms: C28_30  and  O3_31 
REMARK    7  A    between atoms: O3_31  and  C29_32 
REMARK    8  A    between atoms: C30_34  and  C31_35 
REMARK    9  A    between atoms: C31_35  and  O5_36 
REMARK   10  A    between atoms: C32_37  and  O6_38 
REMARK   11  A    between atoms: C33_39  and  O7_40 
REMARK   12  A    between atoms: C34_41  and  O8_42 
ROOT
HETATM    1  C10 UNL     1      -3.413  50.963 -25.553  1.00  0.00    -0.002 C 
HETATM    2  C11 UNL     1      -3.813  49.504 -25.951  1.00  0.00     0.006 C 
HETATM    3  C12 UNL     1      -3.453  48.584 -24.764  1.00  0.00     0.011 C 
HETATM    4  C13 UNL     1      -3.182  49.555 -23.601  1.00  0.00    -0.029 C 
HETATM    5  C14 UNL     1      -4.599  49.954 -23.062  1.00  0.00     0.016 C 
HETATM    6  C15 UNL     1      -2.279  49.003 -22.450  1.00  0.00     0.028 C 
HETATM    7  C16 UNL     1      -2.872  47.797 -21.756  1.00  0.00    -0.021 C 
HETATM    8  C17 UNL     1      -3.009  47.749 -20.420  1.00  0.00     0.008 C 
HETATM    9  C18 UNL     1      -2.624  48.925 -19.529  1.00  0.00     0.092 C 
HETATM   10  O2  UNL     1      -1.181  48.854 -19.465  1.00  0.00    -0.374 OA
HETATM   11  C19 UNL     1      -0.645  49.604 -20.572  1.00  0.00     0.179 C 
HETATM   12  C20 UNL     1      -1.832  50.134 -21.419  1.00  0.00    -0.004 C 
HETATM   13  C21 UNL     1      -1.382  51.421 -22.156  1.00  0.00     0.014 C 
HETATM   14  C22 UNL     1      -2.227  51.870 -23.362  1.00  0.00     0.011 C 
HETATM   15  C23 UNL     1      -2.434  50.720 -24.363  1.00  0.00    -0.032 C 
HETATM   16  C24 UNL     1      -1.042  50.315 -24.945  1.00  0.00     0.016 C 
HETATM   17  C25 UNL     1      -2.893  50.254 -20.285  1.00  0.00     0.036 C 
HETATM   18  C26 UNL     1      -2.827  51.493 -19.375  1.00  0.00     0.011 C 
HETATM   19  C27 UNL     1      -2.168  51.250 -18.030  1.00  0.00     0.033 C 
HETATM   20  C28 UNL     1      -2.890  50.155 -17.243  1.00  0.00     0.136 C 
HETATM   21  C35 UNL     1      -3.235  48.867 -18.085  1.00  0.00     0.014 C 
HETATM   22  C36 UNL     1      -2.757  47.597 -17.333  1.00  0.00     0.021 C 
HETATM   23  C37 UNL     1      -4.783  48.784 -18.174  1.00  0.00     0.021 C 
ENDROOT
BRANCH  20  24
HETATM   24  O3  UNL     1      -2.103  49.825 -16.092  1.00  0.00    -0.352 OA
BRANCH  24  25
HETATM   25  C29 UNL     1      -2.631  50.295 -14.855  1.00  0.00     0.292 C 
HETATM   26  O4  UNL     1      -1.805  51.335 -14.327  1.00  0.00    -0.348 OA
HETATM   27  C30 UNL     1      -0.434  50.953 -14.109  1.00  0.00     0.179 C 
HETATM   28  C32 UNL     1      -0.237  49.444 -13.856  1.00  0.00     0.180 C 
HETATM   29  C33 UNL     1      -1.430  48.933 -13.057  1.00  0.00     0.183 C 
HETATM   30  C34 UNL     1      -2.734  49.122 -13.850  1.00  0.00     0.204 C 
BRANCH  27  31
HETATM   31  C31 UNL     1       0.471  51.445 -15.248  1.00  0.00     0.198 C 
BRANCH  31  32
HETATM   32  O5  UNL     1       0.939  52.772 -15.013  1.00  0.00    -0.398 OA
HETATM   33  H48 UNL     1       1.168  52.841 -14.062  1.00  0.00     0.209 HD
ENDBRANCH  31  32
ENDBRANCH  27  31
BRANCH  28  34
HETATM   34  O6  UNL     1       0.984  49.209 -13.142  1.00  0.00    -0.390 OA
HETATM   35  H50 UNL     1       0.902  48.294 -12.802  1.00  0.00     0.210 HD
ENDBRANCH  28  34
BRANCH  29  36
HETATM   36  O7  UNL     1      -1.230  47.548 -12.731  1.00  0.00    -0.390 OA
HETATM   37  H52 UNL     1      -2.060  47.243 -12.314  1.00  0.00     0.210 HD
ENDBRANCH  29  36
BRANCH  30  38
HETATM   38  O8  UNL     1      -3.796  49.331 -12.901  1.00  0.00    -0.388 OA
HETATM   39  H54 UNL     1      -3.668  50.220 -12.517  1.00  0.00     0.210 HD
ENDBRANCH  30  38
ENDBRANCH  24  25
ENDBRANCH  20  24
BRANCH   1  40
HETATM   40  C8  UNL     1      -2.973  51.802 -26.784  1.00  0.00    -0.011 C 
HETATM   41  C9  UNL     1      -2.968  51.010 -28.094  1.00  0.00     0.010 C 
BRANCH  40  42
HETATM   42  C7  UNL     1      -1.606  52.519 -26.582  1.00  0.00     0.040 C 
BRANCH  42  43
HETATM   43  C2  UNL     1      -0.802  52.948 -27.831  1.00  0.00     0.144 C 
BRANCH  43  44
HETATM   44  O1  UNL     1      -0.653  54.376 -27.730  1.00  0.00    -0.387 OA
HETATM   45  C1  UNL     1      -0.192  54.798 -26.452  1.00  0.00     0.202 C 
ENDBRANCH  43  44
BRANCH  43  46
HETATM   46  C3  UNL     1       0.575  52.347 -27.877  1.00  0.00     0.007 C 
HETATM   47  C4  UNL     1       1.408  52.079 -26.850  1.00  0.00    -0.089 C 
HETATM   48  C5  UNL     1       1.096  52.302 -25.396  1.00  0.00     0.042 C 
HETATM   49  C6  UNL     1       2.784  51.526 -27.108  1.00  0.00     0.042 C 
ENDBRANCH  43  46
ENDBRANCH  42  43
ENDBRANCH  40  42
ENDBRANCH   1  40
TORSDOF 12
ENDMDL
MODEL 4
REMARK minimizedAffinity -8.57048702
REMARK CNNscore 0.412328482
REMARK CNNaffinity 6.95470667
REMARK  12 active torsions:
REMARK  status: ('A' for Active; 'I' for Inactive)
REMARK    1  A    between atoms: O1_2  and  C2_3 
REMARK    2  A    between atoms: C2_3  and  C3_4 
REMARK    3  A    between atoms: C2_3  and  C7_8 
REMARK    4  A    between atoms: C7_8  and  C8_9 
REMARK    5  A    between atoms: C8_9  and  C10_11 
REMARK    6  A    between atoms: C28_30  and  O3_31 
REMARK    7  A    between atoms: O3_31  and  C29_32 
REMARK    8  A    between atoms: C30_34  and  C31_35 
REMARK    9  A    between atoms: C31_35  and  O5_36 
REMARK   10  A    between atoms: C32_37  and  O6_38 
REMARK   11  A    between atoms: C33_39  and  O7_40 
REMARK   12  A    between atoms: C34_41  and  O8_42 
ROOT
HETATM    1  C10 UNL     1      -7.115  45.813 -19.184  1.00  0.00    -0.002 C 
HETATM    2  C11 UNL     1      -7.690  46.926 -18.248  1.00  0.00     0.006 C 
HETATM    3  C12 UNL     1      -6.849  48.202 -18.475  1.00  0.00     0.011 C 
HETATM    4  C13 UNL     1      -6.051  47.907 -19.756  1.00  0.00    -0.029 C 
HETATM    5  C14 UNL     1      -7.052  48.172 -20.933  1.00  0.00     0.016 C 
HETATM    6  C15 UNL     1      -4.736  48.731 -19.944  1.00  0.00     0.028 C 
HETATM    7  C16 UNL     1      -4.975  50.222 -20.027  1.00  0.00    -0.021 C 
HETATM    8  C17 UNL     1      -4.486  50.959 -21.039  1.00  0.00     0.008 C 
HETATM    9  C18 UNL     1      -3.705  50.331 -22.188  1.00  0.00     0.092 C 
HETATM   10  O2  UNL     1      -2.396  50.086 -21.625  1.00  0.00    -0.374 OA
HETATM   11  C19 UNL     1      -2.408  48.783 -21.010  1.00  0.00     0.179 C 
HETATM   12  C20 UNL     1      -3.837  48.196 -21.147  1.00  0.00    -0.004 C 
HETATM   13  C21 UNL     1      -3.742  46.648 -21.133  1.00  0.00     0.014 C 
HETATM   14  C22 UNL     1      -5.034  45.870 -20.825  1.00  0.00     0.011 C 
HETATM   15  C23 UNL     1      -5.706  46.380 -19.539  1.00  0.00    -0.032 C 
HETATM   16  C24 UNL     1      -4.746  46.105 -18.338  1.00  0.00     0.016 C 
HETATM   17  C25 UNL     1      -4.257  48.906 -22.467  1.00  0.00     0.036 C 
HETATM   18  C26 UNL     1      -3.750  48.309 -23.792  1.00  0.00     0.011 C 
HETATM   19  C27 UNL     1      -2.554  49.028 -24.388  1.00  0.00     0.033 C 
HETATM   20  C28 UNL     1      -2.863  50.503 -24.652  1.00  0.00     0.136 C 
HETATM   21  C35 UNL     1      -3.588  51.241 -23.461  1.00  0.00     0.014 C 
HETATM   22  C36 UNL     1      -2.851  52.565 -23.128  1.00  0.00     0.021 C 
HETATM   23  C37 UNL     1      -5.006  51.625 -23.962  1.00  0.00     0.021 C 
ENDROOT
BRANCH  20  24
HETATM   24  O3  UNL     1      -1.644  51.169 -25.007  1.00  0.00    -0.352 OA
BRANCH  24  25
HETATM   25  C29 UNL     1      -1.111  50.799 -26.275  1.00  0.00     0.292 C 
HETATM   26  O4  UNL     1       0.301  51.016 -26.302  1.00  0.00    -0.348 OA
HETATM   27  C30 UNL     1       0.699  52.373 -26.031  1.00  0.00     0.179 C 
HETATM   28  C32 UNL     1      -0.372  53.424 -26.392  1.00  0.00     0.180 C 
HETATM   29  C33 UNL     1      -1.099  52.954 -27.647  1.00  0.00     0.183 C 
HETATM   30  C34 UNL     1      -1.807  51.613 -27.393  1.00  0.00     0.204 C 
BRANCH  27  31
HETATM   31  C31 UNL     1       1.167  52.539 -24.578  1.00  0.00     0.198 C 
BRANCH  31  32
HETATM   32  O5  UNL     1       0.354  53.469 -23.865  1.00  0.00    -0.398 OA
HETATM   33  H48 UNL     1      -0.578  53.308 -24.126  1.00  0.00     0.209 HD
ENDBRANCH  31  32
ENDBRANCH  27  31
BRANCH  28  34
HETATM   34  O6  UNL     1       0.235  54.704 -26.613  1.00  0.00    -0.390 OA
HETATM   35  H50 UNL     1      -0.450  55.228 -27.080  1.00  0.00     0.210 HD
ENDBRANCH  28  34
BRANCH  29  36
HETATM   36  O7  UNL     1      -2.042  53.957 -28.058  1.00  0.00    -0.390 OA
HETATM   37  H52 UNL     1      -2.551  53.567 -28.797  1.00  0.00     0.210 HD
ENDBRANCH  29  36
BRANCH  30  38
HETATM   38  O8  UNL     1      -1.831  50.889 -28.637  1.00  0.00    -0.388 OA
HETATM   39  H54 UNL     1      -0.917  50.598 -28.819  1.00  0.00     0.210 HD
ENDBRANCH  30  38
ENDBRANCH  24  25
ENDBRANCH  20  24
BRANCH   1  40
HETATM   40  C8  UNL     1      -7.266  44.396 -18.563  1.00  0.00    -0.011 C 
HETATM   41  C9  UNL     1      -6.076  43.977 -17.699  1.00  0.00     0.010 C 
BRANCH  40  42
HETATM   42  C7  UNL     1      -7.585  43.295 -19.617  1.00  0.00     0.040 C 
BRANCH  42  43
HETATM   43  C2  UNL     1      -6.428  42.741 -20.481  1.00  0.00     0.144 C 
BRANCH  43  44
HETATM   44  O1  UNL     1      -6.021  41.513 -19.851  1.00  0.00    -0.387 OA
HETATM   45  C1  UNL     1      -6.027  40.402 -20.740  1.00  0.00     0.202 C 
ENDBRANCH  43  44
BRANCH  43  46
HETATM   46  C3  UNL     1      -6.852  42.415 -21.887  1.00  0.00     0.007 C 
HETATM   47  C4  UNL     1      -7.290  43.256 -22.847  1.00  0.00    -0.089 C 
HETATM   48  C5  UNL     1      -7.410  44.748 -22.709  1.00  0.00     0.042 C 
HETATM   49  C6  UNL     1      -7.727  42.723 -24.186  1.00  0.00     0.042 C 
ENDBRANCH  43  46
ENDBRANCH  42  43
ENDBRANCH  40  42
ENDBRANCH   1  40
TORSDOF 12
ENDMDL
MODEL 5
REMARK minimizedAffinity -8.67302418
REMARK CNNscore 0.392331213
REMARK CNNaffinity 7.15420008
REMARK  12 active torsions:
REMARK  status: ('A' for Active; 'I' for Inactive)
REMARK    1  A    between atoms: O1_2  and  C2_3 
REMARK    2  A    between atoms: C2_3  and  C3_4 
REMARK    3  A    between atoms: C2_3  and  C7_8 
REMARK    4  A    between atoms: C7_8  and  C8_9 
REMARK    5  A    between atoms: C8_9  and  C10_11 
REMARK    6  A    between atoms: C28_30  and  O3_31 
REMARK    7  A    between atoms: O3_31  and  C29_32 
REMARK    8  A    between atoms: C30_34  and  C31_35 
REMARK    9  A    between atoms: C31_35  and  O5_36 
REMARK   10  A    between atoms: C32_37  and  O6_38 
REMARK   11  A    between atoms: C33_39  and  O7_40 
REMARK   12  A    between atoms: C34_41  and  O8_42 
ROOT
HETATM    1  C10 UNL     1      -8.701  47.451 -19.706  1.00  0.00    -0.002 C 
HETATM    2  C11 UNL     1      -8.382  48.167 -18.353  1.00  0.00     0.006 C 
HETATM    3  C12 UNL     1      -6.940  48.711 -18.445  1.00  0.00     0.011 C 
HETATM    4  C13 UNL     1      -6.589  48.605 -19.939  1.00  0.00    -0.029 C 
HETATM    5  C14 UNL     1      -7.266  49.850 -20.608  1.00  0.00     0.016 C 
HETATM    6  C15 UNL     1      -5.064  48.546 -20.277  1.00  0.00     0.028 C 
HETATM    7  C16 UNL     1      -4.309  49.781 -19.838  1.00  0.00    -0.021 C 
HETATM    8  C17 UNL     1      -3.527  50.469 -20.687  1.00  0.00     0.008 C 
HETATM    9  C18 UNL     1      -3.393  50.078 -22.154  1.00  0.00     0.092 C 
HETATM   10  O2  UNL     1      -2.503  48.938 -22.130  1.00  0.00    -0.374 OA
HETATM   11  C19 UNL     1      -3.300  47.750 -21.955  1.00  0.00     0.179 C 
HETATM   12  C20 UNL     1      -4.783  48.179 -21.804  1.00  0.00    -0.004 C 
HETATM   13  C21 UNL     1      -5.689  47.013 -22.278  1.00  0.00     0.014 C 
HETATM   14  C22 UNL     1      -7.160  47.040 -21.824  1.00  0.00     0.011 C 
HETATM   15  C23 UNL     1      -7.276  47.228 -20.302  1.00  0.00    -0.032 C 
HETATM   16  C24 UNL     1      -6.636  45.988 -19.600  1.00  0.00     0.016 C 
HETATM   17  C25 UNL     1      -4.738  49.483 -22.654  1.00  0.00     0.036 C 
HETATM   18  C26 UNL     1      -4.806  49.340 -24.184  1.00  0.00     0.011 C 
HETATM   19  C27 UNL     1      -3.465  49.447 -24.886  1.00  0.00     0.033 C 
HETATM   20  C28 UNL     1      -2.785  50.785 -24.591  1.00  0.00     0.136 C 
HETATM   21  C35 UNL     1      -2.805  51.207 -23.072  1.00  0.00     0.014 C 
HETATM   22  C36 UNL     1      -1.377  51.604 -22.612  1.00  0.00     0.021 C 
HETATM   23  C37 UNL     1      -3.686  52.481 -22.965  1.00  0.00     0.021 C 
ENDROOT
BRANCH  20  24
HETATM   24  O3  UNL     1      -1.445  50.739 -25.098  1.00  0.00    -0.352 OA
BRANCH  24  25
HETATM   25  C29 UNL     1      -1.340  50.386 -26.474  1.00  0.00     0.292 C 
HETATM   26  O4  UNL     1       0.024  50.439 -26.897  1.00  0.00    -0.348 OA
HETATM   27  C30 UNL     1       0.653  51.721 -26.717  1.00  0.00     0.179 C 
HETATM   28  C32 UNL     1      -0.331  52.909 -26.732  1.00  0.00     0.180 C 
HETATM   29  C33 UNL     1      -1.435  52.604 -27.739  1.00  0.00     0.183 C 
HETATM   30  C34 UNL     1      -2.210  51.342 -27.327  1.00  0.00     0.204 C 
BRANCH  27  31
HETATM   31  C31 UNL     1       1.526  51.743 -25.454  1.00  0.00     0.198 C 
BRANCH  31  32
HETATM   32  O5  UNL     1       1.080  52.725 -24.522  1.00  0.00    -0.398 OA
HETATM   33  H48 UNL     1       0.099  52.698 -24.510  1.00  0.00     0.209 HD
ENDBRANCH  31  32
ENDBRANCH  27  31
BRANCH  28  34
HETATM   34  O6  UNL     1       0.349  54.121 -27.085  1.00  0.00    -0.390 OA
HETATM   35  H50 UNL     1      -0.365  54.748 -27.324  1.00  0.00     0.210 HD
ENDBRANCH  28  34
BRANCH  29  36
HETATM   36  O7  UNL     1      -2.318  53.733 -27.839  1.00  0.00    -0.390 OA
HETATM   37  H52 UNL     1      -3.059  53.451 -28.411  1.00  0.00     0.210 HD
ENDBRANCH  29  36
BRANCH  30  38
HETATM   38  O8  UNL     1      -2.674  50.702 -28.530  1.00  0.00    -0.388 OA
HETATM   39  H54 UNL     1      -1.893  50.318 -28.972  1.00  0.00     0.210 HD
ENDBRANCH  30  38
ENDBRANCH  24  25
ENDBRANCH  20  24
BRANCH   1  40
HETATM   40  C8  UNL     1      -9.677  46.257 -19.517  1.00  0.00    -0.011 C 
HETATM   41  C9  UNL     1      -9.091  45.115 -18.683  1.00  0.00     0.010 C 
BRANCH  40  42
HETATM   42  C7  UNL     1     -10.245  45.710 -20.858  1.00  0.00     0.040 C 
BRANCH  42  43
HETATM   43  C2  UNL     1     -11.738  45.954 -21.185  1.00  0.00     0.144 C 
BRANCH  43  44
HETATM   44  O1  UNL     1     -12.429  44.760 -20.773  1.00  0.00    -0.387 OA
HETATM   45  C1  UNL     1     -12.919  43.995 -21.868  1.00  0.00     0.202 C 
ENDBRANCH  43  44
BRANCH  43  46
HETATM   46  C3  UNL     1     -12.324  47.109 -20.420  1.00  0.00     0.007 C 
HETATM   47  C4  UNL     1     -13.483  47.761 -20.646  1.00  0.00    -0.089 C 
HETATM   48  C5  UNL     1     -14.476  47.425 -21.724  1.00  0.00     0.042 C 
HETATM   49  C6  UNL     1     -13.870  48.943 -19.797  1.00  0.00     0.042 C 
ENDBRANCH  43  46
ENDBRANCH  42  43
ENDBRANCH  40  42
ENDBRANCH   1  40
TORSDOF 12
ENDMDL
MODEL 6
REMARK minimizedAffinity -9.57687569
REMARK CNNscore 0.378817648
REMARK CNNaffinity 7.02297258
REMARK  12 active torsions:
REMARK  status: ('A' for Active; 'I' for Inactive)
REMARK    1  A    between atoms: O1_2  and  C2_3 
REMARK    2  A    between atoms: C2_3  and  C3_4 
REMARK    3  A    between atoms: C2_3  and  C7_8 
REMARK    4  A    between atoms: C7_8  and  C8_9 
REMARK    5  A    between atoms: C8_9  and  C10_11 
REMARK    6  A    between atoms: C28_30  and  O3_31 
REMARK    7  A    between atoms: O3_31  and  C29_32 
REMARK    8  A    between atoms: C30_34  and  C31_35 
REMARK    9  A    between atoms: C31_35  and  O5_36 
REMARK   10  A    between atoms: C32_37  and  O6_38 
REMARK   11  A    between atoms: C33_39  and  O7_40 
REMARK   12  A    between atoms: C34_41  and  O8_42 
ROOT
HETATM    1  C10 UNL     1      -1.500  50.252 -22.370  1.00  0.00    -0.002 C 
HETATM    2  C11 UNL     1      -1.482  49.775 -20.881  1.00  0.00     0.006 C 
HETATM    3  C12 UNL     1      -2.898  49.259 -20.542  1.00  0.00     0.011 C 
HETATM    4  C13 UNL     1      -3.591  49.130 -21.909  1.00  0.00    -0.029 C 
HETATM    5  C14 UNL     1      -3.073  47.775 -22.504  1.00  0.00     0.016 C 
HETATM    6  C15 UNL     1      -5.154  49.170 -21.886  1.00  0.00     0.028 C 
HETATM    7  C16 UNL     1      -5.767  48.043 -21.086  1.00  0.00    -0.021 C 
HETATM    8  C17 UNL     1      -6.717  47.245 -21.603  1.00  0.00     0.008 C 
HETATM    9  C18 UNL     1      -7.197  47.395 -23.042  1.00  0.00     0.092 C 
HETATM   10  O2  UNL     1      -8.072  48.546 -22.998  1.00  0.00    -0.374 OA
HETATM   11  C19 UNL     1      -7.274  49.726 -23.212  1.00  0.00     0.179 C 
HETATM   12  C20 UNL     1      -5.791  49.290 -23.344  1.00  0.00    -0.004 C 
HETATM   13  C21 UNL     1      -5.038  50.340 -24.201  1.00  0.00     0.014 C 
HETATM   14  C22 UNL     1      -3.502  50.351 -24.106  1.00  0.00     0.011 C 
HETATM   15  C23 UNL     1      -3.028  50.410 -22.644  1.00  0.00    -0.032 C 
HETATM   16  C24 UNL     1      -3.503  51.764 -22.026  1.00  0.00     0.016 C 
HETATM   17  C25 UNL     1      -6.016  47.867 -23.933  1.00  0.00     0.036 C 
HETATM   18  C26 UNL     1      -6.311  47.757 -25.439  1.00  0.00     0.011 C 
HETATM   19  C27 UNL     1      -7.778  47.570 -25.780  1.00  0.00     0.033 C 
HETATM   20  C28 UNL     1      -8.350  46.316 -25.119  1.00  0.00     0.136 C 
HETATM   21  C35 UNL     1      -7.968  46.147 -23.598  1.00  0.00     0.014 C 
HETATM   22  C36 UNL     1      -9.242  45.866 -22.758  1.00  0.00     0.021 C 
HETATM   23  C37 UNL     1      -7.069  44.886 -23.493  1.00  0.00     0.021 C 
ENDROOT
BRANCH  20  24
HETATM   24  O3  UNL     1      -9.772  46.312 -25.298  1.00  0.00    -0.352 OA
BRANCH  24  25
HETATM   25  C29 UNL     1     -10.406  47.565 -25.056  1.00  0.00     0.292 C 
HETATM   26  O4  UNL     1     -11.702  47.363 -24.490  1.00  0.00    -0.348 OA
HETATM   27  C30 UNL     1     -12.587  46.566 -25.298  1.00  0.00     0.179 C 
HETATM   28  C32 UNL     1     -12.273  46.618 -26.808  1.00  0.00     0.180 C 
HETATM   29  C33 UNL     1     -11.796  48.024 -27.150  1.00  0.00     0.183 C 
HETATM   30  C34 UNL     1     -10.510  48.363 -26.379  1.00  0.00     0.204 C 
BRANCH  27  31
HETATM   31  C31 UNL     1     -12.650  45.117 -24.796  1.00  0.00     0.198 C 
BRANCH  31  32
HETATM   32  O5  UNL     1     -13.285  44.258 -25.741  1.00  0.00    -0.398 OA
HETATM   33  H48 UNL     1     -12.970  44.516 -26.634  1.00  0.00     0.209 HD
ENDBRANCH  31  32
ENDBRANCH  27  31
BRANCH  28  34
HETATM   34  O6  UNL     1     -13.436  46.280 -27.576  1.00  0.00    -0.390 OA
HETATM   35  H50 UNL     1     -13.233  46.586 -28.484  1.00  0.00     0.210 HD
ENDBRANCH  28  34
BRANCH  29  36
HETATM   36  O7  UNL     1     -11.580  48.126 -28.567  1.00  0.00    -0.390 OA
HETATM   37  H52 UNL     1     -11.180  49.004 -28.721  1.00  0.00     0.210 HD
ENDBRANCH  29  36
BRANCH  30  38
HETATM   38  O8  UNL     1     -10.505  49.783 -26.141  1.00  0.00    -0.388 OA
HETATM   39  H54 UNL     1     -11.191  49.966 -25.470  1.00  0.00     0.210 HD
ENDBRANCH  30  38
ENDBRANCH  24  25
ENDBRANCH  20  24
BRANCH   1  40
HETATM   40  C8  UNL     1      -0.524  51.437 -22.613  1.00  0.00    -0.011 C 
HETATM   41  C9  UNL     1      -0.206  52.237 -21.349  1.00  0.00     0.010 C 
BRANCH  40  42
HETATM   42  C7  UNL     1      -0.987  52.389 -23.754  1.00  0.00     0.040 C 
BRANCH  42  43
HETATM   43  C2  UNL     1      -0.749  51.960 -25.221  1.00  0.00     0.144 C 
BRANCH  43  44
HETATM   44  O1  UNL     1      -1.416  52.945 -26.031  1.00  0.00    -0.387 OA
HETATM   45  C1  UNL     1      -2.549  52.427 -26.717  1.00  0.00     0.202 C 
ENDBRANCH  43  44
BRANCH  43  46
HETATM   46  C3  UNL     1       0.706  51.961 -25.603  1.00  0.00     0.007 C 
HETATM   47  C4  UNL     1       1.255  51.718 -26.812  1.00  0.00    -0.089 C 
HETATM   48  C5  UNL     1       0.490  51.426 -28.073  1.00  0.00     0.042 C 
HETATM   49  C6  UNL     1       2.751  51.708 -26.981  1.00  0.00     0.042 C 
ENDBRANCH  43  46
ENDBRANCH  42  43
ENDBRANCH  40  42
ENDBRANCH   1  40
TORSDOF 12
ENDMDL
MODEL 7
REMARK minimizedAffinity -8.35372734
REMARK CNNscore 0.371513963
REMARK CNNaffinity 7.06417322
REMARK  12 active torsions:
REMARK  status: ('A' for Active; 'I' for Inactive)
REMARK    1  A    between atoms: O1_2  and  C2_3 
REMARK    2  A    between atoms: C2_3  and  C3_4 
REMARK    3  A    between atoms: C2_3  and  C7_8 
REMARK    4  A    between atoms: C7_8  and  C8_9 
REMARK    5  A    between atoms: C8_9  and  C10_11 
REMARK    6  A    between atoms: C28_30  and  O3_31 
REMARK    7  A    between atoms: O3_31  and  C29_32 
REMARK    8  A    between atoms: C30_34  and  C31_35 
REMARK    9  A    between atoms: C31_35  and  O5_36 
REMARK   10  A    between atoms: C32_37  and  O6_38 
REMARK   11  A    between atoms: C33_39  and  O7_40 
REMARK   12  A    between atoms: C34_41  and  O8_42 
ROOT
HETATM    1  C10 UNL     1     -15.773  45.055 -25.801  1.00  0.00    -0.002 C 
HETATM    2  C11 UNL     1     -15.022  44.590 -24.511  1.00  0.00     0.006 C 
HETATM    3  C12 UNL     1     -13.528  44.439 -24.873  1.00  0.00     0.011 C 
HETATM    4  C13 UNL     1     -13.397  45.137 -26.238  1.00  0.00    -0.029 C 
HETATM    5  C14 UNL     1     -13.320  46.668 -25.909  1.00  0.00     0.016 C 
HETATM    6  C15 UNL     1     -12.183  44.691 -27.116  1.00  0.00     0.028 C 
HETATM    7  C16 UNL     1     -10.845  44.964 -26.465  1.00  0.00    -0.021 C 
HETATM    8  C17 UNL     1      -9.874  45.637 -27.103  1.00  0.00     0.008 C 
HETATM    9  C18 UNL     1     -10.078  46.212 -28.501  1.00  0.00     0.092 C 
HETATM   10  O2  UNL     1      -9.963  45.061 -29.369  1.00  0.00    -0.374 OA
HETATM   11  C19 UNL     1     -11.267  44.463 -29.497  1.00  0.00     0.179 C 
HETATM   12  C20 UNL     1     -12.255  45.259 -28.605  1.00  0.00    -0.004 C 
HETATM   13  C21 UNL     1     -13.683  45.116 -29.193  1.00  0.00     0.014 C 
HETATM   14  C22 UNL     1     -14.861  45.448 -28.259  1.00  0.00     0.011 C 
HETATM   15  C23 UNL     1     -14.751  44.694 -26.923  1.00  0.00    -0.032 C 
HETATM   16  C24 UNL     1     -14.852  43.162 -27.209  1.00  0.00     0.016 C 
HETATM   17  C25 UNL     1     -11.559  46.650 -28.667  1.00  0.00     0.036 C 
HETATM   18  C26 UNL     1     -11.798  47.514 -29.917  1.00  0.00     0.011 C 
HETATM   19  C27 UNL     1     -10.671  47.476 -30.932  1.00  0.00     0.033 C 
HETATM   20  C28 UNL     1      -9.349  47.938 -30.317  1.00  0.00     0.136 C 
HETATM   21  C35 UNL     1      -9.030  47.306 -28.907  1.00  0.00     0.014 C 
HETATM   22  C36 UNL     1      -7.591  46.724 -28.899  1.00  0.00     0.021 C 
HETATM   23  C37 UNL     1      -9.055  48.465 -27.875  1.00  0.00     0.021 C 
ENDROOT
BRANCH  20  24
HETATM   24  O3  UNL     1      -8.294  47.677 -31.251  1.00  0.00    -0.352 OA
BRANCH  24  25
HETATM   25  C29 UNL     1      -8.403  46.435 -31.942  1.00  0.00     0.292 C 
HETATM   26  O4  UNL     1      -7.113  45.842 -32.101  1.00  0.00    -0.348 OA
HETATM   27  C30 UNL     1      -6.164  46.662 -32.808  1.00  0.00     0.179 C 
HETATM   28  C32 UNL     1      -6.810  47.666 -33.785  1.00  0.00     0.180 C 
HETATM   29  C33 UNL     1      -8.038  47.008 -34.405  1.00  0.00     0.183 C 
HETATM   30  C34 UNL     1      -9.071  46.660 -33.320  1.00  0.00     0.204 C 
BRANCH  27  31
HETATM   31  C31 UNL     1      -5.208  47.372 -31.839  1.00  0.00     0.198 C 
BRANCH  31  32
HETATM   32  O5  UNL     1      -4.015  47.799 -32.494  1.00  0.00    -0.398 OA
HETATM   33  H48 UNL     1      -4.270  48.155 -33.372  1.00  0.00     0.209 HD
ENDBRANCH  31  32
ENDBRANCH  27  31
BRANCH  28  34
HETATM   34  O6  UNL     1      -5.876  48.047 -34.805  1.00  0.00    -0.390 OA
HETATM   35  H50 UNL     1      -6.425  48.457 -35.505  1.00  0.00     0.210 HD
ENDBRANCH  28  34
BRANCH  29  36
HETATM   36  O7  UNL     1      -8.609  47.888 -35.386  1.00  0.00    -0.390 OA
HETATM   37  H52 UNL     1      -9.444  47.470 -35.675  1.00  0.00     0.210 HD
ENDBRANCH  29  36
BRANCH  30  38
HETATM   38  O8  UNL     1      -9.786  45.489 -33.757  1.00  0.00    -0.388 OA
HETATM   39  H54 UNL     1      -9.170  44.734 -33.693  1.00  0.00     0.210 HD
ENDBRANCH  30  38
ENDBRANCH  24  25
ENDBRANCH  20  24
BRANCH   1  40
HETATM   40  C8  UNL     1     -17.230  44.516 -25.852  1.00  0.00    -0.011 C 
HETATM   41  C9  UNL     1     -17.995  44.939 -27.108  1.00  0.00     0.010 C 
BRANCH  40  42
HETATM   42  C7  UNL     1     -18.055  44.853 -24.577  1.00  0.00     0.040 C 
BRANCH  42  43
HETATM   43  C2  UNL     1     -18.175  46.333 -24.142  1.00  0.00     0.144 C 
BRANCH  43  44
HETATM   44  O1  UNL     1     -19.250  46.885 -24.923  1.00  0.00    -0.387 OA
HETATM   45  C1  UNL     1     -20.411  46.062 -24.933  1.00  0.00     0.202 C 
ENDBRANCH  43  44
BRANCH  43  46
HETATM   46  C3  UNL     1     -18.536  46.490 -22.691  1.00  0.00     0.007 C 
HETATM   47  C4  UNL     1     -17.713  46.563 -21.624  1.00  0.00    -0.089 C 
HETATM   48  C5  UNL     1     -16.210  46.539 -21.682  1.00  0.00     0.042 C 
HETATM   49  C6  UNL     1     -18.275  46.661 -20.231  1.00  0.00     0.042 C 
ENDBRANCH  43  46
ENDBRANCH  42  43
ENDBRANCH  40  42
ENDBRANCH   1  40
TORSDOF 12
ENDMDL
MODEL 8
REMARK minimizedAffinity -7.99485779
REMARK CNNscore 0.348766148
REMARK CNNaffinity 5.97708654
REMARK  12 active torsions:
REMARK  status: ('A' for Active; 'I' for Inactive)
REMARK    1  A    between atoms: O1_2  and  C2_3 
REMARK    2  A    between atoms: C2_3  and  C3_4 
REMARK    3  A    between atoms: C2_3  and  C7_8 
REMARK    4  A    between atoms: C7_8  and  C8_9 
REMARK    5  A    between atoms: C8_9  and  C10_11 
REMARK    6  A    between atoms: C28_30  and  O3_31 
REMARK    7  A    between atoms: O3_31  and  C29_32 
REMARK    8  A    between atoms: C30_34  and  C31_35 
REMARK    9  A    between atoms: C31_35  and  O5_36 
REMARK   10  A    between atoms: C32_37  and  O6_38 
REMARK   11  A    between atoms: C33_39  and  O7_40 
REMARK   12  A    between atoms: C34_41  and  O8_42 
ROOT
HETATM    1  C10 UNL     1      -9.205  46.887 -28.996  1.00  0.00    -0.002 C 
HETATM    2  C11 UNL     1      -8.240  45.870 -28.303  1.00  0.00     0.006 C 
HETATM    3  C12 UNL     1      -9.018  45.208 -27.145  1.00  0.00     0.011 C 
HETATM    4  C13 UNL     1     -10.485  45.592 -27.405  1.00  0.00    -0.029 C 
HETATM    5  C14 UNL     1     -10.979  44.596 -28.510  1.00  0.00     0.016 C 
HETATM    6  C15 UNL     1     -11.428  45.559 -26.159  1.00  0.00     0.028 C 
HETATM    7  C16 UNL     1     -11.542  44.186 -25.535  1.00  0.00    -0.021 C 
HETATM    8  C17 UNL     1     -12.735  43.616 -25.297  1.00  0.00     0.008 C 
HETATM    9  C18 UNL     1     -14.043  44.294 -25.689  1.00  0.00     0.092 C 
HETATM   10  O2  UNL     1     -14.230  45.302 -24.669  1.00  0.00    -0.374 OA
HETATM   11  C19 UNL     1     -13.558  46.503 -25.094  1.00  0.00     0.179 C 
HETATM   12  C20 UNL     1     -12.855  46.211 -26.446  1.00  0.00    -0.004 C 
HETATM   13  C21 UNL     1     -12.718  47.540 -27.233  1.00  0.00     0.014 C 
HETATM   14  C22 UNL     1     -11.690  47.574 -28.378  1.00  0.00     0.011 C 
HETATM   15  C23 UNL     1     -10.311  47.079 -27.912  1.00  0.00    -0.032 C 
HETATM   16  C24 UNL     1      -9.772  48.066 -26.828  1.00  0.00     0.016 C 
HETATM   17  C25 UNL     1     -13.827  45.121 -26.986  1.00  0.00     0.036 C 
HETATM   18  C26 UNL     1     -15.142  45.593 -27.630  1.00  0.00     0.011 C 
HETATM   19  C27 UNL     1     -16.356  45.496 -26.724  1.00  0.00     0.033 C 
HETATM   20  C28 UNL     1     -16.582  44.061 -26.244  1.00  0.00     0.136 C 
HETATM   21  C35 UNL     1     -15.280  43.330 -25.735  1.00  0.00     0.014 C 
HETATM   22  C36 UNL     1     -15.538  42.695 -24.343  1.00  0.00     0.021 C 
HETATM   23  C37 UNL     1     -15.000  42.164 -26.720  1.00  0.00     0.021 C 
ENDROOT
BRANCH  20  24
HETATM   24  O3  UNL     1     -17.598  44.072 -25.233  1.00  0.00    -0.352 OA
BRANCH  24  25
HETATM   25  C29 UNL     1     -18.912  43.790 -25.706  1.00  0.00     0.292 C 
HETATM   26  O4  UNL     1     -19.770  44.911 -25.482  1.00  0.00    -0.348 OA
HETATM   27  C30 UNL     1     -19.871  45.316 -24.104  1.00  0.00     0.179 C 
HETATM   28  C32 UNL     1     -19.609  44.178 -23.096  1.00  0.00     0.180 C 
HETATM   29  C33 UNL     1     -20.172  42.885 -23.676  1.00  0.00     0.183 C 
HETATM   30  C34 UNL     1     -19.466  42.532 -24.995  1.00  0.00     0.204 C 
BRANCH  27  31
HETATM   31  C31 UNL     1     -18.978  46.530 -23.812  1.00  0.00     0.198 C 
BRANCH  31  32
HETATM   32  O5  UNL     1     -19.102  47.531 -24.819  1.00  0.00    -0.398 OA
HETATM   33  H48 UNL     1     -20.052  47.594 -25.058  1.00  0.00     0.209 HD
ENDBRANCH  31  32
ENDBRANCH  27  31
BRANCH  28  34
HETATM   34  O6  UNL     1     -20.225  44.473 -21.834  1.00  0.00    -0.390 OA
HETATM   35  H50 UNL     1     -20.239  43.617 -21.358  1.00  0.00     0.210 HD
ENDBRANCH  28  34
BRANCH  29  36
HETATM   36  O7  UNL     1     -20.020  41.825 -22.718  1.00  0.00    -0.390 OA
HETATM   37  H52 UNL     1     -20.297  41.005 -23.173  1.00  0.00     0.210 HD
ENDBRANCH  29  36
BRANCH  30  38
HETATM   38  O8  UNL     1     -20.412  41.831 -25.823  1.00  0.00    -0.388 OA
HETATM   39  H54 UNL     1     -21.073  42.484 -26.122  1.00  0.00     0.210 HD
ENDBRANCH  30  38
ENDBRANCH  24  25
ENDBRANCH  20  24
BRANCH   1  40
HETATM   40  C8  UNL     1      -8.442  48.110 -29.576  1.00  0.00    -0.011 C 
HETATM   41  C9  UNL     1      -8.639  48.296 -31.082  1.00  0.00     0.010 C 
BRANCH  40  42
HETATM   42  C7  UNL     1      -6.926  48.111 -29.225  1.00  0.00     0.040 C 
BRANCH  42  43
HETATM   43  C2  UNL     1      -5.898  48.148 -30.380  1.00  0.00     0.144 C 
BRANCH  43  44
HETATM   44  O1  UNL     1      -4.729  48.793 -29.844  1.00  0.00    -0.387 OA
HETATM   45  C1  UNL     1      -4.557  48.563 -28.450  1.00  0.00     0.202 C 
ENDBRANCH  43  44
BRANCH  43  46
HETATM   46  C3  UNL     1      -5.491  46.777 -30.847  1.00  0.00     0.007 C 
HETATM   47  C4  UNL     1      -4.849  46.434 -31.983  1.00  0.00    -0.089 C 
HETATM   48  C5  UNL     1      -4.360  47.396 -33.030  1.00  0.00     0.042 C 
HETATM   49  C6  UNL     1      -4.582  44.987 -32.300  1.00  0.00     0.042 C 
ENDBRANCH  43  46
ENDBRANCH  42  43
ENDBRANCH  40  42
ENDBRANCH   1  40
TORSDOF 12
ENDMDL
MODEL 9
REMARK minimizedAffinity -7.75049114
REMARK CNNscore 0.341856599
REMARK CNNaffinity 7.0765233
REMARK  12 active torsions:
REMARK  status: ('A' for Active; 'I' for Inactive)
REMARK    1  A    between atoms: O1_2  and  C2_3 
REMARK    2  A    between atoms: C2_3  and  C3_4 
REMARK    3  A    between atoms: C2_3  and  C7_8 
REMARK    4  A    between atoms: C7_8  and  C8_9 
REMARK    5  A    between atoms: C8_9  and  C10_11 
REMARK    6  A    between atoms: C28_30  and  O3_31 
REMARK    7  A    between atoms: O3_31  and  C29_32 
REMARK    8  A    between atoms: C30_34  and  C31_35 
REMARK    9  A    between atoms: C31_35  and  O5_36 
REMARK   10  A    between atoms: C32_37  and  O6_38 
REMARK   11  A    between atoms: C33_39  and  O7_40 
REMARK   12  A    between atoms: C34_41  and  O8_42 
ROOT
HETATM    1  C10 UNL     1      -3.180  50.683 -23.536  1.00  0.00    -0.002 C 
HETATM    2  C11 UNL     1      -1.810  49.928 -23.550  1.00  0.00     0.006 C 
HETATM    3  C12 UNL     1      -1.769  49.018 -22.303  1.00  0.00     0.011 C 
HETATM    4  C13 UNL     1      -3.221  49.006 -21.795  1.00  0.00    -0.029 C 
HETATM    5  C14 UNL     1      -3.967  47.975 -22.711  1.00  0.00     0.016 C 
HETATM    6  C15 UNL     1      -3.411  48.651 -20.284  1.00  0.00     0.028 C 
HETATM    7  C16 UNL     1      -2.915  47.266 -19.932  1.00  0.00    -0.021 C 
HETATM    8  C17 UNL     1      -3.692  46.383 -19.283  1.00  0.00     0.008 C 
HETATM    9  C18 UNL     1      -5.135  46.703 -18.910  1.00  0.00     0.092 C 
HETATM   10  O2  UNL     1      -5.012  47.565 -17.755  1.00  0.00    -0.374 OA
HETATM   11  C19 UNL     1      -4.901  48.924 -18.219  1.00  0.00     0.179 C 
HETATM   12  C20 UNL     1      -4.898  48.908 -19.771  1.00  0.00    -0.004 C 
HETATM   13  C21 UNL     1      -5.444  50.265 -20.283  1.00  0.00     0.014 C 
HETATM   14  C22 UNL     1      -5.134  50.638 -21.745  1.00  0.00     0.011 C 
HETATM   15  C23 UNL     1      -3.633  50.509 -22.053  1.00  0.00    -0.032 C 
HETATM   16  C24 UNL     1      -2.858  51.545 -21.176  1.00  0.00     0.016 C 
HETATM   17  C25 UNL     1      -5.755  47.627 -19.993  1.00  0.00     0.036 C 
HETATM   18  C26 UNL     1      -7.283  47.761 -19.873  1.00  0.00     0.011 C 
HETATM   19  C27 UNL     1      -7.853  47.290 -18.548  1.00  0.00     0.033 C 
HETATM   20  C28 UNL     1      -7.510  45.824 -18.281  1.00  0.00     0.136 C 
HETATM   21  C35 UNL     1      -6.004  45.445 -18.558  1.00  0.00     0.014 C 
HETATM   22  C36 UNL     1      -5.414  44.688 -17.339  1.00  0.00     0.021 C 
HETATM   23  C37 UNL     1      -5.998  44.453 -19.753  1.00  0.00     0.021 C 
ENDROOT
BRANCH  20  24
HETATM   24  O3  UNL     1      -7.885  45.504 -16.935  1.00  0.00    -0.352 OA
BRANCH  24  25
HETATM   25  C29 UNL     1      -8.182  46.632 -16.116  1.00  0.00     0.292 C 
HETATM   26  O4  UNL     1      -7.616  46.462 -14.815  1.00  0.00    -0.348 OA
HETATM   27  C30 UNL     1      -8.061  45.280 -14.123  1.00  0.00     0.179 C 
HETATM   28  C32 UNL     1      -9.455  44.786 -14.560  1.00  0.00     0.180 C 
HETATM   29  C33 UNL     1     -10.320  46.003 -14.867  1.00  0.00     0.183 C 
HETATM   30  C34 UNL     1      -9.716  46.819 -16.021  1.00  0.00     0.204 C 
BRANCH  27  31
HETATM   31  C31 UNL     1      -7.021  44.154 -14.216  1.00  0.00     0.198 C 
BRANCH  31  32
HETATM   32  O5  UNL     1      -6.678  43.645 -12.929  1.00  0.00    -0.398 OA
HETATM   33  H48 UNL     1      -7.505  43.586 -12.404  1.00  0.00     0.209 HD
ENDBRANCH  31  32
ENDBRANCH  27  31
BRANCH  28  34
HETATM   34  O6  UNL     1     -10.054  43.991 -13.527  1.00  0.00    -0.390 OA
HETATM   35  H50 UNL     1     -11.003  43.945 -13.766  1.00  0.00     0.210 HD
ENDBRANCH  28  34
BRANCH  29  36
HETATM   36  O7  UNL     1     -11.653  45.574 -15.192  1.00  0.00    -0.390 OA
HETATM   37  H52 UNL     1     -12.135  46.374 -15.479  1.00  0.00     0.210 HD
ENDBRANCH  29  36
BRANCH  30  38
HETATM   38  O8  UNL     1     -10.067  48.200 -15.810  1.00  0.00    -0.388 OA
HETATM   39  H54 UNL     1      -9.544  48.517 -15.048  1.00  0.00     0.210 HD
ENDBRANCH  30  38
ENDBRANCH  24  25
ENDBRANCH  20  24
BRANCH   1  40
HETATM   40  C8  UNL     1      -3.072  52.096 -24.172  1.00  0.00    -0.011 C 
HETATM   41  C9  UNL     1      -4.220  52.427 -25.127  1.00  0.00     0.010 C 
BRANCH  40  42
HETATM   42  C7  UNL     1      -1.702  52.356 -24.863  1.00  0.00     0.040 C 
BRANCH  42  43
HETATM   43  C2  UNL     1      -1.516  51.906 -26.332  1.00  0.00     0.144 C 
BRANCH  43  44
HETATM   44  O1  UNL     1      -1.826  53.059 -27.136  1.00  0.00    -0.387 OA
HETATM   45  C1  UNL     1      -0.708  53.537 -27.877  1.00  0.00     0.202 C 
ENDBRANCH  43  44
BRANCH  43  46
HETATM   46  C3  UNL     1      -0.105  51.495 -26.645  1.00  0.00     0.007 C 
HETATM   47  C4  UNL     1       1.009  51.690 -25.909  1.00  0.00    -0.089 C 
HETATM   48  C5  UNL     1       1.055  52.349 -24.558  1.00  0.00     0.042 C 
HETATM   49  C6  UNL     1       2.353  51.252 -26.428  1.00  0.00     0.042 C 
ENDBRANCH  43  46
ENDBRANCH  42  43
ENDBRANCH  40  42
ENDBRANCH   1  40
TORSDOF 12
ENDMDL
