MODEL 1
REMARK minimizedAffinity -7.20352602
REMARK CNNscore 0.407079309
REMARK CNNaffinity 7.15784502
REMARK  4 active torsions:
REMARK  status: ('A' for Active; 'I' for Inactive)
REMARK    1  A    between atoms: C14_16  and  C15_17 
REMARK    2  A    between atoms: C15_17  and  C17_19 
REMARK    3  A    between atoms: C17_19  and  C18_20 
REMARK    4  A    between atoms: C18_20  and  C19_21 
ROOT
HETATM    1  C1  UNL     1       0.837   5.723  10.639  1.00  0.00     0.017 C 
HETATM    2  C2  UNL     1       0.121   5.354  11.719  1.00  0.00    -0.060 C 
HETATM    3  C3  UNL     1       0.633   4.253  12.627  1.00  0.00     0.212 C 
HETATM    4  O1  UNL     1      -0.323   3.201  12.736  1.00  0.00    -0.317 OA
HETATM    5  C4  UNL     1      -0.673   2.669  11.534  1.00  0.00     0.259 C 
HETATM    6  O2  UNL     1       0.107   2.338  10.653  1.00  0.00    -0.265 OA
HETATM    7  C5  UNL     1      -2.171   2.660  11.411  1.00  0.00     0.112 C 
HETATM    8  C6  UNL     1      -2.717   4.077  11.189  1.00  0.00     0.020 C 
HETATM    9  C7  UNL     1      -2.426   5.079  12.332  1.00  0.00    -0.024 A 
HETATM   10  C8  UNL     1      -2.703   4.602  13.742  1.00  0.00     0.022 A 
HETATM   11  C9  UNL     1      -3.598   5.688  13.184  1.00  0.00    -0.027 A 
HETATM   12  C10 UNL     1      -5.031   5.281  12.811  1.00  0.00     0.011 C 
HETATM   13  C11 UNL     1      -6.194   5.794  13.679  1.00  0.00     0.011 C 
HETATM   14  C12 UNL     1      -5.798   6.817  14.749  1.00  0.00    -0.032 C 
HETATM   15  C13 UNL     1      -5.259   6.030  15.974  1.00  0.00     0.016 C 
HETATM   16  C14 UNL     1      -6.925   7.803  15.201  1.00  0.00    -0.002 C 
HETATM   17  C23 UNL     1      -6.151   9.068  15.661  1.00  0.00     0.006 C 
HETATM   18  C24 UNL     1      -4.699   8.911  15.178  1.00  0.00     0.011 C 
HETATM   19  C25 UNL     1      -4.754   7.803  14.109  1.00  0.00    -0.032 C 
HETATM   20  C26 UNL     1      -5.224   8.480  12.782  1.00  0.00     0.016 C 
HETATM   21  C27 UNL     1      -3.410   7.064  13.882  1.00  0.00     0.004 C 
HETATM   22  C28 UNL     1      -2.336   7.920  13.200  1.00  0.00     0.007 C 
HETATM   23  C29 UNL     1      -1.037   7.137  13.044  1.00  0.00     0.010 C 
HETATM   24  C30 UNL     1      -1.226   6.012  12.016  1.00  0.00     0.025 C 
ENDROOT
BRANCH  16  25
HETATM   25  C15 UNL     1      -8.087   7.397  16.157  1.00  0.00    -0.014 C 
HETATM   26  C16 UNL     1      -8.597   5.953  16.056  1.00  0.00     0.010 C 
BRANCH  25  27
HETATM   27  C17 UNL     1      -9.260   8.402  16.076  1.00  0.00     0.008 C 
BRANCH  27  28
HETATM   28  C18 UNL     1      -9.042   9.583  15.116  1.00  0.00     0.028 C 
BRANCH  28  29
HETATM   29  C19 UNL     1      -9.963  10.738  15.402  1.00  0.00    -0.025 C 
HETATM   30  C20 UNL     1     -10.741  10.943  16.484  1.00  0.00    -0.091 C 
HETATM   31  C21 UNL     1     -11.600  12.178  16.583  1.00  0.00     0.042 C 
HETATM   32  C22 UNL     1     -10.851  10.026  17.670  1.00  0.00     0.042 C 
ENDBRANCH  28  29
ENDBRANCH  27  28
ENDBRANCH  25  27
ENDBRANCH  16  25
TORSDOF 4
ENDMDL
MODEL 2
REMARK minimizedAffinity -9.10056591
REMARK CNNscore 0.351227075
REMARK CNNaffinity 6.99758482
REMARK  4 active torsions:
REMARK  status: ('A' for Active; 'I' for Inactive)
REMARK    1  A    between atoms: C14_16  and  C15_17 
REMARK    2  A    between atoms: C15_17  and  C17_19 
REMARK    3  A    between atoms: C17_19  and  C18_20 
REMARK    4  A    between atoms: C18_20  and  C19_21 
ROOT
HETATM    1  C1  UNL     1       1.414   8.134  10.084  1.00  0.00     0.017 C 
HETATM    2  C2  UNL     1       0.991   7.612  11.251  1.00  0.00    -0.060 C 
HETATM    3  C3  UNL     1       1.980   6.939  12.183  1.00  0.00     0.212 C 
HETATM    4  O1  UNL     1       1.583   5.597  12.459  1.00  0.00    -0.317 OA
HETATM    5  C4  UNL     1       1.433   4.842  11.338  1.00  0.00     0.259 C 
HETATM    6  O2  UNL     1       2.229   4.785  10.412  1.00  0.00    -0.265 OA
HETATM    7  C5  UNL     1       0.083   4.181  11.359  1.00  0.00     0.112 C 
HETATM    8  C6  UNL     1      -1.036   5.197  11.089  1.00  0.00     0.020 C 
HETATM    9  C7  UNL     1      -1.146   6.342  12.124  1.00  0.00    -0.024 A 
HETATM   10  C8  UNL     1      -1.110   5.946  13.584  1.00  0.00     0.022 A 
HETATM   11  C9  UNL     1      -2.416   6.479  13.038  1.00  0.00    -0.027 A 
HETATM   12  C10 UNL     1      -3.549   5.462  12.835  1.00  0.00     0.011 C 
HETATM   13  C11 UNL     1      -4.769   5.518  13.771  1.00  0.00     0.011 C 
HETATM   14  C12 UNL     1      -4.798   6.719  14.722  1.00  0.00    -0.032 C 
HETATM   15  C13 UNL     1      -3.904   6.374  15.942  1.00  0.00     0.016 C 
HETATM   16  C14 UNL     1      -6.215   7.171  15.207  1.00  0.00    -0.002 C 
HETATM   17  C23 UNL     1      -6.043   8.687  15.499  1.00  0.00     0.006 C 
HETATM   18  C24 UNL     1      -4.696   9.115  14.892  1.00  0.00     0.011 C 
HETATM   19  C25 UNL     1      -4.323   7.983  13.915  1.00  0.00    -0.032 C 
HETATM   20  C26 UNL     1      -5.113   8.248  12.594  1.00  0.00     0.016 C 
HETATM   21  C27 UNL     1      -2.806   7.869  13.614  1.00  0.00     0.004 C 
HETATM   22  C28 UNL     1      -2.251   9.024  12.772  1.00  0.00     0.007 C 
HETATM   23  C29 UNL     1      -0.751   8.859  12.549  1.00  0.00     0.010 C 
HETATM   24  C30 UNL     1      -0.489   7.659  11.628  1.00  0.00     0.025 C 
ENDROOT
BRANCH  16  25
HETATM   25  C15 UNL     1      -7.030   6.412  16.297  1.00  0.00    -0.014 C 
HETATM   26  C16 UNL     1      -7.385   4.948  16.005  1.00  0.00     0.010 C 
BRANCH  25  27
HETATM   27  C17 UNL     1      -8.287   7.210  16.717  1.00  0.00     0.008 C 
BRANCH  27  28
HETATM   28  C18 UNL     1      -9.336   7.405  15.611  1.00  0.00     0.028 C 
BRANCH  28  29
HETATM   29  C19 UNL     1      -8.939   6.751  14.315  1.00  0.00    -0.025 C 
HETATM   30  C20 UNL     1      -9.668   6.608  13.190  1.00  0.00    -0.091 C 
HETATM   31  C21 UNL     1      -9.082   5.915  11.985  1.00  0.00     0.042 C 
HETATM   32  C22 UNL     1     -11.077   7.092  12.991  1.00  0.00     0.042 C 
ENDBRANCH  28  29
ENDBRANCH  27  28
ENDBRANCH  25  27
ENDBRANCH  16  25
TORSDOF 4
ENDMDL
MODEL 3
REMARK minimizedAffinity -6.51020241
REMARK CNNscore 0.347650886
REMARK CNNaffinity 5.57074928
REMARK  4 active torsions:
REMARK  status: ('A' for Active; 'I' for Inactive)
REMARK    1  A    between atoms: C14_16  and  C15_17 
REMARK    2  A    between atoms: C15_17  and  C17_19 
REMARK    3  A    between atoms: C17_19  and  C18_20 
REMARK    4  A    between atoms: C18_20  and  C19_21 
ROOT
HETATM    1  C1  UNL     1      -5.968 -10.243  10.762  1.00  0.00     0.017 C 
HETATM    2  C2  UNL     1      -6.289  -9.591   9.628  1.00  0.00    -0.060 C 
HETATM    3  C3  UNL     1      -6.930  -8.219   9.698  1.00  0.00     0.212 C 
HETATM    4  O1  UNL     1      -8.177  -8.208   9.007  1.00  0.00    -0.317 OA
HETATM    5  C4  UNL     1      -9.053  -9.140   9.469  1.00  0.00     0.259 C 
HETATM    6  O2  UNL     1      -9.311  -9.347  10.646  1.00  0.00    -0.265 OA
HETATM    7  C5  UNL     1      -9.567  -9.955   8.315  1.00  0.00     0.112 C 
HETATM    8  C6  UNL     1      -8.489 -10.912   7.789  1.00  0.00     0.020 C 
HETATM    9  C7  UNL     1      -7.213 -10.226   7.244  1.00  0.00    -0.024 A 
HETATM   10  C8  UNL     1      -7.417  -9.061   6.299  1.00  0.00     0.022 A 
HETATM   11  C9  UNL     1      -6.831 -10.332   5.723  1.00  0.00    -0.027 A 
HETATM   12  C10 UNL     1      -7.747 -11.169   4.819  1.00  0.00     0.011 C 
HETATM   13  C11 UNL     1      -7.447 -11.223   3.310  1.00  0.00     0.011 C 
HETATM   14  C12 UNL     1      -6.135 -10.553   2.889  1.00  0.00    -0.032 C 
HETATM   15  C13 UNL     1      -6.406  -9.031   2.760  1.00  0.00     0.016 C 
HETATM   16  C14 UNL     1      -5.484 -11.095   1.574  1.00  0.00    -0.002 C 
HETATM   17  C23 UNL     1      -3.968 -10.817   1.767  1.00  0.00     0.006 C 
HETATM   18  C24 UNL     1      -3.761 -10.447   3.246  1.00  0.00     0.011 C 
HETATM   19  C25 UNL     1      -5.042 -10.922   3.958  1.00  0.00    -0.032 C 
HETATM   20  C26 UNL     1      -4.873 -12.453   4.217  1.00  0.00     0.016 C 
HETATM   21  C27 UNL     1      -5.346 -10.187   5.289  1.00  0.00     0.004 C 
HETATM   22  C28 UNL     1      -4.372 -10.528   6.424  1.00  0.00     0.007 C 
HETATM   23  C29 UNL     1      -4.714  -9.742   7.685  1.00  0.00     0.010 C 
HETATM   24  C30 UNL     1      -6.044 -10.242   8.267  1.00  0.00     0.025 C 
ENDROOT
BRANCH  16  25
HETATM   25  C15 UNL     1      -6.009 -10.743   0.150  1.00  0.00    -0.014 C 
HETATM   26  C16 UNL     1      -4.958 -10.372  -0.905  1.00  0.00     0.010 C 
BRANCH  25  27
HETATM   27  C17 UNL     1      -7.128  -9.676   0.210  1.00  0.00     0.008 C 
BRANCH  27  28
HETATM   28  C18 UNL     1      -8.266  -9.866  -0.805  1.00  0.00     0.028 C 
BRANCH  28  29
HETATM   29  C19 UNL     1      -8.049  -9.082  -2.071  1.00  0.00    -0.025 C 
HETATM   30  C20 UNL     1      -8.346  -7.791  -2.318  1.00  0.00    -0.091 C 
HETATM   31  C21 UNL     1      -8.046  -7.184  -3.666  1.00  0.00     0.042 C 
HETATM   32  C22 UNL     1      -8.976  -6.835  -1.345  1.00  0.00     0.042 C 
ENDBRANCH  28  29
ENDBRANCH  27  28
ENDBRANCH  25  27
ENDBRANCH  16  25
TORSDOF 4
ENDMDL
MODEL 4
REMARK minimizedAffinity -6.92462444
REMARK CNNscore 0.344876081
REMARK CNNaffinity 6.43680906
REMARK  4 active torsions:
REMARK  status: ('A' for Active; 'I' for Inactive)
REMARK    1  A    between atoms: C14_16  and  C15_17 
REMARK    2  A    between atoms: C15_17  and  C17_19 
REMARK    3  A    between atoms: C17_19  and  C18_20 
REMARK    4  A    between atoms: C18_20  and  C19_21 
ROOT
HETATM    1  C1  UNL     1      -0.529   6.266  11.348  1.00  0.00     0.017 C 
HETATM    2  C2  UNL     1      -0.957   6.390  12.620  1.00  0.00    -0.060 C 
HETATM    3  C3  UNL     1      -1.165   5.156  13.474  1.00  0.00     0.212 C 
HETATM    4  O1  UNL     1      -2.502   5.100  13.966  1.00  0.00    -0.317 OA
HETATM    5  C4  UNL     1      -3.437   5.127  12.979  1.00  0.00     0.259 C 
HETATM    6  O2  UNL     1      -3.412   4.449  11.962  1.00  0.00    -0.265 OA
HETATM    7  C5  UNL     1      -4.442   6.206  13.275  1.00  0.00     0.112 C 
HETATM    8  C6  UNL     1      -3.842   7.600  13.047  1.00  0.00     0.020 C 
HETATM    9  C7  UNL     1      -2.625   7.945  13.939  1.00  0.00    -0.024 A 
HETATM   10  C8  UNL     1      -2.758   7.643  15.416  1.00  0.00     0.022 A 
HETATM   11  C9  UNL     1      -2.711   9.098  15.003  1.00  0.00    -0.027 A 
HETATM   12  C10 UNL     1      -4.026   9.885  15.091  1.00  0.00     0.011 C 
HETATM   13  C11 UNL     1      -4.171  10.964  16.179  1.00  0.00     0.011 C 
HETATM   14  C12 UNL     1      -2.892  11.258  16.970  1.00  0.00    -0.032 C 
HETATM   15  C13 UNL     1      -2.771  10.182  18.082  1.00  0.00     0.016 C 
HETATM   16  C14 UNL     1      -2.790  12.688  17.595  1.00  0.00    -0.002 C 
HETATM   17  C23 UNL     1      -1.261  12.952  17.672  1.00  0.00     0.006 C 
HETATM   18  C24 UNL     1      -0.572  11.866  16.830  1.00  0.00     0.011 C 
HETATM   19  C25 UNL     1      -1.691  11.270  15.955  1.00  0.00    -0.032 C 
HETATM   20  C26 UNL     1      -1.875  12.233  14.739  1.00  0.00     0.016 C 
HETATM   21  C27 UNL     1      -1.416   9.828  15.455  1.00  0.00     0.004 C 
HETATM   22  C28 UNL     1      -0.300   9.736  14.407  1.00  0.00     0.007 C 
HETATM   23  C29 UNL     1      -0.065   8.287  13.993  1.00  0.00     0.010 C 
HETATM   24  C30 UNL     1      -1.272   7.770  13.197  1.00  0.00     0.025 C 
ENDROOT
BRANCH  16  25
HETATM   25  C15 UNL     1      -3.566  13.121  18.875  1.00  0.00    -0.014 C 
HETATM   26  C16 UNL     1      -5.062  13.421  18.713  1.00  0.00     0.010 C 
BRANCH  25  27
HETATM   27  C17 UNL     1      -2.847  14.281  19.603  1.00  0.00     0.008 C 
BRANCH  27  28
HETATM   28  C18 UNL     1      -3.775  15.350  20.203  1.00  0.00     0.028 C 
BRANCH  28  29
HETATM   29  C19 UNL     1      -3.452  15.656  21.640  1.00  0.00    -0.025 C 
HETATM   30  C20 UNL     1      -4.175  15.371  22.741  1.00  0.00    -0.091 C 
HETATM   31  C21 UNL     1      -3.672  15.765  24.108  1.00  0.00     0.042 C 
HETATM   32  C22 UNL     1      -5.501  14.663  22.760  1.00  0.00     0.042 C 
ENDBRANCH  28  29
ENDBRANCH  27  28
ENDBRANCH  25  27
ENDBRANCH  16  25
TORSDOF 4
ENDMDL
MODEL 5
REMARK minimizedAffinity -6.15967751
REMARK CNNscore 0.284664333
REMARK CNNaffinity 5.66361046
REMARK  4 active torsions:
REMARK  status: ('A' for Active; 'I' for Inactive)
REMARK    1  A    between atoms: C14_16  and  C15_17 
REMARK    2  A    between atoms: C15_17  and  C17_19 
REMARK    3  A    between atoms: C17_19  and  C18_20 
REMARK    4  A    between atoms: C18_20  and  C19_21 
ROOT
HETATM    1  C1  UNL     1     -10.263  -9.505  11.692  1.00  0.00     0.017 C 
HETATM    2  C2  UNL     1      -9.208 -10.196  11.216  1.00  0.00    -0.060 C 
HETATM    3  C3  UNL     1      -8.497 -11.199  12.102  1.00  0.00     0.212 C 
HETATM    4  O1  UNL     1      -7.111 -10.884  12.213  1.00  0.00    -0.317 OA
HETATM    5  C4  UNL     1      -6.884  -9.628  12.682  1.00  0.00     0.259 C 
HETATM    6  O2  UNL     1      -7.433  -9.125  13.652  1.00  0.00    -0.265 OA
HETATM    7  C5  UNL     1      -5.942  -8.912  11.755  1.00  0.00     0.112 C 
HETATM    8  C6  UNL     1      -6.639  -8.532  10.441  1.00  0.00     0.020 C 
HETATM    9  C7  UNL     1      -7.172  -9.725   9.612  1.00  0.00    -0.024 A 
HETATM   10  C8  UNL     1      -6.227 -10.890   9.410  1.00  0.00     0.022 A 
HETATM   11  C9  UNL     1      -6.571 -10.052   8.198  1.00  0.00    -0.027 A 
HETATM   12  C10 UNL     1      -5.471  -9.124   7.663  1.00  0.00     0.011 C 
HETATM   13  C11 UNL     1      -4.804  -9.466   6.319  1.00  0.00     0.011 C 
HETATM   14  C12 UNL     1      -5.442 -10.634   5.561  1.00  0.00    -0.032 C 
HETATM   15  C13 UNL     1      -4.869 -11.948   6.156  1.00  0.00     0.016 C 
HETATM   16  C14 UNL     1      -5.254 -10.624   4.008  1.00  0.00    -0.002 C 
HETATM   17  C23 UNL     1      -6.495 -11.394   3.478  1.00  0.00     0.006 C 
HETATM   18  C24 UNL     1      -7.478 -11.531   4.652  1.00  0.00     0.011 C 
HETATM   19  C25 UNL     1      -7.003 -10.498   5.691  1.00  0.00    -0.032 C 
HETATM   20  C26 UNL     1      -7.576  -9.114   5.246  1.00  0.00     0.016 C 
HETATM   21  C27 UNL     1      -7.434 -10.807   7.148  1.00  0.00     0.004 C 
HETATM   22  C28 UNL     1      -8.937 -10.640   7.402  1.00  0.00     0.007 C 
HETATM   23  C29 UNL     1      -9.286 -10.996   8.843  1.00  0.00     0.010 C 
HETATM   24  C30 UNL     1      -8.698  -9.946   9.797  1.00  0.00     0.025 C 
ENDROOT
BRANCH  16  25
HETATM   25  C15 UNL     1      -3.923 -11.021   3.303  1.00  0.00    -0.014 C 
HETATM   26  C16 UNL     1      -2.762 -10.022   3.399  1.00  0.00     0.010 C 
BRANCH  25  27
HETATM   27  C17 UNL     1      -4.167 -11.441   1.834  1.00  0.00     0.008 C 
BRANCH  27  28
HETATM   28  C18 UNL     1      -4.206 -10.285   0.822  1.00  0.00     0.028 C 
BRANCH  28  29
HETATM   29  C19 UNL     1      -4.818 -10.688  -0.493  1.00  0.00    -0.025 C 
HETATM   30  C20 UNL     1      -6.069 -10.462  -0.939  1.00  0.00    -0.091 C 
HETATM   31  C21 UNL     1      -6.492 -10.951  -2.302  1.00  0.00     0.042 C 
HETATM   32  C22 UNL     1      -7.149  -9.735  -0.189  1.00  0.00     0.042 C 
ENDBRANCH  28  29
ENDBRANCH  27  28
ENDBRANCH  25  27
ENDBRANCH  16  25
TORSDOF 4
ENDMDL
MODEL 6
REMARK minimizedAffinity -9.45625877
REMARK CNNscore 0.28189826
REMARK CNNaffinity 6.69329834
REMARK  4 active torsions:
REMARK  status: ('A' for Active; 'I' for Inactive)
REMARK    1  A    between atoms: C14_16  and  C15_17 
REMARK    2  A    between atoms: C15_17  and  C17_19 
REMARK    3  A    between atoms: C17_19  and  C18_20 
REMARK    4  A    between atoms: C18_20  and  C19_21 
ROOT
HETATM    1  C1  UNL     1      -8.177   4.907  13.365  1.00  0.00     0.017 C 
HETATM    2  C2  UNL     1      -7.025   5.152  14.020  1.00  0.00    -0.060 C 
HETATM    3  C3  UNL     1      -7.028   5.306  15.528  1.00  0.00     0.212 C 
HETATM    4  O1  UNL     1      -6.478   6.565  15.909  1.00  0.00    -0.317 OA
HETATM    5  C4  UNL     1      -7.121   7.622  15.346  1.00  0.00     0.259 C 
HETATM    6  O2  UNL     1      -8.334   7.773  15.303  1.00  0.00    -0.265 OA
HETATM    7  C5  UNL     1      -6.115   8.519  14.680  1.00  0.00     0.112 C 
HETATM    8  C6  UNL     1      -5.572   7.883  13.393  1.00  0.00     0.020 C 
HETATM    9  C7  UNL     1      -4.828   6.540  13.588  1.00  0.00    -0.024 A 
HETATM   10  C8  UNL     1      -3.801   6.486  14.698  1.00  0.00     0.022 A 
HETATM   11  C9  UNL     1      -3.294   6.419  13.274  1.00  0.00    -0.027 A 
HETATM   12  C10 UNL     1      -2.580   7.667  12.734  1.00  0.00     0.011 C 
HETATM   13  C11 UNL     1      -1.060   7.605  12.498  1.00  0.00     0.011 C 
HETATM   14  C12 UNL     1      -0.436   6.217  12.673  1.00  0.00    -0.032 C 
HETATM   15  C13 UNL     1      -0.188   6.002  14.190  1.00  0.00     0.016 C 
HETATM   16  C14 UNL     1       0.881   5.955  11.872  1.00  0.00    -0.002 C 
HETATM   17  C23 UNL     1       0.881   4.418  11.646  1.00  0.00     0.006 C 
HETATM   18  C24 UNL     1      -0.523   3.908  12.012  1.00  0.00     0.011 C 
HETATM   19  C25 UNL     1      -1.412   5.165  12.028  1.00  0.00    -0.032 C 
HETATM   20  C26 UNL     1      -1.800   5.462  10.544  1.00  0.00     0.016 C 
HETATM   21  C27 UNL     1      -2.690   5.038  12.897  1.00  0.00     0.004 C 
HETATM   22  C28 UNL     1      -3.741   4.081  12.321  1.00  0.00     0.007 C 
HETATM   23  C29 UNL     1      -4.949   3.982  13.247  1.00  0.00     0.010 C 
HETATM   24  C30 UNL     1      -5.716   5.312  13.248  1.00  0.00     0.025 C 
ENDROOT
BRANCH  16  25
HETATM   25  C15 UNL     1       2.269   6.525  12.295  1.00  0.00    -0.014 C 
HETATM   26  C16 UNL     1       2.306   7.397  13.557  1.00  0.00     0.010 C 
BRANCH  25  27
HETATM   27  C17 UNL     1       2.968   7.237  11.113  1.00  0.00     0.008 C 
BRANCH  27  28
HETATM   28  C18 UNL     1       3.576   6.302  10.055  1.00  0.00     0.028 C 
BRANCH  28  29
HETATM   29  C19 UNL     1       2.785   6.286   8.775  1.00  0.00    -0.025 C 
HETATM   30  C20 UNL     1       2.586   7.291   7.899  1.00  0.00    -0.091 C 
HETATM   31  C21 UNL     1       1.754   7.070   6.661  1.00  0.00     0.042 C 
HETATM   32  C22 UNL     1       3.135   8.684   8.025  1.00  0.00     0.042 C 
ENDBRANCH  28  29
ENDBRANCH  27  28
ENDBRANCH  25  27
ENDBRANCH  16  25
TORSDOF 4
ENDMDL
MODEL 7
REMARK minimizedAffinity -8.5328989
REMARK CNNscore 0.229505822
REMARK CNNaffinity 6.61400843
REMARK  4 active torsions:
REMARK  status: ('A' for Active; 'I' for Inactive)
REMARK    1  A    between atoms: C14_16  and  C15_17 
REMARK    2  A    between atoms: C15_17  and  C17_19 
REMARK    3  A    between atoms: C17_19  and  C18_20 
REMARK    4  A    between atoms: C18_20  and  C19_21 
ROOT
HETATM    1  C1  UNL     1      -0.402   3.265  11.845  1.00  0.00     0.017 C 
HETATM    2  C2  UNL     1      -1.131   4.395  11.923  1.00  0.00    -0.060 C 
HETATM    3  C3  UNL     1      -0.565   5.699  11.396  1.00  0.00     0.212 C 
HETATM    4  O1  UNL     1      -0.548   6.693  12.419  1.00  0.00    -0.317 OA
HETATM    5  C4  UNL     1       0.148   6.313  13.523  1.00  0.00     0.259 C 
HETATM    6  O2  UNL     1       1.258   5.801  13.518  1.00  0.00    -0.265 OA
HETATM    7  C5  UNL     1      -0.708   6.510  14.743  1.00  0.00     0.112 C 
HETATM    8  C6  UNL     1      -1.822   5.457  14.814  1.00  0.00     0.020 C 
HETATM    9  C7  UNL     1      -2.820   5.477  13.631  1.00  0.00    -0.024 A 
HETATM   10  C8  UNL     1      -3.370   6.827  13.227  1.00  0.00     0.022 A 
HETATM   11  C9  UNL     1      -4.330   5.843  13.860  1.00  0.00    -0.027 A 
HETATM   12  C10 UNL     1      -4.778   6.140  15.299  1.00  0.00     0.011 C 
HETATM   13  C11 UNL     1      -6.231   6.585  15.545  1.00  0.00     0.011 C 
HETATM   14  C12 UNL     1      -7.141   6.520  14.315  1.00  0.00    -0.032 C 
HETATM   15  C13 UNL     1      -6.908   7.813  13.489  1.00  0.00     0.016 C 
HETATM   16  C14 UNL     1      -8.668   6.338  14.605  1.00  0.00    -0.002 C 
HETATM   17  C23 UNL     1      -9.205   5.616  13.338  1.00  0.00     0.006 C 
HETATM   18  C24 UNL     1      -7.982   5.131  12.542  1.00  0.00     0.011 C 
HETATM   19  C25 UNL     1      -6.808   5.193  13.538  1.00  0.00    -0.032 C 
HETATM   20  C26 UNL     1      -6.882   3.895  14.404  1.00  0.00     0.016 C 
HETATM   21  C27 UNL     1      -5.411   5.313  12.877  1.00  0.00     0.004 C 
HETATM   22  C28 UNL     1      -4.958   4.044  12.144  1.00  0.00     0.007 C 
HETATM   23  C29 UNL     1      -3.595   4.253  11.493  1.00  0.00     0.010 C 
HETATM   24  C30 UNL     1      -2.513   4.380  12.575  1.00  0.00     0.025 C 
ENDROOT
BRANCH  16  25
HETATM   25  C15 UNL     1      -9.588   7.492  15.105  1.00  0.00    -0.014 C 
HETATM   26  C16 UNL     1     -10.860   7.768  14.292  1.00  0.00     0.010 C 
BRANCH  25  27
HETATM   27  C17 UNL     1      -8.785   8.795  15.330  1.00  0.00     0.008 C 
BRANCH  27  28
HETATM   28  C18 UNL     1      -9.542  10.093  15.004  1.00  0.00     0.028 C 
BRANCH  28  29
HETATM   29  C19 UNL     1      -9.733  10.970  16.212  1.00  0.00    -0.025 C 
HETATM   30  C20 UNL     1     -10.671  10.877  17.176  1.00  0.00    -0.091 C 
HETATM   31  C21 UNL     1     -10.693  11.863  18.316  1.00  0.00     0.042 C 
HETATM   32  C22 UNL     1     -11.757   9.840  17.244  1.00  0.00     0.042 C 
ENDBRANCH  28  29
ENDBRANCH  27  28
ENDBRANCH  25  27
ENDBRANCH  16  25
TORSDOF 4
ENDMDL
MODEL 8
REMARK minimizedAffinity -6.84262323
REMARK CNNscore 0.212615937
REMARK CNNaffinity 5.41578674
REMARK  4 active torsions:
REMARK  status: ('A' for Active; 'I' for Inactive)
REMARK    1  A    between atoms: C14_16  and  C15_17 
REMARK    2  A    between atoms: C15_17  and  C17_19 
REMARK    3  A    between atoms: C17_19  and  C18_20 
REMARK    4  A    between atoms: C18_20  and  C19_21 
ROOT
HETATM    1  C1  UNL     1       7.908  11.832  19.973  1.00  0.00     0.017 C 
HETATM    2  C2  UNL     1       6.729  12.425  20.247  1.00  0.00    -0.060 C 
HETATM    3  C3  UNL     1       6.678  13.611  21.189  1.00  0.00     0.212 C 
HETATM    4  O1  UNL     1       5.792  13.356  22.276  1.00  0.00    -0.317 OA
HETATM    5  C4  UNL     1       6.114  12.237  22.978  1.00  0.00     0.259 C 
HETATM    6  O2  UNL     1       7.235  11.945  23.369  1.00  0.00    -0.265 OA
HETATM    7  C5  UNL     1       4.901  11.357  23.097  1.00  0.00     0.112 C 
HETATM    8  C6  UNL     1       4.569  10.687  21.757  1.00  0.00     0.020 C 
HETATM    9  C7  UNL     1       4.233  11.660  20.602  1.00  0.00    -0.024 A 
HETATM   10  C8  UNL     1       3.255  12.773  20.911  1.00  0.00     0.022 A 
HETATM   11  C9  UNL     1       2.797  11.685  19.964  1.00  0.00    -0.027 A 
HETATM   12  C10 UNL     1       1.764  10.686  20.504  1.00  0.00     0.011 C 
HETATM   13  C11 UNL     1       0.326  10.743  19.960  1.00  0.00     0.011 C 
HETATM   14  C12 UNL     1       0.118  11.705  18.786  1.00  0.00    -0.032 C 
HETATM   15  C13 UNL     1      -0.071  13.129  19.375  1.00  0.00     0.016 C 
HETATM   16  C14 UNL     1      -1.066  11.363  17.824  1.00  0.00    -0.002 C 
HETATM   17  C23 UNL     1      -0.630  11.974  16.463  1.00  0.00     0.006 C 
HETATM   18  C24 UNL     1       0.858  12.341  16.589  1.00  0.00     0.011 C 
HETATM   19  C25 UNL     1       1.355  11.568  17.825  1.00  0.00    -0.032 C 
HETATM   20  C26 UNL     1       1.656  10.109  17.354  1.00  0.00     0.016 C 
HETATM   21  C27 UNL     1       2.611  12.177  18.501  1.00  0.00     0.004 C 
HETATM   22  C28 UNL     1       3.894  12.037  17.673  1.00  0.00     0.007 C 
HETATM   23  C29 UNL     1       5.073  12.690  18.386  1.00  0.00     0.010 C 
HETATM   24  C30 UNL     1       5.434  11.884  19.642  1.00  0.00     0.025 C 
ENDROOT
BRANCH  16  25
HETATM   25  C15 UNL     1      -2.561  11.624  18.177  1.00  0.00    -0.014 C 
HETATM   26  C16 UNL     1      -3.307  10.504  18.913  1.00  0.00     0.010 C 
BRANCH  25  27
HETATM   27  C17 UNL     1      -3.358  12.095  16.937  1.00  0.00     0.008 C 
BRANCH  27  28
HETATM   28  C18 UNL     1      -4.324  11.054  16.349  1.00  0.00     0.028 C 
BRANCH  28  29
HETATM   29  C19 UNL     1      -3.720  10.288  15.202  1.00  0.00    -0.025 C 
HETATM   30  C20 UNL     1      -4.258   9.274  14.495  1.00  0.00    -0.091 C 
HETATM   31  C21 UNL     1      -3.484   8.634  13.371  1.00  0.00     0.042 C 
HETATM   32  C22 UNL     1      -5.621   8.680  14.715  1.00  0.00     0.042 C 
ENDBRANCH  28  29
ENDBRANCH  27  28
ENDBRANCH  25  27
ENDBRANCH  16  25
TORSDOF 4
ENDMDL
MODEL 9
REMARK minimizedAffinity -6.7298193
REMARK CNNscore 0.199360132
REMARK CNNaffinity 5.12323713
REMARK  4 active torsions:
REMARK  status: ('A' for Active; 'I' for Inactive)
REMARK    1  A    between atoms: C14_16  and  C15_17 
REMARK    2  A    between atoms: C15_17  and  C17_19 
REMARK    3  A    between atoms: C17_19  and  C18_20 
REMARK    4  A    between atoms: C18_20  and  C19_21 
ROOT
HETATM    1  C1  UNL     1       7.809  12.069  19.827  1.00  0.00     0.017 C 
HETATM    2  C2  UNL     1       6.628  12.603  20.195  1.00  0.00    -0.060 C 
HETATM    3  C3  UNL     1       6.587  13.716  21.224  1.00  0.00     0.212 C 
HETATM    4  O1  UNL     1       5.760  13.355  22.328  1.00  0.00    -0.317 OA
HETATM    5  C4  UNL     1       6.146  12.198  22.929  1.00  0.00     0.259 C 
HETATM    6  O2  UNL     1       7.291  11.913  23.247  1.00  0.00    -0.265 OA
HETATM    7  C5  UNL     1       4.964  11.274  23.036  1.00  0.00     0.112 C 
HETATM    8  C6  UNL     1       4.590  10.693  21.666  1.00  0.00     0.020 C 
HETATM    9  C7  UNL     1       4.173  11.737  20.602  1.00  0.00    -0.024 A 
HETATM   10  C8  UNL     1       3.180  12.793  21.037  1.00  0.00     0.022 A 
HETATM   11  C9  UNL     1       2.709  11.763  20.032  1.00  0.00    -0.027 A 
HETATM   12  C10 UNL     1       1.731  10.695  20.542  1.00  0.00     0.011 C 
HETATM   13  C11 UNL     1       0.268  10.746  20.068  1.00  0.00     0.011 C 
HETATM   14  C12 UNL     1      -0.021  11.784  18.979  1.00  0.00    -0.032 C 
HETATM   15  C13 UNL     1      -0.223  13.155  19.679  1.00  0.00     0.016 C 
HETATM   16  C14 UNL     1      -1.239  11.475  18.047  1.00  0.00    -0.002 C 
HETATM   17  C23 UNL     1      -0.884  12.197  16.718  1.00  0.00     0.006 C 
HETATM   18  C24 UNL     1       0.598  12.601  16.805  1.00  0.00     0.011 C 
HETATM   19  C25 UNL     1       1.174  11.756  17.957  1.00  0.00    -0.032 C 
HETATM   20  C26 UNL     1       1.493  10.345  17.366  1.00  0.00     0.016 C 
HETATM   21  C27 UNL     1       2.442  12.353  18.620  1.00  0.00     0.004 C 
HETATM   22  C28 UNL     1       3.688  12.315  17.727  1.00  0.00     0.007 C 
HETATM   23  C29 UNL     1       4.881  12.950  18.434  1.00  0.00     0.010 C 
HETATM   24  C30 UNL     1       5.322  12.067  19.610  1.00  0.00     0.025 C 
ENDROOT
BRANCH  16  25
HETATM   25  C15 UNL     1      -2.722  11.664  18.485  1.00  0.00    -0.014 C 
HETATM   26  C16 UNL     1      -3.497  10.398  18.875  1.00  0.00     0.010 C 
BRANCH  25  27
HETATM   27  C17 UNL     1      -3.513  12.496  17.448  1.00  0.00     0.008 C 
BRANCH  27  28
HETATM   28  C18 UNL     1      -4.223  13.737  18.013  1.00  0.00     0.028 C 
BRANCH  28  29
HETATM   29  C19 UNL     1      -5.069  13.422  19.217  1.00  0.00    -0.025 C 
HETATM   30  C20 UNL     1      -4.975  13.927  20.463  1.00  0.00    -0.091 C 
HETATM   31  C21 UNL     1      -5.928  13.478  21.542  1.00  0.00     0.042 C 
HETATM   32  C22 UNL     1      -3.970  14.947  20.922  1.00  0.00     0.042 C 
ENDBRANCH  28  29
ENDBRANCH  27  28
ENDBRANCH  25  27
ENDBRANCH  16  25
TORSDOF 4
ENDMDL
