MODEL 1
REMARK minimizedAffinity -7.81067753
REMARK  10 active torsions:
REMARK  status: ('A' for Active; 'I' for Inactive)
REMARK    1  A    between atoms: N1_2  and  C2_3 
REMARK    2  A    between atoms: C2_3  and  C3_4 
REMARK    3  A    between atoms: C3_4  and  O1_5 
REMARK    4  A    between atoms: O1_5  and  C4_6 
REMARK    5  A    between atoms: C4_6  and  C5_8 
REMARK    6  A    between atoms: C17_21  and  O4_22 
REMARK    7  A    between atoms: O4_22  and  C18_23 
REMARK    8  A    between atoms: C18_23  and  C19_25 
REMARK    9  A    between atoms: C19_25  and  C20_26 
REMARK   10  A    between atoms: C20_26  and  O6_29 
ROOT
HETATM    1  C5  UNL     1      -1.505  48.788 -17.047  1.00  0.00     0.085 C 
HETATM    2  C6  UNL     1      -1.188  49.054 -18.329  1.00  0.00    -0.070 C 
HETATM    3  C7  UNL     1      -1.600  48.007 -19.350  1.00  0.00     0.035 C 
HETATM    4  C8  UNL     1      -1.022  48.258 -20.740  1.00  0.00     0.010 C 
HETATM    5  C9  UNL     1      -1.264  49.683 -21.310  1.00  0.00     0.006 C 
HETATM    6  C10 UNL     1      -1.242  50.773 -20.177  1.00  0.00     0.068 C 
HETATM    7  C11 UNL     1      -2.621  51.307 -19.771  1.00  0.00     0.132 C 
HETATM    8  O3  UNL     1      -2.821  51.842 -18.681  1.00  0.00    -0.298 OA
HETATM    9  C12 UNL     1      -3.719  51.363 -20.798  1.00  0.00     0.085 C 
HETATM   10  C13 UNL     1      -3.790  50.089 -21.640  1.00  0.00     0.011 C 
HETATM   11  C14 UNL     1      -5.117  49.994 -22.505  1.00  0.00    -0.016 C 
HETATM   12  C15 UNL     1      -6.329  49.808 -21.545  1.00  0.00     0.018 C 
HETATM   13  C16 UNL     1      -5.430  51.264 -23.331  1.00  0.00     0.018 C 
HETATM   14  C17 UNL     1      -5.049  48.737 -23.431  1.00  0.00     0.140 C 
HETATM   15  C23 UNL     1      -3.761  48.689 -24.255  1.00  0.00     0.034 C 
HETATM   16  C24 UNL     1      -2.559  48.629 -23.323  1.00  0.00     0.012 C 
HETATM   17  C25 UNL     1      -2.430  49.864 -22.386  1.00  0.00    -0.035 C 
HETATM   18  C26 UNL     1      -2.002  51.077 -23.263  1.00  0.00     0.016 C 
HETATM   19  C27 UNL     1      -0.452  50.250 -18.936  1.00  0.00     0.022 C 
HETATM   20  C28 UNL     1       0.049  51.370 -18.012  1.00  0.00     0.015 C 
ENDROOT
BRANCH   1  21
HETATM   21  C4  UNL     1      -1.310  49.585 -15.825  1.00  0.00     0.283 C 
HETATM   22  O2  UNL     1      -0.211  49.769 -15.321  1.00  0.00    -0.260 OA
BRANCH  21  23
HETATM   23  O1  UNL     1      -2.516  49.860 -15.285  1.00  0.00    -0.316 OA
BRANCH  23  24
HETATM   24  C3  UNL     1      -2.818  51.252 -15.107  1.00  0.00     0.209 C 
BRANCH  24  25
HETATM   25  C2  UNL     1      -3.168  51.522 -13.642  1.00  0.00     0.295 C 
BRANCH  25  26
HETATM   26  N1  UNL     1      -3.444  52.929 -13.333  1.00  0.00     0.081 N 
HETATM   27  C1  UNL     1      -3.971  53.098 -11.977  1.00  0.00     0.306 C 
HETATM   28  H4  UNL     1      -4.150  53.260 -13.996  1.00  0.00     0.315 HD
ENDBRANCH  25  26
ENDBRANCH  24  25
ENDBRANCH  23  24
ENDBRANCH  21  23
ENDBRANCH   1  21
BRANCH  14  29
HETATM   29  O4  UNL     1      -6.148  48.709 -24.366  1.00  0.00    -0.315 OA
BRANCH  29  30
HETATM   30  C18 UNL     1      -6.907  47.575 -24.402  1.00  0.00     0.262 C 
HETATM   31  O5  UNL     1      -7.085  46.812 -23.460  1.00  0.00    -0.265 OA
BRANCH  30  32
HETATM   32  C19 UNL     1      -7.536  47.434 -25.767  1.00  0.00     0.148 C 
BRANCH  32  33
HETATM   33  C20 UNL     1      -8.850  48.218 -25.923  1.00  0.00     0.059 C 
HETATM   34  C21 UNL     1     -10.036  47.566 -25.202  1.00  0.00     0.045 C 
HETATM   35  C22 UNL     1      -9.183  48.342 -27.413  1.00  0.00     0.045 C 
BRANCH  33  36
HETATM   36  O6  UNL     1      -8.675  49.547 -25.436  1.00  0.00    -0.390 OA
HETATM   37  H34 UNL     1      -8.624  49.503 -24.458  1.00  0.00     0.210 HD
ENDBRANCH  33  36
ENDBRANCH  32  33
ENDBRANCH  30  32
ENDBRANCH  29  30
ENDBRANCH  14  29
TORSDOF 10
ENDMDL
MODEL 2
REMARK minimizedAffinity -7.71526861
REMARK  10 active torsions:
REMARK  status: ('A' for Active; 'I' for Inactive)
REMARK    1  A    between atoms: N1_2  and  C2_3 
REMARK    2  A    between atoms: C2_3  and  C3_4 
REMARK    3  A    between atoms: C3_4  and  O1_5 
REMARK    4  A    between atoms: O1_5  and  C4_6 
REMARK    5  A    between atoms: C4_6  and  C5_8 
REMARK    6  A    between atoms: C17_21  and  O4_22 
REMARK    7  A    between atoms: O4_22  and  C18_23 
REMARK    8  A    between atoms: C18_23  and  C19_25 
REMARK    9  A    between atoms: C19_25  and  C20_26 
REMARK   10  A    between atoms: C20_26  and  O6_29 
ROOT
HETATM    1  C5  UNL     1      -0.568  49.450 -17.975  1.00  0.00     0.085 C 
HETATM    2  C6  UNL     1      -0.663  49.967 -19.216  1.00  0.00    -0.070 C 
HETATM    3  C7  UNL     1      -0.762  48.962 -20.352  1.00  0.00     0.035 C 
HETATM    4  C8  UNL     1      -0.643  49.599 -21.734  1.00  0.00     0.010 C 
HETATM    5  C9  UNL     1      -1.598  50.796 -21.995  1.00  0.00     0.006 C 
HETATM    6  C10 UNL     1      -1.836  51.644 -20.693  1.00  0.00     0.068 C 
HETATM    7  C11 UNL     1      -3.198  51.425 -20.023  1.00  0.00     0.132 C 
HETATM    8  O3  UNL     1      -3.393  51.687 -18.836  1.00  0.00    -0.298 OA
HETATM    9  C12 UNL     1      -4.387  51.069 -20.873  1.00  0.00     0.085 C 
HETATM   10  C13 UNL     1      -4.052  50.007 -21.920  1.00  0.00     0.011 C 
HETATM   11  C14 UNL     1      -5.342  49.394 -22.611  1.00  0.00    -0.016 C 
HETATM   12  C15 UNL     1      -6.130  48.562 -21.555  1.00  0.00     0.018 C 
HETATM   13  C16 UNL     1      -6.342  50.449 -23.142  1.00  0.00     0.018 C 
HETATM   14  C17 UNL     1      -4.911  48.419 -23.754  1.00  0.00     0.140 C 
HETATM   15  C23 UNL     1      -3.926  49.066 -24.730  1.00  0.00     0.034 C 
HETATM   16  C24 UNL     1      -2.664  49.477 -23.986  1.00  0.00     0.012 C 
HETATM   17  C25 UNL     1      -2.912  50.523 -22.861  1.00  0.00    -0.035 C 
HETATM   18  C26 UNL     1      -3.246  51.880 -23.547  1.00  0.00     0.016 C 
HETATM   19  C27 UNL     1      -0.668  51.424 -19.680  1.00  0.00     0.022 C 
HETATM   20  C28 UNL     1      -0.542  52.544 -18.637  1.00  0.00     0.015 C 
ENDROOT
BRANCH   1  21
HETATM   21  C4  UNL     1      -0.508  50.112 -16.662  1.00  0.00     0.283 C 
HETATM   22  O2  UNL     1      -1.507  50.460 -16.047  1.00  0.00    -0.260 OA
BRANCH  21  23
HETATM   23  O1  UNL     1       0.774  50.442 -16.397  1.00  0.00    -0.316 OA
BRANCH  23  24
HETATM   24  C3  UNL     1       0.962  51.547 -15.501  1.00  0.00     0.209 C 
BRANCH  24  25
HETATM   25  C2  UNL     1       2.047  52.478 -16.049  1.00  0.00     0.295 C 
BRANCH  25  26
HETATM   26  N1  UNL     1       3.282  52.501 -15.260  1.00  0.00     0.081 N 
HETATM   27  C1  UNL     1       4.472  52.350 -16.102  1.00  0.00     0.306 C 
HETATM   28  H4  UNL     1       3.249  51.714 -14.607  1.00  0.00     0.315 HD
ENDBRANCH  25  26
ENDBRANCH  24  25
ENDBRANCH  23  24
ENDBRANCH  21  23
ENDBRANCH   1  21
BRANCH  14  29
HETATM   29  O4  UNL     1      -6.045  47.979 -24.530  1.00  0.00    -0.315 OA
BRANCH  29  30
HETATM   30  C18 UNL     1      -5.874  47.873 -25.880  1.00  0.00     0.262 C 
HETATM   31  O5  UNL     1      -4.807  48.000 -26.470  1.00  0.00    -0.265 OA
BRANCH  30  32
HETATM   32  C19 UNL     1      -7.190  47.522 -26.528  1.00  0.00     0.148 C 
BRANCH  32  33
HETATM   33  C20 UNL     1      -7.162  47.608 -28.064  1.00  0.00     0.059 C 
HETATM   34  C21 UNL     1      -7.655  46.329 -28.753  1.00  0.00     0.045 C 
HETATM   35  C22 UNL     1      -5.728  47.895 -28.521  1.00  0.00     0.045 C 
BRANCH  33  36
HETATM   36  O6  UNL     1      -7.953  48.712 -28.496  1.00  0.00    -0.390 OA
HETATM   37  H34 UNL     1      -8.895  48.477 -28.361  1.00  0.00     0.210 HD
ENDBRANCH  33  36
ENDBRANCH  32  33
ENDBRANCH  30  32
ENDBRANCH  29  30
ENDBRANCH  14  29
TORSDOF 10
ENDMDL
MODEL 3
REMARK minimizedAffinity -7.69283199
REMARK  10 active torsions:
REMARK  status: ('A' for Active; 'I' for Inactive)
REMARK    1  A    between atoms: N1_2  and  C2_3 
REMARK    2  A    between atoms: C2_3  and  C3_4 
REMARK    3  A    between atoms: C3_4  and  O1_5 
REMARK    4  A    between atoms: O1_5  and  C4_6 
REMARK    5  A    between atoms: C4_6  and  C5_8 
REMARK    6  A    between atoms: C17_21  and  O4_22 
REMARK    7  A    between atoms: O4_22  and  C18_23 
REMARK    8  A    between atoms: C18_23  and  C19_25 
REMARK    9  A    between atoms: C19_25  and  C20_26 
REMARK   10  A    between atoms: C20_26  and  O6_29 
ROOT
HETATM    1  C5  UNL     1      -1.655  48.929 -17.037  1.00  0.00     0.085 C 
HETATM    2  C6  UNL     1      -1.312  49.103 -18.328  1.00  0.00    -0.070 C 
HETATM    3  C7  UNL     1      -1.792  48.034 -19.296  1.00  0.00     0.035 C 
HETATM    4  C8  UNL     1      -1.189  48.168 -20.692  1.00  0.00     0.010 C 
HETATM    5  C9  UNL     1      -1.326  49.574 -21.339  1.00  0.00     0.006 C 
HETATM    6  C10 UNL     1      -1.232  50.720 -20.266  1.00  0.00     0.068 C 
HETATM    7  C11 UNL     1      -2.571  51.371 -19.902  1.00  0.00     0.132 C 
HETATM    8  O3  UNL     1      -2.739  51.977 -18.844  1.00  0.00    -0.298 OA
HETATM    9  C12 UNL     1      -3.657  51.450 -20.941  1.00  0.00     0.085 C 
HETATM   10  C13 UNL     1      -3.813  50.142 -21.715  1.00  0.00     0.011 C 
HETATM   11  C14 UNL     1      -5.139  50.094 -22.586  1.00  0.00    -0.016 C 
HETATM   12  C15 UNL     1      -6.367  50.047 -21.629  1.00  0.00     0.018 C 
HETATM   13  C16 UNL     1      -5.355  51.338 -23.481  1.00  0.00     0.018 C 
HETATM   14  C17 UNL     1      -5.156  48.788 -23.443  1.00  0.00     0.140 C 
HETATM   15  C23 UNL     1      -3.870  48.604 -24.251  1.00  0.00     0.034 C 
HETATM   16  C24 UNL     1      -2.681  48.509 -23.306  1.00  0.00     0.012 C 
HETATM   17  C25 UNL     1      -2.469  49.781 -22.434  1.00  0.00    -0.035 C 
HETATM   18  C26 UNL     1      -1.950  50.910 -23.370  1.00  0.00     0.016 C 
HETATM   19  C27 UNL     1      -0.488  50.209 -18.990  1.00  0.00     0.022 C 
HETATM   20  C28 UNL     1       0.086  51.339 -18.123  1.00  0.00     0.015 C 
ENDROOT
BRANCH   1  21
HETATM   21  C4  UNL     1      -1.410  49.775 -15.857  1.00  0.00     0.283 C 
HETATM   22  O2  UNL     1      -2.147  50.697 -15.537  1.00  0.00    -0.260 OA
BRANCH  21  23
HETATM   23  O1  UNL     1      -0.183  49.499 -15.368  1.00  0.00    -0.316 OA
BRANCH  23  24
HETATM   24  C3  UNL     1       0.192  50.214 -14.181  1.00  0.00     0.209 C 
BRANCH  24  25
HETATM   25  C2  UNL     1       1.031  51.438 -14.557  1.00  0.00     0.295 C 
BRANCH  25  26
HETATM   26  N1  UNL     1       0.969  52.536 -13.588  1.00  0.00     0.081 N 
HETATM   27  C1  UNL     1      -0.269  52.506 -12.805  1.00  0.00     0.306 C 
HETATM   28  H4  UNL     1       0.997  53.415 -14.111  1.00  0.00     0.315 HD
ENDBRANCH  25  26
ENDBRANCH  24  25
ENDBRANCH  23  24
ENDBRANCH  21  23
ENDBRANCH   1  21
BRANCH  14  29
HETATM   29  O4  UNL     1      -6.249  48.788 -24.386  1.00  0.00    -0.315 OA
BRANCH  29  30
HETATM   30  C18 UNL     1      -7.251  47.885 -24.179  1.00  0.00     0.262 C 
HETATM   31  O5  UNL     1      -7.092  46.694 -23.942  1.00  0.00    -0.265 OA
BRANCH  30  32
HETATM   32  C19 UNL     1      -8.584  48.590 -24.237  1.00  0.00     0.148 C 
BRANCH  32  33
HETATM   33  C20 UNL     1      -9.215  48.599 -25.640  1.00  0.00     0.059 C 
HETATM   34  C21 UNL     1     -10.495  47.760 -25.735  1.00  0.00     0.045 C 
HETATM   35  C22 UNL     1      -8.196  48.062 -26.649  1.00  0.00     0.045 C 
BRANCH  33  36
HETATM   36  O6  UNL     1      -9.501  49.941 -26.027  1.00  0.00    -0.390 OA
HETATM   37  H34 UNL     1     -10.267  50.249 -25.499  1.00  0.00     0.210 HD
ENDBRANCH  33  36
ENDBRANCH  32  33
ENDBRANCH  30  32
ENDBRANCH  29  30
ENDBRANCH  14  29
TORSDOF 10
ENDMDL
MODEL 4
REMARK minimizedAffinity -7.6871624
REMARK  10 active torsions:
REMARK  status: ('A' for Active; 'I' for Inactive)
REMARK    1  A    between atoms: N1_2  and  C2_3 
REMARK    2  A    between atoms: C2_3  and  C3_4 
REMARK    3  A    between atoms: C3_4  and  O1_5 
REMARK    4  A    between atoms: O1_5  and  C4_6 
REMARK    5  A    between atoms: C4_6  and  C5_8 
REMARK    6  A    between atoms: C17_21  and  O4_22 
REMARK    7  A    between atoms: O4_22  and  C18_23 
REMARK    8  A    between atoms: C18_23  and  C19_25 
REMARK    9  A    between atoms: C19_25  and  C20_26 
REMARK   10  A    between atoms: C20_26  and  O6_29 
ROOT
HETATM    1  C5  UNL     1      -3.206  51.802 -26.324  1.00  0.00     0.085 C 
HETATM    2  C6  UNL     1      -3.386  52.071 -25.016  1.00  0.00    -0.070 C 
HETATM    3  C7  UNL     1      -4.739  51.691 -24.437  1.00  0.00     0.035 C 
HETATM    4  C8  UNL     1      -4.959  52.219 -23.021  1.00  0.00     0.010 C 
HETATM    5  C9  UNL     1      -3.832  51.883 -22.007  1.00  0.00     0.006 C 
HETATM    6  C10 UNL     1      -2.417  51.874 -22.693  1.00  0.00     0.068 C 
HETATM    7  C11 UNL     1      -1.835  50.479 -22.950  1.00  0.00     0.132 C 
HETATM    8  O3  UNL     1      -0.965  50.278 -23.797  1.00  0.00    -0.298 OA
HETATM    9  C12 UNL     1      -2.185  49.353 -22.015  1.00  0.00     0.085 C 
HETATM   10  C13 UNL     1      -3.673  49.332 -21.666  1.00  0.00     0.011 C 
HETATM   11  C14 UNL     1      -4.119  47.990 -20.946  1.00  0.00    -0.016 C 
HETATM   12  C15 UNL     1      -4.014  46.815 -21.963  1.00  0.00     0.018 C 
HETATM   13  C16 UNL     1      -3.227  47.586 -19.747  1.00  0.00     0.018 C 
HETATM   14  C17 UNL     1      -5.614  48.103 -20.507  1.00  0.00     0.140 C 
HETATM   15  C23 UNL     1      -5.889  49.371 -19.695  1.00  0.00     0.034 C 
HETATM   16  C24 UNL     1      -5.571  50.597 -20.538  1.00  0.00     0.012 C 
HETATM   17  C25 UNL     1      -4.084  50.682 -20.986  1.00  0.00    -0.035 C 
HETATM   18  C26 UNL     1      -3.232  51.020 -19.728  1.00  0.00     0.016 C 
HETATM   19  C27 UNL     1      -2.443  52.724 -24.004  1.00  0.00     0.022 C 
HETATM   20  C28 UNL     1      -1.052  53.185 -24.462  1.00  0.00     0.015 C 
ENDROOT
BRANCH   1  21
HETATM   21  C4  UNL     1      -2.027  51.984 -27.187  1.00  0.00     0.283 C 
HETATM   22  O2  UNL     1      -1.187  51.112 -27.356  1.00  0.00    -0.260 OA
BRANCH  21  23
HETATM   23  O1  UNL     1      -1.944  53.282 -27.546  1.00  0.00    -0.316 OA
BRANCH  23  24
HETATM   24  C3  UNL     1      -0.659  53.721 -28.009  1.00  0.00     0.209 C 
BRANCH  24  25
HETATM   25  C2  UNL     1       0.325  52.548 -27.992  1.00  0.00     0.295 C 
BRANCH  25  26
HETATM   26  N1  UNL     1       1.349  52.631 -26.946  1.00  0.00     0.081 N 
HETATM   27  C1  UNL     1       2.463  51.712 -27.197  1.00  0.00     0.306 C 
HETATM   28  H4  UNL     1       0.911  52.370 -26.060  1.00  0.00     0.315 HD
ENDBRANCH  25  26
ENDBRANCH  24  25
ENDBRANCH  23  24
ENDBRANCH  21  23
ENDBRANCH   1  21
BRANCH  14  29
HETATM   29  O4  UNL     1      -6.012  46.984 -19.688  1.00  0.00    -0.315 OA
BRANCH  29  30
HETATM   30  C18 UNL     1      -6.639  47.265 -18.509  1.00  0.00     0.262 C 
HETATM   31  O5  UNL     1      -6.085  47.666 -17.491  1.00  0.00    -0.265 OA
BRANCH  30  32
HETATM   32  C19 UNL     1      -8.125  47.058 -18.666  1.00  0.00     0.148 C 
BRANCH  32  33
HETATM   33  C20 UNL     1      -8.967  47.838 -17.642  1.00  0.00     0.059 C 
HETATM   34  C21 UNL     1     -10.444  47.424 -17.629  1.00  0.00     0.045 C 
HETATM   35  C22 UNL     1      -8.876  49.334 -17.958  1.00  0.00     0.045 C 
BRANCH  33  36
HETATM   36  O6  UNL     1      -8.417  47.665 -16.339  1.00  0.00    -0.390 OA
HETATM   37  H34 UNL     1      -8.613  46.749 -16.050  1.00  0.00     0.210 HD
ENDBRANCH  33  36
ENDBRANCH  32  33
ENDBRANCH  30  32
ENDBRANCH  29  30
ENDBRANCH  14  29
TORSDOF 10
ENDMDL
MODEL 5
REMARK minimizedAffinity -7.63890791
REMARK  10 active torsions:
REMARK  status: ('A' for Active; 'I' for Inactive)
REMARK    1  A    between atoms: N1_2  and  C2_3 
REMARK    2  A    between atoms: C2_3  and  C3_4 
REMARK    3  A    between atoms: C3_4  and  O1_5 
REMARK    4  A    between atoms: O1_5  and  C4_6 
REMARK    5  A    between atoms: C4_6  and  C5_8 
REMARK    6  A    between atoms: C17_21  and  O4_22 
REMARK    7  A    between atoms: O4_22  and  C18_23 
REMARK    8  A    between atoms: C18_23  and  C19_25 
REMARK    9  A    between atoms: C19_25  and  C20_26 
REMARK   10  A    between atoms: C20_26  and  O6_29 
ROOT
HETATM    1  C5  UNL     1      -1.365  52.643 -24.065  1.00  0.00     0.085 C 
HETATM    2  C6  UNL     1      -2.261  52.202 -23.160  1.00  0.00    -0.070 C 
HETATM    3  C7  UNL     1      -3.717  52.532 -23.447  1.00  0.00     0.035 C 
HETATM    4  C8  UNL     1      -4.651  52.205 -22.285  1.00  0.00     0.010 C 
HETATM    5  C9  UNL     1      -4.531  50.759 -21.728  1.00  0.00     0.006 C 
HETATM    6  C10 UNL     1      -3.052  50.231 -21.796  1.00  0.00     0.068 C 
HETATM    7  C11 UNL     1      -2.780  49.223 -22.919  1.00  0.00     0.132 C 
HETATM    8  O3  UNL     1      -1.647  49.017 -23.354  1.00  0.00    -0.298 OA
HETATM    9  C12 UNL     1      -3.888  48.311 -23.372  1.00  0.00     0.085 C 
HETATM   10  C13 UNL     1      -5.216  49.050 -23.534  1.00  0.00     0.011 C 
HETATM   11  C14 UNL     1      -6.309  48.195 -24.302  1.00  0.00    -0.016 C 
HETATM   12  C15 UNL     1      -5.861  48.019 -25.783  1.00  0.00     0.018 C 
HETATM   13  C16 UNL     1      -6.497  46.761 -23.750  1.00  0.00     0.018 C 
HETATM   14  C17 UNL     1      -7.668  48.965 -24.308  1.00  0.00     0.140 C 
HETATM   15  C23 UNL     1      -8.092  49.409 -22.906  1.00  0.00     0.034 C 
HETATM   16  C24 UNL     1      -7.043  50.348 -22.328  1.00  0.00     0.012 C 
HETATM   17  C25 UNL     1      -5.638  49.697 -22.172  1.00  0.00    -0.035 C 
HETATM   18  C26 UNL     1      -5.722  48.672 -21.004  1.00  0.00     0.016 C 
HETATM   19  C27 UNL     1      -2.050  51.428 -21.858  1.00  0.00     0.022 C 
HETATM   20  C28 UNL     1      -0.623  51.055 -21.429  1.00  0.00     0.015 C 
ENDROOT
BRANCH   1  21
HETATM   21  C4  UNL     1       0.095  52.465 -24.134  1.00  0.00     0.283 C 
HETATM   22  O2  UNL     1       0.881  53.201 -23.553  1.00  0.00    -0.260 OA
BRANCH  21  23
HETATM   23  O1  UNL     1       0.380  51.543 -25.076  1.00  0.00    -0.316 OA
BRANCH  23  24
HETATM   24  C3  UNL     1       0.983  52.043 -26.279  1.00  0.00     0.209 C 
BRANCH  24  25
HETATM   25  C2  UNL     1       0.352  51.363 -27.496  1.00  0.00     0.295 C 
BRANCH  25  26
HETATM   26  N1  UNL     1      -0.396  52.266 -28.376  1.00  0.00     0.081 N 
HETATM   27  C1  UNL     1      -0.379  53.646 -27.884  1.00  0.00     0.306 C 
HETATM   28  H4  UNL     1      -1.367  51.945 -28.400  1.00  0.00     0.315 HD
ENDBRANCH  25  26
ENDBRANCH  24  25
ENDBRANCH  23  24
ENDBRANCH  21  23
ENDBRANCH   1  21
BRANCH  14  29
HETATM   29  O4  UNL     1      -8.737  48.149 -24.832  1.00  0.00    -0.315 OA
BRANCH  29  30
HETATM   30  C18 UNL     1      -9.490  48.679 -25.839  1.00  0.00     0.262 C 
HETATM   31  O5  UNL     1      -9.847  49.848 -25.916  1.00  0.00    -0.265 OA
BRANCH  30  32
HETATM   32  C19 UNL     1      -9.771  47.614 -26.871  1.00  0.00     0.148 C 
BRANCH  32  33
HETATM   33  C20 UNL     1      -9.192  47.935 -28.260  1.00  0.00     0.059 C 
HETATM   34  C21 UNL     1     -10.235  47.867 -29.383  1.00  0.00     0.045 C 
HETATM   35  C22 UNL     1      -8.064  46.947 -28.572  1.00  0.00     0.045 C 
BRANCH  33  36
HETATM   36  O6  UNL     1      -8.602  49.232 -28.244  1.00  0.00    -0.390 OA
HETATM   37  H34 UNL     1      -9.326  49.892 -28.209  1.00  0.00     0.210 HD
ENDBRANCH  33  36
ENDBRANCH  32  33
ENDBRANCH  30  32
ENDBRANCH  29  30
ENDBRANCH  14  29
TORSDOF 10
ENDMDL
MODEL 6
REMARK minimizedAffinity -7.59012318
REMARK  10 active torsions:
REMARK  status: ('A' for Active; 'I' for Inactive)
REMARK    1  A    between atoms: N1_2  and  C2_3 
REMARK    2  A    between atoms: C2_3  and  C3_4 
REMARK    3  A    between atoms: C3_4  and  O1_5 
REMARK    4  A    between atoms: O1_5  and  C4_6 
REMARK    5  A    between atoms: C4_6  and  C5_8 
REMARK    6  A    between atoms: C17_21  and  O4_22 
REMARK    7  A    between atoms: O4_22  and  C18_23 
REMARK    8  A    between atoms: C18_23  and  C19_25 
REMARK    9  A    between atoms: C19_25  and  C20_26 
REMARK   10  A    between atoms: C20_26  and  O6_29 
ROOT
HETATM    1  C5  UNL     1       0.027  50.962 -26.543  1.00  0.00     0.085 C 
HETATM    2  C6  UNL     1      -1.239  50.539 -26.358  1.00  0.00    -0.070 C 
HETATM    3  C7  UNL     1      -1.402  49.236 -25.592  1.00  0.00     0.035 C 
HETATM    4  C8  UNL     1      -2.832  48.700 -25.609  1.00  0.00     0.010 C 
HETATM    5  C9  UNL     1      -3.923  49.716 -25.173  1.00  0.00     0.006 C 
HETATM    6  C10 UNL     1      -3.566  51.181 -25.619  1.00  0.00     0.068 C 
HETATM    7  C11 UNL     1      -3.061  52.091 -24.493  1.00  0.00     0.132 C 
HETATM    8  O3  UNL     1      -2.388  53.097 -24.716  1.00  0.00    -0.298 OA
HETATM    9  C12 UNL     1      -3.559  51.871 -23.090  1.00  0.00     0.085 C 
HETATM   10  C13 UNL     1      -3.576  50.391 -22.708  1.00  0.00     0.011 C 
HETATM   11  C14 UNL     1      -3.794  50.157 -21.154  1.00  0.00    -0.016 C 
HETATM   12  C15 UNL     1      -2.537  50.669 -20.388  1.00  0.00     0.018 C 
HETATM   13  C16 UNL     1      -4.991  50.934 -20.556  1.00  0.00     0.018 C 
HETATM   14  C17 UNL     1      -3.930  48.628 -20.868  1.00  0.00     0.140 C 
HETATM   15  C23 UNL     1      -4.985  47.962 -21.754  1.00  0.00     0.034 C 
HETATM   16  C24 UNL     1      -4.595  48.115 -23.217  1.00  0.00     0.012 C 
HETATM   17  C25 UNL     1      -4.502  49.594 -23.689  1.00  0.00    -0.035 C 
HETATM   18  C26 UNL     1      -5.951  50.157 -23.760  1.00  0.00     0.016 C 
HETATM   19  C27 UNL     1      -2.562  51.154 -26.815  1.00  0.00     0.022 C 
HETATM   20  C28 UNL     1      -2.543  52.458 -27.627  1.00  0.00     0.015 C 
ENDROOT
BRANCH   1  21
HETATM   21  C4  UNL     1       0.547  52.181 -27.182  1.00  0.00     0.283 C 
HETATM   22  O2  UNL     1       0.386  52.429 -28.369  1.00  0.00    -0.260 OA
BRANCH  21  23
HETATM   23  O1  UNL     1       1.369  52.812 -26.318  1.00  0.00    -0.316 OA
BRANCH  23  24
HETATM   24  C3  UNL     1       0.955  52.803 -24.943  1.00  0.00     0.209 C 
BRANCH  24  25
HETATM   25  C2  UNL     1       0.600  54.225 -24.501  1.00  0.00     0.295 C 
BRANCH  25  26
HETATM   26  N1  UNL     1       1.600  54.859 -23.637  1.00  0.00     0.081 N 
HETATM   27  C1  UNL     1       1.461  54.440 -22.240  1.00  0.00     0.306 C 
HETATM   28  H4  UNL     1       1.456  55.871 -23.685  1.00  0.00     0.315 HD
ENDBRANCH  25  26
ENDBRANCH  24  25
ENDBRANCH  23  24
ENDBRANCH  21  23
ENDBRANCH   1  21
BRANCH  14  29
HETATM   29  O4  UNL     1      -4.312  48.376 -19.499  1.00  0.00    -0.315 OA
BRANCH  29  30
HETATM   30  C18 UNL     1      -3.368  47.833 -18.677  1.00  0.00     0.262 C 
HETATM   31  O5  UNL     1      -2.642  46.888 -18.961  1.00  0.00    -0.265 OA
BRANCH  30  32
HETATM   32  C19 UNL     1      -3.319  48.609 -17.384  1.00  0.00     0.148 C 
BRANCH  32  33
HETATM   33  C20 UNL     1      -1.981  48.476 -16.636  1.00  0.00     0.059 C 
HETATM   34  C21 UNL     1      -1.961  49.212 -15.291  1.00  0.00     0.045 C 
HETATM   35  C22 UNL     1      -0.858  49.028 -17.520  1.00  0.00     0.045 C 
BRANCH  33  36
HETATM   36  O6  UNL     1      -1.688  47.097 -16.424  1.00  0.00    -0.390 OA
HETATM   37  H34 UNL     1      -2.297  46.764 -15.732  1.00  0.00     0.210 HD
ENDBRANCH  33  36
ENDBRANCH  32  33
ENDBRANCH  30  32
ENDBRANCH  29  30
ENDBRANCH  14  29
TORSDOF 10
ENDMDL
MODEL 7
REMARK minimizedAffinity -7.56315279
REMARK  10 active torsions:
REMARK  status: ('A' for Active; 'I' for Inactive)
REMARK    1  A    between atoms: N1_2  and  C2_3 
REMARK    2  A    between atoms: C2_3  and  C3_4 
REMARK    3  A    between atoms: C3_4  and  O1_5 
REMARK    4  A    between atoms: O1_5  and  C4_6 
REMARK    5  A    between atoms: C4_6  and  C5_8 
REMARK    6  A    between atoms: C17_21  and  O4_22 
REMARK    7  A    between atoms: O4_22  and  C18_23 
REMARK    8  A    between atoms: C18_23  and  C19_25 
REMARK    9  A    between atoms: C19_25  and  C20_26 
REMARK   10  A    between atoms: C20_26  and  O6_29 
ROOT
HETATM    1  C5  UNL     1      -0.794  49.291 -16.969  1.00  0.00     0.085 C 
HETATM    2  C6  UNL     1      -0.640  49.644 -18.260  1.00  0.00    -0.070 C 
HETATM    3  C7  UNL     1      -0.863  48.544 -19.284  1.00  0.00     0.035 C 
HETATM    4  C8  UNL     1      -0.460  48.945 -20.700  1.00  0.00     0.010 C 
HETATM    5  C9  UNL     1      -1.071  50.280 -21.209  1.00  0.00     0.006 C 
HETATM    6  C10 UNL     1      -1.227  51.328 -20.047  1.00  0.00     0.068 C 
HETATM    7  C11 UNL     1      -2.661  51.513 -19.536  1.00  0.00     0.132 C 
HETATM    8  O3  UNL     1      -2.904  51.969 -18.420  1.00  0.00    -0.298 OA
HETATM    9  C12 UNL     1      -3.811  51.322 -20.487  1.00  0.00     0.085 C 
HETATM   10  C13 UNL     1      -3.638  50.080 -21.362  1.00  0.00     0.011 C 
HETATM   11  C14 UNL     1      -4.962  49.685 -22.142  1.00  0.00    -0.016 C 
HETATM   12  C15 UNL     1      -6.026  49.202 -21.111  1.00  0.00     0.018 C 
HETATM   13  C16 UNL     1      -5.623  50.857 -22.906  1.00  0.00     0.018 C 
HETATM   14  C17 UNL     1      -4.666  48.494 -23.108  1.00  0.00     0.140 C 
HETATM   15  C23 UNL     1      -3.463  48.765 -24.015  1.00  0.00     0.034 C 
HETATM   16  C24 UNL     1      -2.219  48.978 -23.165  1.00  0.00     0.012 C 
HETATM   17  C25 UNL     1      -2.320  50.195 -22.201  1.00  0.00    -0.035 C 
HETATM   18  C26 UNL     1      -2.252  51.487 -23.066  1.00  0.00     0.016 C 
HETATM   19  C27 UNL     1      -0.251  50.989 -18.876  1.00  0.00     0.022 C 
HETATM   20  C28 UNL     1       0.036  52.183 -17.953  1.00  0.00     0.015 C 
ENDROOT
BRANCH   1  21
HETATM   21  C4  UNL     1      -0.707  50.095 -15.738  1.00  0.00     0.283 C 
HETATM   22  O2  UNL     1       0.354  50.501 -15.285  1.00  0.00    -0.260 OA
BRANCH  21  23
HETATM   23  O1  UNL     1      -1.913  50.099 -15.132  1.00  0.00    -0.316 OA
BRANCH  23  24
HETATM   24  C3  UNL     1      -2.610  51.353 -15.136  1.00  0.00     0.209 C 
BRANCH  24  25
HETATM   25  C2  UNL     1      -3.377  51.522 -13.822  1.00  0.00     0.295 C 
BRANCH  25  26
HETATM   26  N1  UNL     1      -3.641  52.916 -13.449  1.00  0.00     0.081 N 
HETATM   27  C1  UNL     1      -3.788  53.075 -12.000  1.00  0.00     0.306 C 
HETATM   28  H4  UNL     1      -4.518  53.196 -13.894  1.00  0.00     0.315 HD
ENDBRANCH  25  26
ENDBRANCH  24  25
ENDBRANCH  23  24
ENDBRANCH  21  23
ENDBRANCH   1  21
BRANCH  14  29
HETATM   29  O4  UNL     1      -5.789  48.219 -23.970  1.00  0.00    -0.315 OA
BRANCH  29  30
HETATM   30  C18 UNL     1      -5.549  48.170 -25.312  1.00  0.00     0.262 C 
HETATM   31  O5  UNL     1      -6.374  47.874 -26.168  1.00  0.00    -0.265 OA
BRANCH  30  32
HETATM   32  C19 UNL     1      -4.125  48.589 -25.585  1.00  0.00     0.148 C 
BRANCH  32  33
HETATM   33  C20 UNL     1      -3.806  48.747 -27.081  1.00  0.00     0.059 C 
HETATM   34  C21 UNL     1      -3.561  50.202 -27.500  1.00  0.00     0.045 C 
HETATM   35  C22 UNL     1      -4.971  48.185 -27.902  1.00  0.00     0.045 C 
BRANCH  33  36
HETATM   36  O6  UNL     1      -2.663  47.963 -27.412  1.00  0.00    -0.390 OA
HETATM   37  H34 UNL     1      -1.875  48.402 -27.028  1.00  0.00     0.210 HD
ENDBRANCH  33  36
ENDBRANCH  32  33
ENDBRANCH  30  32
ENDBRANCH  29  30
ENDBRANCH  14  29
TORSDOF 10
ENDMDL
MODEL 8
REMARK minimizedAffinity -7.52903557
REMARK  10 active torsions:
REMARK  status: ('A' for Active; 'I' for Inactive)
REMARK    1  A    between atoms: N1_2  and  C2_3 
REMARK    2  A    between atoms: C2_3  and  C3_4 
REMARK    3  A    between atoms: C3_4  and  O1_5 
REMARK    4  A    between atoms: O1_5  and  C4_6 
REMARK    5  A    between atoms: C4_6  and  C5_8 
REMARK    6  A    between atoms: C17_21  and  O4_22 
REMARK    7  A    between atoms: O4_22  and  C18_23 
REMARK    8  A    between atoms: C18_23  and  C19_25 
REMARK    9  A    between atoms: C19_25  and  C20_26 
REMARK   10  A    between atoms: C20_26  and  O6_29 
ROOT
HETATM    1  C5  UNL     1      -3.451  52.206 -25.948  1.00  0.00     0.085 C 
HETATM    2  C6  UNL     1      -3.392  51.870 -24.644  1.00  0.00    -0.070 C 
HETATM    3  C7  UNL     1      -4.636  52.166 -23.822  1.00  0.00     0.035 C 
HETATM    4  C8  UNL     1      -4.429  51.972 -22.322  1.00  0.00     0.010 C 
HETATM    5  C9  UNL     1      -3.830  50.598 -21.909  1.00  0.00     0.006 C 
HETATM    6  C10 UNL     1      -2.808  50.066 -22.978  1.00  0.00     0.068 C 
HETATM    7  C11 UNL     1      -3.339  48.937 -23.870  1.00  0.00     0.132 C 
HETATM    8  O3  UNL     1      -2.846  48.683 -24.969  1.00  0.00    -0.298 OA
HETATM    9  C12 UNL     1      -4.359  47.980 -23.316  1.00  0.00     0.085 C 
HETATM   10  C13 UNL     1      -5.458  48.697 -22.531  1.00  0.00     0.011 C 
HETATM   11  C14 UNL     1      -6.697  47.760 -22.208  1.00  0.00    -0.016 C 
HETATM   12  C15 UNL     1      -7.429  47.418 -23.540  1.00  0.00     0.018 C 
HETATM   13  C16 UNL     1      -6.317  46.398 -21.579  1.00  0.00     0.018 C 
HETATM   14  C17 UNL     1      -7.709  48.525 -21.296  1.00  0.00     0.140 C 
HETATM   15  C23 UNL     1      -7.038  49.125 -20.058  1.00  0.00     0.034 C 
HETATM   16  C24 UNL     1      -5.972  50.122 -20.486  1.00  0.00     0.012 C 
HETATM   17  C25 UNL     1      -4.831  49.493 -21.337  1.00  0.00    -0.035 C 
HETATM   18  C26 UNL     1      -3.972  48.606 -20.389  1.00  0.00     0.016 C 
HETATM   19  C27 UNL     1      -2.253  51.247 -23.836  1.00  0.00     0.022 C 
HETATM   20  C28 UNL     1      -0.924  50.925 -24.535  1.00  0.00     0.015 C 
ENDROOT
BRANCH   1  21
HETATM   21  C4  UNL     1      -2.471  52.021 -27.031  1.00  0.00     0.283 C 
HETATM   22  O2  UNL     1      -2.070  50.921 -27.382  1.00  0.00    -0.260 OA
BRANCH  21  23
HETATM   23  O1  UNL     1      -1.969  53.226 -27.376  1.00  0.00    -0.316 OA
BRANCH  23  24
HETATM   24  C3  UNL     1      -0.537  53.326 -27.385  1.00  0.00     0.209 C 
BRANCH  24  25
HETATM   25  C2  UNL     1      -0.123  54.800 -27.351  1.00  0.00     0.295 C 
BRANCH  25  26
HETATM   26  N1  UNL     1       0.254  55.292 -26.022  1.00  0.00     0.081 N 
HETATM   27  C1  UNL     1       0.262  54.220 -25.024  1.00  0.00     0.306 C 
HETATM   28  H4  UNL     1      -0.440  55.989 -25.740  1.00  0.00     0.315 HD
ENDBRANCH  25  26
ENDBRANCH  24  25
ENDBRANCH  23  24
ENDBRANCH  21  23
ENDBRANCH   1  21
BRANCH  14  29
HETATM   29  O4  UNL     1      -8.760  47.656 -20.825  1.00  0.00    -0.315 OA
BRANCH  29  30
HETATM   30  C18 UNL     1      -8.971  47.605 -19.478  1.00  0.00     0.262 C 
HETATM   31  O5  UNL     1      -8.260  47.017 -18.672  1.00  0.00    -0.265 OA
BRANCH  30  32
HETATM   32  C19 UNL     1     -10.188  48.426 -19.127  1.00  0.00     0.148 C 
BRANCH  32  33
HETATM   33  C20 UNL     1     -11.475  47.594 -18.993  1.00  0.00     0.059 C 
HETATM   34  C21 UNL     1     -12.699  48.261 -19.632  1.00  0.00     0.045 C 
HETATM   35  C22 UNL     1     -11.761  47.353 -17.508  1.00  0.00     0.045 C 
BRANCH  33  36
HETATM   36  O6  UNL     1     -11.277  46.310 -19.581  1.00  0.00    -0.390 OA
HETATM   37  H34 UNL     1     -11.256  46.425 -20.554  1.00  0.00     0.210 HD
ENDBRANCH  33  36
ENDBRANCH  32  33
ENDBRANCH  30  32
ENDBRANCH  29  30
ENDBRANCH  14  29
TORSDOF 10
ENDMDL
MODEL 9
REMARK minimizedAffinity -7.46140909
REMARK  10 active torsions:
REMARK  status: ('A' for Active; 'I' for Inactive)
REMARK    1  A    between atoms: N1_2  and  C2_3 
REMARK    2  A    between atoms: C2_3  and  C3_4 
REMARK    3  A    between atoms: C3_4  and  O1_5 
REMARK    4  A    between atoms: O1_5  and  C4_6 
REMARK    5  A    between atoms: C4_6  and  C5_8 
REMARK    6  A    between atoms: C17_21  and  O4_22 
REMARK    7  A    between atoms: O4_22  and  C18_23 
REMARK    8  A    between atoms: C18_23  and  C19_25 
REMARK    9  A    between atoms: C19_25  and  C20_26 
REMARK   10  A    between atoms: C20_26  and  O6_29 
ROOT
HETATM    1  C5  UNL     1      -0.078  50.764 -26.718  1.00  0.00     0.085 C 
HETATM    2  C6  UNL     1      -1.361  50.447 -26.455  1.00  0.00    -0.070 C 
HETATM    3  C7  UNL     1      -1.585  49.152 -25.692  1.00  0.00     0.035 C 
HETATM    4  C8  UNL     1      -3.053  48.739 -25.621  1.00  0.00     0.010 C 
HETATM    5  C9  UNL     1      -4.025  49.836 -25.107  1.00  0.00     0.006 C 
HETATM    6  C10 UNL     1      -3.574  51.272 -25.563  1.00  0.00     0.068 C 
HETATM    7  C11 UNL     1      -2.923  52.121 -24.464  1.00  0.00     0.132 C 
HETATM    8  O3  UNL     1      -2.183  53.070 -24.722  1.00  0.00    -0.298 OA
HETATM    9  C12 UNL     1      -3.348  51.924 -23.035  1.00  0.00     0.085 C 
HETATM   10  C13 UNL     1      -3.466  50.446 -22.664  1.00  0.00     0.011 C 
HETATM   11  C14 UNL     1      -3.604  50.210 -21.101  1.00  0.00    -0.016 C 
HETATM   12  C15 UNL     1      -2.263  50.603 -20.414  1.00  0.00     0.018 C 
HETATM   13  C16 UNL     1      -4.691  51.076 -20.421  1.00  0.00     0.018 C 
HETATM   14  C17 UNL     1      -3.852  48.693 -20.820  1.00  0.00     0.140 C 
HETATM   15  C23 UNL     1      -5.013  48.131 -21.643  1.00  0.00     0.034 C 
HETATM   16  C24 UNL     1      -4.705  48.271 -23.126  1.00  0.00     0.012 C 
HETATM   17  C25 UNL     1      -4.517  49.744 -23.591  1.00  0.00    -0.035 C 
HETATM   18  C26 UNL     1      -5.915  50.427 -23.564  1.00  0.00     0.016 C 
HETATM   19  C27 UNL     1      -2.654  51.178 -26.822  1.00  0.00     0.022 C 
HETATM   20  C28 UNL     1      -2.575  52.486 -27.622  1.00  0.00     0.015 C 
ENDROOT
BRANCH   1  21
HETATM   21  C4  UNL     1       0.502  51.945 -27.379  1.00  0.00     0.283 C 
HETATM   22  O2  UNL     1       0.831  51.951 -28.557  1.00  0.00    -0.260 OA
BRANCH  21  23
HETATM   23  O1  UNL     1       0.787  52.874 -26.443  1.00  0.00    -0.316 OA
BRANCH  23  24
HETATM   24  C3  UNL     1       1.257  52.369 -25.185  1.00  0.00     0.209 C 
BRANCH  24  25
HETATM   25  C2  UNL     1       0.861  53.330 -24.061  1.00  0.00     0.295 C 
BRANCH  25  26
HETATM   26  N1  UNL     1       0.325  52.675 -22.864  1.00  0.00     0.081 N 
HETATM   27  C1  UNL     1       0.980  53.151 -21.642  1.00  0.00     0.306 C 
HETATM   28  H4  UNL     1       0.502  51.671 -22.953  1.00  0.00     0.315 HD
ENDBRANCH  25  26
ENDBRANCH  24  25
ENDBRANCH  23  24
ENDBRANCH  21  23
ENDBRANCH   1  21
BRANCH  14  29
HETATM   29  O4  UNL     1      -4.166  48.456 -19.432  1.00  0.00    -0.315 OA
BRANCH  29  30
HETATM   30  C18 UNL     1      -5.078  47.479 -19.156  1.00  0.00     0.262 C 
HETATM   31  O5  UNL     1      -5.164  46.406 -19.742  1.00  0.00    -0.265 OA
BRANCH  30  32
HETATM   32  C19 UNL     1      -5.930  47.902 -17.985  1.00  0.00     0.148 C 
BRANCH  32  33
HETATM   33  C20 UNL     1      -7.424  48.035 -18.327  1.00  0.00     0.059 C 
HETATM   34  C21 UNL     1      -8.084  46.701 -18.697  1.00  0.00     0.045 C 
HETATM   35  C22 UNL     1      -7.582  49.007 -19.501  1.00  0.00     0.045 C 
BRANCH  33  36
HETATM   36  O6  UNL     1      -8.117  48.615 -17.225  1.00  0.00    -0.390 OA
HETATM   37  H34 UNL     1      -8.170  47.941 -16.515  1.00  0.00     0.210 HD
ENDBRANCH  33  36
ENDBRANCH  32  33
ENDBRANCH  30  32
ENDBRANCH  29  30
ENDBRANCH  14  29
TORSDOF 10
ENDMDL
