MODEL 1
REMARK minimizedAffinity -7.74500513
REMARK CNNscore 0.440332592
REMARK CNNaffinity 6.09029579
REMARK  9 active torsions:
REMARK  status: ('A' for Active; 'I' for Inactive)
REMARK    1  A    between atoms: C3_3  and  O1_4 
REMARK    2  A    between atoms: N1_14  and  O2_16 
REMARK    3  A    between atoms: O2_16  and  C13_17 
REMARK    4  A    between atoms: C13_17  and  C14_18 
REMARK       I    between atoms: C14_18  and  N2_20 
REMARK    5  A    between atoms: N2_20  and  C15_21 
REMARK    6  A    between atoms: C15_21  and  C16_22 
REMARK    7  A    between atoms: C15_21  and  C18_26 
REMARK    8  A    between atoms: C16_22  and  C17_23 
REMARK    9  A    between atoms: C17_23  and  O5_25 
ROOT
HETATM    1  C1  UNL     1      -3.823  50.740 -19.543  1.00  0.00     0.015 C 
HETATM    2  C2  UNL     1      -3.691  50.603 -20.728  1.00  0.00    -0.078 C 
HETATM    3  C3  UNL     1      -3.517  50.465 -22.183  1.00  0.00     0.128 C 
HETATM    4  C4  UNL     1      -4.555  51.270 -22.957  1.00  0.00     0.052 C 
HETATM    5  C5  UNL     1      -4.462  50.712 -24.370  1.00  0.00     0.010 C 
HETATM    6  C6  UNL     1      -4.075  49.224 -24.235  1.00  0.00     0.002 C 
HETATM    7  C7  UNL     1      -5.169  48.231 -24.694  1.00  0.00    -0.004 C 
HETATM    8  C8  UNL     1      -5.489  48.378 -26.191  1.00  0.00     0.010 C 
HETATM    9  C9  UNL     1      -6.513  47.343 -26.639  1.00  0.00     0.035 C 
HETATM   10  C10 UNL     1      -7.769  47.394 -25.800  1.00  0.00    -0.069 C 
HETATM   11  C11 UNL     1      -8.968  47.484 -26.401  1.00  0.00     0.030 C 
HETATM   12  C12 UNL     1     -10.238  47.416 -25.634  1.00  0.00     0.032 C 
HETATM   13  N1  UNL     1     -11.350  47.599 -26.285  1.00  0.00    -0.271 N 
ATOM     14  H1  UNL     1     -11.402  47.837 -27.276  1.00  0.00     0.194 HD
HETATM   15  C25 UNL     1     -10.146  47.078 -24.162  1.00  0.00     0.060 C 
HETATM   16  C26 UNL     1      -8.903  47.720 -23.557  1.00  0.00     0.020 C 
HETATM   17  C27 UNL     1      -7.580  47.326 -24.278  1.00  0.00    -0.016 C 
HETATM   18  C28 UNL     1      -7.213  45.871 -23.904  1.00  0.00     0.020 C 
HETATM   19  C29 UNL     1      -6.461  48.351 -23.845  1.00  0.00     0.002 C 
HETATM   20  C30 UNL     1      -6.153  48.357 -22.331  1.00  0.00     0.007 C 
HETATM   21  C31 UNL     1      -4.686  48.106 -21.998  1.00  0.00     0.014 C 
HETATM   22  C32 UNL     1      -3.655  49.009 -22.738  1.00  0.00     0.003 C 
HETATM   23  C33 UNL     1      -2.300  48.263 -22.678  1.00  0.00     0.020 C 
ENDROOT
BRANCH   3  24
HETATM   24  O1  UNL     1      -2.236  51.004 -22.532  1.00  0.00    -0.377 OA
HETATM   25  H2  UNL     1      -2.138  51.840 -22.046  1.00  0.00     0.211 HD
ENDBRANCH   3  24
BRANCH  13  26
HETATM   26  O2  UNL     1     -12.470  47.429 -25.459  1.00  0.00    -0.271 OA
BRANCH  26  27
HETATM   27  C13 UNL     1     -13.017  46.133 -25.681  1.00  0.00     0.303 C 
BRANCH  27  28
HETATM   28  C14 UNL     1     -14.435  46.242 -26.228  1.00  0.00     0.244 C 
HETATM   29  O3  UNL     1     -14.671  46.376 -27.425  1.00  0.00    -0.271 OA
HETATM   30  N2  UNL     1     -15.420  46.104 -25.274  1.00  0.00    -0.354 N 
HETATM   31  H16 UNL     1     -15.124  45.982 -24.306  1.00  0.00     0.162 HD
BRANCH  30  32
HETATM   32  C15 UNL     1     -16.851  46.097 -25.569  1.00  0.00     0.098 C 
BRANCH  32  33
HETATM   33  C16 UNL     1     -17.590  46.969 -24.541  1.00  0.00     0.135 C 
BRANCH  33  34
HETATM   34  C17 UNL     1     -19.038  46.608 -24.362  1.00  0.00     0.141 C 
HETATM   35  O4  UNL     1     -19.939  46.855 -25.146  1.00  0.00    -0.650 OA
BRANCH  34  36
HETATM   36  O5  UNL     1     -19.301  45.992 -23.192  1.00  0.00    -0.776 OA
HETATM   37  H20 UNL     1     -20.272  45.851 -23.219  1.00  0.00     0.167 HD
ENDBRANCH  34  36
ENDBRANCH  33  34
ENDBRANCH  32  33
BRANCH  32  38
HETATM   38  C18 UNL     1     -17.395  44.645 -25.683  1.00  0.00     0.014 C 
HETATM   39  C19 UNL     1     -17.372  44.131 -27.136  1.00  0.00     0.033 C 
HETATM   40  C20 UNL     1     -17.201  42.618 -27.234  1.00  0.00     0.169 C 
HETATM   41  O6  UNL     1     -17.851  41.974 -26.147  1.00  0.00    -0.381 OA
HETATM   42  C21 UNL     1     -17.244  42.233 -24.870  1.00  0.00     0.054 C 
HETATM   43  C22 UNL     1     -18.369  42.086 -23.837  1.00  0.00     0.045 C 
HETATM   44  C23 UNL     1     -16.178  41.165 -24.597  1.00  0.00     0.045 C 
HETATM   45  C24 UNL     1     -16.627  43.650 -24.794  1.00  0.00     0.044 C 
ENDBRANCH  32  38
ENDBRANCH  30  32
ENDBRANCH  27  28
ENDBRANCH  26  27
ENDBRANCH  13  26
TORSDOF 9
ENDMDL
MODEL 2
REMARK minimizedAffinity -8.50317574
REMARK CNNscore 0.360290259
REMARK CNNaffinity 6.91225052
REMARK  9 active torsions:
REMARK  status: ('A' for Active; 'I' for Inactive)
REMARK    1  A    between atoms: C3_3  and  O1_4 
REMARK    2  A    between atoms: N1_14  and  O2_16 
REMARK    3  A    between atoms: O2_16  and  C13_17 
REMARK    4  A    between atoms: C13_17  and  C14_18 
REMARK       I    between atoms: C14_18  and  N2_20 
REMARK    5  A    between atoms: N2_20  and  C15_21 
REMARK    6  A    between atoms: C15_21  and  C16_22 
REMARK    7  A    between atoms: C15_21  and  C18_26 
REMARK    8  A    between atoms: C16_22  and  C17_23 
REMARK    9  A    between atoms: C17_23  and  O5_25 
ROOT
HETATM    1  C1  UNL     1       1.349  51.476 -28.142  1.00  0.00     0.015 C 
HETATM    2  C2  UNL     1       0.416  51.994 -27.592  1.00  0.00    -0.078 C 
HETATM    3  C3  UNL     1      -0.716  52.657 -26.927  1.00  0.00     0.128 C 
HETATM    4  C4  UNL     1      -0.283  53.379 -25.655  1.00  0.00     0.052 C 
HETATM    5  C5  UNL     1      -1.595  53.656 -24.936  1.00  0.00     0.010 C 
HETATM    6  C6  UNL     1      -2.551  52.498 -25.294  1.00  0.00     0.002 C 
HETATM    7  C7  UNL     1      -2.930  51.586 -24.103  1.00  0.00    -0.004 C 
HETATM    8  C8  UNL     1      -3.696  52.350 -23.012  1.00  0.00     0.010 C 
HETATM    9  C9  UNL     1      -4.125  51.420 -21.885  1.00  0.00     0.035 C 
HETATM   10  C10 UNL     1      -2.953  50.661 -21.306  1.00  0.00    -0.069 C 
HETATM   11  C11 UNL     1      -2.747  50.666 -19.978  1.00  0.00     0.030 C 
HETATM   12  C12 UNL     1      -1.687  49.841 -19.344  1.00  0.00     0.032 C 
HETATM   13  N1  UNL     1      -1.500  49.973 -18.062  1.00  0.00    -0.271 N 
ATOM     14  H1  UNL     1      -1.999  50.643 -17.477  1.00  0.00     0.194 HD
HETATM   15  C25 UNL     1      -0.942  48.863 -20.228  1.00  0.00     0.060 C 
HETATM   16  C26 UNL     1      -0.740  49.464 -21.613  1.00  0.00     0.020 C 
HETATM   17  C27 UNL     1      -2.064  49.907 -22.305  1.00  0.00    -0.016 C 
HETATM   18  C28 UNL     1      -2.831  48.651 -22.780  1.00  0.00     0.020 C 
HETATM   19  C29 UNL     1      -1.695  50.866 -23.502  1.00  0.00     0.002 C 
HETATM   20  C30 UNL     1      -0.823  50.213 -24.598  1.00  0.00     0.007 C 
HETATM   21  C31 UNL     1      -1.426  50.292 -25.996  1.00  0.00     0.014 C 
HETATM   22  C32 UNL     1      -1.871  51.708 -26.467  1.00  0.00     0.003 C 
HETATM   23  C33 UNL     1      -2.893  51.486 -27.608  1.00  0.00     0.020 C 
ENDROOT
BRANCH   3  24
HETATM   24  O1  UNL     1      -1.228  53.660 -27.814  1.00  0.00    -0.377 OA
HETATM   25  H2  UNL     1      -0.461  54.128 -28.186  1.00  0.00     0.211 HD
ENDBRANCH   3  24
BRANCH  13  26
HETATM   26  O2  UNL     1      -0.528  49.082 -17.584  1.00  0.00    -0.271 OA
BRANCH  26  27
HETATM   27  C13 UNL     1      -0.360  49.289 -16.185  1.00  0.00     0.303 C 
BRANCH  27  28
HETATM   28  C14 UNL     1       0.592  50.451 -15.932  1.00  0.00     0.244 C 
HETATM   29  O3  UNL     1       0.751  51.361 -16.741  1.00  0.00    -0.271 OA
HETATM   30  N2  UNL     1       1.195  50.427 -14.693  1.00  0.00    -0.354 N 
HETATM   31  H16 UNL     1       0.988  49.636 -14.084  1.00  0.00     0.162 HD
BRANCH  30  32
HETATM   32  C15 UNL     1       2.087  51.472 -14.194  1.00  0.00     0.098 C 
BRANCH  32  33
HETATM   33  C16 UNL     1       3.547  51.024 -14.366  1.00  0.00     0.135 C 
BRANCH  33  34
HETATM   34  C17 UNL     1       3.852  49.686 -13.753  1.00  0.00     0.141 C 
HETATM   35  O4  UNL     1       3.149  48.692 -13.822  1.00  0.00    -0.650 OA
BRANCH  34  36
HETATM   36  O5  UNL     1       4.999  49.665 -13.045  1.00  0.00    -0.776 OA
HETATM   37  H20 UNL     1       5.037  48.747 -12.697  1.00  0.00     0.167 HD
ENDBRANCH  34  36
ENDBRANCH  33  34
ENDBRANCH  32  33
BRANCH  32  38
HETATM   38  C18 UNL     1       1.712  51.886 -12.744  1.00  0.00     0.014 C 
HETATM   39  C19 UNL     1       0.997  50.751 -11.984  1.00  0.00     0.033 C 
HETATM   40  C20 UNL     1       1.234  50.796 -10.477  1.00  0.00     0.169 C 
HETATM   41  O6  UNL     1       1.339  52.141 -10.032  1.00  0.00    -0.381 OA
HETATM   42  C21 UNL     1       2.511  52.822 -10.511  1.00  0.00     0.054 C 
HETATM   43  C22 UNL     1       2.143  54.311 -10.544  1.00  0.00     0.045 C 
HETATM   44  C23 UNL     1       3.653  52.617  -9.509  1.00  0.00     0.045 C 
HETATM   45  C24 UNL     1       2.930  52.342 -11.921  1.00  0.00     0.044 C 
ENDBRANCH  32  38
ENDBRANCH  30  32
ENDBRANCH  27  28
ENDBRANCH  26  27
ENDBRANCH  13  26
TORSDOF 9
ENDMDL
MODEL 3
REMARK minimizedAffinity -9.33734512
REMARK CNNscore 0.354804486
REMARK CNNaffinity 7.16716146
REMARK  9 active torsions:
REMARK  status: ('A' for Active; 'I' for Inactive)
REMARK    1  A    between atoms: C3_3  and  O1_4 
REMARK    2  A    between atoms: N1_14  and  O2_16 
REMARK    3  A    between atoms: O2_16  and  C13_17 
REMARK    4  A    between atoms: C13_17  and  C14_18 
REMARK       I    between atoms: C14_18  and  N2_20 
REMARK    5  A    between atoms: N2_20  and  C15_21 
REMARK    6  A    between atoms: C15_21  and  C16_22 
REMARK    7  A    between atoms: C15_21  and  C18_26 
REMARK    8  A    between atoms: C16_22  and  C17_23 
REMARK    9  A    between atoms: C17_23  and  O5_25 
ROOT
HETATM    1  C1  UNL     1      -4.465  49.965  -9.798  1.00  0.00     0.015 C 
HETATM    2  C2  UNL     1      -3.406  50.530  -9.764  1.00  0.00    -0.078 C 
HETATM    3  C3  UNL     1      -2.121  51.245  -9.705  1.00  0.00     0.128 C 
HETATM    4  C4  UNL     1      -2.137  52.511 -10.554  1.00  0.00     0.052 C 
HETATM    5  C5  UNL     1      -0.666  52.882 -10.673  1.00  0.00     0.010 C 
HETATM    6  C6  UNL     1       0.128  51.560 -10.654  1.00  0.00     0.002 C 
HETATM    7  C7  UNL     1       0.854  51.226 -11.979  1.00  0.00    -0.004 C 
HETATM    8  C8  UNL     1       1.923  52.274 -12.330  1.00  0.00     0.010 C 
HETATM    9  C9  UNL     1       2.676  51.889 -13.597  1.00  0.00     0.035 C 
HETATM   10  C10 UNL     1       1.738  51.648 -14.757  1.00  0.00    -0.069 C 
HETATM   11  C11 UNL     1       1.954  52.273 -15.928  1.00  0.00     0.030 C 
HETATM   12  C12 UNL     1       1.139  51.982 -17.135  1.00  0.00     0.032 C 
HETATM   13  N1  UNL     1       1.358  52.696 -18.202  1.00  0.00    -0.271 N 
ATOM     14  H1  UNL     1       2.016  53.474 -18.245  1.00  0.00     0.194 HD
HETATM   15  C25 UNL     1       0.154  50.836 -17.052  1.00  0.00     0.060 C 
HETATM   16  C26 UNL     1      -0.464  50.780 -15.661  1.00  0.00     0.020 C 
HETATM   17  C27 UNL     1       0.582  50.669 -14.512  1.00  0.00    -0.016 C 
HETATM   18  C28 UNL     1       1.161  49.236 -14.492  1.00  0.00     0.020 C 
HETATM   19  C29 UNL     1      -0.137  51.040 -13.157  1.00  0.00     0.002 C 
HETATM   20  C30 UNL     1      -1.307  50.104 -12.779  1.00  0.00     0.007 C 
HETATM   21  C31 UNL     1      -1.166  49.464 -11.402  1.00  0.00     0.014 C 
HETATM   22  C32 UNL     1      -0.883  50.441 -10.222  1.00  0.00     0.003 C 
HETATM   23  C33 UNL     1      -0.266  49.587  -9.088  1.00  0.00     0.020 C 
ENDROOT
BRANCH   3  24
HETATM   24  O1  UNL     1      -1.906  51.661  -8.351  1.00  0.00    -0.377 OA
HETATM   25  H2  UNL     1      -2.748  52.023  -8.028  1.00  0.00     0.211 HD
ENDBRANCH   3  24
BRANCH  13  26
HETATM   26  O2  UNL     1       0.579  52.264 -19.285  1.00  0.00    -0.271 OA
BRANCH  26  27
HETATM   27  C13 UNL     1       0.967  52.986 -20.450  1.00  0.00     0.303 C 
BRANCH  27  28
HETATM   28  C14 UNL     1       0.061  52.628 -21.621  1.00  0.00     0.244 C 
HETATM   29  O3  UNL     1      -1.128  52.355 -21.476  1.00  0.00    -0.271 OA
HETATM   30  N2  UNL     1       0.672  52.710 -22.854  1.00  0.00    -0.354 N 
HETATM   31  H16 UNL     1       1.661  52.959 -22.873  1.00  0.00     0.162 HD
BRANCH  30  32
HETATM   32  C15 UNL     1      -0.013  52.487 -24.125  1.00  0.00     0.098 C 
BRANCH  32  33
HETATM   33  C16 UNL     1      -0.119  53.817 -24.890  1.00  0.00     0.135 C 
BRANCH  33  34
HETATM   34  C17 UNL     1       0.206  53.708 -26.353  1.00  0.00     0.141 C 
HETATM   35  O4  UNL     1      -0.346  54.315 -27.255  1.00  0.00    -0.650 OA
BRANCH  34  36
HETATM   36  O5  UNL     1       1.177  52.814 -26.626  1.00  0.00    -0.776 OA
HETATM   37  H20 UNL     1       1.249  52.844 -27.605  1.00  0.00     0.167 HD
ENDBRANCH  34  36
ENDBRANCH  33  34
ENDBRANCH  32  33
BRANCH  32  38
HETATM   38  C18 UNL     1      -1.371  51.762 -23.913  1.00  0.00     0.014 C 
HETATM   39  C19 UNL     1      -2.564  52.618 -24.385  1.00  0.00     0.033 C 
HETATM   40  C20 UNL     1      -3.749  51.782 -24.860  1.00  0.00     0.169 C 
HETATM   41  O6  UNL     1      -3.848  50.585 -24.101  1.00  0.00    -0.381 OA
HETATM   42  C21 UNL     1      -2.765  49.667 -24.321  1.00  0.00     0.054 C 
HETATM   43  C22 UNL     1      -2.646  48.847 -23.029  1.00  0.00     0.045 C 
HETATM   44  C23 UNL     1      -3.134  48.724 -25.472  1.00  0.00     0.045 C 
HETATM   45  C24 UNL     1      -1.433  50.395 -24.618  1.00  0.00     0.044 C 
ENDBRANCH  32  38
ENDBRANCH  30  32
ENDBRANCH  27  28
ENDBRANCH  26  27
ENDBRANCH  13  26
TORSDOF 9
ENDMDL
MODEL 4
REMARK minimizedAffinity -7.73777246
REMARK CNNscore 0.302335173
REMARK CNNaffinity 6.7955327
REMARK  9 active torsions:
REMARK  status: ('A' for Active; 'I' for Inactive)
REMARK    1  A    between atoms: C3_3  and  O1_4 
REMARK    2  A    between atoms: N1_14  and  O2_16 
REMARK    3  A    between atoms: O2_16  and  C13_17 
REMARK    4  A    between atoms: C13_17  and  C14_18 
REMARK       I    between atoms: C14_18  and  N2_20 
REMARK    5  A    between atoms: N2_20  and  C15_21 
REMARK    6  A    between atoms: C15_21  and  C16_22 
REMARK    7  A    between atoms: C15_21  and  C18_26 
REMARK    8  A    between atoms: C16_22  and  C17_23 
REMARK    9  A    between atoms: C17_23  and  O5_25 
ROOT
HETATM    1  C1  UNL     1       2.483  51.180 -26.598  1.00  0.00     0.015 C 
HETATM    2  C2  UNL     1       1.557  51.827 -26.192  1.00  0.00    -0.078 C 
HETATM    3  C3  UNL     1       0.442  52.643 -25.686  1.00  0.00     0.128 C 
HETATM    4  C4  UNL     1       0.458  52.744 -24.165  1.00  0.00     0.052 C 
HETATM    5  C5  UNL     1      -0.928  53.272 -23.826  1.00  0.00     0.010 C 
HETATM    6  C6  UNL     1      -1.889  52.719 -24.900  1.00  0.00     0.002 C 
HETATM    7  C7  UNL     1      -2.937  51.713 -24.368  1.00  0.00    -0.004 C 
HETATM    8  C8  UNL     1      -3.886  52.356 -23.344  1.00  0.00     0.010 C 
HETATM    9  C9  UNL     1      -4.955  51.371 -22.889  1.00  0.00     0.035 C 
HETATM   10  C10 UNL     1      -4.351  50.093 -22.354  1.00  0.00    -0.069 C 
HETATM   11  C11 UNL     1      -4.728  49.633 -21.148  1.00  0.00     0.030 C 
HETATM   12  C12 UNL     1      -4.260  48.324 -20.626  1.00  0.00     0.032 C 
HETATM   13  N1  UNL     1      -4.604  47.996 -19.414  1.00  0.00    -0.271 N 
ATOM     14  H1  UNL     1      -5.129  48.603 -18.784  1.00  0.00     0.194 HD
HETATM   15  C25 UNL     1      -3.467  47.441 -21.566  1.00  0.00     0.060 C 
HETATM   16  C26 UNL     1      -2.566  48.296 -22.447  1.00  0.00     0.020 C 
HETATM   17  C27 UNL     1      -3.331  49.386 -23.257  1.00  0.00    -0.016 C 
HETATM   18  C28 UNL     1      -4.100  48.710 -24.415  1.00  0.00     0.020 C 
HETATM   19  C29 UNL     1      -2.278  50.440 -23.778  1.00  0.00     0.002 C 
HETATM   20  C30 UNL     1      -1.208  49.855 -24.728  1.00  0.00     0.007 C 
HETATM   21  C31 UNL     1      -1.129  50.560 -26.078  1.00  0.00     0.014 C 
HETATM   22  C32 UNL     1      -0.987  52.110 -26.030  1.00  0.00     0.003 C 
HETATM   23  C33 UNL     1      -1.455  52.633 -27.410  1.00  0.00     0.020 C 
ENDROOT
BRANCH   3  24
HETATM   24  O1  UNL     1       0.603  53.976 -26.187  1.00  0.00    -0.377 OA
HETATM   25  H2  UNL     1       1.542  54.207 -26.083  1.00  0.00     0.211 HD
ENDBRANCH   3  24
BRANCH  13  26
HETATM   26  O2  UNL     1      -4.164  46.707 -19.079  1.00  0.00    -0.271 OA
BRANCH  26  27
HETATM   27  C13 UNL     1      -5.282  45.931 -18.660  1.00  0.00     0.303 C 
BRANCH  27  28
HETATM   28  C14 UNL     1      -4.814  44.630 -18.020  1.00  0.00     0.244 C 
HETATM   29  O3  UNL     1      -5.598  43.771 -17.625  1.00  0.00    -0.271 OA
HETATM   30  N2  UNL     1      -3.445  44.474 -17.993  1.00  0.00    -0.354 N 
HETATM   31  H16 UNL     1      -2.877  45.238 -18.358  1.00  0.00     0.162 HD
BRANCH  30  32
HETATM   32  C15 UNL     1      -2.765  43.279 -17.498  1.00  0.00     0.098 C 
BRANCH  32  33
HETATM   33  C16 UNL     1      -3.766  42.114 -17.424  1.00  0.00     0.135 C 
BRANCH  33  34
HETATM   34  C17 UNL     1      -3.296  40.861 -18.108  1.00  0.00     0.141 C 
HETATM   35  O4  UNL     1      -3.212  39.757 -17.597  1.00  0.00    -0.650 OA
BRANCH  34  36
HETATM   36  O5  UNL     1      -2.911  41.054 -19.385  1.00  0.00    -0.776 OA
HETATM   37  H20 UNL     1      -2.615  40.162 -19.673  1.00  0.00     0.167 HD
ENDBRANCH  34  36
ENDBRANCH  33  34
ENDBRANCH  32  33
BRANCH  32  38
HETATM   38  C18 UNL     1      -2.020  43.567 -16.165  1.00  0.00     0.014 C 
HETATM   39  C19 UNL     1      -2.989  43.655 -14.968  1.00  0.00     0.033 C 
HETATM   40  C20 UNL     1      -2.350  43.233 -13.648  1.00  0.00     0.169 C 
HETATM   41  O6  UNL     1      -0.978  43.602 -13.621  1.00  0.00    -0.381 OA
HETATM   42  C21 UNL     1      -0.164  42.879 -14.559  1.00  0.00     0.054 C 
HETATM   43  C22 UNL     1       1.015  43.806 -14.886  1.00  0.00     0.045 C 
HETATM   44  C23 UNL     1       0.375  41.614 -13.882  1.00  0.00     0.045 C 
HETATM   45  C24 UNL     1      -0.938  42.519 -15.849  1.00  0.00     0.044 C 
ENDBRANCH  32  38
ENDBRANCH  30  32
ENDBRANCH  27  28
ENDBRANCH  26  27
ENDBRANCH  13  26
TORSDOF 9
ENDMDL
MODEL 5
REMARK minimizedAffinity -8.70694923
REMARK CNNscore 0.278269231
REMARK CNNaffinity 6.10784292
REMARK  9 active torsions:
REMARK  status: ('A' for Active; 'I' for Inactive)
REMARK    1  A    between atoms: C3_3  and  O1_4 
REMARK    2  A    between atoms: N1_14  and  O2_16 
REMARK    3  A    between atoms: O2_16  and  C13_17 
REMARK    4  A    between atoms: C13_17  and  C14_18 
REMARK       I    between atoms: C14_18  and  N2_20 
REMARK    5  A    between atoms: N2_20  and  C15_21 
REMARK    6  A    between atoms: C15_21  and  C16_22 
REMARK    7  A    between atoms: C15_21  and  C18_26 
REMARK    8  A    between atoms: C16_22  and  C17_23 
REMARK    9  A    between atoms: C17_23  and  O5_25 
ROOT
HETATM    1  C1  UNL     1      -3.805  50.938 -19.896  1.00  0.00     0.015 C 
HETATM    2  C2  UNL     1      -3.547  50.691 -21.042  1.00  0.00    -0.078 C 
HETATM    3  C3  UNL     1      -3.215  50.415 -22.449  1.00  0.00     0.128 C 
HETATM    4  C4  UNL     1      -4.002  51.307 -23.403  1.00  0.00     0.052 C 
HETATM    5  C5  UNL     1      -3.823  50.634 -24.755  1.00  0.00     0.010 C 
HETATM    6  C6  UNL     1      -3.702  49.119 -24.484  1.00  0.00     0.002 C 
HETATM    7  C7  UNL     1      -4.875  48.272 -25.033  1.00  0.00    -0.004 C 
HETATM    8  C8  UNL     1      -4.974  48.349 -26.565  1.00  0.00     0.010 C 
HETATM    9  C9  UNL     1      -6.086  47.451 -27.091  1.00  0.00     0.035 C 
HETATM   10  C10 UNL     1      -7.414  47.758 -26.436  1.00  0.00    -0.069 C 
HETATM   11  C11 UNL     1      -8.496  47.983 -27.200  1.00  0.00     0.030 C 
HETATM   12  C12 UNL     1      -9.848  48.169 -26.613  1.00  0.00     0.032 C 
HETATM   13  N1  UNL     1     -10.824  48.468 -27.420  1.00  0.00    -0.271 N 
ATOM     14  H1  UNL     1     -10.711  48.634 -28.420  1.00  0.00     0.194 HD
HETATM   15  C25 UNL     1      -9.999  47.937 -25.125  1.00  0.00     0.060 C 
HETATM   16  C26 UNL     1      -8.756  48.426 -24.392  1.00  0.00     0.020 C 
HETATM   17  C27 UNL     1      -7.433  47.780 -24.901  1.00  0.00    -0.016 C 
HETATM   18  C28 UNL     1      -7.356  46.320 -24.399  1.00  0.00     0.020 C 
HETATM   19  C29 UNL     1      -6.227  48.653 -24.377  1.00  0.00     0.002 C 
HETATM   20  C30 UNL     1      -6.116  48.729 -22.837  1.00  0.00     0.007 C 
HETATM   21  C31 UNL     1      -4.763  48.284 -22.293  1.00  0.00     0.014 C 
HETATM   22  C32 UNL     1      -3.515  48.959 -22.935  1.00  0.00     0.003 C 
HETATM   23  C33 UNL     1      -2.317  48.022 -22.646  1.00  0.00     0.020 C 
ENDROOT
BRANCH   3  24
HETATM   24  O1  UNL     1      -1.830  50.724 -22.648  1.00  0.00    -0.377 OA
HETATM   25  H2  UNL     1      -1.661  51.571 -22.202  1.00  0.00     0.211 HD
ENDBRANCH   3  24
BRANCH  13  26
HETATM   26  O2  UNL     1     -12.053  48.536 -26.746  1.00  0.00    -0.271 OA
BRANCH  26  27
HETATM   27  C13 UNL     1     -13.016  47.772 -27.464  1.00  0.00     0.303 C 
BRANCH  27  28
HETATM   28  C14 UNL     1     -13.639  46.718 -26.557  1.00  0.00     0.244 C 
HETATM   29  O3  UNL     1     -13.325  46.595 -25.376  1.00  0.00    -0.271 OA
HETATM   30  N2  UNL     1     -14.631  45.971 -27.156  1.00  0.00    -0.354 N 
HETATM   31  H16 UNL     1     -14.831  46.157 -28.139  1.00  0.00     0.162 HD
BRANCH  30  32
HETATM   32  C15 UNL     1     -15.423  44.955 -26.466  1.00  0.00     0.098 C 
BRANCH  32  33
HETATM   33  C16 UNL     1     -15.232  43.598 -27.162  1.00  0.00     0.135 C 
BRANCH  33  34
HETATM   34  C17 UNL     1     -13.802  43.276 -27.491  1.00  0.00     0.141 C 
HETATM   35  O4  UNL     1     -13.241  43.513 -28.548  1.00  0.00    -0.650 OA
BRANCH  34  36
HETATM   36  O5  UNL     1     -13.151  42.633 -26.502  1.00  0.00    -0.776 OA
HETATM   37  H20 UNL     1     -12.257  42.477 -26.878  1.00  0.00     0.167 HD
ENDBRANCH  34  36
ENDBRANCH  33  34
ENDBRANCH  32  33
BRANCH  32  38
HETATM   38  C18 UNL     1     -16.906  45.399 -26.326  1.00  0.00     0.014 C 
HETATM   39  C19 UNL     1     -17.823  44.681 -27.337  1.00  0.00     0.033 C 
HETATM   40  C20 UNL     1     -19.252  44.508 -26.832  1.00  0.00     0.169 C 
HETATM   41  O6  UNL     1     -19.630  45.615 -26.025  1.00  0.00    -0.381 OA
HETATM   42  C21 UNL     1     -18.913  45.699 -24.783  1.00  0.00     0.054 C 
HETATM   43  C22 UNL     1     -18.910  47.187 -24.404  1.00  0.00     0.045 C 
HETATM   44  C23 UNL     1     -19.679  44.917 -23.709  1.00  0.00     0.045 C 
HETATM   45  C24 UNL     1     -17.463  45.175 -24.908  1.00  0.00     0.044 C 
ENDBRANCH  32  38
ENDBRANCH  30  32
ENDBRANCH  27  28
ENDBRANCH  26  27
ENDBRANCH  13  26
TORSDOF 9
ENDMDL
MODEL 6
REMARK minimizedAffinity -7.98738623
REMARK CNNscore 0.220351279
REMARK CNNaffinity 6.62363434
REMARK  9 active torsions:
REMARK  status: ('A' for Active; 'I' for Inactive)
REMARK    1  A    between atoms: C3_3  and  O1_4 
REMARK    2  A    between atoms: N1_14  and  O2_16 
REMARK    3  A    between atoms: O2_16  and  C13_17 
REMARK    4  A    between atoms: C13_17  and  C14_18 
REMARK       I    between atoms: C14_18  and  N2_20 
REMARK    5  A    between atoms: N2_20  and  C15_21 
REMARK    6  A    between atoms: C15_21  and  C16_22 
REMARK    7  A    between atoms: C15_21  and  C18_26 
REMARK    8  A    between atoms: C16_22  and  C17_23 
REMARK    9  A    between atoms: C17_23  and  O5_25 
ROOT
HETATM    1  C1  UNL     1       2.443  51.374 -26.695  1.00  0.00     0.015 C 
HETATM    2  C2  UNL     1       1.500  51.996 -26.289  1.00  0.00    -0.078 C 
HETATM    3  C3  UNL     1       0.364  52.782 -25.782  1.00  0.00     0.128 C 
HETATM    4  C4  UNL     1       0.355  52.849 -24.259  1.00  0.00     0.052 C 
HETATM    5  C5  UNL     1      -1.045  53.346 -23.930  1.00  0.00     0.010 C 
HETATM    6  C6  UNL     1      -1.980  52.800 -25.030  1.00  0.00     0.002 C 
HETATM    7  C7  UNL     1      -3.018  51.764 -24.536  1.00  0.00    -0.004 C 
HETATM    8  C8  UNL     1      -3.993  52.368 -23.513  1.00  0.00     0.010 C 
HETATM    9  C9  UNL     1      -5.051  51.355 -23.096  1.00  0.00     0.035 C 
HETATM   10  C10 UNL     1      -4.433  50.076 -22.580  1.00  0.00    -0.069 C 
HETATM   11  C11 UNL     1      -4.819  49.583 -21.390  1.00  0.00     0.030 C 
HETATM   12  C12 UNL     1      -4.337  48.271 -20.890  1.00  0.00     0.032 C 
HETATM   13  N1  UNL     1      -4.692  47.910 -19.691  1.00  0.00    -0.271 N 
ATOM     14  H1  UNL     1      -5.237  48.493 -19.056  1.00  0.00     0.194 HD
HETATM   15  C25 UNL     1      -3.515  47.423 -21.837  1.00  0.00     0.060 C 
HETATM   16  C26 UNL     1      -2.616  48.313 -22.686  1.00  0.00     0.020 C 
HETATM   17  C27 UNL     1      -3.387  49.407 -23.482  1.00  0.00    -0.016 C 
HETATM   18  C28 UNL     1      -4.128  48.744 -24.667  1.00  0.00     0.020 C 
HETATM   19  C29 UNL     1      -2.345  50.490 -23.964  1.00  0.00     0.002 C 
HETATM   20  C30 UNL     1      -1.251  49.945 -24.910  1.00  0.00     0.007 C 
HETATM   21  C31 UNL     1      -1.165  50.681 -26.243  1.00  0.00     0.014 C 
HETATM   22  C32 UNL     1      -1.051  52.232 -26.159  1.00  0.00     0.003 C 
HETATM   23  C33 UNL     1      -1.507  52.777 -27.535  1.00  0.00     0.020 C 
ENDROOT
BRANCH   3  24
HETATM   24  O1  UNL     1       0.509  54.128 -26.251  1.00  0.00    -0.377 OA
HETATM   25  H2  UNL     1       1.442  54.372 -26.127  1.00  0.00     0.211 HD
ENDBRANCH   3  24
BRANCH  13  26
HETATM   26  O2  UNL     1      -4.235  46.622 -19.378  1.00  0.00    -0.271 OA
BRANCH  26  27
HETATM   27  C13 UNL     1      -2.955  46.723 -18.761  1.00  0.00     0.303 C 
BRANCH  27  28
HETATM   28  C14 UNL     1      -3.096  47.207 -17.324  1.00  0.00     0.244 C 
HETATM   29  O3  UNL     1      -4.155  47.636 -16.874  1.00  0.00    -0.271 OA
HETATM   30  N2  UNL     1      -1.958  47.053 -16.561  1.00  0.00    -0.354 N 
HETATM   31  H16 UNL     1      -1.131  46.673 -17.021  1.00  0.00     0.162 HD
BRANCH  30  32
HETATM   32  C15 UNL     1      -1.875  47.374 -15.138  1.00  0.00     0.098 C 
BRANCH  32  33
HETATM   33  C16 UNL     1      -1.563  48.870 -14.968  1.00  0.00     0.135 C 
BRANCH  33  34
HETATM   34  C17 UNL     1      -0.221  49.279 -15.507  1.00  0.00     0.141 C 
HETATM   35  O4  UNL     1       0.439  50.233 -15.131  1.00  0.00    -0.650 OA
BRANCH  34  36
HETATM   36  O5  UNL     1       0.215  48.502 -16.518  1.00  0.00    -0.776 OA
HETATM   37  H20 UNL     1       1.074  48.910 -16.768  1.00  0.00     0.167 HD
ENDBRANCH  34  36
ENDBRANCH  33  34
ENDBRANCH  32  33
BRANCH  32  38
HETATM   38  C18 UNL     1      -0.884  46.427 -14.405  1.00  0.00     0.014 C 
HETATM   39  C19 UNL     1      -0.835  46.703 -12.889  1.00  0.00     0.033 C 
HETATM   40  C20 UNL     1      -0.493  45.464 -12.066  1.00  0.00     0.169 C 
HETATM   41  O6  UNL     1       0.411  44.630 -12.777  1.00  0.00    -0.381 OA
HETATM   42  C21 UNL     1      -0.156  44.027 -13.951  1.00  0.00     0.054 C 
HETATM   43  C22 UNL     1       1.022  43.777 -14.902  1.00  0.00     0.045 C 
HETATM   44  C23 UNL     1      -0.778  42.678 -13.570  1.00  0.00     0.045 C 
HETATM   45  C24 UNL     1      -1.207  44.939 -14.627  1.00  0.00     0.044 C 
ENDBRANCH  32  38
ENDBRANCH  30  32
ENDBRANCH  27  28
ENDBRANCH  26  27
ENDBRANCH  13  26
TORSDOF 9
ENDMDL
MODEL 7
REMARK minimizedAffinity -8.08936501
REMARK CNNscore 0.213199779
REMARK CNNaffinity 6.22889709
REMARK  9 active torsions:
REMARK  status: ('A' for Active; 'I' for Inactive)
REMARK    1  A    between atoms: C3_3  and  O1_4 
REMARK    2  A    between atoms: N1_14  and  O2_16 
REMARK    3  A    between atoms: O2_16  and  C13_17 
REMARK    4  A    between atoms: C13_17  and  C14_18 
REMARK       I    between atoms: C14_18  and  N2_20 
REMARK    5  A    between atoms: N2_20  and  C15_21 
REMARK    6  A    between atoms: C15_21  and  C16_22 
REMARK    7  A    between atoms: C15_21  and  C18_26 
REMARK    8  A    between atoms: C16_22  and  C17_23 
REMARK    9  A    between atoms: C17_23  and  O5_25 
ROOT
HETATM    1  C1  UNL     1      -0.479  51.545 -23.948  1.00  0.00     0.015 C 
HETATM    2  C2  UNL     1      -1.396  51.112 -23.306  1.00  0.00    -0.078 C 
HETATM    3  C3  UNL     1      -2.540  50.599 -22.537  1.00  0.00     0.128 C 
HETATM    4  C4  UNL     1      -3.141  51.669 -21.632  1.00  0.00     0.052 C 
HETATM    5  C5  UNL     1      -4.018  50.878 -20.673  1.00  0.00     0.010 C 
HETATM    6  C6  UNL     1      -3.341  49.505 -20.482  1.00  0.00     0.002 C 
HETATM    7  C7  UNL     1      -2.803  49.246 -19.055  1.00  0.00    -0.004 C 
HETATM    8  C8  UNL     1      -3.929  49.231 -18.008  1.00  0.00     0.010 C 
HETATM    9  C9  UNL     1      -3.389  48.901 -16.623  1.00  0.00     0.035 C 
HETATM   10  C10 UNL     1      -2.272  49.835 -16.218  1.00  0.00    -0.069 C 
HETATM   11  C11 UNL     1      -2.329  50.466 -15.032  1.00  0.00     0.030 C 
HETATM   12  C12 UNL     1      -1.205  51.297 -14.530  1.00  0.00     0.032 C 
HETATM   13  N1  UNL     1      -1.379  51.942 -13.412  1.00  0.00    -0.271 N 
ATOM     14  H1  UNL     1      -2.254  51.953 -12.888  1.00  0.00     0.194 HD
HETATM   15  C25 UNL     1       0.082  51.285 -15.327  1.00  0.00     0.060 C 
HETATM   16  C26 UNL     1      -0.229  51.211 -16.816  1.00  0.00     0.020 C 
HETATM   17  C27 UNL     1      -1.114  49.991 -17.213  1.00  0.00    -0.016 C 
HETATM   18  C28 UNL     1      -0.257  48.705 -17.159  1.00  0.00     0.020 C 
HETATM   19  C29 UNL     1      -1.698  50.256 -18.655  1.00  0.00     0.002 C 
HETATM   20  C30 UNL     1      -0.627  50.401 -19.760  1.00  0.00     0.007 C 
HETATM   21  C31 UNL     1      -0.806  49.434 -20.925  1.00  0.00     0.014 C 
HETATM   22  C32 UNL     1      -2.221  49.407 -21.576  1.00  0.00     0.003 C 
HETATM   23  C33 UNL     1      -2.332  48.053 -22.319  1.00  0.00     0.020 C 
ENDROOT
BRANCH   3  24
HETATM   24  O1  UNL     1      -3.566  50.222 -23.463  1.00  0.00    -0.377 OA
HETATM   25  H2  UNL     1      -3.626  50.932 -24.124  1.00  0.00     0.211 HD
ENDBRANCH   3  24
BRANCH  13  26
HETATM   26  O2  UNL     1      -0.217  52.620 -13.017  1.00  0.00    -0.271 OA
BRANCH  26  27
HETATM   27  C13 UNL     1       0.673  51.693 -12.404  1.00  0.00     0.303 C 
BRANCH  27  28
HETATM   28  C14 UNL     1       0.914  52.073 -10.948  1.00  0.00     0.244 C 
HETATM   29  O3  UNL     1       1.660  51.430 -10.214  1.00  0.00    -0.271 OA
HETATM   30  N2  UNL     1       0.283  53.234 -10.555  1.00  0.00    -0.354 N 
HETATM   31  H16 UNL     1      -0.305  53.705 -11.242  1.00  0.00     0.162 HD
BRANCH  30  32
HETATM   32  C15 UNL     1       0.426  53.837  -9.232  1.00  0.00     0.098 C 
BRANCH  32  33
HETATM   33  C16 UNL     1      -0.964  54.187  -8.676  1.00  0.00     0.135 C 
BRANCH  33  34
HETATM   34  C17 UNL     1      -1.369  53.368  -7.484  1.00  0.00     0.141 C 
HETATM   35  O4  UNL     1      -1.704  52.195  -7.503  1.00  0.00    -0.650 OA
BRANCH  34  36
HETATM   36  O5  UNL     1      -1.379  54.062  -6.329  1.00  0.00    -0.776 OA
HETATM   37  H20 UNL     1      -1.684  53.403  -5.667  1.00  0.00     0.167 HD
ENDBRANCH  34  36
ENDBRANCH  33  34
ENDBRANCH  32  33
BRANCH  32  38
HETATM   38  C18 UNL     1       1.421  55.030  -9.263  1.00  0.00     0.014 C 
HETATM   39  C19 UNL     1       1.566  55.698  -7.880  1.00  0.00     0.033 C 
HETATM   40  C20 UNL     1       2.937  56.333  -7.662  1.00  0.00     0.169 C 
HETATM   41  O6  UNL     1       3.440  56.858  -8.883  1.00  0.00    -0.381 OA
HETATM   42  C21 UNL     1       3.759  55.853  -9.859  1.00  0.00     0.054 C 
HETATM   43  C22 UNL     1       3.609  56.537 -11.225  1.00  0.00     0.045 C 
HETATM   44  C23 UNL     1       5.221  55.426  -9.679  1.00  0.00     0.045 C 
HETATM   45  C24 UNL     1       2.819  54.628  -9.766  1.00  0.00     0.044 C 
ENDBRANCH  32  38
ENDBRANCH  30  32
ENDBRANCH  27  28
ENDBRANCH  26  27
ENDBRANCH  13  26
TORSDOF 9
ENDMDL
MODEL 8
REMARK minimizedAffinity -8.54186344
REMARK CNNscore 0.206809789
REMARK CNNaffinity 6.57344389
REMARK  9 active torsions:
REMARK  status: ('A' for Active; 'I' for Inactive)
REMARK    1  A    between atoms: C3_3  and  O1_4 
REMARK    2  A    between atoms: N1_14  and  O2_16 
REMARK    3  A    between atoms: O2_16  and  C13_17 
REMARK    4  A    between atoms: C13_17  and  C14_18 
REMARK       I    between atoms: C14_18  and  N2_20 
REMARK    5  A    between atoms: N2_20  and  C15_21 
REMARK    6  A    between atoms: C15_21  and  C16_22 
REMARK    7  A    between atoms: C15_21  and  C18_26 
REMARK    8  A    between atoms: C16_22  and  C17_23 
REMARK    9  A    between atoms: C17_23  and  O5_25 
ROOT
HETATM    1  C1  UNL     1      -3.449  47.158 -20.923  1.00  0.00     0.015 C 
HETATM    2  C2  UNL     1      -2.817  48.178 -20.940  1.00  0.00    -0.078 C 
HETATM    3  C3  UNL     1      -2.032  49.422 -20.991  1.00  0.00     0.128 C 
HETATM    4  C4  UNL     1      -0.533  49.150 -20.943  1.00  0.00     0.052 C 
HETATM    5  C5  UNL     1       0.070  50.509 -20.622  1.00  0.00     0.010 C 
HETATM    6  C6  UNL     1      -0.959  51.255 -19.746  1.00  0.00     0.002 C 
HETATM    7  C7  UNL     1      -0.496  51.517 -18.293  1.00  0.00    -0.004 C 
HETATM    8  C8  UNL     1       0.740  52.429 -18.237  1.00  0.00     0.010 C 
HETATM    9  C9  UNL     1       1.135  52.735 -16.799  1.00  0.00     0.035 C 
HETATM   10  C10 UNL     1       1.343  51.474 -15.992  1.00  0.00    -0.069 C 
HETATM   11  C11 UNL     1       2.480  51.311 -15.293  1.00  0.00     0.030 C 
HETATM   12  C12 UNL     1       2.686  50.151 -14.389  1.00  0.00     0.032 C 
HETATM   13  N1  UNL     1       3.850  50.026 -13.819  1.00  0.00    -0.271 N 
ATOM     14  H1  UNL     1       4.642  50.644 -13.993  1.00  0.00     0.194 HD
HETATM   15  C25 UNL     1       1.507  49.233 -14.152  1.00  0.00     0.060 C 
HETATM   16  C26 UNL     1       0.693  49.089 -15.432  1.00  0.00     0.020 C 
HETATM   17  C27 UNL     1       0.204  50.446 -16.021  1.00  0.00    -0.016 C 
HETATM   18  C28 UNL     1      -0.954  50.987 -15.150  1.00  0.00     0.020 C 
HETATM   19  C29 UNL     1      -0.240  50.201 -17.515  1.00  0.00     0.002 C 
HETATM   20  C30 UNL     1      -1.409  49.203 -17.678  1.00  0.00     0.007 C 
HETATM   21  C31 UNL     1      -2.604  49.769 -18.438  1.00  0.00     0.014 C 
HETATM   22  C32 UNL     1      -2.287  50.422 -19.816  1.00  0.00     0.003 C 
HETATM   23  C33 UNL     1      -3.476  51.361 -20.136  1.00  0.00     0.020 C 
ENDROOT
BRANCH   3  24
HETATM   24  O1  UNL     1      -2.293  50.062 -22.246  1.00  0.00    -0.377 OA
HETATM   25  H2  UNL     1      -2.266  49.371 -22.928  1.00  0.00     0.211 HD
ENDBRANCH   3  24
BRANCH  13  26
HETATM   26  O2  UNL     1       3.881  48.938 -12.934  1.00  0.00    -0.271 OA
BRANCH  26  27
HETATM   27  C13 UNL     1       3.617  49.407 -11.615  1.00  0.00     0.303 C 
BRANCH  27  28
HETATM   28  C14 UNL     1       4.902  49.900 -10.961  1.00  0.00     0.244 C 
HETATM   29  O3  UNL     1       6.013  49.648 -11.419  1.00  0.00    -0.271 OA
HETATM   30  N2  UNL     1       4.702  50.707  -9.862  1.00  0.00    -0.354 N 
HETATM   31  H16 UNL     1       3.740  50.870  -9.566  1.00  0.00     0.162 HD
BRANCH  30  32
HETATM   32  C15 UNL     1       5.777  51.359  -9.117  1.00  0.00     0.098 C 
BRANCH  32  33
HETATM   33  C16 UNL     1       6.065  50.565  -7.833  1.00  0.00     0.135 C 
BRANCH  33  34
HETATM   34  C17 UNL     1       7.463  50.021  -7.750  1.00  0.00     0.141 C 
HETATM   35  O4  UNL     1       7.907  49.321  -6.855  1.00  0.00    -0.650 OA
BRANCH  34  36
HETATM   36  O5  UNL     1       8.256  50.414  -8.767  1.00  0.00    -0.776 OA
HETATM   37  H20 UNL     1       9.123  50.003  -8.554  1.00  0.00     0.167 HD
ENDBRANCH  34  36
ENDBRANCH  33  34
ENDBRANCH  32  33
BRANCH  32  38
HETATM   38  C18 UNL     1       5.467  52.863  -8.882  1.00  0.00     0.014 C 
HETATM   39  C19 UNL     1       6.742  53.730  -8.923  1.00  0.00     0.033 C 
HETATM   40  C20 UNL     1       6.481  55.157  -9.399  1.00  0.00     0.169 C 
HETATM   41  O6  UNL     1       5.202  55.598  -8.964  1.00  0.00    -0.381 OA
HETATM   42  C21 UNL     1       4.107  54.903  -9.581  1.00  0.00     0.054 C 
HETATM   43  C22 UNL     1       2.948  54.977  -8.578  1.00  0.00     0.045 C 
HETATM   44  C23 UNL     1       3.701  55.644 -10.861  1.00  0.00     0.045 C 
HETATM   45  C24 UNL     1       4.452  53.428  -9.893  1.00  0.00     0.044 C 
ENDBRANCH  32  38
ENDBRANCH  30  32
ENDBRANCH  27  28
ENDBRANCH  26  27
ENDBRANCH  13  26
TORSDOF 9
ENDMDL
MODEL 9
REMARK minimizedAffinity -7.82213879
REMARK CNNscore 0.201866418
REMARK CNNaffinity 6.28891516
REMARK  9 active torsions:
REMARK  status: ('A' for Active; 'I' for Inactive)
REMARK    1  A    between atoms: C3_3  and  O1_4 
REMARK    2  A    between atoms: N1_14  and  O2_16 
REMARK    3  A    between atoms: O2_16  and  C13_17 
REMARK    4  A    between atoms: C13_17  and  C14_18 
REMARK       I    between atoms: C14_18  and  N2_20 
REMARK    5  A    between atoms: N2_20  and  C15_21 
REMARK    6  A    between atoms: C15_21  and  C16_22 
REMARK    7  A    between atoms: C15_21  and  C18_26 
REMARK    8  A    between atoms: C16_22  and  C17_23 
REMARK    9  A    between atoms: C17_23  and  O5_25 
ROOT
HETATM    1  C1  UNL     1      -1.597  52.709 -25.192  1.00  0.00     0.015 C 
HETATM    2  C2  UNL     1      -2.459  52.107 -24.612  1.00  0.00    -0.078 C 
HETATM    3  C3  UNL     1      -3.537  51.389 -23.914  1.00  0.00     0.128 C 
HETATM    4  C4  UNL     1      -4.149  52.228 -22.798  1.00  0.00     0.052 C 
HETATM    5  C5  UNL     1      -4.937  51.217 -21.978  1.00  0.00     0.010 C 
HETATM    6  C6  UNL     1      -4.180  49.876 -22.081  1.00  0.00     0.002 C 
HETATM    7  C7  UNL     1      -3.562  49.382 -20.752  1.00  0.00    -0.004 C 
HETATM    8  C8  UNL     1      -4.634  49.101 -19.687  1.00  0.00     0.010 C 
HETATM    9  C9  UNL     1      -4.012  48.546 -18.412  1.00  0.00     0.035 C 
HETATM   10  C10 UNL     1      -2.927  49.451 -17.876  1.00  0.00    -0.069 C 
HETATM   11  C11 UNL     1      -2.960  49.839 -16.589  1.00  0.00     0.030 C 
HETATM   12  C12 UNL     1      -1.859  50.626 -15.978  1.00  0.00     0.032 C 
HETATM   13  N1  UNL     1      -2.012  51.034 -14.751  1.00  0.00    -0.271 N 
ATOM     14  H1  UNL     1      -2.861  50.892 -14.203  1.00  0.00     0.194 HD
HETATM   15  C25 UNL     1      -0.612  50.844 -16.809  1.00  0.00     0.060 C 
HETATM   16  C26 UNL     1      -0.990  51.036 -18.273  1.00  0.00     0.020 C 
HETATM   17  C27 UNL     1      -1.827  49.864 -18.864  1.00  0.00    -0.016 C 
HETATM   18  C28 UNL     1      -0.903  48.645 -19.091  1.00  0.00     0.020 C 
HETATM   19  C29 UNL     1      -2.493  50.363 -20.205  1.00  0.00     0.002 C 
HETATM   20  C30 UNL     1      -1.485  50.781 -21.300  1.00  0.00     0.007 C 
HETATM   21  C31 UNL     1      -1.669  50.044 -22.622  1.00  0.00     0.014 C 
HETATM   22  C32 UNL     1      -3.110  50.057 -23.214  1.00  0.00     0.003 C 
HETATM   23  C33 UNL     1      -3.185  48.865 -24.200  1.00  0.00     0.020 C 
ENDROOT
BRANCH   3  24
HETATM   24  O1  UNL     1      -4.585  51.134 -24.857  1.00  0.00    -0.377 OA
HETATM   25  H2  UNL     1      -4.714  51.952 -25.366  1.00  0.00     0.211 HD
ENDBRANCH   3  24
BRANCH  13  26
HETATM   26  O2  UNL     1      -0.870  51.694 -14.276  1.00  0.00    -0.271 OA
BRANCH  26  27
HETATM   27  C13 UNL     1      -1.166  52.278 -13.011  1.00  0.00     0.303 C 
BRANCH  27  28
HETATM   28  C14 UNL     1      -0.436  51.534 -11.899  1.00  0.00     0.244 C 
HETATM   29  O3  UNL     1      -0.241  50.322 -11.935  1.00  0.00    -0.271 OA
HETATM   30  N2  UNL     1       0.046  52.347 -10.897  1.00  0.00    -0.354 N 
HETATM   31  H16 UNL     1      -0.154  53.345 -10.963  1.00  0.00     0.162 HD
BRANCH  30  32
HETATM   32  C15 UNL     1       0.842  51.873  -9.767  1.00  0.00     0.098 C 
BRANCH  32  33
HETATM   33  C16 UNL     1      -0.093  51.453  -8.622  1.00  0.00     0.135 C 
BRANCH  33  34
HETATM   34  C17 UNL     1      -1.398  52.198  -8.595  1.00  0.00     0.141 C 
HETATM   35  O4  UNL     1      -2.509  51.698  -8.662  1.00  0.00    -0.650 OA
BRANCH  34  36
HETATM   36  O5  UNL     1      -1.256  53.537  -8.528  1.00  0.00    -0.776 OA
HETATM   37  H20 UNL     1      -2.180  53.868  -8.545  1.00  0.00     0.167 HD
ENDBRANCH  34  36
ENDBRANCH  33  34
ENDBRANCH  32  33
BRANCH  32  38
HETATM   38  C18 UNL     1       1.920  52.916  -9.361  1.00  0.00     0.014 C 
HETATM   39  C19 UNL     1       3.350  52.351  -9.490  1.00  0.00     0.033 C 
HETATM   40  C20 UNL     1       4.392  53.422  -9.800  1.00  0.00     0.169 C 
HETATM   41  O6  UNL     1       4.048  54.646  -9.167  1.00  0.00    -0.381 OA
HETATM   42  C21 UNL     1       2.862  55.261  -9.696  1.00  0.00     0.054 C 
HETATM   43  C22 UNL     1       2.279  56.097  -8.548  1.00  0.00     0.045 C 
HETATM   44  C23 UNL     1       3.255  56.202 -10.841  1.00  0.00     0.045 C 
HETATM   45  C24 UNL     1       1.828  54.217 -10.179  1.00  0.00     0.044 C 
ENDBRANCH  32  38
ENDBRANCH  30  32
ENDBRANCH  27  28
ENDBRANCH  26  27
ENDBRANCH  13  26
TORSDOF 9
ENDMDL
