MODEL 1
REMARK minimizedAffinity -9.04933357
REMARK CNNscore 0.631442666
REMARK CNNaffinity 7.71694422
REMARK  13 active torsions:
REMARK  status: ('A' for Active; 'I' for Inactive)
REMARK    1  A    between atoms: O1_2  and  C2_3 
REMARK    2  A    between atoms: C2_3  and  C3_4 
REMARK    3  A    between atoms: C3_4  and  C4_5 
REMARK    4  A    between atoms: C4_5  and  O2_6 
REMARK    5  A    between atoms: O2_6  and  C5_7 
REMARK    6  A    between atoms: C20_23  and  C21_24 
REMARK    7  A    between atoms: C21_24  and  O4_26 
REMARK    8  A    between atoms: C21_24  and  C23_27 
REMARK    9  A    between atoms: C23_27  and  O5_28 
REMARK   10  A    between atoms: C23_27  and  C24_29 
REMARK   11  A    between atoms: C28_34  and  C29_35 
REMARK       I    between atoms: C29_35  and  N1_37 
REMARK   12  A    between atoms: C32_41  and  O8_42 
REMARK   13  A    between atoms: C39_49  and  O9_50 
ROOT
HETATM    1  C5  UNL     1     -10.315   7.257  13.378  1.00  0.00     0.122 C 
HETATM    2  C6  UNL     1     -10.052   7.603  14.850  1.00  0.00     0.033 C 
HETATM    3  C7  UNL     1      -8.557   7.719  15.128  1.00  0.00     0.013 C 
HETATM    4  C8  UNL     1      -7.792   6.381  14.883  1.00  0.00    -0.026 C 
HETATM    5  C9  UNL     1      -7.647   5.651  16.240  1.00  0.00     0.016 C 
HETATM    6  C10 UNL     1      -8.623   5.455  13.940  1.00  0.00     0.071 C 
HETATM    7  C11 UNL     1      -9.292   6.257  12.815  1.00  0.00     0.045 C 
HETATM    8  C12 UNL     1      -7.846   4.284  13.345  1.00  0.00     0.161 C 
HETATM    9  O3  UNL     1      -8.435   3.304  12.880  1.00  0.00    -0.292 OA
HETATM   10  C13 UNL     1      -6.359   4.350  13.249  1.00  0.00    -0.006 C 
HETATM   11  C14 UNL     1      -5.727   5.457  13.687  1.00  0.00    -0.030 C 
HETATM   12  C15 UNL     1      -6.396   6.700  14.243  1.00  0.00     0.027 C 
HETATM   13  C16 UNL     1      -5.466   7.571  15.144  1.00  0.00     0.011 C 
HETATM   14  C17 UNL     1      -4.006   7.713  14.645  1.00  0.00     0.014 C 
HETATM   15  C18 UNL     1      -3.379   6.325  14.417  1.00  0.00    -0.002 C 
HETATM   16  C19 UNL     1      -3.298   5.584  15.782  1.00  0.00     0.019 C 
HETATM   17  C20 UNL     1      -2.027   6.237  13.611  1.00  0.00     0.034 C 
HETATM   18  C35 UNL     1      -2.066   4.796  12.979  1.00  0.00     0.016 C 
HETATM   19  C36 UNL     1      -3.515   4.308  13.169  1.00  0.00     0.026 C 
HETATM   20  C37 UNL     1      -4.185   3.465  12.105  1.00  0.00     0.013 C 
HETATM   21  C38 UNL     1      -5.655   3.201  12.528  1.00  0.00     0.043 C 
HETATM   22  C39 UNL     1      -4.279   5.607  13.379  1.00  0.00     0.094 C 
ENDROOT
BRANCH  17  23
HETATM   23  C21 UNL     1      -0.652   6.745  14.162  1.00  0.00     0.087 C 
HETATM   24  C22 UNL     1       0.493   6.678  13.153  1.00  0.00     0.049 C 
BRANCH  23  25
HETATM   25  O4  UNL     1      -0.318   5.839  15.230  1.00  0.00    -0.387 OA
HETATM   26  H33 UNL     1       0.117   6.357  15.934  1.00  0.00     0.210 HD
ENDBRANCH  23  25
BRANCH  23  27
HETATM   27  C23 UNL     1      -0.867   8.225  14.699  1.00  0.00     0.181 C 
BRANCH  27  28
HETATM   28  O5  UNL     1      -0.723   9.191  13.656  1.00  0.00    -0.390 OA
HETATM   29  H35 UNL     1      -1.162  10.009  13.953  1.00  0.00     0.210 HD
ENDBRANCH  27  28
BRANCH  27  30
HETATM   30  C24 UNL     1      -0.171   8.693  16.003  1.00  0.00     0.158 C 
HETATM   31  O6  UNL     1       1.167   9.204  15.745  1.00  0.00    -0.373 OA
HETATM   32  C25 UNL     1       1.546   9.825  16.981  1.00  0.00     0.185 C 
HETATM   33  C26 UNL     1       0.316  10.629  17.338  1.00  0.00     0.028 C 
HETATM   34  C32 UNL     1       2.773  10.738  16.918  1.00  0.00     0.384 C 
HETATM   35  C27 UNL     1       0.509  11.208  18.731  1.00  0.00     0.053 C 
HETATM   36  C33 UNL     1      -0.799   9.607  17.097  1.00  0.00     0.020 C 
HETATM   37  C28 UNL     1       1.811  12.050  18.774  1.00  0.00     0.309 C 
HETATM   38  N2  UNL     1       3.008  11.387  18.197  1.00  0.00     0.128 N 
HETATM   39  H46 UNL     1       3.347  10.690  18.862  1.00  0.00     0.320 HD
HETATM   40  C34 UNL     1      -2.146  10.272  16.863  1.00  0.00     0.013 C 
BRANCH  37  41
HETATM   41  C29 UNL     1       2.117  12.387  20.243  1.00  0.00     0.233 C 
HETATM   42  O7  UNL     1       1.854  11.610  21.166  1.00  0.00    -0.277 OA
HETATM   43  N1  UNL     1       2.692  13.649  20.404  1.00  0.00    -0.249 NA
HETATM   44  C30 UNL     1       3.637  13.850  21.476  1.00  0.00     0.113 A 
HETATM   45  C31 UNL     1       2.297  14.484  21.507  1.00  0.00     0.113 A 
ENDBRANCH  37  41
BRANCH  34  46
HETATM   46  O8  UNL     1       3.912   9.956  16.606  1.00  0.00    -0.366 OA
HETATM   47  H48 UNL     1       3.707   9.520  15.766  1.00  0.00     0.212 HD
ENDBRANCH  34  46
ENDBRANCH  27  30
ENDBRANCH  23  27
ENDBRANCH  17  23
BRANCH  22  48
HETATM   48  O9  UNL     1      -4.292   6.360  12.138  1.00  0.00    -0.384 OA
HETATM   49  H60 UNL     1      -4.942   5.954  11.542  1.00  0.00     0.211 HD
ENDBRANCH  22  48
BRANCH   1  50
HETATM   50  O2  UNL     1     -11.628   6.692  13.294  1.00  0.00    -0.386 OA
BRANCH  50  51
HETATM   51  C4  UNL     1     -12.331   6.709  14.538  1.00  0.00     0.170 C 
BRANCH  51  52
HETATM   52  C3  UNL     1     -13.757   7.193  14.312  1.00  0.00     0.052 C 
BRANCH  52  53
HETATM   53  C2  UNL     1     -13.835   8.177  13.151  1.00  0.00     0.169 C 
BRANCH  53  54
HETATM   54  O1  UNL     1     -14.671   7.621  12.136  1.00  0.00    -0.396 OA
HETATM   55  C1  UNL     1     -15.782   6.935  12.705  1.00  0.00     0.201 C 
ENDBRANCH  53  54
ENDBRANCH  52  53
ENDBRANCH  51  52
ENDBRANCH  50  51
ENDBRANCH   1  50
TORSDOF 13
ENDMDL
MODEL 2
REMARK minimizedAffinity -8.03589916
REMARK CNNscore 0.527326941
REMARK CNNaffinity 6.888134
REMARK  13 active torsions:
REMARK  status: ('A' for Active; 'I' for Inactive)
REMARK    1  A    between atoms: O1_2  and  C2_3 
REMARK    2  A    between atoms: C2_3  and  C3_4 
REMARK    3  A    between atoms: C3_4  and  C4_5 
REMARK    4  A    between atoms: C4_5  and  O2_6 
REMARK    5  A    between atoms: O2_6  and  C5_7 
REMARK    6  A    between atoms: C20_23  and  C21_24 
REMARK    7  A    between atoms: C21_24  and  O4_26 
REMARK    8  A    between atoms: C21_24  and  C23_27 
REMARK    9  A    between atoms: C23_27  and  O5_28 
REMARK   10  A    between atoms: C23_27  and  C24_29 
REMARK   11  A    between atoms: C28_34  and  C29_35 
REMARK       I    between atoms: C29_35  and  N1_37 
REMARK   12  A    between atoms: C32_41  and  O8_42 
REMARK   13  A    between atoms: C39_49  and  O9_50 
ROOT
HETATM    1  C5  UNL     1       5.611  11.852  22.601  1.00  0.00     0.122 C 
HETATM    2  C6  UNL     1       4.498  12.838  22.982  1.00  0.00     0.033 C 
HETATM    3  C7  UNL     1       3.219  12.550  22.204  1.00  0.00     0.013 C 
HETATM    4  C8  UNL     1       3.399  12.716  20.663  1.00  0.00    -0.026 C 
HETATM    5  C9  UNL     1       2.920  14.135  20.270  1.00  0.00     0.016 C 
HETATM    6  C10 UNL     1       4.911  12.612  20.287  1.00  0.00     0.071 C 
HETATM    7  C11 UNL     1       5.615  11.517  21.101  1.00  0.00     0.045 C 
HETATM    8  C12 UNL     1       5.188  12.407  18.800  1.00  0.00     0.161 C 
HETATM    9  O3  UNL     1       6.301  12.650  18.324  1.00  0.00    -0.292 OA
HETATM   10  C13 UNL     1       4.131  11.832  17.919  1.00  0.00    -0.006 C 
HETATM   11  C14 UNL     1       2.944  11.495  18.460  1.00  0.00    -0.030 C 
HETATM   12  C15 UNL     1       2.576  11.601  19.929  1.00  0.00     0.027 C 
HETATM   13  C16 UNL     1       1.039  11.665  20.194  1.00  0.00     0.011 C 
HETATM   14  C17 UNL     1       0.176  10.728  19.311  1.00  0.00     0.014 C 
HETATM   15  C18 UNL     1       0.470  10.974  17.819  1.00  0.00    -0.002 C 
HETATM   16  C19 UNL     1       0.039  12.424  17.459  1.00  0.00     0.019 C 
HETATM   17  C20 UNL     1      -0.050   9.920  16.769  1.00  0.00     0.034 C 
HETATM   18  C35 UNL     1       0.960  10.062  15.570  1.00  0.00     0.016 C 
HETATM   19  C36 UNL     1       2.132  10.895  16.124  1.00  0.00     0.026 C 
HETATM   20  C37 UNL     1       3.553  10.602  15.689  1.00  0.00     0.013 C 
HETATM   21  C38 UNL     1       4.517  11.535  16.471  1.00  0.00     0.043 C 
HETATM   22  C39 UNL     1       1.988  10.718  17.627  1.00  0.00     0.094 C 
ENDROOT
BRANCH  17  23
HETATM   23  C21 UNL     1      -1.562   9.718  16.417  1.00  0.00     0.087 C 
HETATM   24  C22 UNL     1      -2.523  10.549  17.266  1.00  0.00     0.049 C 
BRANCH  23  25
HETATM   25  O4  UNL     1      -1.836   8.336  16.712  1.00  0.00    -0.387 OA
HETATM   26  H33 UNL     1      -2.459   8.006  16.038  1.00  0.00     0.210 HD
ENDBRANCH  23  25
BRANCH  23  27
HETATM   27  C23 UNL     1      -1.739  10.030  14.868  1.00  0.00     0.181 C 
BRANCH  27  28
HETATM   28  O5  UNL     1      -2.658  11.101  14.647  1.00  0.00    -0.390 OA
HETATM   29  H35 UNL     1      -2.490  11.449  13.751  1.00  0.00     0.210 HD
ENDBRANCH  27  28
BRANCH  27  30
HETATM   30  C24 UNL     1      -1.965   8.874  13.859  1.00  0.00     0.158 C 
HETATM   31  O6  UNL     1      -0.927   7.860  13.960  1.00  0.00    -0.373 OA
HETATM   32  C25 UNL     1      -1.427   6.770  13.173  1.00  0.00     0.185 C 
HETATM   33  C26 UNL     1      -2.861   6.656  13.640  1.00  0.00     0.028 C 
HETATM   34  C32 UNL     1      -0.705   5.433  13.353  1.00  0.00     0.384 C 
HETATM   35  C27 UNL     1      -3.574   5.645  12.756  1.00  0.00     0.053 C 
HETATM   36  C33 UNL     1      -3.308   8.121  13.618  1.00  0.00     0.020 C 
HETATM   37  C28 UNL     1      -2.820   4.290  12.793  1.00  0.00     0.309 C 
HETATM   38  N2  UNL     1      -1.352   4.381  12.586  1.00  0.00     0.128 N 
HETATM   39  H46 UNL     1      -1.172   4.541  11.594  1.00  0.00     0.320 HD
HETATM   40  C34 UNL     1      -4.503   8.369  14.525  1.00  0.00     0.013 C 
BRANCH  37  41
HETATM   41  C29 UNL     1      -3.399   3.387  11.691  1.00  0.00     0.233 C 
HETATM   42  O7  UNL     1      -2.702   2.928  10.781  1.00  0.00    -0.277 OA
HETATM   43  N1  UNL     1      -4.772   3.176  11.826  1.00  0.00    -0.249 NA
HETATM   44  C30 UNL     1      -5.325   1.913  11.398  1.00  0.00     0.113 A 
HETATM   45  C31 UNL     1      -5.617   3.166  10.661  1.00  0.00     0.113 A 
ENDBRANCH  37  41
BRANCH  34  46
HETATM   46  O8  UNL     1       0.626   5.563  12.887  1.00  0.00    -0.366 OA
HETATM   47  H48 UNL     1       1.013   6.286  13.399  1.00  0.00     0.212 HD
ENDBRANCH  34  46
ENDBRANCH  27  30
ENDBRANCH  23  27
ENDBRANCH  17  23
BRANCH  22  48
HETATM   48  O9  UNL     1       2.299   9.344  17.979  1.00  0.00    -0.384 OA
HETATM   49  H60 UNL     1       3.265   9.235  17.955  1.00  0.00     0.211 HD
ENDBRANCH  22  48
BRANCH   1  50
HETATM   50  O2  UNL     1       6.861  12.449  22.960  1.00  0.00    -0.386 OA
BRANCH  50  51
HETATM   51  C4  UNL     1       6.795  13.872  23.078  1.00  0.00     0.170 C 
BRANCH  51  52
HETATM   52  C3  UNL     1       8.003  14.499  22.397  1.00  0.00     0.052 C 
BRANCH  52  53
HETATM   53  C2  UNL     1       7.706  14.851  20.945  1.00  0.00     0.169 C 
BRANCH  53  54
HETATM   54  O1  UNL     1       8.706  14.256  20.116  1.00  0.00    -0.396 OA
HETATM   55  C1  UNL     1       9.961  14.908  20.279  1.00  0.00     0.201 C 
ENDBRANCH  53  54
ENDBRANCH  52  53
ENDBRANCH  51  52
ENDBRANCH  50  51
ENDBRANCH   1  50
TORSDOF 13
ENDMDL
MODEL 3
REMARK minimizedAffinity -9.09333801
REMARK CNNscore 0.524896085
REMARK CNNaffinity 7.00194168
REMARK  13 active torsions:
REMARK  status: ('A' for Active; 'I' for Inactive)
REMARK    1  A    between atoms: O1_2  and  C2_3 
REMARK    2  A    between atoms: C2_3  and  C3_4 
REMARK    3  A    between atoms: C3_4  and  C4_5 
REMARK    4  A    between atoms: C4_5  and  O2_6 
REMARK    5  A    between atoms: O2_6  and  C5_7 
REMARK    6  A    between atoms: C20_23  and  C21_24 
REMARK    7  A    between atoms: C21_24  and  O4_26 
REMARK    8  A    between atoms: C21_24  and  C23_27 
REMARK    9  A    between atoms: C23_27  and  O5_28 
REMARK   10  A    between atoms: C23_27  and  C24_29 
REMARK   11  A    between atoms: C28_34  and  C29_35 
REMARK       I    between atoms: C29_35  and  N1_37 
REMARK   12  A    between atoms: C32_41  and  O8_42 
REMARK   13  A    between atoms: C39_49  and  O9_50 
ROOT
HETATM    1  C5  UNL     1     -10.354   7.353  13.466  1.00  0.00     0.122 C 
HETATM    2  C6  UNL     1     -10.226   7.370  14.996  1.00  0.00     0.033 C 
HETATM    3  C7  UNL     1      -8.769   7.508  15.423  1.00  0.00     0.013 C 
HETATM    4  C8  UNL     1      -7.887   6.309  14.956  1.00  0.00    -0.026 C 
HETATM    5  C9  UNL     1      -7.784   5.299  16.124  1.00  0.00     0.016 C 
HETATM    6  C10 UNL     1      -8.572   5.575  13.761  1.00  0.00     0.071 C 
HETATM    7  C11 UNL     1      -9.217   6.572  12.788  1.00  0.00     0.045 C 
HETATM    8  C12 UNL     1      -7.665   4.619  12.991  1.00  0.00     0.161 C 
HETATM    9  O3  UNL     1      -8.141   3.737  12.270  1.00  0.00    -0.292 OA
HETATM   10  C13 UNL     1      -6.185   4.793  13.045  1.00  0.00    -0.006 C 
HETATM   11  C14 UNL     1      -5.674   5.807  13.772  1.00  0.00    -0.030 C 
HETATM   12  C15 UNL     1      -6.477   6.848  14.529  1.00  0.00     0.027 C 
HETATM   13  C16 UNL     1      -5.686   7.545  15.680  1.00  0.00     0.011 C 
HETATM   14  C17 UNL     1      -4.208   7.883  15.356  1.00  0.00     0.014 C 
HETATM   15  C18 UNL     1      -3.460   6.623  14.881  1.00  0.00    -0.002 C 
HETATM   16  C19 UNL     1      -3.422   5.597  16.049  1.00  0.00     0.019 C 
HETATM   17  C20 UNL     1      -2.050   6.802  14.199  1.00  0.00     0.034 C 
HETATM   18  C35 UNL     1      -1.931   5.543  13.261  1.00  0.00     0.016 C 
HETATM   19  C36 UNL     1      -3.348   4.940  13.209  1.00  0.00     0.026 C 
HETATM   20  C37 UNL     1      -3.870   4.323  11.929  1.00  0.00     0.013 C 
HETATM   21  C38 UNL     1      -5.343   3.883  12.151  1.00  0.00     0.043 C 
HETATM   22  C39 UNL     1      -4.224   6.108  13.634  1.00  0.00     0.094 C 
ENDROOT
BRANCH  17  23
HETATM   23  C21 UNL     1      -0.763   7.251  14.968  1.00  0.00     0.087 C 
HETATM   24  C22 UNL     1       0.460   7.466  14.077  1.00  0.00     0.049 C 
BRANCH  23  25
HETATM   25  O4  UNL     1      -0.449   6.155  15.847  1.00  0.00    -0.387 OA
HETATM   26  H33 UNL     1      -0.109   6.532  16.681  1.00  0.00     0.210 HD
ENDBRANCH  23  25
BRANCH  23  27
HETATM   27  C23 UNL     1      -1.126   8.567  15.783  1.00  0.00     0.181 C 
BRANCH  27  28
HETATM   28  O5  UNL     1      -1.948   8.277  16.915  1.00  0.00    -0.390 OA
HETATM   29  H35 UNL     1      -1.875   9.031  17.529  1.00  0.00     0.210 HD
ENDBRANCH  27  28
BRANCH  27  30
HETATM   30  C24 UNL     1      -1.615   9.837  15.039  1.00  0.00     0.158 C 
HETATM   31  O6  UNL     1      -2.769  10.434  15.695  1.00  0.00    -0.373 OA
HETATM   32  C25 UNL     1      -2.914  11.708  15.053  1.00  0.00     0.185 C 
HETATM   33  C26 UNL     1      -1.497  12.236  15.043  1.00  0.00     0.028 C 
HETATM   34  C32 UNL     1      -3.844  12.703  15.750  1.00  0.00     0.384 C 
HETATM   35  C27 UNL     1      -1.469  13.518  14.225  1.00  0.00     0.053 C 
HETATM   36  C33 UNL     1      -0.717  11.013  14.551  1.00  0.00     0.020 C 
HETATM   37  C28 UNL     1      -2.485  14.534  14.805  1.00  0.00     0.309 C 
HETATM   38  N2  UNL     1      -3.841  13.987  15.070  1.00  0.00     0.128 N 
HETATM   39  H46 UNL     1      -4.332  13.889  14.181  1.00  0.00     0.320 HD
HETATM   40  C34 UNL     1       0.751  11.074  14.942  1.00  0.00     0.013 C 
BRANCH  37  41
HETATM   41  C29 UNL     1      -2.630  15.695  13.806  1.00  0.00     0.233 C 
HETATM   42  O7  UNL     1      -2.206  15.624  12.649  1.00  0.00    -0.277 OA
HETATM   43  N1  UNL     1      -3.259  16.812  14.356  1.00  0.00    -0.249 NA
HETATM   44  C30 UNL     1      -4.076  17.639  13.502  1.00  0.00     0.113 A 
HETATM   45  C31 UNL     1      -2.786  18.134  14.040  1.00  0.00     0.113 A 
ENDBRANCH  37  41
BRANCH  34  46
HETATM   46  O8  UNL     1      -5.165  12.194  15.724  1.00  0.00    -0.366 OA
HETATM   47  H48 UNL     1      -5.121  11.331  16.159  1.00  0.00     0.212 HD
ENDBRANCH  34  46
ENDBRANCH  27  30
ENDBRANCH  23  27
ENDBRANCH  17  23
BRANCH  22  48
HETATM   48  O9  UNL     1      -4.205   7.123  12.596  1.00  0.00    -0.384 OA
HETATM   49  H60 UNL     1      -4.777   6.825  11.869  1.00  0.00     0.211 HD
ENDBRANCH  22  48
BRANCH   1  50
HETATM   50  O2  UNL     1     -11.609   6.745  13.143  1.00  0.00    -0.386 OA
BRANCH  50  51
HETATM   51  C4  UNL     1     -12.389   6.412  14.294  1.00  0.00     0.170 C 
BRANCH  51  52
HETATM   52  C3  UNL     1     -13.846   6.778  14.046  1.00  0.00     0.052 C 
BRANCH  52  53
HETATM   53  C2  UNL     1     -13.970   8.080  13.264  1.00  0.00     0.169 C 
BRANCH  53  54
HETATM   54  O1  UNL     1     -14.712   7.826  12.070  1.00  0.00    -0.396 OA
HETATM   55  C1  UNL     1     -15.748   6.877  12.302  1.00  0.00     0.201 C 
ENDBRANCH  53  54
ENDBRANCH  52  53
ENDBRANCH  51  52
ENDBRANCH  50  51
ENDBRANCH   1  50
TORSDOF 13
ENDMDL
MODEL 4
REMARK minimizedAffinity -9.61364651
REMARK CNNscore 0.477158517
REMARK CNNaffinity 7.30118036
REMARK  13 active torsions:
REMARK  status: ('A' for Active; 'I' for Inactive)
REMARK    1  A    between atoms: O1_2  and  C2_3 
REMARK    2  A    between atoms: C2_3  and  C3_4 
REMARK    3  A    between atoms: C3_4  and  C4_5 
REMARK    4  A    between atoms: C4_5  and  O2_6 
REMARK    5  A    between atoms: O2_6  and  C5_7 
REMARK    6  A    between atoms: C20_23  and  C21_24 
REMARK    7  A    between atoms: C21_24  and  O4_26 
REMARK    8  A    between atoms: C21_24  and  C23_27 
REMARK    9  A    between atoms: C23_27  and  O5_28 
REMARK   10  A    between atoms: C23_27  and  C24_29 
REMARK   11  A    between atoms: C28_34  and  C29_35 
REMARK       I    between atoms: C29_35  and  N1_37 
REMARK   12  A    between atoms: C32_41  and  O8_42 
REMARK   13  A    between atoms: C39_49  and  O9_50 
ROOT
HETATM    1  C5  UNL     1     -10.153   7.341  13.895  1.00  0.00     0.122 C 
HETATM    2  C6  UNL     1      -9.883   7.585  15.386  1.00  0.00     0.033 C 
HETATM    3  C7  UNL     1      -8.407   7.876  15.635  1.00  0.00     0.013 C 
HETATM    4  C8  UNL     1      -7.482   6.682  15.244  1.00  0.00    -0.026 C 
HETATM    5  C9  UNL     1      -7.189   5.858  16.521  1.00  0.00     0.016 C 
HETATM    6  C10 UNL     1      -8.218   5.741  14.239  1.00  0.00     0.071 C 
HETATM    7  C11 UNL     1      -9.029   6.545  13.213  1.00  0.00     0.045 C 
HETATM    8  C12 UNL     1      -7.316   4.745  13.516  1.00  0.00     0.161 C 
HETATM    9  O3  UNL     1      -7.788   3.741  12.975  1.00  0.00    -0.292 OA
HETATM   10  C13 UNL     1      -5.856   5.021  13.389  1.00  0.00    -0.006 C 
HETATM   11  C14 UNL     1      -5.359   6.158  13.913  1.00  0.00    -0.030 C 
HETATM   12  C15 UNL     1      -6.165   7.243  14.602  1.00  0.00     0.027 C 
HETATM   13  C16 UNL     1      -5.325   8.147  15.558  1.00  0.00     0.011 C 
HETATM   14  C17 UNL     1      -3.916   8.530  15.038  1.00  0.00     0.014 C 
HETATM   15  C18 UNL     1      -3.120   7.266  14.663  1.00  0.00    -0.002 C 
HETATM   16  C19 UNL     1      -2.891   6.422  15.948  1.00  0.00     0.019 C 
HETATM   17  C20 UNL     1      -1.801   7.436  13.818  1.00  0.00     0.034 C 
HETATM   18  C35 UNL     1      -1.672   6.066  13.053  1.00  0.00     0.016 C 
HETATM   19  C36 UNL     1      -3.036   5.371  13.232  1.00  0.00     0.026 C 
HETATM   20  C37 UNL     1      -3.628   4.545  12.110  1.00  0.00     0.013 C 
HETATM   21  C38 UNL     1      -5.034   4.048  12.544  1.00  0.00     0.043 C 
HETATM   22  C39 UNL     1      -3.957   6.530  13.584  1.00  0.00     0.094 C 
ENDROOT
BRANCH  17  23
HETATM   23  C21 UNL     1      -0.485   8.072  14.379  1.00  0.00     0.087 C 
HETATM   24  C22 UNL     1       0.559   7.056  14.839  1.00  0.00     0.049 C 
BRANCH  23  25
HETATM   25  O4  UNL     1      -0.892   8.807  15.548  1.00  0.00    -0.387 OA
HETATM   26  H33 UNL     1      -0.355   9.621  15.588  1.00  0.00     0.210 HD
ENDBRANCH  23  25
BRANCH  23  27
HETATM   27  C23 UNL     1       0.098   9.036  13.258  1.00  0.00     0.181 C 
BRANCH  27  28
HETATM   28  O5  UNL     1      -0.545   8.830  11.998  1.00  0.00    -0.390 OA
HETATM   29  H35 UNL     1      -0.388   9.626  11.457  1.00  0.00     0.210 HD
ENDBRANCH  27  28
BRANCH  27  30
HETATM   30  C24 UNL     1       1.630   9.202  13.089  1.00  0.00     0.158 C 
HETATM   31  O6  UNL     1       2.303   9.331  14.373  1.00  0.00    -0.373 OA
HETATM   32  C25 UNL     1       3.695   9.205  14.051  1.00  0.00     0.185 C 
HETATM   33  C26 UNL     1       3.714   8.007  13.128  1.00  0.00     0.028 C 
HETATM   34  C32 UNL     1       4.634   8.973  15.237  1.00  0.00     0.384 C 
HETATM   35  C27 UNL     1       5.117   7.861  12.561  1.00  0.00     0.053 C 
HETATM   36  C33 UNL     1       2.551   8.329  12.185  1.00  0.00     0.020 C 
HETATM   37  C28 UNL     1       6.142   7.745  13.718  1.00  0.00     0.309 C 
HETATM   38  N2  UNL     1       6.000   8.764  14.789  1.00  0.00     0.128 N 
HETATM   39  H46 UNL     1       6.373   9.651  14.447  1.00  0.00     0.320 HD
HETATM   40  C34 UNL     1       2.003   7.083  11.505  1.00  0.00     0.013 C 
BRANCH  37  41
HETATM   41  C29 UNL     1       7.555   7.876  13.124  1.00  0.00     0.233 C 
HETATM   42  O7  UNL     1       7.839   7.451  12.000  1.00  0.00    -0.277 OA
HETATM   43  N1  UNL     1       8.456   8.494  13.993  1.00  0.00    -0.249 NA
HETATM   44  C30 UNL     1       9.514   9.301  13.436  1.00  0.00     0.113 A 
HETATM   45  C31 UNL     1       9.805   8.006  14.097  1.00  0.00     0.113 A 
ENDBRANCH  37  41
BRANCH  34  46
HETATM   46  O8  UNL     1       4.614  10.118  16.070  1.00  0.00    -0.366 OA
HETATM   47  H48 UNL     1       3.688  10.240  16.324  1.00  0.00     0.212 HD
ENDBRANCH  34  46
ENDBRANCH  27  30
ENDBRANCH  23  27
ENDBRANCH  17  23
BRANCH  22  48
HETATM   48  O9  UNL     1      -4.116   7.385  12.422  1.00  0.00    -0.384 OA
HETATM   49  H60 UNL     1      -4.730   6.950  11.806  1.00  0.00     0.211 HD
ENDBRANCH  22  48
BRANCH   1  50
HETATM   50  O2  UNL     1     -11.382   6.614  13.791  1.00  0.00    -0.386 OA
BRANCH  50  51
HETATM   51  C4  UNL     1     -12.541   7.438  13.933  1.00  0.00     0.170 C 
BRANCH  51  52
HETATM   52  C3  UNL     1     -12.187   8.880  13.600  1.00  0.00     0.052 C 
BRANCH  52  53
HETATM   53  C2  UNL     1     -12.208   9.128  12.097  1.00  0.00     0.169 C 
BRANCH  53  54
HETATM   54  O1  UNL     1     -13.166  10.149  11.815  1.00  0.00    -0.396 OA
HETATM   55  C1  UNL     1     -14.376   9.928  12.532  1.00  0.00     0.201 C 
ENDBRANCH  53  54
ENDBRANCH  52  53
ENDBRANCH  51  52
ENDBRANCH  50  51
ENDBRANCH   1  50
TORSDOF 13
ENDMDL
MODEL 5
REMARK minimizedAffinity -9.77833366
REMARK CNNscore 0.407478452
REMARK CNNaffinity 7.49072075
REMARK  13 active torsions:
REMARK  status: ('A' for Active; 'I' for Inactive)
REMARK    1  A    between atoms: O1_2  and  C2_3 
REMARK    2  A    between atoms: C2_3  and  C3_4 
REMARK    3  A    between atoms: C3_4  and  C4_5 
REMARK    4  A    between atoms: C4_5  and  O2_6 
REMARK    5  A    between atoms: O2_6  and  C5_7 
REMARK    6  A    between atoms: C20_23  and  C21_24 
REMARK    7  A    between atoms: C21_24  and  O4_26 
REMARK    8  A    between atoms: C21_24  and  C23_27 
REMARK    9  A    between atoms: C23_27  and  O5_28 
REMARK   10  A    between atoms: C23_27  and  C24_29 
REMARK   11  A    between atoms: C28_34  and  C29_35 
REMARK       I    between atoms: C29_35  and  N1_37 
REMARK   12  A    between atoms: C32_41  and  O8_42 
REMARK   13  A    between atoms: C39_49  and  O9_50 
ROOT
HETATM    1  C5  UNL     1     -10.628   7.434  13.789  1.00  0.00     0.122 C 
HETATM    2  C6  UNL     1     -10.447   7.846  15.256  1.00  0.00     0.033 C 
HETATM    3  C7  UNL     1      -9.018   8.305  15.525  1.00  0.00     0.013 C 
HETATM    4  C8  UNL     1      -7.967   7.176  15.288  1.00  0.00    -0.026 C 
HETATM    5  C9  UNL     1      -7.653   6.512  16.650  1.00  0.00     0.016 C 
HETATM    6  C10 UNL     1      -8.566   6.075  14.357  1.00  0.00     0.071 C 
HETATM    7  C11 UNL     1      -9.404   6.692  13.229  1.00  0.00     0.045 C 
HETATM    8  C12 UNL     1      -7.541   5.109  13.767  1.00  0.00     0.161 C 
HETATM    9  O3  UNL     1      -7.891   4.015  13.314  1.00  0.00    -0.292 OA
HETATM   10  C13 UNL     1      -6.110   5.515  13.663  1.00  0.00    -0.006 C 
HETATM   11  C14 UNL     1      -5.748   6.741  14.088  1.00  0.00    -0.030 C 
HETATM   12  C15 UNL     1      -6.684   7.802  14.638  1.00  0.00     0.027 C 
HETATM   13  C16 UNL     1      -5.977   8.872  15.527  1.00  0.00     0.011 C 
HETATM   14  C17 UNL     1      -4.589   9.342  15.019  1.00  0.00     0.014 C 
HETATM   15  C18 UNL     1      -3.660   8.133  14.799  1.00  0.00    -0.002 C 
HETATM   16  C19 UNL     1      -3.407   7.443  16.169  1.00  0.00     0.019 C 
HETATM   17  C20 UNL     1      -2.327   8.351  13.987  1.00  0.00     0.034 C 
HETATM   18  C35 UNL     1      -2.035   6.933  13.367  1.00  0.00     0.016 C 
HETATM   19  C36 UNL     1      -3.333   6.127  13.569  1.00  0.00     0.026 C 
HETATM   20  C37 UNL     1      -3.794   5.142  12.515  1.00  0.00     0.013 C 
HETATM   21  C38 UNL     1      -5.163   4.552  12.948  1.00  0.00     0.043 C 
HETATM   22  C39 UNL     1      -4.375   7.217  13.772  1.00  0.00     0.094 C 
ENDROOT
BRANCH  17  23
HETATM   23  C21 UNL     1      -1.104   9.166  14.526  1.00  0.00     0.087 C 
HETATM   24  C22 UNL     1      -1.480  10.342  15.427  1.00  0.00     0.049 C 
BRANCH  23  25
HETATM   25  O4  UNL     1      -0.478   9.723  13.356  1.00  0.00    -0.387 OA
HETATM   26  H33 UNL     1       0.487   9.709  13.501  1.00  0.00     0.210 HD
ENDBRANCH  23  25
BRANCH  23  27
HETATM   27  C23 UNL     1      -0.141   8.147  15.274  1.00  0.00     0.181 C 
BRANCH  27  28
HETATM   28  O5  UNL     1       0.479   8.746  16.414  1.00  0.00    -0.390 OA
HETATM   29  H35 UNL     1       0.787   8.023  16.992  1.00  0.00     0.210 HD
ENDBRANCH  27  28
BRANCH  27  30
HETATM   30  C24 UNL     1       0.869   7.290  14.468  1.00  0.00     0.158 C 
HETATM   31  O6  UNL     1       0.197   6.277  13.668  1.00  0.00    -0.373 OA
HETATM   32  C25 UNL     1       1.228   5.774  12.806  1.00  0.00     0.185 C 
HETATM   33  C26 UNL     1       1.888   7.039  12.307  1.00  0.00     0.028 C 
HETATM   34  C32 UNL     1       0.752   4.925  11.625  1.00  0.00     0.384 C 
HETATM   35  C27 UNL     1       3.126   6.653  11.512  1.00  0.00     0.053 C 
HETATM   36  C33 UNL     1       2.047   7.835  13.606  1.00  0.00     0.020 C 
HETATM   37  C28 UNL     1       2.733   5.687  10.365  1.00  0.00     0.309 C 
HETATM   38  N2  UNL     1       1.865   4.552  10.768  1.00  0.00     0.128 N 
HETATM   39  H46 UNL     1       2.437   3.860  11.255  1.00  0.00     0.320 HD
HETATM   40  C34 UNL     1       2.187   9.328  13.351  1.00  0.00     0.013 C 
BRANCH  37  41
HETATM   41  C29 UNL     1       4.024   5.106   9.762  1.00  0.00     0.233 C 
HETATM   42  O7  UNL     1       5.130   5.618   9.956  1.00  0.00    -0.277 OA
HETATM   43  N1  UNL     1       3.796   3.978   8.974  1.00  0.00    -0.249 NA
HETATM   44  C30 UNL     1       4.808   2.950   8.925  1.00  0.00     0.113 A 
HETATM   45  C31 UNL     1       4.522   3.800   7.744  1.00  0.00     0.113 A 
ENDBRANCH  37  41
BRANCH  34  46
HETATM   46  O8  UNL     1       0.160   3.738  12.121  1.00  0.00    -0.366 OA
HETATM   47  H48 UNL     1      -0.555   4.027  12.705  1.00  0.00     0.212 HD
ENDBRANCH  34  46
ENDBRANCH  27  30
ENDBRANCH  23  27
ENDBRANCH  17  23
BRANCH  22  48
HETATM   48  O9  UNL     1      -4.564   7.936  12.525  1.00  0.00    -0.384 OA
HETATM   49  H60 UNL     1      -5.106   7.385  11.936  1.00  0.00     0.211 HD
ENDBRANCH  22  48
BRANCH   1  50
HETATM   50  O2  UNL     1     -11.776   6.582  13.717  1.00  0.00    -0.386 OA
BRANCH  50  51
HETATM   51  C4  UNL     1     -13.014   7.296  13.736  1.00  0.00     0.170 C 
BRANCH  51  52
HETATM   52  C3  UNL     1     -14.114   6.398  14.282  1.00  0.00     0.052 C 
BRANCH  52  53
HETATM   53  C2  UNL     1     -14.596   6.870  15.648  1.00  0.00     0.169 C 
BRANCH  53  54
HETATM   54  O1  UNL     1     -15.061   8.215  15.529  1.00  0.00    -0.396 OA
HETATM   55  C1  UNL     1     -14.093   9.138  16.018  1.00  0.00     0.201 C 
ENDBRANCH  53  54
ENDBRANCH  52  53
ENDBRANCH  51  52
ENDBRANCH  50  51
ENDBRANCH   1  50
TORSDOF 13
ENDMDL
MODEL 6
REMARK minimizedAffinity -9.77705956
REMARK CNNscore 0.403971195
REMARK CNNaffinity 7.26769686
REMARK  13 active torsions:
REMARK  status: ('A' for Active; 'I' for Inactive)
REMARK    1  A    between atoms: O1_2  and  C2_3 
REMARK    2  A    between atoms: C2_3  and  C3_4 
REMARK    3  A    between atoms: C3_4  and  C4_5 
REMARK    4  A    between atoms: C4_5  and  O2_6 
REMARK    5  A    between atoms: O2_6  and  C5_7 
REMARK    6  A    between atoms: C20_23  and  C21_24 
REMARK    7  A    between atoms: C21_24  and  O4_26 
REMARK    8  A    between atoms: C21_24  and  C23_27 
REMARK    9  A    between atoms: C23_27  and  O5_28 
REMARK   10  A    between atoms: C23_27  and  C24_29 
REMARK   11  A    between atoms: C28_34  and  C29_35 
REMARK       I    between atoms: C29_35  and  N1_37 
REMARK   12  A    between atoms: C32_41  and  O8_42 
REMARK   13  A    between atoms: C39_49  and  O9_50 
ROOT
HETATM    1  C5  UNL     1       0.468   6.565  10.284  1.00  0.00     0.122 C 
HETATM    2  C6  UNL     1       0.343   5.193  10.959  1.00  0.00     0.033 C 
HETATM    3  C7  UNL     1      -0.996   5.053  11.675  1.00  0.00     0.013 C 
HETATM    4  C8  UNL     1      -1.175   6.090  12.827  1.00  0.00    -0.026 C 
HETATM    5  C9  UNL     1      -0.773   5.410  14.158  1.00  0.00     0.016 C 
HETATM    6  C10 UNL     1      -0.214   7.301  12.611  1.00  0.00     0.071 C 
HETATM    7  C11 UNL     1      -0.137   7.697  11.130  1.00  0.00     0.045 C 
HETATM    8  C12 UNL     1      -0.534   8.531  13.457  1.00  0.00     0.161 C 
HETATM    9  O3  UNL     1       0.316   9.406  13.648  1.00  0.00    -0.292 OA
HETATM   10  C13 UNL     1      -1.909   8.723  14.000  1.00  0.00    -0.006 C 
HETATM   11  C14 UNL     1      -2.854   7.802  13.722  1.00  0.00    -0.030 C 
HETATM   12  C15 UNL     1      -2.667   6.575  12.851  1.00  0.00     0.027 C 
HETATM   13  C16 UNL     1      -3.702   5.439  13.125  1.00  0.00     0.011 C 
HETATM   14  C17 UNL     1      -5.155   5.915  13.380  1.00  0.00     0.014 C 
HETATM   15  C18 UNL     1      -5.187   6.953  14.518  1.00  0.00    -0.002 C 
HETATM   16  C19 UNL     1      -4.721   6.266  15.833  1.00  0.00     0.019 C 
HETATM   17  C20 UNL     1      -6.501   7.800  14.722  1.00  0.00     0.034 C 
HETATM   18  C35 UNL     1      -5.985   9.130  15.388  1.00  0.00     0.016 C 
HETATM   19  C36 UNL     1      -4.454   9.103  15.214  1.00  0.00     0.026 C 
HETATM   20  C37 UNL     1      -3.692  10.383  14.943  1.00  0.00     0.013 C 
HETATM   21  C38 UNL     1      -2.193  10.036  14.729  1.00  0.00     0.043 C 
HETATM   22  C39 UNL     1      -4.265   8.117  14.072  1.00  0.00     0.094 C 
ENDROOT
BRANCH  17  23
HETATM   23  C21 UNL     1      -7.846   7.202  15.256  1.00  0.00     0.087 C 
HETATM   24  C22 UNL     1      -7.891   7.010  16.771  1.00  0.00     0.049 C 
BRANCH  23  25
HETATM   25  O4  UNL     1      -7.934   5.891  14.669  1.00  0.00    -0.387 OA
HETATM   26  H33 UNL     1      -8.872   5.724  14.456  1.00  0.00     0.210 HD
ENDBRANCH  23  25
BRANCH  23  27
HETATM   27  C23 UNL     1      -9.022   8.146  14.756  1.00  0.00     0.181 C 
BRANCH  27  28
HETATM   28  O5  UNL     1      -8.972   9.430  15.381  1.00  0.00    -0.390 OA
HETATM   29  H35 UNL     1      -9.489  10.045  14.828  1.00  0.00     0.210 HD
ENDBRANCH  27  28
BRANCH  27  30
HETATM   30  C24 UNL     1     -10.476   7.611  14.681  1.00  0.00     0.158 C 
HETATM   31  O6  UNL     1     -11.429   8.561  15.235  1.00  0.00    -0.373 OA
HETATM   32  C25 UNL     1     -12.707   8.039  14.847  1.00  0.00     0.185 C 
HETATM   33  C26 UNL     1     -12.498   7.704  13.387  1.00  0.00     0.028 C 
HETATM   34  C32 UNL     1     -13.892   8.994  15.005  1.00  0.00     0.384 C 
HETATM   35  C27 UNL     1     -13.730   6.969  12.882  1.00  0.00     0.053 C 
HETATM   36  C33 UNL     1     -11.152   6.974  13.429  1.00  0.00     0.020 C 
HETATM   37  C28 UNL     1     -14.994   7.833  13.126  1.00  0.00     0.309 C 
HETATM   38  N2  UNL     1     -15.116   8.398  14.494  1.00  0.00     0.128 N 
HETATM   39  H46 UNL     1     -15.409   7.655  15.129  1.00  0.00     0.320 HD
HETATM   40  C34 UNL     1     -10.447   6.991  12.082  1.00  0.00     0.013 C 
BRANCH  37  41
HETATM   41  C29 UNL     1     -16.232   6.959  12.863  1.00  0.00     0.233 C 
HETATM   42  O7  UNL     1     -16.450   6.438  11.765  1.00  0.00    -0.277 OA
HETATM   43  N1  UNL     1     -17.067   6.848  13.976  1.00  0.00    -0.249 NA
HETATM   44  C30 UNL     1     -17.804   5.623  14.171  1.00  0.00     0.113 A 
HETATM   45  C31 UNL     1     -18.496   6.884  13.811  1.00  0.00     0.113 A 
ENDBRANCH  37  41
BRANCH  34  46
HETATM   46  O8  UNL     1     -14.079   9.271  16.381  1.00  0.00    -0.366 OA
HETATM   47  H48 UNL     1     -13.239   9.638  16.690  1.00  0.00     0.212 HD
ENDBRANCH  34  46
ENDBRANCH  27  30
ENDBRANCH  23  27
ENDBRANCH  17  23
BRANCH  22  48
HETATM   48  O9  UNL     1      -4.776   8.702  12.845  1.00  0.00    -0.384 OA
HETATM   49  H60 UNL     1      -4.129   9.354  12.527  1.00  0.00     0.211 HD
ENDBRANCH  22  48
BRANCH   1  50
HETATM   50  O2  UNL     1       1.861   6.820  10.074  1.00  0.00    -0.386 OA
BRANCH  50  51
HETATM   51  C4  UNL     1       2.712   6.008  10.885  1.00  0.00     0.170 C 
BRANCH  51  52
HETATM   52  C3  UNL     1       4.165   6.244  10.496  1.00  0.00     0.052 C 
BRANCH  52  53
HETATM   53  C2  UNL     1       4.843   7.229  11.441  1.00  0.00     0.169 C 
BRANCH  53  54
HETATM   54  O1  UNL     1       5.894   6.551  12.131  1.00  0.00    -0.396 OA
HETATM   55  C1  UNL     1       6.991   6.286  11.262  1.00  0.00     0.201 C 
ENDBRANCH  53  54
ENDBRANCH  52  53
ENDBRANCH  51  52
ENDBRANCH  50  51
ENDBRANCH   1  50
TORSDOF 13
ENDMDL
MODEL 7
REMARK minimizedAffinity -9.99424076
REMARK CNNscore 0.397843838
REMARK CNNaffinity 6.94333315
REMARK  13 active torsions:
REMARK  status: ('A' for Active; 'I' for Inactive)
REMARK    1  A    between atoms: O1_2  and  C2_3 
REMARK    2  A    between atoms: C2_3  and  C3_4 
REMARK    3  A    between atoms: C3_4  and  C4_5 
REMARK    4  A    between atoms: C4_5  and  O2_6 
REMARK    5  A    between atoms: O2_6  and  C5_7 
REMARK    6  A    between atoms: C20_23  and  C21_24 
REMARK    7  A    between atoms: C21_24  and  O4_26 
REMARK    8  A    between atoms: C21_24  and  C23_27 
REMARK    9  A    between atoms: C23_27  and  O5_28 
REMARK   10  A    between atoms: C23_27  and  C24_29 
REMARK   11  A    between atoms: C28_34  and  C29_35 
REMARK       I    between atoms: C29_35  and  N1_37 
REMARK   12  A    between atoms: C32_41  and  O8_42 
REMARK   13  A    between atoms: C39_49  and  O9_50 
ROOT
HETATM    1  C5  UNL     1     -10.270   7.371  13.718  1.00  0.00     0.122 C 
HETATM    2  C6  UNL     1     -10.065   7.748  15.191  1.00  0.00     0.033 C 
HETATM    3  C7  UNL     1      -8.605   8.082  15.474  1.00  0.00     0.013 C 
HETATM    4  C8  UNL     1      -7.650   6.873  15.228  1.00  0.00    -0.026 C 
HETATM    5  C9  UNL     1      -7.402   6.167  16.583  1.00  0.00     0.016 C 
HETATM    6  C10 UNL     1      -8.333   5.837  14.279  1.00  0.00     0.071 C 
HETATM    7  C11 UNL     1      -9.109   6.536  13.154  1.00  0.00     0.045 C 
HETATM    8  C12 UNL     1      -7.389   4.796  13.683  1.00  0.00     0.161 C 
HETATM    9  O3  UNL     1      -7.826   3.741  13.213  1.00  0.00    -0.292 OA
HETATM   10  C13 UNL     1      -5.928   5.081  13.592  1.00  0.00    -0.006 C 
HETATM   11  C14 UNL     1      -5.467   6.268  14.035  1.00  0.00    -0.030 C 
HETATM   12  C15 UNL     1      -6.314   7.396  14.593  1.00  0.00     0.027 C 
HETATM   13  C16 UNL     1      -5.526   8.392  15.500  1.00  0.00     0.011 C 
HETATM   14  C17 UNL     1      -4.101   8.751  15.006  1.00  0.00     0.014 C 
HETATM   15  C18 UNL     1      -3.275   7.471  14.776  1.00  0.00    -0.002 C 
HETATM   16  C19 UNL     1      -3.090   6.745  16.138  1.00  0.00     0.019 C 
HETATM   17  C20 UNL     1      -1.923   7.586  13.974  1.00  0.00     0.034 C 
HETATM   18  C35 UNL     1      -1.747   6.157  13.337  1.00  0.00     0.016 C 
HETATM   19  C36 UNL     1      -3.109   5.460  13.521  1.00  0.00     0.026 C 
HETATM   20  C37 UNL     1      -3.644   4.531  12.452  1.00  0.00     0.013 C 
HETATM   21  C38 UNL     1      -5.060   4.052  12.870  1.00  0.00     0.043 C 
HETATM   22  C39 UNL     1      -4.057   6.631  13.732  1.00  0.00     0.094 C 
ENDROOT
BRANCH  17  23
HETATM   23  C21 UNL     1      -0.640   8.289  14.530  1.00  0.00     0.087 C 
HETATM   24  C22 UNL     1      -0.906   9.281  15.662  1.00  0.00     0.049 C 
BRANCH  23  25
HETATM   25  O4  UNL     1      -0.119   9.051  13.425  1.00  0.00    -0.387 OA
HETATM   26  H33 UNL     1       0.855   9.011  13.470  1.00  0.00     0.210 HD
ENDBRANCH  23  25
BRANCH  23  27
HETATM   27  C23 UNL     1       0.372   7.151  14.983  1.00  0.00     0.181 C 
BRANCH  27  28
HETATM   28  O5  UNL     1       0.264   6.873  16.381  1.00  0.00    -0.390 OA
HETATM   29  H35 UNL     1       0.652   5.991  16.534  1.00  0.00     0.210 HD
ENDBRANCH  27  28
BRANCH  27  30
HETATM   30  C24 UNL     1       1.855   7.197  14.530  1.00  0.00     0.158 C 
HETATM   31  O6  UNL     1       1.973   7.301  13.083  1.00  0.00    -0.373 OA
HETATM   32  C25 UNL     1       3.359   7.598  12.868  1.00  0.00     0.185 C 
HETATM   33  C26 UNL     1       3.626   8.686  13.884  1.00  0.00     0.028 C 
HETATM   34  C32 UNL     1       3.724   8.087  11.464  1.00  0.00     0.384 C 
HETATM   35  C27 UNL     1       5.118   8.980  13.891  1.00  0.00     0.053 C 
HETATM   36  C33 UNL     1       2.969   8.101  15.138  1.00  0.00     0.020 C 
HETATM   37  C28 UNL     1       5.585   9.364  12.464  1.00  0.00     0.309 C 
HETATM   38  N2  UNL     1       5.129   8.450  11.385  1.00  0.00     0.128 N 
HETATM   39  H46 UNL     1       5.691   7.598  11.421  1.00  0.00     0.320 HD
HETATM   40  C34 UNL     1       2.617   9.176  16.155  1.00  0.00     0.013 C 
BRANCH  37  41
HETATM   41  C29 UNL     1       7.123   9.384  12.450  1.00  0.00     0.233 C 
HETATM   42  O7  UNL     1       7.768   9.766  11.469  1.00  0.00    -0.277 OA
HETATM   43  N1  UNL     1       7.684   8.911  13.637  1.00  0.00    -0.249 NA
HETATM   44  C30 UNL     1       8.936   9.471  14.083  1.00  0.00     0.113 A 
HETATM   45  C31 UNL     1       8.853   8.073  13.597  1.00  0.00     0.113 A 
ENDBRANCH  37  41
BRANCH  34  46
HETATM   46  O8  UNL     1       3.487   7.042  10.538  1.00  0.00    -0.366 OA
HETATM   47  H48 UNL     1       2.553   6.810  10.639  1.00  0.00     0.212 HD
ENDBRANCH  34  46
ENDBRANCH  27  30
ENDBRANCH  23  27
ENDBRANCH  17  23
BRANCH  22  48
HETATM   48  O9  UNL     1      -4.177   7.379  12.494  1.00  0.00    -0.384 OA
HETATM   49  H60 UNL     1      -4.759   6.883  11.894  1.00  0.00     0.211 HD
ENDBRANCH  22  48
BRANCH   1  50
HETATM   50  O2  UNL     1     -11.485   6.619  13.628  1.00  0.00    -0.386 OA
BRANCH  50  51
HETATM   51  C4  UNL     1     -12.655   7.403  13.869  1.00  0.00     0.170 C 
BRANCH  51  52
HETATM   52  C3  UNL     1     -13.754   6.994  12.898  1.00  0.00     0.052 C 
BRANCH  52  53
HETATM   53  C2  UNL     1     -14.941   7.947  12.965  1.00  0.00     0.169 C 
BRANCH  53  54
HETATM   54  O1  UNL     1     -14.924   8.781  11.805  1.00  0.00    -0.396 OA
HETATM   55  C1  UNL     1     -16.047   9.656  11.787  1.00  0.00     0.201 C 
ENDBRANCH  53  54
ENDBRANCH  52  53
ENDBRANCH  51  52
ENDBRANCH  50  51
ENDBRANCH   1  50
TORSDOF 13
ENDMDL
MODEL 8
REMARK minimizedAffinity -8.90186214
REMARK CNNscore 0.37627843
REMARK CNNaffinity 7.03684473
REMARK  13 active torsions:
REMARK  status: ('A' for Active; 'I' for Inactive)
REMARK    1  A    between atoms: O1_2  and  C2_3 
REMARK    2  A    between atoms: C2_3  and  C3_4 
REMARK    3  A    between atoms: C3_4  and  C4_5 
REMARK    4  A    between atoms: C4_5  and  O2_6 
REMARK    5  A    between atoms: O2_6  and  C5_7 
REMARK    6  A    between atoms: C20_23  and  C21_24 
REMARK    7  A    between atoms: C21_24  and  O4_26 
REMARK    8  A    between atoms: C21_24  and  C23_27 
REMARK    9  A    between atoms: C23_27  and  O5_28 
REMARK   10  A    between atoms: C23_27  and  C24_29 
REMARK   11  A    between atoms: C28_34  and  C29_35 
REMARK       I    between atoms: C29_35  and  N1_37 
REMARK   12  A    between atoms: C32_41  and  O8_42 
REMARK   13  A    between atoms: C39_49  and  O9_50 
ROOT
HETATM    1  C5  UNL     1      -4.260   5.692  14.699  1.00  0.00     0.122 C 
HETATM    2  C6  UNL     1      -4.098   5.908  13.188  1.00  0.00     0.033 C 
HETATM    3  C7  UNL     1      -2.643   6.192  12.828  1.00  0.00     0.013 C 
HETATM    4  C8  UNL     1      -2.103   7.500  13.484  1.00  0.00    -0.026 C 
HETATM    5  C9  UNL     1      -2.231   8.648  12.455  1.00  0.00     0.016 C 
HETATM    6  C10 UNL     1      -2.978   7.879  14.720  1.00  0.00     0.071 C 
HETATM    7  C11 UNL     1      -3.373   6.635  15.529  1.00  0.00     0.045 C 
HETATM    8  C12 UNL     1      -2.358   8.920  15.649  1.00  0.00     0.161 C 
HETATM    9  O3  UNL     1      -3.058   9.554  16.444  1.00  0.00    -0.292 OA
HETATM   10  C13 UNL     1      -0.882   9.125  15.656  1.00  0.00    -0.006 C 
HETATM   11  C14 UNL     1      -0.115   8.374  14.840  1.00  0.00    -0.030 C 
HETATM   12  C15 UNL     1      -0.612   7.275  13.920  1.00  0.00     0.027 C 
HETATM   13  C16 UNL     1       0.354   6.952  12.737  1.00  0.00     0.011 C 
HETATM   14  C17 UNL     1       1.862   6.950  13.098  1.00  0.00     0.014 C 
HETATM   15  C18 UNL     1       2.258   8.282  13.763  1.00  0.00    -0.002 C 
HETATM   16  C19 UNL     1       2.062   9.430  12.732  1.00  0.00     0.019 C 
HETATM   17  C20 UNL     1       3.651   8.369  14.494  1.00  0.00     0.034 C 
HETATM   18  C35 UNL     1       3.428   9.485  15.583  1.00  0.00     0.016 C 
HETATM   19  C36 UNL     1       1.904   9.707  15.630  1.00  0.00     0.026 C 
HETATM   20  C37 UNL     1       1.214  10.002  16.945  1.00  0.00     0.013 C 
HETATM   21  C38 UNL     1      -0.317  10.090  16.697  1.00  0.00     0.043 C 
HETATM   22  C39 UNL     1       1.361   8.424  15.020  1.00  0.00     0.094 C 
ENDROOT
BRANCH  17  23
HETATM   23  C21 UNL     1       5.027   8.357  13.748  1.00  0.00     0.087 C 
HETATM   24  C22 UNL     1       5.339   9.642  12.983  1.00  0.00     0.049 C 
BRANCH  23  25
HETATM   25  O4  UNL     1       4.914   7.308  12.769  1.00  0.00    -0.387 OA
HETATM   26  H33 UNL     1       5.782   6.866  12.706  1.00  0.00     0.210 HD
ENDBRANCH  23  25
BRANCH  23  27
HETATM   27  C23 UNL     1       6.152   8.034  14.823  1.00  0.00     0.181 C 
BRANCH  27  28
HETATM   28  O5  UNL     1       5.677   7.142  15.834  1.00  0.00    -0.390 OA
HETATM   29  H35 UNL     1       6.457   6.741  16.260  1.00  0.00     0.210 HD
ENDBRANCH  27  28
BRANCH  27  30
HETATM   30  C24 UNL     1       7.002   9.178  15.433  1.00  0.00     0.158 C 
HETATM   31  O6  UNL     1       6.423   9.677  16.671  1.00  0.00    -0.373 OA
HETATM   32  C25 UNL     1       7.449  10.514  17.223  1.00  0.00     0.185 C 
HETATM   33  C26 UNL     1       8.688   9.660  17.076  1.00  0.00     0.028 C 
HETATM   34  C32 UNL     1       7.261  10.923  18.686  1.00  0.00     0.384 C 
HETATM   35  C27 UNL     1       9.897  10.497  17.461  1.00  0.00     0.053 C 
HETATM   36  C33 UNL     1       8.548   9.162  15.634  1.00  0.00     0.020 C 
HETATM   37  C28 UNL     1       9.716  11.050  18.898  1.00  0.00     0.309 C 
HETATM   38  N2  UNL     1       8.401  11.685  19.167  1.00  0.00     0.128 N 
HETATM   39  H46 UNL     1       8.387  12.607  18.729  1.00  0.00     0.320 HD
HETATM   40  C34 UNL     1       9.342   7.889  15.387  1.00  0.00     0.013 C 
BRANCH  37  41
HETATM   41  C29 UNL     1      10.810  12.102  19.150  1.00  0.00     0.233 C 
HETATM   42  O7  UNL     1      10.703  12.969  20.022  1.00  0.00    -0.277 OA
HETATM   43  N1  UNL     1      11.896  11.977  18.282  1.00  0.00    -0.249 NA
HETATM   44  C30 UNL     1      13.210  12.333  18.759  1.00  0.00     0.113 A 
HETATM   45  C31 UNL     1      12.520  13.152  17.735  1.00  0.00     0.113 A 
ENDBRANCH  37  41
BRANCH  34  46
HETATM   46  O8  UNL     1       6.109  11.740  18.789  1.00  0.00    -0.366 OA
HETATM   47  H48 UNL     1       5.380  11.211  18.436  1.00  0.00     0.212 HD
ENDBRANCH  34  46
ENDBRANCH  27  30
ENDBRANCH  23  27
ENDBRANCH  17  23
BRANCH  22  48
HETATM   48  O9  UNL     1       1.611   7.319  15.926  1.00  0.00    -0.384 OA
HETATM   49  H60 UNL     1       0.966   7.368  16.652  1.00  0.00     0.211 HD
ENDBRANCH  22  48
BRANCH   1  50
HETATM   50  O2  UNL     1      -5.635   5.924  15.024  1.00  0.00    -0.386 OA
BRANCH  50  51
HETATM   51  C4  UNL     1      -5.974   7.310  15.094  1.00  0.00     0.170 C 
BRANCH  51  52
HETATM   52  C3  UNL     1      -7.485   7.462  15.196  1.00  0.00     0.052 C 
BRANCH  52  53
HETATM   53  C2  UNL     1      -8.204   6.183  14.786  1.00  0.00     0.169 C 
BRANCH  53  54
HETATM   54  O1  UNL     1      -9.057   6.473  13.677  1.00  0.00    -0.396 OA
HETATM   55  C1  UNL     1     -10.298   7.017  14.114  1.00  0.00     0.201 C 
ENDBRANCH  53  54
ENDBRANCH  52  53
ENDBRANCH  51  52
ENDBRANCH  50  51
ENDBRANCH   1  50
TORSDOF 13
ENDMDL
MODEL 9
REMARK minimizedAffinity -8.96959019
REMARK CNNscore 0.345922947
REMARK CNNaffinity 6.951931
REMARK  13 active torsions:
REMARK  status: ('A' for Active; 'I' for Inactive)
REMARK    1  A    between atoms: O1_2  and  C2_3 
REMARK    2  A    between atoms: C2_3  and  C3_4 
REMARK    3  A    between atoms: C3_4  and  C4_5 
REMARK    4  A    between atoms: C4_5  and  O2_6 
REMARK    5  A    between atoms: O2_6  and  C5_7 
REMARK    6  A    between atoms: C20_23  and  C21_24 
REMARK    7  A    between atoms: C21_24  and  O4_26 
REMARK    8  A    between atoms: C21_24  and  C23_27 
REMARK    9  A    between atoms: C23_27  and  O5_28 
REMARK   10  A    between atoms: C23_27  and  C24_29 
REMARK   11  A    between atoms: C28_34  and  C29_35 
REMARK       I    between atoms: C29_35  and  N1_37 
REMARK   12  A    between atoms: C32_41  and  O8_42 
REMARK   13  A    between atoms: C39_49  and  O9_50 
ROOT
HETATM    1  C5  UNL     1       3.478   7.988  10.225  1.00  0.00     0.122 C 
HETATM    2  C6  UNL     1       2.514   6.795  10.202  1.00  0.00     0.033 C 
HETATM    3  C7  UNL     1       1.288   7.063  11.068  1.00  0.00     0.013 C 
HETATM    4  C8  UNL     1       1.644   7.268  12.573  1.00  0.00    -0.026 C 
HETATM    5  C9  UNL     1       1.450   5.918  13.305  1.00  0.00     0.016 C 
HETATM    6  C10 UNL     1       3.147   7.666  12.717  1.00  0.00     0.071 C 
HETATM    7  C11 UNL     1       3.576   8.642  11.613  1.00  0.00     0.045 C 
HETATM    8  C12 UNL     1       3.532   8.231  14.082  1.00  0.00     0.161 C 
HETATM    9  O3  UNL     1       4.711   8.259  14.446  1.00  0.00    -0.292 OA
HETATM   10  C13 UNL     1       2.486   8.830  14.960  1.00  0.00    -0.006 C 
HETATM   11  C14 UNL     1       1.211   8.868  14.524  1.00  0.00    -0.030 C 
HETATM   12  C15 UNL     1       0.723   8.389  13.169  1.00  0.00     0.027 C 
HETATM   13  C16 UNL     1      -0.800   8.052  13.127  1.00  0.00     0.011 C 
HETATM   14  C17 UNL     1      -1.716   9.029  13.908  1.00  0.00     0.014 C 
HETATM   15  C18 UNL     1      -1.239   9.161  15.367  1.00  0.00    -0.002 C 
HETATM   16  C19 UNL     1      -1.384   7.781  16.066  1.00  0.00     0.019 C 
HETATM   17  C20 UNL     1      -1.821  10.336  16.241  1.00  0.00     0.034 C 
HETATM   18  C35 UNL     1      -0.688  10.607  17.300  1.00  0.00     0.016 C 
HETATM   19  C36 UNL     1       0.546   9.847  16.777  1.00  0.00     0.026 C 
HETATM   20  C37 UNL     1       1.934  10.427  16.952  1.00  0.00     0.013 C 
HETATM   21  C38 UNL     1       2.958   9.491  16.255  1.00  0.00     0.043 C 
HETATM   22  C39 UNL     1       0.226   9.666  15.301  1.00  0.00     0.094 C 
ENDROOT
BRANCH  17  23
HETATM   23  C21 UNL     1      -3.303  10.395  16.742  1.00  0.00     0.087 C 
HETATM   24  C22 UNL     1      -3.718  11.745  17.325  1.00  0.00     0.049 C 
BRANCH  23  25
HETATM   25  O4  UNL     1      -3.374   9.440  17.817  1.00  0.00    -0.387 OA
HETATM   26  H33 UNL     1      -4.248   9.007  17.772  1.00  0.00     0.210 HD
ENDBRANCH  23  25
BRANCH  23  27
HETATM   27  C23 UNL     1      -4.237   9.976  15.527  1.00  0.00     0.181 C 
BRANCH  27  28
HETATM   28  O5  UNL     1      -5.448  10.735  15.504  1.00  0.00    -0.390 OA
HETATM   29  H35 UNL     1      -5.816  10.671  14.604  1.00  0.00     0.210 HD
ENDBRANCH  27  28
BRANCH  27  30
HETATM   30  C24 UNL     1      -4.504   8.478  15.226  1.00  0.00     0.158 C 
HETATM   31  O6  UNL     1      -5.680   7.989  15.929  1.00  0.00    -0.373 OA
HETATM   32  C25 UNL     1      -5.929   6.705  15.340  1.00  0.00     0.185 C 
HETATM   33  C26 UNL     1      -5.805   6.990  13.860  1.00  0.00     0.028 C 
HETATM   34  C32 UNL     1      -7.294   6.085  15.646  1.00  0.00     0.384 C 
HETATM   35  C27 UNL     1      -5.871   5.669  13.110  1.00  0.00     0.053 C 
HETATM   36  C33 UNL     1      -4.517   7.818  13.814  1.00  0.00     0.020 C 
HETATM   37  C28 UNL     1      -7.182   4.924  13.471  1.00  0.00     0.309 C 
HETATM   38  N2  UNL     1      -7.476   4.837  14.924  1.00  0.00     0.128 N 
HETATM   39  H46 UNL     1      -6.870   4.127  15.338  1.00  0.00     0.320 HD
HETATM   40  C34 UNL     1      -4.431   8.676  12.562  1.00  0.00     0.013 C 
BRANCH  37  41
HETATM   41  C29 UNL     1      -7.088   3.491  12.920  1.00  0.00     0.233 C 
HETATM   42  O7  UNL     1      -7.883   2.606  13.248  1.00  0.00    -0.277 OA
HETATM   43  N1  UNL     1      -6.014   3.313  12.047  1.00  0.00    -0.249 NA
HETATM   44  C30 UNL     1      -6.151   2.374  10.960  1.00  0.00     0.113 A 
HETATM   45  C31 UNL     1      -5.239   2.102  12.096  1.00  0.00     0.113 A 
ENDBRANCH  37  41
BRANCH  34  46
HETATM   46  O8  UNL     1      -7.373   5.808  17.033  1.00  0.00    -0.366 OA
HETATM   47  H48 UNL     1      -7.220   6.653  17.478  1.00  0.00     0.212 HD
ENDBRANCH  34  46
ENDBRANCH  27  30
ENDBRANCH  23  27
ENDBRANCH  17  23
BRANCH  22  48
HETATM   48  O9  UNL     1       0.268  10.959  14.641  1.00  0.00    -0.384 OA
HETATM   49  H60 UNL     1       1.200  11.205  14.514  1.00  0.00     0.211 HD
ENDBRANCH  22  48
BRANCH   1  50
HETATM   50  O2  UNL     1       4.769   7.509   9.833  1.00  0.00    -0.386 OA
BRANCH  50  51
HETATM   51  C4  UNL     1       5.827   7.989  10.666  1.00  0.00     0.170 C 
BRANCH  51  52
HETATM   52  C3  UNL     1       6.746   6.835  11.042  1.00  0.00     0.052 C 
BRANCH  52  53
HETATM   53  C2  UNL     1       7.228   6.951  12.483  1.00  0.00     0.169 C 
BRANCH  53  54
HETATM   54  O1  UNL     1       8.293   7.901  12.533  1.00  0.00    -0.396 OA
HETATM   55  C1  UNL     1       8.474   8.398  13.856  1.00  0.00     0.201 C 
ENDBRANCH  53  54
ENDBRANCH  52  53
ENDBRANCH  51  52
ENDBRANCH  50  51
ENDBRANCH   1  50
TORSDOF 13
ENDMDL
