MODEL 1
REMARK minimizedAffinity -9.22822762
REMARK  7 active torsions:
REMARK  status: ('A' for Active; 'I' for Inactive)
REMARK    1  A    between atoms: C3_3  and  C5_5 
REMARK    2  A    between atoms: C6_6  and  C7_7 
REMARK    3  A    between atoms: C8_8  and  C9_9 
REMARK    4  A    between atoms: C10_10  and  C12_12 
REMARK    5  A    between atoms: C12_12  and  C13_14 
REMARK    6  A    between atoms: C13_14  and  C15_16 
REMARK    7  A    between atoms: C15_16  and  O2_17 
ROOT
HETATM    1  C5  UNL     1      -4.423  48.832 -23.640  1.00  0.00     0.058 C 
HETATM    2  C6  UNL     1      -2.877  48.855 -23.327  1.00  0.00     0.024 C 
HETATM    3  C16 UNL     1      -2.580  49.032 -21.783  1.00  0.00     0.003 C 
HETATM    4  C17 UNL     1      -1.653  47.899 -21.294  1.00  0.00     0.041 C 
HETATM    5  C18 UNL     1      -1.422  47.927 -19.816  1.00  0.00     0.157 A 
HETATM    6  O3  UNL     1      -2.463  47.263 -19.071  1.00  0.00    -0.370 OA
HETATM    7  C19 UNL     1      -2.341  48.674 -18.878  1.00  0.00     0.084 A 
HETATM    8  C20 UNL     1      -1.848  49.053 -17.518  1.00  0.00     0.049 C 
HETATM    9  C21 UNL     1      -3.469  49.488 -19.442  1.00  0.00     0.048 C 
HETATM   10  C22 UNL     1      -3.842  49.113 -20.887  1.00  0.00     0.025 C 
HETATM   11  C23 UNL     1      -4.794  50.126 -21.462  1.00  0.00     0.162 A 
HETATM   12  O4  UNL     1      -6.048  49.617 -21.921  1.00  0.00    -0.368 OA
HETATM   13  C24 UNL     1      -5.100  50.007 -22.935  1.00  0.00     0.092 A 
HETATM   14  C25 UNL     1      -5.455  51.266 -23.658  1.00  0.00     0.049 C 
ENDROOT
BRANCH   2  15
HETATM   15  C7  UNL     1      -1.951  49.809 -24.078  1.00  0.00    -0.021 C 
HETATM   16  C8  UNL     1      -1.380  50.940 -23.641  1.00  0.00    -0.003 C 
BRANCH  16  17
HETATM   17  C9  UNL     1      -0.544  51.772 -24.481  1.00  0.00     0.010 C 
HETATM   18  C10 UNL     1      -0.928  52.357 -25.630  1.00  0.00    -0.016 C 
HETATM   19  C11 UNL     1      -2.293  52.374 -26.239  1.00  0.00     0.052 C 
BRANCH  18  20
HETATM   20  C12 UNL     1       0.138  53.143 -26.321  1.00  0.00     0.161 C 
HETATM   21  O1  UNL     1       0.188  54.364 -26.153  1.00  0.00    -0.292 OA
BRANCH  20  22
HETATM   22  C13 UNL     1       1.126  52.445 -27.253  1.00  0.00     0.080 C 
HETATM   23  C14 UNL     1       0.377  51.642 -28.311  1.00  0.00     0.020 C 
BRANCH  22  24
HETATM   24  C15 UNL     1       2.158  51.585 -26.526  1.00  0.00     0.176 C 
BRANCH  24  25
HETATM   25  O2  UNL     1       3.341  51.449 -27.308  1.00  0.00    -0.400 OA
HETATM   26  H22 UNL     1       3.114  50.934 -28.102  1.00  0.00     0.209 HD
ENDBRANCH  24  25
ENDBRANCH  22  24
ENDBRANCH  20  22
ENDBRANCH  18  20
ENDBRANCH  16  17
ENDBRANCH   2  15
BRANCH   1  27
HETATM   27  C3  UNL     1      -4.927  48.481 -25.053  1.00  0.00    -0.080 C 
HETATM   28  C2  UNL     1      -4.178  48.570 -26.173  1.00  0.00    -0.028 C 
HETATM   29  C1  UNL     1      -4.591  48.255 -27.578  1.00  0.00     0.036 C 
HETATM   30  C4  UNL     1      -6.323  47.892 -25.080  1.00  0.00     0.043 C 
ENDBRANCH   1  27
TORSDOF 7
ENDMDL
MODEL 2
REMARK minimizedAffinity -8.78639412
REMARK  7 active torsions:
REMARK  status: ('A' for Active; 'I' for Inactive)
REMARK    1  A    between atoms: C3_3  and  C5_5 
REMARK    2  A    between atoms: C6_6  and  C7_7 
REMARK    3  A    between atoms: C8_8  and  C9_9 
REMARK    4  A    between atoms: C10_10  and  C12_12 
REMARK    5  A    between atoms: C12_12  and  C13_14 
REMARK    6  A    between atoms: C13_14  and  C15_16 
REMARK    7  A    between atoms: C15_16  and  O2_17 
ROOT
HETATM    1  C5  UNL     1      -1.793  49.815 -22.812  1.00  0.00     0.058 C 
HETATM    2  C6  UNL     1      -2.125  49.571 -24.335  1.00  0.00     0.024 C 
HETATM    3  C16 UNL     1      -1.735  50.810 -25.240  1.00  0.00     0.003 C 
HETATM    4  C17 UNL     1      -0.816  50.351 -26.390  1.00  0.00     0.041 C 
HETATM    5  C18 UNL     1      -0.305  51.486 -27.221  1.00  0.00     0.157 A 
HETATM    6  O3  UNL     1       0.869  52.108 -26.662  1.00  0.00    -0.370 OA
HETATM    7  C19 UNL     1      -0.312  52.910 -26.718  1.00  0.00     0.084 A 
HETATM    8  C20 UNL     1      -0.229  54.034 -27.701  1.00  0.00     0.049 C 
HETATM    9  C21 UNL     1      -0.928  53.220 -25.385  1.00  0.00     0.048 C 
HETATM   10  C22 UNL     1      -1.084  51.990 -24.473  1.00  0.00     0.025 C 
HETATM   11  C23 UNL     1      -1.927  52.329 -23.274  1.00  0.00     0.162 A 
HETATM   12  O4  UNL     1      -1.317  52.122 -22.000  1.00  0.00    -0.368 OA
HETATM   13  C24 UNL     1      -2.336  51.179 -22.387  1.00  0.00     0.092 A 
HETATM   14  C25 UNL     1      -3.623  51.322 -21.640  1.00  0.00     0.049 C 
ENDROOT
BRANCH   2  15
HETATM   15  C7  UNL     1      -3.521  49.123 -24.759  1.00  0.00    -0.021 C 
HETATM   16  C8  UNL     1      -3.892  48.482 -25.877  1.00  0.00    -0.003 C 
BRANCH  16  17
HETATM   17  C9  UNL     1      -5.270  48.146 -26.168  1.00  0.00     0.010 C 
HETATM   18  C10 UNL     1      -5.783  47.947 -27.395  1.00  0.00    -0.016 C 
HETATM   19  C11 UNL     1      -5.055  47.922 -28.700  1.00  0.00     0.052 C 
BRANCH  18  20
HETATM   20  C12 UNL     1      -7.245  47.639 -27.423  1.00  0.00     0.161 C 
HETATM   21  O1  UNL     1      -7.748  47.207 -28.463  1.00  0.00    -0.292 OA
BRANCH  20  22
HETATM   22  C13 UNL     1      -8.108  47.894 -26.189  1.00  0.00     0.080 C 
HETATM   23  C14 UNL     1      -8.352  46.591 -25.436  1.00  0.00     0.020 C 
BRANCH  22  24
HETATM   24  C15 UNL     1      -9.417  48.620 -26.490  1.00  0.00     0.176 C 
BRANCH  24  25
HETATM   25  O2  UNL     1      -9.312  50.004 -26.172  1.00  0.00    -0.400 OA
HETATM   26  H22 UNL     1      -9.210  50.080 -25.207  1.00  0.00     0.209 HD
ENDBRANCH  24  25
ENDBRANCH  22  24
ENDBRANCH  20  22
ENDBRANCH  18  20
ENDBRANCH  16  17
ENDBRANCH   2  15
BRANCH   1  27
HETATM   27  C3  UNL     1      -1.920  48.665 -21.794  1.00  0.00    -0.080 C 
HETATM   28  C2  UNL     1      -2.855  47.694 -21.854  1.00  0.00    -0.028 C 
HETATM   29  C1  UNL     1      -3.049  46.549 -20.907  1.00  0.00     0.036 C 
HETATM   30  C4  UNL     1      -0.809  48.631 -20.763  1.00  0.00     0.043 C 
ENDBRANCH   1  27
TORSDOF 7
ENDMDL
MODEL 3
REMARK minimizedAffinity -8.63033009
REMARK  7 active torsions:
REMARK  status: ('A' for Active; 'I' for Inactive)
REMARK    1  A    between atoms: C3_3  and  C5_5 
REMARK    2  A    between atoms: C6_6  and  C7_7 
REMARK    3  A    between atoms: C8_8  and  C9_9 
REMARK    4  A    between atoms: C10_10  and  C12_12 
REMARK    5  A    between atoms: C12_12  and  C13_14 
REMARK    6  A    between atoms: C13_14  and  C15_16 
REMARK    7  A    between atoms: C15_16  and  O2_17 
ROOT
HETATM    1  C5  UNL     1      -2.958  50.147 -20.511  1.00  0.00     0.058 C 
HETATM    2  C6  UNL     1      -3.569  50.656 -21.873  1.00  0.00     0.024 C 
HETATM    3  C16 UNL     1      -4.626  49.642 -22.473  1.00  0.00     0.003 C 
HETATM    4  C17 UNL     1      -5.957  50.373 -22.747  1.00  0.00     0.041 C 
HETATM    5  C18 UNL     1      -7.048  49.455 -23.203  1.00  0.00     0.157 A 
HETATM    6  O3  UNL     1      -7.737  48.814 -22.110  1.00  0.00    -0.370 OA
HETATM    7  C19 UNL     1      -6.982  47.963 -22.975  1.00  0.00     0.084 A 
HETATM    8  C20 UNL     1      -7.827  47.057 -23.812  1.00  0.00     0.049 C 
HETATM    9  C21 UNL     1      -5.754  47.363 -22.355  1.00  0.00     0.048 C 
HETATM   10  C22 UNL     1      -4.877  48.382 -21.605  1.00  0.00     0.025 C 
HETATM   11  C23 UNL     1      -3.556  47.765 -21.234  1.00  0.00     0.162 A 
HETATM   12  O4  UNL     1      -3.236  47.762 -19.842  1.00  0.00    -0.368 OA
HETATM   13  C24 UNL     1      -2.510  48.694 -20.669  1.00  0.00     0.092 A 
HETATM   14  C25 UNL     1      -1.080  48.326 -20.901  1.00  0.00     0.049 C 
ENDROOT
BRANCH   2  15
HETATM   15  C7  UNL     1      -2.655  51.086 -23.017  1.00  0.00    -0.021 C 
HETATM   16  C8  UNL     1      -2.490  52.308 -23.545  1.00  0.00    -0.003 C 
BRANCH  16  17
HETATM   17  C9  UNL     1      -1.606  52.567 -24.662  1.00  0.00     0.010 C 
HETATM   18  C10 UNL     1      -0.274  52.736 -24.581  1.00  0.00    -0.016 C 
HETATM   19  C11 UNL     1       0.597  52.597 -23.374  1.00  0.00     0.052 C 
BRANCH  18  20
HETATM   20  C12 UNL     1       0.404  53.019 -25.882  1.00  0.00     0.161 C 
HETATM   21  O1  UNL     1       0.467  54.183 -26.286  1.00  0.00    -0.292 OA
BRANCH  20  22
HETATM   22  C13 UNL     1       0.976  51.875 -26.716  1.00  0.00     0.080 C 
HETATM   23  C14 UNL     1       0.030  50.679 -26.691  1.00  0.00     0.020 C 
BRANCH  22  24
HETATM   24  C15 UNL     1       2.396  51.473 -26.322  1.00  0.00     0.176 C 
BRANCH  24  25
HETATM   25  O2  UNL     1       3.275  51.569 -27.438  1.00  0.00    -0.400 OA
HETATM   26  H22 UNL     1       3.006  50.897 -28.087  1.00  0.00     0.209 HD
ENDBRANCH  24  25
ENDBRANCH  22  24
ENDBRANCH  20  22
ENDBRANCH  18  20
ENDBRANCH  16  17
ENDBRANCH   2  15
BRANCH   1  27
HETATM   27  C3  UNL     1      -2.053  51.068 -19.670  1.00  0.00    -0.080 C 
HETATM   28  C2  UNL     1      -1.064  51.834 -20.177  1.00  0.00    -0.028 C 
HETATM   29  C1  UNL     1      -0.141  52.749 -19.432  1.00  0.00     0.036 C 
HETATM   30  C4  UNL     1      -2.448  51.151 -18.209  1.00  0.00     0.043 C 
ENDBRANCH   1  27
TORSDOF 7
ENDMDL
MODEL 4
REMARK minimizedAffinity -8.56186104
REMARK  7 active torsions:
REMARK  status: ('A' for Active; 'I' for Inactive)
REMARK    1  A    between atoms: C3_3  and  C5_5 
REMARK    2  A    between atoms: C6_6  and  C7_7 
REMARK    3  A    between atoms: C8_8  and  C9_9 
REMARK    4  A    between atoms: C10_10  and  C12_12 
REMARK    5  A    between atoms: C12_12  and  C13_14 
REMARK    6  A    between atoms: C13_14  and  C15_16 
REMARK    7  A    between atoms: C15_16  and  O2_17 
ROOT
HETATM    1  C5  UNL     1      -3.408  50.923 -24.336  1.00  0.00     0.058 C 
HETATM    2  C6  UNL     1      -2.150  51.494 -23.575  1.00  0.00     0.024 C 
HETATM    3  C16 UNL     1      -0.840  51.448 -24.463  1.00  0.00     0.003 C 
HETATM    4  C17 UNL     1      -0.199  52.851 -24.525  1.00  0.00     0.041 C 
HETATM    5  C18 UNL     1       0.978  52.917 -25.446  1.00  0.00     0.157 A 
HETATM    6  O3  UNL     1       0.605  53.133 -26.822  1.00  0.00    -0.370 OA
HETATM    7  C19 UNL     1       1.215  51.877 -26.516  1.00  0.00     0.084 A 
HETATM    8  C20 UNL     1       2.586  51.719 -27.093  1.00  0.00     0.049 C 
HETATM    9  C21 UNL     1       0.299  50.692 -26.610  1.00  0.00     0.048 C 
HETATM   10  C22 UNL     1      -1.049  50.892 -25.895  1.00  0.00     0.025 C 
HETATM   11  C23 UNL     1      -1.799  49.590 -25.817  1.00  0.00     0.162 A 
HETATM   12  O4  UNL     1      -3.098  49.579 -26.412  1.00  0.00    -0.368 OA
HETATM   13  C24 UNL     1      -3.049  49.580 -24.971  1.00  0.00     0.092 A 
HETATM   14  C25 UNL     1      -3.432  48.279 -24.342  1.00  0.00     0.049 C 
ENDROOT
BRANCH   2  15
HETATM   15  C7  UNL     1      -1.777  50.966 -22.192  1.00  0.00    -0.021 C 
HETATM   16  C8  UNL     1      -0.598  51.033 -21.559  1.00  0.00    -0.003 C 
BRANCH  16  17
HETATM   17  C9  UNL     1      -0.376  50.453 -20.251  1.00  0.00     0.010 C 
HETATM   18  C10 UNL     1      -0.436  51.116 -19.082  1.00  0.00    -0.016 C 
HETATM   19  C11 UNL     1      -0.837  52.537 -18.853  1.00  0.00     0.052 C 
BRANCH  18  20
HETATM   20  C12 UNL     1      -0.138  50.288 -17.874  1.00  0.00     0.161 C 
HETATM   21  O1  UNL     1      -0.593  49.144 -17.803  1.00  0.00    -0.292 OA
BRANCH  20  22
HETATM   22  C13 UNL     1       0.688  50.870 -16.729  1.00  0.00     0.080 C 
HETATM   23  C14 UNL     1      -0.197  51.122 -15.514  1.00  0.00     0.020 C 
BRANCH  22  24
HETATM   24  C15 UNL     1       1.481  52.117 -17.111  1.00  0.00     0.176 C 
BRANCH  24  25
HETATM   25  O2  UNL     1       1.365  53.117 -16.104  1.00  0.00    -0.400 OA
HETATM   26  H22 UNL     1       0.439  53.416 -16.088  1.00  0.00     0.209 HD
ENDBRANCH  24  25
ENDBRANCH  22  24
ENDBRANCH  20  22
ENDBRANCH  18  20
ENDBRANCH  16  17
ENDBRANCH   2  15
BRANCH   1  27
HETATM   27  C3  UNL     1      -4.815  51.051 -23.720  1.00  0.00    -0.080 C 
HETATM   28  C2  UNL     1      -5.712  50.044 -23.655  1.00  0.00    -0.028 C 
HETATM   29  C1  UNL     1      -7.095  50.086 -23.080  1.00  0.00     0.036 C 
HETATM   30  C4  UNL     1      -5.079  52.390 -23.063  1.00  0.00     0.043 C 
ENDBRANCH   1  27
TORSDOF 7
ENDMDL
MODEL 5
REMARK minimizedAffinity -8.49560928
REMARK  7 active torsions:
REMARK  status: ('A' for Active; 'I' for Inactive)
REMARK    1  A    between atoms: C3_3  and  C5_5 
REMARK    2  A    between atoms: C6_6  and  C7_7 
REMARK    3  A    between atoms: C8_8  and  C9_9 
REMARK    4  A    between atoms: C10_10  and  C12_12 
REMARK    5  A    between atoms: C12_12  and  C13_14 
REMARK    6  A    between atoms: C13_14  and  C15_16 
REMARK    7  A    between atoms: C15_16  and  O2_17 
ROOT
HETATM    1  C5  UNL     1      -2.886  49.388 -23.300  1.00  0.00     0.058 C 
HETATM    2  C6  UNL     1      -2.677  49.257 -24.858  1.00  0.00     0.024 C 
HETATM    3  C16 UNL     1      -2.055  50.567 -25.492  1.00  0.00     0.003 C 
HETATM    4  C17 UNL     1      -0.785  50.211 -26.292  1.00  0.00     0.041 C 
HETATM    5  C18 UNL     1      -0.069  51.413 -26.823  1.00  0.00     0.157 A 
HETATM    6  O3  UNL     1       0.823  52.008 -25.859  1.00  0.00    -0.370 OA
HETATM    7  C19 UNL     1      -0.302  52.795 -26.257  1.00  0.00     0.084 A 
HETATM    8  C20 UNL     1       0.063  53.992 -27.076  1.00  0.00     0.049 C 
HETATM    9  C21 UNL     1      -1.342  52.993 -25.194  1.00  0.00     0.048 C 
HETATM   10  C22 UNL     1      -1.746  51.694 -24.473  1.00  0.00     0.025 C 
HETATM   11  C23 UNL     1      -2.957  51.928 -23.611  1.00  0.00     0.162 A 
HETATM   12  O4  UNL     1      -2.803  51.633 -22.222  1.00  0.00    -0.368 OA
HETATM   13  C24 UNL     1      -3.594  50.707 -22.994  1.00  0.00     0.092 A 
HETATM   14  C25 UNL     1      -5.062  50.774 -22.718  1.00  0.00     0.049 C 
ENDROOT
BRANCH   2  15
HETATM   15  C7  UNL     1      -3.830  48.822 -25.759  1.00  0.00    -0.021 C 
HETATM   16  C8  UNL     1      -3.794  48.455 -27.048  1.00  0.00    -0.003 C 
BRANCH  16  17
HETATM   17  C9  UNL     1      -4.981  48.097 -27.795  1.00  0.00     0.010 C 
HETATM   18  C10 UNL     1      -6.160  47.733 -27.259  1.00  0.00    -0.016 C 
HETATM   19  C11 UNL     1      -6.545  47.713 -25.815  1.00  0.00     0.052 C 
BRANCH  18  20
HETATM   20  C12 UNL     1      -7.221  47.385 -28.253  1.00  0.00     0.161 C 
HETATM   21  O1  UNL     1      -7.096  46.363 -28.932  1.00  0.00    -0.292 OA
BRANCH  20  22
HETATM   22  C13 UNL     1      -8.423  48.307 -28.448  1.00  0.00     0.080 C 
HETATM   23  C14 UNL     1      -9.661  47.709 -27.787  1.00  0.00     0.020 C 
BRANCH  22  24
HETATM   24  C15 UNL     1      -8.690  48.674 -29.906  1.00  0.00     0.176 C 
BRANCH  24  25
HETATM   25  O2  UNL     1      -8.738  50.088 -30.070  1.00  0.00    -0.400 OA
HETATM   26  H22 UNL     1      -9.520  50.415 -29.592  1.00  0.00     0.209 HD
ENDBRANCH  24  25
ENDBRANCH  22  24
ENDBRANCH  20  22
ENDBRANCH  18  20
ENDBRANCH  16  17
ENDBRANCH   2  15
BRANCH   1  27
HETATM   27  C3  UNL     1      -3.303  48.162 -22.465  1.00  0.00    -0.080 C 
HETATM   28  C2  UNL     1      -4.564  47.690 -22.381  1.00  0.00    -0.028 C 
HETATM   29  C1  UNL     1      -5.052  46.514 -21.592  1.00  0.00     0.036 C 
HETATM   30  C4  UNL     1      -2.140  47.429 -21.827  1.00  0.00     0.043 C 
ENDBRANCH   1  27
TORSDOF 7
ENDMDL
MODEL 6
REMARK minimizedAffinity -8.030303
REMARK  7 active torsions:
REMARK  status: ('A' for Active; 'I' for Inactive)
REMARK    1  A    between atoms: C3_3  and  C5_5 
REMARK    2  A    between atoms: C6_6  and  C7_7 
REMARK    3  A    between atoms: C8_8  and  C9_9 
REMARK    4  A    between atoms: C10_10  and  C12_12 
REMARK    5  A    between atoms: C12_12  and  C13_14 
REMARK    6  A    between atoms: C13_14  and  C15_16 
REMARK    7  A    between atoms: C15_16  and  O2_17 
ROOT
HETATM    1  C5  UNL     1      -4.391  49.101 -22.415  1.00  0.00     0.058 C 
HETATM    2  C6  UNL     1      -2.831  49.335 -22.422  1.00  0.00     0.024 C 
HETATM    3  C16 UNL     1      -2.295  49.848 -21.024  1.00  0.00     0.003 C 
HETATM    4  C17 UNL     1      -1.156  48.932 -20.530  1.00  0.00     0.041 C 
HETATM    5  C18 UNL     1      -0.677  49.280 -19.156  1.00  0.00     0.157 A 
HETATM    6  O3  UNL     1      -1.476  48.685 -18.114  1.00  0.00    -0.370 OA
HETATM    7  C19 UNL     1      -1.509  50.111 -18.207  1.00  0.00     0.084 A 
HETATM    8  C20 UNL     1      -0.842  50.803 -17.062  1.00  0.00     0.049 C 
HETATM    9  C21 UNL     1      -2.815  50.682 -18.676  1.00  0.00     0.048 C 
HETATM   10  C22 UNL     1      -3.382  49.988 -19.927  1.00  0.00     0.025 C 
HETATM   11  C23 UNL     1      -4.545  50.768 -20.478  1.00  0.00     0.162 A 
HETATM   12  O4  UNL     1      -5.781  50.060 -20.582  1.00  0.00    -0.368 OA
HETATM   13  C24 UNL     1      -5.084  50.324 -21.816  1.00  0.00     0.092 A 
HETATM   14  C25 UNL     1      -5.723  51.371 -22.671  1.00  0.00     0.049 C 
ENDROOT
BRANCH   2  15
HETATM   15  C7  UNL     1      -2.184  50.201 -23.500  1.00  0.00    -0.021 C 
HETATM   16  C8  UNL     1      -2.135  51.538 -23.584  1.00  0.00    -0.003 C 
BRANCH  16  17
HETATM   17  C9  UNL     1      -1.512  52.232 -24.691  1.00  0.00     0.010 C 
HETATM   18  C10 UNL     1      -0.365  52.931 -24.628  1.00  0.00    -0.016 C 
HETATM   19  C11 UNL     1       0.565  53.066 -23.466  1.00  0.00     0.052 C 
BRANCH  18  20
HETATM   20  C12 UNL     1       0.048  53.577 -25.911  1.00  0.00     0.161 C 
HETATM   21  O1  UNL     1       0.325  54.779 -25.916  1.00  0.00    -0.292 OA
BRANCH  20  22
HETATM   22  C13 UNL     1       0.089  52.764 -27.203  1.00  0.00     0.080 C 
HETATM   23  C14 UNL     1       1.467  52.139 -27.391  1.00  0.00     0.020 C 
BRANCH  22  24
HETATM   24  C15 UNL     1      -0.343  53.548 -28.440  1.00  0.00     0.176 C 
BRANCH  24  25
HETATM   25  O2  UNL     1      -1.637  54.114 -28.252  1.00  0.00    -0.400 OA
HETATM   26  H22 UNL     1      -2.276  53.382 -28.195  1.00  0.00     0.209 HD
ENDBRANCH  24  25
ENDBRANCH  22  24
ENDBRANCH  20  22
ENDBRANCH  18  20
ENDBRANCH  16  17
ENDBRANCH   2  15
BRANCH   1  27
HETATM   27  C3  UNL     1      -5.083  48.424 -23.615  1.00  0.00    -0.080 C 
HETATM   28  C2  UNL     1      -4.730  48.614 -24.903  1.00  0.00    -0.028 C 
HETATM   29  C1  UNL     1      -5.350  48.002 -26.122  1.00  0.00     0.036 C 
HETATM   30  C4  UNL     1      -6.135  47.406 -23.224  1.00  0.00     0.043 C 
ENDBRANCH   1  27
TORSDOF 7
ENDMDL
MODEL 7
REMARK minimizedAffinity -7.9115448
REMARK  7 active torsions:
REMARK  status: ('A' for Active; 'I' for Inactive)
REMARK    1  A    between atoms: C3_3  and  C5_5 
REMARK    2  A    between atoms: C6_6  and  C7_7 
REMARK    3  A    between atoms: C8_8  and  C9_9 
REMARK    4  A    between atoms: C10_10  and  C12_12 
REMARK    5  A    between atoms: C12_12  and  C13_14 
REMARK    6  A    between atoms: C13_14  and  C15_16 
REMARK    7  A    between atoms: C15_16  and  O2_17 
ROOT
HETATM    1  C5  UNL     1      -3.962  48.593 -24.219  1.00  0.00     0.058 C 
HETATM    2  C6  UNL     1      -3.020  48.265 -22.997  1.00  0.00     0.024 C 
HETATM    3  C16 UNL     1      -3.812  47.631 -21.782  1.00  0.00     0.003 C 
HETATM    4  C17 UNL     1      -3.158  46.296 -21.369  1.00  0.00     0.041 C 
HETATM    5  C18 UNL     1      -3.921  45.573 -20.304  1.00  0.00     0.157 A 
HETATM    6  O3  UNL     1      -4.998  44.771 -20.830  1.00  0.00    -0.370 OA
HETATM    7  C19 UNL     1      -5.372  45.882 -20.012  1.00  0.00     0.084 A 
HETATM    8  C20 UNL     1      -5.953  45.487 -18.692  1.00  0.00     0.049 C 
HETATM    9  C21 UNL     1      -6.050  47.003 -20.744  1.00  0.00     0.048 C 
HETATM   10  C22 UNL     1      -5.328  47.427 -22.035  1.00  0.00     0.025 C 
HETATM   11  C23 UNL     1      -5.917  48.704 -22.570  1.00  0.00     0.162 A 
HETATM   12  O4  UNL     1      -6.432  48.646 -23.901  1.00  0.00    -0.368 OA
HETATM   13  C24 UNL     1      -5.190  49.354 -23.722  1.00  0.00     0.092 A 
HETATM   14  C25 UNL     1      -5.305  50.840 -23.844  1.00  0.00     0.049 C 
ENDROOT
BRANCH   2  15
HETATM   15  C7  UNL     1      -2.096  49.336 -22.424  1.00  0.00    -0.021 C 
HETATM   16  C8  UNL     1      -1.276  49.258 -21.366  1.00  0.00    -0.003 C 
BRANCH  16  17
HETATM   17  C9  UNL     1      -0.475  50.375 -20.910  1.00  0.00     0.010 C 
HETATM   18  C10 UNL     1      -0.888  51.340 -20.069  1.00  0.00    -0.016 C 
HETATM   19  C11 UNL     1      -2.193  51.431 -19.346  1.00  0.00     0.052 C 
BRANCH  18  20
HETATM   20  C12 UNL     1       0.128  52.397 -19.778  1.00  0.00     0.161 C 
HETATM   21  O1  UNL     1       0.700  52.395 -18.686  1.00  0.00    -0.292 OA
BRANCH  20  22
HETATM   22  C13 UNL     1       0.422  53.484 -20.809  1.00  0.00     0.080 C 
HETATM   23  C14 UNL     1       0.201  52.949 -22.220  1.00  0.00     0.020 C 
BRANCH  22  24
HETATM   24  C15 UNL     1       1.803  54.119 -20.662  1.00  0.00     0.176 C 
BRANCH  24  25
HETATM   25  O2  UNL     1       2.114  54.920 -21.797  1.00  0.00    -0.400 OA
HETATM   26  H22 UNL     1       2.202  54.327 -22.564  1.00  0.00     0.209 HD
ENDBRANCH  24  25
ENDBRANCH  22  24
ENDBRANCH  20  22
ENDBRANCH  18  20
ENDBRANCH  16  17
ENDBRANCH   2  15
BRANCH   1  27
HETATM   27  C3  UNL     1      -3.362  49.039 -25.567  1.00  0.00    -0.080 C 
HETATM   28  C2  UNL     1      -2.309  49.875 -25.692  1.00  0.00    -0.028 C 
HETATM   29  C1  UNL     1      -1.671  50.359 -26.958  1.00  0.00     0.036 C 
HETATM   30  C4  UNL     1      -3.977  48.354 -26.771  1.00  0.00     0.043 C 
ENDBRANCH   1  27
TORSDOF 7
ENDMDL
MODEL 8
REMARK minimizedAffinity -7.85489416
REMARK  7 active torsions:
REMARK  status: ('A' for Active; 'I' for Inactive)
REMARK    1  A    between atoms: C3_3  and  C5_5 
REMARK    2  A    between atoms: C6_6  and  C7_7 
REMARK    3  A    between atoms: C8_8  and  C9_9 
REMARK    4  A    between atoms: C10_10  and  C12_12 
REMARK    5  A    between atoms: C12_12  and  C13_14 
REMARK    6  A    between atoms: C13_14  and  C15_16 
REMARK    7  A    between atoms: C15_16  and  O2_17 
ROOT
HETATM    1  C5  UNL     1      -4.741  48.293 -23.501  1.00  0.00     0.058 C 
HETATM    2  C6  UNL     1      -3.500  48.217 -22.529  1.00  0.00     0.024 C 
HETATM    3  C16 UNL     1      -3.927  47.935 -21.031  1.00  0.00     0.003 C 
HETATM    4  C17 UNL     1      -3.167  46.705 -20.493  1.00  0.00     0.041 C 
HETATM    5  C18 UNL     1      -3.605  46.299 -19.121  1.00  0.00     0.157 A 
HETATM    6  O3  UNL     1      -4.772  45.452 -19.130  1.00  0.00    -0.370 OA
HETATM    7  C19 UNL     1      -4.927  46.745 -18.541  1.00  0.00     0.084 A 
HETATM    8  C20 UNL     1      -5.126  46.709 -17.059  1.00  0.00     0.049 C 
HETATM    9  C21 UNL     1      -5.793  47.693 -19.318  1.00  0.00     0.048 C 
HETATM   10  C22 UNL     1      -5.452  47.757 -20.817  1.00  0.00     0.025 C 
HETATM   11  C23 UNL     1      -6.181  48.898 -21.473  1.00  0.00     0.162 A 
HETATM   12  O4  UNL     1      -7.035  48.551 -22.564  1.00  0.00    -0.368 OA
HETATM   13  C24 UNL     1      -5.800  49.215 -22.898  1.00  0.00     0.092 A 
HETATM   14  C25 UNL     1      -5.965  50.632 -23.345  1.00  0.00     0.049 C 
ENDROOT
BRANCH   2  15
HETATM   15  C7  UNL     1      -2.471  49.345 -22.501  1.00  0.00    -0.021 C 
HETATM   16  C8  UNL     1      -2.664  50.661 -22.666  1.00  0.00    -0.003 C 
BRANCH  16  17
HETATM   17  C9  UNL     1      -1.581  51.621 -22.649  1.00  0.00     0.010 C 
HETATM   18  C10 UNL     1      -0.675  51.794 -23.628  1.00  0.00    -0.016 C 
HETATM   19  C11 UNL     1      -0.634  51.132 -24.968  1.00  0.00     0.052 C 
BRANCH  18  20
HETATM   20  C12 UNL     1       0.360  52.835 -23.350  1.00  0.00     0.161 C 
HETATM   21  O1  UNL     1       0.547  53.732 -24.176  1.00  0.00    -0.292 OA
BRANCH  20  22
HETATM   22  C13 UNL     1       1.199  52.764 -22.077  1.00  0.00     0.080 C 
HETATM   23  C14 UNL     1       0.716  51.622 -21.188  1.00  0.00     0.020 C 
BRANCH  22  24
HETATM   24  C15 UNL     1       1.267  54.081 -21.306  1.00  0.00     0.176 C 
BRANCH  24  25
HETATM   25  O2  UNL     1       1.959  55.071 -22.060  1.00  0.00    -0.400 OA
HETATM   26  H22 UNL     1       2.887  54.790 -22.138  1.00  0.00     0.209 HD
ENDBRANCH  24  25
ENDBRANCH  22  24
ENDBRANCH  20  22
ENDBRANCH  18  20
ENDBRANCH  16  17
ENDBRANCH   2  15
BRANCH   1  27
HETATM   27  C3  UNL     1      -4.532  48.372 -25.026  1.00  0.00    -0.080 C 
HETATM   28  C2  UNL     1      -3.338  48.573 -25.622  1.00  0.00    -0.028 C 
HETATM   29  C1  UNL     1      -3.052  48.667 -27.089  1.00  0.00     0.036 C 
HETATM   30  C4  UNL     1      -5.779  48.073 -25.833  1.00  0.00     0.043 C 
ENDBRANCH   1  27
TORSDOF 7
ENDMDL
MODEL 9
REMARK minimizedAffinity -7.79999208
REMARK  7 active torsions:
REMARK  status: ('A' for Active; 'I' for Inactive)
REMARK    1  A    between atoms: C3_3  and  C5_5 
REMARK    2  A    between atoms: C6_6  and  C7_7 
REMARK    3  A    between atoms: C8_8  and  C9_9 
REMARK    4  A    between atoms: C10_10  and  C12_12 
REMARK    5  A    between atoms: C12_12  and  C13_14 
REMARK    6  A    between atoms: C13_14  and  C15_16 
REMARK    7  A    between atoms: C15_16  and  O2_17 
ROOT
HETATM    1  C5  UNL     1      -5.131  48.532 -22.000  1.00  0.00     0.058 C 
HETATM    2  C6  UNL     1      -3.559  48.416 -22.050  1.00  0.00     0.024 C 
HETATM    3  C16 UNL     1      -2.867  49.103 -20.803  1.00  0.00     0.003 C 
HETATM    4  C17 UNL     1      -1.927  48.098 -20.105  1.00  0.00     0.041 C 
HETATM    5  C18 UNL     1      -1.327  48.634 -18.843  1.00  0.00     0.157 A 
HETATM    6  O3  UNL     1      -2.189  48.474 -17.698  1.00  0.00    -0.370 OA
HETATM    7  C19 UNL     1      -1.924  49.816 -18.115  1.00  0.00     0.084 A 
HETATM    8  C20 UNL     1      -1.076  50.587 -17.153  1.00  0.00     0.049 C 
HETATM    9  C21 UNL     1      -3.098  50.535 -18.711  1.00  0.00     0.048 C 
HETATM   10  C22 UNL     1      -3.852  49.716 -19.774  1.00  0.00     0.025 C 
HETATM   11  C23 UNL     1      -4.846  50.584 -20.496  1.00  0.00     0.162 A 
HETATM   12  O4  UNL     1      -6.207  50.154 -20.444  1.00  0.00    -0.368 OA
HETATM   13  C24 UNL     1      -5.523  49.979 -21.701  1.00  0.00     0.092 A 
HETATM   14  C25 UNL     1      -5.962  50.919 -22.777  1.00  0.00     0.049 C 
ENDROOT
BRANCH   2  15
HETATM   15  C7  UNL     1      -2.790  48.858 -23.293  1.00  0.00    -0.021 C 
HETATM   16  C8  UNL     1      -2.441  50.097 -23.666  1.00  0.00    -0.003 C 
BRANCH  16  17
HETATM   17  C9  UNL     1      -1.736  50.375 -24.900  1.00  0.00     0.010 C 
HETATM   18  C10 UNL     1      -0.731  51.257 -25.044  1.00  0.00    -0.016 C 
HETATM   19  C11 UNL     1      -0.054  52.058 -23.979  1.00  0.00     0.052 C 
BRANCH  18  20
HETATM   20  C12 UNL     1      -0.193  51.375 -26.433  1.00  0.00     0.161 C 
HETATM   21  O1  UNL     1      -0.797  50.831 -27.360  1.00  0.00    -0.292 OA
BRANCH  20  22
HETATM   22  C13 UNL     1       1.110  52.130 -26.690  1.00  0.00     0.080 C 
HETATM   23  C14 UNL     1       1.138  52.664 -28.118  1.00  0.00     0.020 C 
BRANCH  22  24
HETATM   24  C15 UNL     1       2.365  51.321 -26.371  1.00  0.00     0.176 C 
BRANCH  24  25
HETATM   25  O2  UNL     1       3.344  51.485 -27.393  1.00  0.00    -0.400 OA
HETATM   26  H22 UNL     1       2.996  51.078 -28.205  1.00  0.00     0.209 HD
ENDBRANCH  24  25
ENDBRANCH  22  24
ENDBRANCH  20  22
ENDBRANCH  18  20
ENDBRANCH  16  17
ENDBRANCH   2  15
BRANCH   1  27
HETATM   27  C3  UNL     1      -6.001  47.769 -23.018  1.00  0.00    -0.080 C 
HETATM   28  C2  UNL     1      -6.084  48.076 -24.330  1.00  0.00    -0.028 C 
HETATM   29  C1  UNL     1      -6.905  47.392 -25.380  1.00  0.00     0.036 C 
HETATM   30  C4  UNL     1      -6.677  46.538 -22.449  1.00  0.00     0.043 C 
ENDBRANCH   1  27
TORSDOF 7
ENDMDL
