MODEL 1
REMARK minimizedAffinity -7.38128233
REMARK CNNscore 0.399040163
REMARK CNNaffinity 6.0419693
REMARK  20 active torsions:
REMARK  status: ('A' for Active; 'I' for Inactive)
REMARK    1  A    between atoms: C2_2  and  C3_3 
REMARK    2  A    between atoms: C2_2  and  C28_35 
REMARK    3  A    between atoms: C4_4  and  C5_5 
REMARK    4  A    between atoms: C6_6  and  C7_7 
REMARK    5  A    between atoms: C6_6  and  C9_11 
REMARK    6  A    between atoms: C7_7  and  O1_8 
REMARK    7  A    between atoms: O1_8  and  C8_9 
REMARK    8  A    between atoms: C8_9  and  O2_10 
REMARK    9  A    between atoms: C13_15  and  O3_16 
REMARK   10  A    between atoms: C14_17  and  C15_18 
REMARK   11  A    between atoms: C15_18  and  C16_19 
REMARK   12  A    between atoms: C16_19  and  C17_20 
REMARK   13  A    between atoms: C17_20  and  O4_21 
REMARK   14  A    between atoms: C19_23  and  C21_25 
REMARK   15  A    between atoms: C24_29  and  O6_30 
REMARK   16  A    between atoms: C24_29  and  C25_31 
REMARK   17  A    between atoms: C25_31  and  C26_32 
REMARK   18  A    between atoms: C26_32  and  N1_33 
REMARK   19  A    between atoms: C28_35  and  C29_36 
REMARK   20  A    between atoms: C29_36  and  C30_37 
ROOT
HETATM    1  C9  UNL     1      -7.767  47.146 -27.955  1.00  0.00     0.046 C 
HETATM    2  C10 UNL     1      -7.083  45.857 -28.452  1.00  0.00     0.013 C 
HETATM    3  C11 UNL     1      -7.453  45.697 -29.933  1.00  0.00     0.017 C 
HETATM    4  C12 UNL     1      -8.175  47.018 -30.387  1.00  0.00     0.025 C 
HETATM    5  C13 UNL     1      -7.701  47.990 -29.256  1.00  0.00     0.138 C 
HETATM    6  C14 UNL     1      -9.762  46.712 -30.303  1.00  0.00     0.029 C 
HETATM    7  C18 UNL     1     -10.129  45.620 -31.335  1.00  0.00    -0.066 C 
HETATM    8  C19 UNL     1     -10.730  44.443 -31.030  1.00  0.00    -0.021 C 
HETATM    9  C20 UNL     1     -11.025  43.360 -32.027  1.00  0.00     0.052 C 
HETATM   10  C22 UNL     1      -9.726  45.983 -32.751  1.00  0.00     0.038 C 
HETATM   11  C23 UNL     1      -8.245  46.352 -32.859  1.00  0.00     0.043 C 
HETATM   12  C24 UNL     1      -7.806  47.457 -31.865  1.00  0.00     0.070 C 
ENDROOT
BRANCH   5  13
HETATM   13  O3  UNL     1      -6.350  48.406 -29.465  1.00  0.00    -0.394 OA
HETATM   14  H17 UNL     1      -6.028  48.823 -28.646  1.00  0.00     0.210 HD
ENDBRANCH   5  13
BRANCH   6  15
HETATM   15  C15 UNL     1     -10.821  47.847 -30.468  1.00  0.00     0.012 C 
BRANCH  15  16
HETATM   16  C16 UNL     1     -12.035  47.841 -29.532  1.00  0.00     0.027 C 
BRANCH  16  17
HETATM   17  C17 UNL     1     -11.689  47.787 -28.044  1.00  0.00     0.164 C 
BRANCH  17  18
HETATM   18  O4  UNL     1     -12.323  48.836 -27.322  1.00  0.00    -0.401 OA
HETATM   19  H25 UNL     1     -11.788  49.638 -27.469  1.00  0.00     0.209 HD
ENDBRANCH  17  18
ENDBRANCH  16  17
ENDBRANCH  15  16
ENDBRANCH   6  15
BRANCH  12  20
HETATM   20  O6  UNL     1      -8.617  48.628 -32.159  1.00  0.00    -0.389 OA
HETATM   21  H34 UNL     1      -8.454  48.868 -33.088  1.00  0.00     0.210 HD
ENDBRANCH  12  20
BRANCH  12  22
HETATM   22  C25 UNL     1      -6.366  47.951 -32.217  1.00  0.00     0.068 C 
BRANCH  22  23
HETATM   23  C26 UNL     1      -5.226  46.976 -32.523  1.00  0.00     0.272 C 
BRANCH  23  24
HETATM   24  N1  UNL     1      -4.737  47.104 -33.899  1.00  0.00     0.079 N 
HETATM   25  C27 UNL     1      -3.459  47.804 -33.928  1.00  0.00     0.306 C 
HETATM   26  H39 UNL     1      -5.414  47.641 -34.439  1.00  0.00     0.315 HD
ENDBRANCH  23  24
ENDBRANCH  22  23
ENDBRANCH  12  22
BRANCH   1  27
HETATM   27  C6  UNL     1      -7.235  47.676 -26.614  1.00  0.00    -0.050 C 
HETATM   28  C5  UNL     1      -5.966  47.992 -26.268  1.00  0.00     0.005 C 
BRANCH  28  29
HETATM   29  C4  UNL     1      -4.769  47.976 -27.076  1.00  0.00     0.001 C 
HETATM   30  C3  UNL     1      -3.551  48.482 -26.817  1.00  0.00     0.006 C 
BRANCH  30  31
HETATM   31  C2  UNL     1      -3.007  49.212 -25.670  1.00  0.00    -0.067 C 
HETATM   32  C1  UNL     1      -2.021  50.100 -25.902  1.00  0.00     0.019 C 
BRANCH  31  33
HETATM   33  C28 UNL     1      -3.627  49.009 -24.298  1.00  0.00     0.041 C 
BRANCH  33  34
HETATM   34  C29 UNL     1      -2.743  48.395 -23.200  1.00  0.00     0.032 C 
BRANCH  34  35
HETATM   35  C30 UNL     1      -1.917  49.454 -22.514  1.00  0.00    -0.024 C 
HETATM   36  C31 UNL     1      -1.142  49.306 -21.422  1.00  0.00    -0.091 C 
HETATM   37  C32 UNL     1      -0.387  50.475 -20.845  1.00  0.00     0.042 C 
HETATM   38  C33 UNL     1      -0.926  48.008 -20.687  1.00  0.00     0.042 C 
ENDBRANCH  34  35
ENDBRANCH  33  34
ENDBRANCH  31  33
ENDBRANCH  30  31
ENDBRANCH  28  29
BRANCH  27  39
HETATM   39  C7  UNL     1      -8.319  48.001 -25.589  1.00  0.00     0.205 C 
BRANCH  39  40
HETATM   40  O1  UNL     1      -8.518  46.950 -24.649  1.00  0.00    -0.363 OA
BRANCH  40  41
HETATM   41  C8  UNL     1      -9.629  47.169 -23.800  1.00  0.00     0.334 C 
BRANCH  41  42
HETATM   42  O2  UNL     1     -10.752  47.440 -24.616  1.00  0.00    -0.377 OA
HETATM   43  H10 UNL     1     -10.445  48.135 -25.224  1.00  0.00     0.212 HD
ENDBRANCH  41  42
ENDBRANCH  40  41
ENDBRANCH  39  40
ENDBRANCH  27  39
ENDBRANCH   1  27
BRANCH   8  44
HETATM   44  C21 UNL     1     -11.140  44.087 -29.638  1.00  0.00     0.265 C 
HETATM   45  O5  UNL     1     -12.236  44.340 -29.155  1.00  0.00    -0.302 OA
ENDBRANCH   8  44
TORSDOF 20
ENDMDL
MODEL 2
REMARK minimizedAffinity -7.80265141
REMARK CNNscore 0.389126718
REMARK CNNaffinity 6.10347176
REMARK  20 active torsions:
REMARK  status: ('A' for Active; 'I' for Inactive)
REMARK    1  A    between atoms: C2_2  and  C3_3 
REMARK    2  A    between atoms: C2_2  and  C28_35 
REMARK    3  A    between atoms: C4_4  and  C5_5 
REMARK    4  A    between atoms: C6_6  and  C7_7 
REMARK    5  A    between atoms: C6_6  and  C9_11 
REMARK    6  A    between atoms: C7_7  and  O1_8 
REMARK    7  A    between atoms: O1_8  and  C8_9 
REMARK    8  A    between atoms: C8_9  and  O2_10 
REMARK    9  A    between atoms: C13_15  and  O3_16 
REMARK   10  A    between atoms: C14_17  and  C15_18 
REMARK   11  A    between atoms: C15_18  and  C16_19 
REMARK   12  A    between atoms: C16_19  and  C17_20 
REMARK   13  A    between atoms: C17_20  and  O4_21 
REMARK   14  A    between atoms: C19_23  and  C21_25 
REMARK   15  A    between atoms: C24_29  and  O6_30 
REMARK   16  A    between atoms: C24_29  and  C25_31 
REMARK   17  A    between atoms: C25_31  and  C26_32 
REMARK   18  A    between atoms: C26_32  and  N1_33 
REMARK   19  A    between atoms: C28_35  and  C29_36 
REMARK   20  A    between atoms: C29_36  and  C30_37 
ROOT
HETATM    1  C9  UNL     1      -7.769  47.216 -27.640  1.00  0.00     0.046 C 
HETATM    2  C10 UNL     1      -7.074  45.937 -28.145  1.00  0.00     0.013 C 
HETATM    3  C11 UNL     1      -7.390  45.817 -29.642  1.00  0.00     0.017 C 
HETATM    4  C12 UNL     1      -8.089  47.153 -30.088  1.00  0.00     0.025 C 
HETATM    5  C13 UNL     1      -7.651  48.093 -28.916  1.00  0.00     0.138 C 
HETATM    6  C14 UNL     1      -9.679  46.854 -30.069  1.00  0.00     0.029 C 
HETATM    7  C18 UNL     1     -10.014  45.791 -31.143  1.00  0.00    -0.066 C 
HETATM    8  C19 UNL     1     -10.631  44.610 -30.890  1.00  0.00    -0.021 C 
HETATM    9  C20 UNL     1     -10.895  43.555 -31.924  1.00  0.00     0.052 C 
HETATM   10  C22 UNL     1      -9.557  46.188 -32.533  1.00  0.00     0.038 C 
HETATM   11  C23 UNL     1      -8.072  46.551 -32.578  1.00  0.00     0.043 C 
HETATM   12  C24 UNL     1      -7.663  47.628 -31.540  1.00  0.00     0.070 C 
ENDROOT
BRANCH   5  13
HETATM   13  O3  UNL     1      -6.291  48.506 -29.065  1.00  0.00    -0.394 OA
HETATM   14  H17 UNL     1      -5.998  48.900 -28.224  1.00  0.00     0.210 HD
ENDBRANCH   5  13
BRANCH   6  15
HETATM   15  C15 UNL     1     -10.726  48.000 -30.243  1.00  0.00     0.012 C 
BRANCH  15  16
HETATM   16  C16 UNL     1     -11.986  47.962 -29.372  1.00  0.00     0.027 C 
BRANCH  16  17
HETATM   17  C17 UNL     1     -11.723  47.708 -27.887  1.00  0.00     0.164 C 
BRANCH  17  18
HETATM   18  O4  UNL     1     -12.025  48.856 -27.101  1.00  0.00    -0.401 OA
HETATM   19  H25 UNL     1     -11.263  49.459 -27.184  1.00  0.00     0.209 HD
ENDBRANCH  17  18
ENDBRANCH  16  17
ENDBRANCH  15  16
ENDBRANCH   6  15
BRANCH  12  20
HETATM   20  O6  UNL     1      -8.457  48.810 -31.833  1.00  0.00    -0.389 OA
HETATM   21  H34 UNL     1      -8.260  49.073 -32.748  1.00  0.00     0.210 HD
ENDBRANCH  12  20
BRANCH  12  22
HETATM   22  C25 UNL     1      -6.209  48.122 -31.827  1.00  0.00     0.068 C 
BRANCH  22  23
HETATM   23  C26 UNL     1      -5.087  47.158 -32.215  1.00  0.00     0.272 C 
BRANCH  23  24
HETATM   24  N1  UNL     1      -4.814  47.171 -33.656  1.00  0.00     0.079 N 
HETATM   25  C27 UNL     1      -3.531  47.805 -33.931  1.00  0.00     0.306 C 
HETATM   26  H39 UNL     1      -5.547  47.702 -34.124  1.00  0.00     0.315 HD
ENDBRANCH  23  24
ENDBRANCH  22  23
ENDBRANCH  12  22
BRANCH   1  27
HETATM   27  C6  UNL     1      -7.283  47.708 -26.267  1.00  0.00    -0.050 C 
HETATM   28  C5  UNL     1      -6.032  48.044 -25.878  1.00  0.00     0.005 C 
BRANCH  28  29
HETATM   29  C4  UNL     1      -4.816  48.089 -26.656  1.00  0.00     0.001 C 
HETATM   30  C3  UNL     1      -3.582  48.487 -26.299  1.00  0.00     0.006 C 
BRANCH  30  31
HETATM   31  C2  UNL     1      -3.035  49.005 -25.045  1.00  0.00    -0.067 C 
HETATM   32  C1  UNL     1      -3.519  48.501 -23.893  1.00  0.00     0.019 C 
BRANCH  31  33
HETATM   33  C28 UNL     1      -1.897  50.011 -25.088  1.00  0.00     0.041 C 
BRANCH  33  34
HETATM   34  C29 UNL     1      -1.534  50.619 -26.453  1.00  0.00     0.032 C 
BRANCH  34  35
HETATM   35  C30 UNL     1      -0.039  50.655 -26.650  1.00  0.00    -0.024 C 
HETATM   36  C31 UNL     1       0.834  51.530 -26.115  1.00  0.00    -0.091 C 
HETATM   37  C32 UNL     1       2.306  51.440 -26.425  1.00  0.00     0.042 C 
HETATM   38  C33 UNL     1       0.470  52.643 -25.167  1.00  0.00     0.042 C 
ENDBRANCH  34  35
ENDBRANCH  33  34
ENDBRANCH  31  33
ENDBRANCH  30  31
ENDBRANCH  28  29
BRANCH  27  39
HETATM   39  C7  UNL     1      -8.400  47.965 -25.259  1.00  0.00     0.205 C 
BRANCH  39  40
HETATM   40  O1  UNL     1      -9.059  46.770 -24.852  1.00  0.00    -0.363 OA
BRANCH  40  41
HETATM   41  C8  UNL     1     -10.063  46.994 -23.881  1.00  0.00     0.334 C 
BRANCH  41  42
HETATM   42  O2  UNL     1     -11.244  47.380 -24.556  1.00  0.00    -0.377 OA
HETATM   43  H10 UNL     1     -10.957  48.095 -25.150  1.00  0.00     0.212 HD
ENDBRANCH  41  42
ENDBRANCH  40  41
ENDBRANCH  39  40
ENDBRANCH  27  39
ENDBRANCH   1  27
BRANCH   8  44
HETATM   44  C21 UNL     1     -11.093  44.221 -29.523  1.00  0.00     0.265 C 
HETATM   45  O5  UNL     1     -10.377  43.708 -28.672  1.00  0.00    -0.302 OA
ENDBRANCH   8  44
TORSDOF 20
ENDMDL
MODEL 3
REMARK minimizedAffinity -7.82718897
REMARK CNNscore 0.316920668
REMARK CNNaffinity 6.0318017
REMARK  20 active torsions:
REMARK  status: ('A' for Active; 'I' for Inactive)
REMARK    1  A    between atoms: C2_2  and  C3_3 
REMARK    2  A    between atoms: C2_2  and  C28_35 
REMARK    3  A    between atoms: C4_4  and  C5_5 
REMARK    4  A    between atoms: C6_6  and  C7_7 
REMARK    5  A    between atoms: C6_6  and  C9_11 
REMARK    6  A    between atoms: C7_7  and  O1_8 
REMARK    7  A    between atoms: O1_8  and  C8_9 
REMARK    8  A    between atoms: C8_9  and  O2_10 
REMARK    9  A    between atoms: C13_15  and  O3_16 
REMARK   10  A    between atoms: C14_17  and  C15_18 
REMARK   11  A    between atoms: C15_18  and  C16_19 
REMARK   12  A    between atoms: C16_19  and  C17_20 
REMARK   13  A    between atoms: C17_20  and  O4_21 
REMARK   14  A    between atoms: C19_23  and  C21_25 
REMARK   15  A    between atoms: C24_29  and  O6_30 
REMARK   16  A    between atoms: C24_29  and  C25_31 
REMARK   17  A    between atoms: C25_31  and  C26_32 
REMARK   18  A    between atoms: C26_32  and  N1_33 
REMARK   19  A    between atoms: C28_35  and  C29_36 
REMARK   20  A    between atoms: C29_36  and  C30_37 
ROOT
HETATM    1  C9  UNL     1      -7.758  46.495 -29.198  1.00  0.00     0.046 C 
HETATM    2  C10 UNL     1      -7.244  45.118 -28.735  1.00  0.00     0.013 C 
HETATM    3  C11 UNL     1      -7.135  44.238 -29.988  1.00  0.00     0.017 C 
HETATM    4  C12 UNL     1      -7.365  45.162 -31.238  1.00  0.00     0.025 C 
HETATM    5  C13 UNL     1      -7.089  46.563 -30.597  1.00  0.00     0.138 C 
HETATM    6  C14 UNL     1      -8.919  44.976 -31.652  1.00  0.00     0.029 C 
HETATM    7  C18 UNL     1      -9.154  43.520 -32.119  1.00  0.00    -0.066 C 
HETATM    8  C19 UNL     1     -10.061  42.673 -31.570  1.00  0.00    -0.021 C 
HETATM    9  C20 UNL     1     -10.240  41.241 -31.984  1.00  0.00     0.052 C 
HETATM   10  C22 UNL     1      -8.241  43.107 -33.257  1.00  0.00     0.038 C 
HETATM   11  C23 UNL     1      -6.764  43.338 -32.933  1.00  0.00     0.043 C 
HETATM   12  C24 UNL     1      -6.447  44.784 -32.475  1.00  0.00     0.070 C 
ENDROOT
BRANCH   5  13
HETATM   13  O3  UNL     1      -5.688  46.785 -30.426  1.00  0.00    -0.394 OA
HETATM   14  H17 UNL     1      -5.570  47.553 -29.838  1.00  0.00     0.210 HD
ENDBRANCH   5  13
BRANCH   6  15
HETATM   15  C15 UNL     1      -9.594  45.894 -32.719  1.00  0.00     0.012 C 
BRANCH  15  16
HETATM   16  C16 UNL     1     -11.117  45.816 -32.876  1.00  0.00     0.027 C 
BRANCH  16  17
HETATM   17  C17 UNL     1     -11.589  45.322 -34.244  1.00  0.00     0.164 C 
BRANCH  17  18
HETATM   18  O4  UNL     1     -12.782  45.981 -34.653  1.00  0.00    -0.401 OA
HETATM   19  H25 UNL     1     -13.517  45.542 -34.185  1.00  0.00     0.209 HD
ENDBRANCH  17  18
ENDBRANCH  16  17
ENDBRANCH  15  16
ENDBRANCH   6  15
BRANCH  12  20
HETATM   20  O6  UNL     1      -6.844  45.662 -33.564  1.00  0.00    -0.389 OA
HETATM   21  H34 UNL     1      -6.339  45.395 -34.351  1.00  0.00     0.210 HD
ENDBRANCH  12  20
BRANCH  12  22
HETATM   22  C25 UNL     1      -4.900  45.000 -32.419  1.00  0.00     0.068 C 
BRANCH  22  23
HETATM   23  C26 UNL     1      -4.267  46.380 -32.614  1.00  0.00     0.272 C 
BRANCH  23  24
HETATM   24  N1  UNL     1      -4.337  46.833 -34.006  1.00  0.00     0.079 N 
HETATM   25  C27 UNL     1      -4.000  48.248 -34.104  1.00  0.00     0.306 C 
HETATM   26  H39 UNL     1      -5.288  46.701 -34.347  1.00  0.00     0.315 HD
ENDBRANCH  23  24
ENDBRANCH  22  23
ENDBRANCH  12  22
BRANCH   1  27
HETATM   27  C6  UNL     1      -7.593  47.619 -28.162  1.00  0.00    -0.050 C 
HETATM   28  C5  UNL     1      -6.459  48.216 -27.729  1.00  0.00     0.005 C 
BRANCH  28  29
HETATM   29  C4  UNL     1      -5.096  48.006 -28.157  1.00  0.00     0.001 C 
HETATM   30  C3  UNL     1      -3.947  48.177 -27.480  1.00  0.00     0.006 C 
BRANCH  30  31
HETATM   31  C2  UNL     1      -3.660  48.626 -26.117  1.00  0.00    -0.067 C 
HETATM   32  C1  UNL     1      -4.627  48.478 -25.191  1.00  0.00     0.019 C 
BRANCH  31  33
HETATM   33  C28 UNL     1      -2.273  49.149 -25.782  1.00  0.00     0.041 C 
BRANCH  33  34
HETATM   34  C29 UNL     1      -1.748  50.347 -26.590  1.00  0.00     0.032 C 
BRANCH  34  35
HETATM   35  C30 UNL     1      -0.397  50.789 -26.087  1.00  0.00    -0.024 C 
HETATM   36  C31 UNL     1       0.612  51.314 -26.810  1.00  0.00    -0.091 C 
HETATM   37  C32 UNL     1       1.916  51.692 -26.156  1.00  0.00     0.042 C 
HETATM   38  C33 UNL     1       0.559  51.595 -28.289  1.00  0.00     0.042 C 
ENDBRANCH  34  35
ENDBRANCH  33  34
ENDBRANCH  31  33
ENDBRANCH  30  31
ENDBRANCH  28  29
BRANCH  27  39
HETATM   39  C7  UNL     1      -8.908  48.213 -27.661  1.00  0.00     0.205 C 
BRANCH  39  40
HETATM   40  O1  UNL     1      -9.218  47.814 -26.330  1.00  0.00    -0.363 OA
BRANCH  40  41
HETATM   41  C8  UNL     1      -9.089  48.866 -25.393  1.00  0.00     0.334 C 
BRANCH  41  42
HETATM   42  O2  UNL     1      -9.608  50.041 -25.984  1.00  0.00    -0.377 OA
HETATM   43  H10 UNL     1      -9.166  50.088 -26.850  1.00  0.00     0.212 HD
ENDBRANCH  41  42
ENDBRANCH  40  41
ENDBRANCH  39  40
ENDBRANCH  27  39
ENDBRANCH   1  27
BRANCH   8  44
HETATM   44  C21 UNL     1     -10.970  43.080 -30.457  1.00  0.00     0.265 C 
HETATM   45  O5  UNL     1     -11.737  44.033 -30.506  1.00  0.00    -0.302 OA
ENDBRANCH   8  44
TORSDOF 20
ENDMDL
MODEL 4
REMARK minimizedAffinity -6.55156231
REMARK CNNscore 0.31087026
REMARK CNNaffinity 6.38925982
REMARK  20 active torsions:
REMARK  status: ('A' for Active; 'I' for Inactive)
REMARK    1  A    between atoms: C2_2  and  C3_3 
REMARK    2  A    between atoms: C2_2  and  C28_35 
REMARK    3  A    between atoms: C4_4  and  C5_5 
REMARK    4  A    between atoms: C6_6  and  C7_7 
REMARK    5  A    between atoms: C6_6  and  C9_11 
REMARK    6  A    between atoms: C7_7  and  O1_8 
REMARK    7  A    between atoms: O1_8  and  C8_9 
REMARK    8  A    between atoms: C8_9  and  O2_10 
REMARK    9  A    between atoms: C13_15  and  O3_16 
REMARK   10  A    between atoms: C14_17  and  C15_18 
REMARK   11  A    between atoms: C15_18  and  C16_19 
REMARK   12  A    between atoms: C16_19  and  C17_20 
REMARK   13  A    between atoms: C17_20  and  O4_21 
REMARK   14  A    between atoms: C19_23  and  C21_25 
REMARK   15  A    between atoms: C24_29  and  O6_30 
REMARK   16  A    between atoms: C24_29  and  C25_31 
REMARK   17  A    between atoms: C25_31  and  C26_32 
REMARK   18  A    between atoms: C26_32  and  N1_33 
REMARK   19  A    between atoms: C28_35  and  C29_36 
REMARK   20  A    between atoms: C29_36  and  C30_37 
ROOT
HETATM    1  C9  UNL     1      -0.324  49.977 -17.746  1.00  0.00     0.046 C 
HETATM    2  C10 UNL     1      -1.249  48.801 -17.376  1.00  0.00     0.013 C 
HETATM    3  C11 UNL     1      -1.399  48.814 -15.849  1.00  0.00     0.017 C 
HETATM    4  C12 UNL     1      -0.744  50.141 -15.319  1.00  0.00     0.025 C 
HETATM    5  C13 UNL     1      -0.731  50.984 -16.638  1.00  0.00     0.138 C 
HETATM    6  C14 UNL     1       0.748  49.742 -14.835  1.00  0.00     0.029 C 
HETATM    7  C18 UNL     1       0.655  48.774 -13.631  1.00  0.00    -0.066 C 
HETATM    8  C19 UNL     1       1.209  47.536 -13.594  1.00  0.00    -0.021 C 
HETATM    9  C20 UNL     1       1.061  46.577 -12.450  1.00  0.00     0.052 C 
HETATM   10  C22 UNL     1      -0.152  49.338 -12.478  1.00  0.00     0.038 C 
HETATM   11  C23 UNL     1      -1.546  49.797 -12.910  1.00  0.00     0.043 C 
HETATM   12  C24 UNL     1      -1.532  50.787 -14.103  1.00  0.00     0.070 C 
ENDROOT
BRANCH   5  13
HETATM   13  O3  UNL     1      -2.031  51.495 -16.937  1.00  0.00    -0.394 OA
HETATM   14  H17 UNL     1      -2.028  51.820 -17.855  1.00  0.00     0.210 HD
ENDBRANCH   5  13
BRANCH   6  15
HETATM   15  C15 UNL     1       1.797  50.830 -14.444  1.00  0.00     0.012 C 
BRANCH  15  16
HETATM   16  C16 UNL     1       2.868  50.460 -13.412  1.00  0.00     0.027 C 
BRANCH  16  17
HETATM   17  C17 UNL     1       4.203  50.019 -14.014  1.00  0.00     0.164 C 
BRANCH  17  18
HETATM   18  O4  UNL     1       5.123  49.619 -13.005  1.00  0.00    -0.401 OA
HETATM   19  H25 UNL     1       5.503  50.437 -12.635  1.00  0.00     0.209 HD
ENDBRANCH  17  18
ENDBRANCH  16  17
ENDBRANCH  15  16
ENDBRANCH   6  15
BRANCH  12  20
HETATM   20  O6  UNL     1      -0.755  51.940 -13.678  1.00  0.00    -0.389 OA
HETATM   21  H34 UNL     1      -1.188  52.306 -12.888  1.00  0.00     0.210 HD
ENDBRANCH  12  20
BRANCH  12  22
HETATM   22  C25 UNL     1      -2.955  51.399 -14.307  1.00  0.00     0.068 C 
BRANCH  22  23
HETATM   23  C26 UNL     1      -3.806  51.881 -13.129  1.00  0.00     0.272 C 
BRANCH  23  24
HETATM   24  N1  UNL     1      -3.604  53.305 -12.842  1.00  0.00     0.079 N 
HETATM   25  C27 UNL     1      -3.756  53.569 -11.417  1.00  0.00     0.306 C 
HETATM   26  H39 UNL     1      -4.304  53.844 -13.349  1.00  0.00     0.315 HD
ENDBRANCH  23  24
ENDBRANCH  22  23
ENDBRANCH  12  22
BRANCH   1  27
HETATM   27  C6  UNL     1      -0.338  50.357 -19.236  1.00  0.00    -0.050 C 
HETATM   28  C5  UNL     1      -0.644  49.589 -20.306  1.00  0.00     0.005 C 
BRANCH  28  29
HETATM   29  C4  UNL     1      -1.097  48.218 -20.346  1.00  0.00     0.001 C 
HETATM   30  C3  UNL     1      -2.312  47.722 -20.637  1.00  0.00     0.006 C 
BRANCH  30  31
HETATM   31  C2  UNL     1      -3.577  48.359 -21.005  1.00  0.00    -0.067 C 
HETATM   32  C1  UNL     1      -4.502  48.522 -20.039  1.00  0.00     0.019 C 
BRANCH  31  33
HETATM   33  C28 UNL     1      -3.762  48.887 -22.417  1.00  0.00     0.041 C 
BRANCH  33  34
HETATM   34  C29 UNL     1      -2.812  48.361 -23.506  1.00  0.00     0.032 C 
BRANCH  34  35
HETATM   35  C30 UNL     1      -2.741  49.315 -24.671  1.00  0.00    -0.024 C 
HETATM   36  C31 UNL     1      -3.513  49.314 -25.776  1.00  0.00    -0.091 C 
HETATM   37  C32 UNL     1      -3.303  50.333 -26.866  1.00  0.00     0.042 C 
HETATM   38  C33 UNL     1      -4.643  48.353 -26.038  1.00  0.00     0.042 C 
ENDBRANCH  34  35
ENDBRANCH  33  34
ENDBRANCH  31  33
ENDBRANCH  30  31
ENDBRANCH  28  29
BRANCH  27  39
HETATM   39  C7  UNL     1      -0.094  51.839 -19.511  1.00  0.00     0.205 C 
BRANCH  39  40
HETATM   40  O1  UNL     1       0.627  52.061 -20.719  1.00  0.00    -0.363 OA
BRANCH  40  41
HETATM   41  C8  UNL     1       0.824  53.433 -21.002  1.00  0.00     0.334 C 
BRANCH  41  42
HETATM   42  O2  UNL     1       0.880  54.127 -19.771  1.00  0.00    -0.377 OA
HETATM   43  H10 UNL     1       0.089  53.826 -19.290  1.00  0.00     0.212 HD
ENDBRANCH  41  42
ENDBRANCH  40  41
ENDBRANCH  39  40
ENDBRANCH  27  39
ENDBRANCH   1  27
BRANCH   8  44
HETATM   44  C21 UNL     1       2.015  46.982 -14.724  1.00  0.00     0.265 C 
HETATM   45  O5  UNL     1       3.183  46.629 -14.630  1.00  0.00    -0.302 OA
ENDBRANCH   8  44
TORSDOF 20
ENDMDL
MODEL 5
REMARK minimizedAffinity -7.50122547
REMARK CNNscore 0.299556553
REMARK CNNaffinity 5.55607843
REMARK  20 active torsions:
REMARK  status: ('A' for Active; 'I' for Inactive)
REMARK    1  A    between atoms: C2_2  and  C3_3 
REMARK    2  A    between atoms: C2_2  and  C28_35 
REMARK    3  A    between atoms: C4_4  and  C5_5 
REMARK    4  A    between atoms: C6_6  and  C7_7 
REMARK    5  A    between atoms: C6_6  and  C9_11 
REMARK    6  A    between atoms: C7_7  and  O1_8 
REMARK    7  A    between atoms: O1_8  and  C8_9 
REMARK    8  A    between atoms: C8_9  and  O2_10 
REMARK    9  A    between atoms: C13_15  and  O3_16 
REMARK   10  A    between atoms: C14_17  and  C15_18 
REMARK   11  A    between atoms: C15_18  and  C16_19 
REMARK   12  A    between atoms: C16_19  and  C17_20 
REMARK   13  A    between atoms: C17_20  and  O4_21 
REMARK   14  A    between atoms: C19_23  and  C21_25 
REMARK   15  A    between atoms: C24_29  and  O6_30 
REMARK   16  A    between atoms: C24_29  and  C25_31 
REMARK   17  A    between atoms: C25_31  and  C26_32 
REMARK   18  A    between atoms: C26_32  and  N1_33 
REMARK   19  A    between atoms: C28_35  and  C29_36 
REMARK   20  A    between atoms: C29_36  and  C30_37 
ROOT
HETATM    1  C9  UNL     1      -8.077  46.346 -28.062  1.00  0.00     0.046 C 
HETATM    2  C10 UNL     1      -7.184  45.360 -28.840  1.00  0.00     0.013 C 
HETATM    3  C11 UNL     1      -7.903  45.050 -30.160  1.00  0.00     0.017 C 
HETATM    4  C12 UNL     1      -9.126  46.031 -30.275  1.00  0.00     0.025 C 
HETATM    5  C13 UNL     1      -8.689  47.132 -29.252  1.00  0.00     0.138 C 
HETATM    6  C14 UNL     1     -10.417  45.201 -29.764  1.00  0.00     0.029 C 
HETATM    7  C18 UNL     1     -10.689  44.027 -30.734  1.00  0.00    -0.066 C 
HETATM    8  C19 UNL     1     -10.741  42.722 -30.368  1.00  0.00    -0.021 C 
HETATM    9  C20 UNL     1     -10.941  41.582 -31.324  1.00  0.00     0.052 C 
HETATM   10  C22 UNL     1     -10.872  44.475 -32.171  1.00  0.00     0.038 C 
HETATM   11  C23 UNL     1      -9.705  45.328 -32.670  1.00  0.00     0.043 C 
HETATM   12  C24 UNL     1      -9.384  46.538 -31.756  1.00  0.00     0.070 C 
ENDROOT
BRANCH   5  13
HETATM   13  O3  UNL     1      -7.683  47.982 -29.806  1.00  0.00    -0.394 OA
HETATM   14  H17 UNL     1      -7.290  48.503 -29.083  1.00  0.00     0.210 HD
ENDBRANCH   5  13
BRANCH   6  15
HETATM   15  C15 UNL     1     -11.792  45.899 -29.522  1.00  0.00     0.012 C 
BRANCH  15  16
HETATM   16  C16 UNL     1     -12.014  46.610 -28.182  1.00  0.00     0.027 C 
BRANCH  16  17
HETATM   17  C17 UNL     1     -12.333  48.100 -28.300  1.00  0.00     0.164 C 
BRANCH  17  18
HETATM   18  O4  UNL     1     -12.073  48.787 -27.081  1.00  0.00    -0.401 OA
HETATM   19  H25 UNL     1     -12.837  48.618 -26.498  1.00  0.00     0.209 HD
ENDBRANCH  17  18
ENDBRANCH  16  17
ENDBRANCH  15  16
ENDBRANCH   6  15
BRANCH  12  20
HETATM   20  O6  UNL     1     -10.588  47.353 -31.706  1.00  0.00    -0.389 OA
HETATM   21  H34 UNL     1     -10.800  47.613 -32.618  1.00  0.00     0.210 HD
ENDBRANCH  12  20
BRANCH  12  22
HETATM   22  C25 UNL     1      -8.367  47.490 -32.465  1.00  0.00     0.068 C 
BRANCH  22  23
HETATM   23  C26 UNL     1      -8.215  47.523 -33.988  1.00  0.00     0.272 C 
BRANCH  23  24
HETATM   24  N1  UNL     1      -6.814  47.629 -34.406  1.00  0.00     0.079 N 
HETATM   25  C27 UNL     1      -5.924  47.499 -33.259  1.00  0.00     0.306 C 
HETATM   26  H39 UNL     1      -6.666  48.543 -34.831  1.00  0.00     0.315 HD
ENDBRANCH  23  24
ENDBRANCH  22  23
ENDBRANCH  12  22
BRANCH   1  27
HETATM   27  C6  UNL     1      -7.378  47.055 -26.892  1.00  0.00    -0.050 C 
HETATM   28  C5  UNL     1      -6.189  47.699 -26.876  1.00  0.00     0.005 C 
BRANCH  28  29
HETATM   29  C4  UNL     1      -5.273  47.950 -27.964  1.00  0.00     0.001 C 
HETATM   30  C3  UNL     1      -4.053  48.515 -27.948  1.00  0.00     0.006 C 
BRANCH  30  31
HETATM   31  C2  UNL     1      -3.235  49.068 -26.868  1.00  0.00    -0.067 C 
HETATM   32  C1  UNL     1      -3.235  48.421 -25.686  1.00  0.00     0.019 C 
BRANCH  31  33
HETATM   33  C28 UNL     1      -2.359  50.279 -27.143  1.00  0.00     0.041 C 
BRANCH  33  34
HETATM   34  C29 UNL     1      -2.992  51.670 -26.974  1.00  0.00     0.032 C 
BRANCH  34  35
HETATM   35  C30 UNL     1      -3.534  51.853 -25.579  1.00  0.00    -0.024 C 
HETATM   36  C31 UNL     1      -2.858  52.260 -24.487  1.00  0.00    -0.091 C 
HETATM   37  C32 UNL     1      -3.546  52.377 -23.151  1.00  0.00     0.042 C 
HETATM   38  C33 UNL     1      -1.403  52.651 -24.468  1.00  0.00     0.042 C 
ENDBRANCH  34  35
ENDBRANCH  33  34
ENDBRANCH  31  33
ENDBRANCH  30  31
ENDBRANCH  28  29
BRANCH  27  39
HETATM   39  C7  UNL     1      -8.213  47.141 -25.616  1.00  0.00     0.205 C 
BRANCH  39  40
HETATM   40  O1  UNL     1      -9.345  47.995 -25.758  1.00  0.00    -0.363 OA
BRANCH  40  41
HETATM   41  C8  UNL     1      -9.129  49.291 -25.233  1.00  0.00     0.334 C 
BRANCH  41  42
HETATM   42  O2  UNL     1      -9.734  50.221 -26.110  1.00  0.00    -0.377 OA
HETATM   43  H10 UNL     1      -9.394  49.977 -26.989  1.00  0.00     0.212 HD
ENDBRANCH  41  42
ENDBRANCH  40  41
ENDBRANCH  39  40
ENDBRANCH  27  39
ENDBRANCH   1  27
BRANCH   8  44
HETATM   44  C21 UNL     1     -10.573  42.277 -28.951  1.00  0.00     0.265 C 
HETATM   45  O5  UNL     1      -9.802  42.794 -28.152  1.00  0.00    -0.302 OA
ENDBRANCH   8  44
TORSDOF 20
ENDMDL
MODEL 6
REMARK minimizedAffinity -7.45148802
REMARK CNNscore 0.270003557
REMARK CNNaffinity 5.94462824
REMARK  20 active torsions:
REMARK  status: ('A' for Active; 'I' for Inactive)
REMARK    1  A    between atoms: C2_2  and  C3_3 
REMARK    2  A    between atoms: C2_2  and  C28_35 
REMARK    3  A    between atoms: C4_4  and  C5_5 
REMARK    4  A    between atoms: C6_6  and  C7_7 
REMARK    5  A    between atoms: C6_6  and  C9_11 
REMARK    6  A    between atoms: C7_7  and  O1_8 
REMARK    7  A    between atoms: O1_8  and  C8_9 
REMARK    8  A    between atoms: C8_9  and  O2_10 
REMARK    9  A    between atoms: C13_15  and  O3_16 
REMARK   10  A    between atoms: C14_17  and  C15_18 
REMARK   11  A    between atoms: C15_18  and  C16_19 
REMARK   12  A    between atoms: C16_19  and  C17_20 
REMARK   13  A    between atoms: C17_20  and  O4_21 
REMARK   14  A    between atoms: C19_23  and  C21_25 
REMARK   15  A    between atoms: C24_29  and  O6_30 
REMARK   16  A    between atoms: C24_29  and  C25_31 
REMARK   17  A    between atoms: C25_31  and  C26_32 
REMARK   18  A    between atoms: C26_32  and  N1_33 
REMARK   19  A    between atoms: C28_35  and  C29_36 
REMARK   20  A    between atoms: C29_36  and  C30_37 
ROOT
HETATM    1  C9  UNL     1      -8.221  47.306 -26.483  1.00  0.00     0.046 C 
HETATM    2  C10 UNL     1      -7.580  46.221 -27.372  1.00  0.00     0.013 C 
HETATM    3  C11 UNL     1      -8.543  45.977 -28.542  1.00  0.00     0.017 C 
HETATM    4  C12 UNL     1      -9.658  47.083 -28.478  1.00  0.00     0.025 C 
HETATM    5  C13 UNL     1      -8.940  48.142 -27.575  1.00  0.00     0.138 C 
HETATM    6  C14 UNL     1     -10.923  46.402 -27.733  1.00  0.00     0.029 C 
HETATM    7  C18 UNL     1     -11.477  45.254 -28.610  1.00  0.00    -0.066 C 
HETATM    8  C19 UNL     1     -11.602  43.966 -28.203  1.00  0.00    -0.021 C 
HETATM    9  C20 UNL     1     -12.080  42.845 -29.079  1.00  0.00     0.052 C 
HETATM   10  C22 UNL     1     -11.855  45.705 -30.007  1.00  0.00     0.038 C 
HETATM   11  C23 UNL     1     -10.707  46.422 -30.719  1.00  0.00     0.043 C 
HETATM   12  C24 UNL     1     -10.111  47.600 -29.908  1.00  0.00     0.070 C 
ENDROOT
BRANCH   5  13
HETATM   13  O3  UNL     1      -7.960  48.872 -28.315  1.00  0.00    -0.394 OA
HETATM   14  H17 UNL     1      -7.398  49.355 -27.683  1.00  0.00     0.210 HD
ENDBRANCH   5  13
BRANCH   6  15
HETATM   15  C15 UNL     1     -12.156  47.247 -27.283  1.00  0.00     0.012 C 
BRANCH  15  16
HETATM   16  C16 UNL     1     -12.727  46.998 -25.882  1.00  0.00     0.027 C 
BRANCH  16  17
HETATM   17  C17 UNL     1     -14.234  46.738 -25.849  1.00  0.00     0.164 C 
BRANCH  17  18
HETATM   18  O4  UNL     1     -14.861  47.447 -24.787  1.00  0.00    -0.401 OA
HETATM   19  H25 UNL     1     -14.703  46.930 -23.975  1.00  0.00     0.209 HD
ENDBRANCH  17  18
ENDBRANCH  16  17
ENDBRANCH  15  16
ENDBRANCH   6  15
BRANCH  12  20
HETATM   20  O6  UNL     1     -11.197  48.540 -29.678  1.00  0.00    -0.389 OA
HETATM   21  H34 UNL     1     -11.533  48.812 -30.549  1.00  0.00     0.210 HD
ENDBRANCH  12  20
BRANCH  12  22
HETATM   22  C25 UNL     1      -9.136  48.429 -30.805  1.00  0.00     0.068 C 
BRANCH  22  23
HETATM   23  C26 UNL     1      -8.116  47.759 -31.727  1.00  0.00     0.272 C 
BRANCH  23  24
HETATM   24  N1  UNL     1      -8.301  48.137 -33.131  1.00  0.00     0.079 N 
HETATM   25  C27 UNL     1      -7.314  47.476 -33.977  1.00  0.00     0.306 C 
HETATM   26  H39 UNL     1      -8.180  49.145 -33.219  1.00  0.00     0.315 HD
ENDBRANCH  23  24
ENDBRANCH  22  23
ENDBRANCH  12  22
BRANCH   1  27
HETATM   27  C6  UNL     1      -7.261  47.947 -25.468  1.00  0.00    -0.050 C 
HETATM   28  C5  UNL     1      -5.940  48.208 -25.594  1.00  0.00     0.005 C 
BRANCH  28  29
HETATM   29  C4  UNL     1      -5.075  48.009 -26.733  1.00  0.00     0.001 C 
HETATM   30  C3  UNL     1      -3.791  48.365 -26.910  1.00  0.00     0.006 C 
BRANCH  30  31
HETATM   31  C2  UNL     1      -2.832  49.062 -26.052  1.00  0.00    -0.067 C 
HETATM   32  C1  UNL     1      -2.838  48.769 -24.737  1.00  0.00     0.019 C 
BRANCH  31  33
HETATM   33  C28 UNL     1      -1.822  50.008 -26.680  1.00  0.00     0.041 C 
BRANCH  33  34
HETATM   34  C29 UNL     1      -1.206  51.093 -25.782  1.00  0.00     0.032 C 
BRANCH  34  35
HETATM   35  C30 UNL     1       0.298  51.092 -25.883  1.00  0.00    -0.024 C 
HETATM   36  C31 UNL     1       1.049  51.554 -26.903  1.00  0.00    -0.091 C 
HETATM   37  C32 UNL     1       2.552  51.464 -26.858  1.00  0.00     0.042 C 
HETATM   38  C33 UNL     1       0.506  52.206 -28.148  1.00  0.00     0.042 C 
ENDBRANCH  34  35
ENDBRANCH  33  34
ENDBRANCH  31  33
ENDBRANCH  30  31
ENDBRANCH  28  29
BRANCH  27  39
HETATM   39  C7  UNL     1      -7.939  48.469 -24.203  1.00  0.00     0.205 C 
BRANCH  39  40
HETATM   40  O1  UNL     1      -7.072  49.273 -23.408  1.00  0.00    -0.363 OA
BRANCH  40  41
HETATM   41  C8  UNL     1      -7.488  49.366 -22.058  1.00  0.00     0.334 C 
BRANCH  41  42
HETATM   42  O2  UNL     1      -6.823  50.468 -21.474  1.00  0.00    -0.377 OA
HETATM   43  H10 UNL     1      -5.886  50.328 -21.697  1.00  0.00     0.212 HD
ENDBRANCH  41  42
ENDBRANCH  40  41
ENDBRANCH  39  40
ENDBRANCH  27  39
ENDBRANCH   1  27
BRANCH   8  44
HETATM   44  C21 UNL     1     -11.242  43.521 -26.823  1.00  0.00     0.265 C 
HETATM   45  O5  UNL     1     -10.115  43.190 -26.476  1.00  0.00    -0.302 OA
ENDBRANCH   8  44
TORSDOF 20
ENDMDL
MODEL 7
REMARK minimizedAffinity -7.51017618
REMARK CNNscore 0.267383158
REMARK CNNaffinity 6.05644655
REMARK  20 active torsions:
REMARK  status: ('A' for Active; 'I' for Inactive)
REMARK    1  A    between atoms: C2_2  and  C3_3 
REMARK    2  A    between atoms: C2_2  and  C28_35 
REMARK    3  A    between atoms: C4_4  and  C5_5 
REMARK    4  A    between atoms: C6_6  and  C7_7 
REMARK    5  A    between atoms: C6_6  and  C9_11 
REMARK    6  A    between atoms: C7_7  and  O1_8 
REMARK    7  A    between atoms: O1_8  and  C8_9 
REMARK    8  A    between atoms: C8_9  and  O2_10 
REMARK    9  A    between atoms: C13_15  and  O3_16 
REMARK   10  A    between atoms: C14_17  and  C15_18 
REMARK   11  A    between atoms: C15_18  and  C16_19 
REMARK   12  A    between atoms: C16_19  and  C17_20 
REMARK   13  A    between atoms: C17_20  and  O4_21 
REMARK   14  A    between atoms: C19_23  and  C21_25 
REMARK   15  A    between atoms: C24_29  and  O6_30 
REMARK   16  A    between atoms: C24_29  and  C25_31 
REMARK   17  A    between atoms: C25_31  and  C26_32 
REMARK   18  A    between atoms: C26_32  and  N1_33 
REMARK   19  A    between atoms: C28_35  and  C29_36 
REMARK   20  A    between atoms: C29_36  and  C30_37 
ROOT
HETATM    1  C9  UNL     1      -3.342  50.412 -22.853  1.00  0.00     0.046 C 
HETATM    2  C10 UNL     1      -2.852  49.121 -23.538  1.00  0.00     0.013 C 
HETATM    3  C11 UNL     1      -3.927  48.051 -23.297  1.00  0.00     0.017 C 
HETATM    4  C12 UNL     1      -5.174  48.767 -22.661  1.00  0.00     0.025 C 
HETATM    5  C13 UNL     1      -4.872  50.249 -23.062  1.00  0.00     0.138 C 
HETATM    6  C14 UNL     1      -5.058  48.532 -21.064  1.00  0.00     0.029 C 
HETATM    7  C18 UNL     1      -5.199  47.022 -20.756  1.00  0.00    -0.066 C 
HETATM    8  C19 UNL     1      -4.275  46.281 -20.095  1.00  0.00    -0.021 C 
HETATM    9  C20 UNL     1      -4.388  44.803 -19.856  1.00  0.00     0.052 C 
HETATM   10  C22 UNL     1      -6.484  46.424 -21.296  1.00  0.00     0.038 C 
HETATM   11  C23 UNL     1      -6.668  46.690 -22.791  1.00  0.00     0.043 C 
HETATM   12  C24 UNL     1      -6.558  48.188 -23.175  1.00  0.00     0.070 C 
ENDROOT
BRANCH   5  13
HETATM   13  O3  UNL     1      -5.174  50.483 -24.439  1.00  0.00    -0.394 OA
HETATM   14  H17 UNL     1      -4.777  51.334 -24.699  1.00  0.00     0.210 HD
ENDBRANCH   5  13
BRANCH   6  15
HETATM   15  C15 UNL     1      -5.995  49.274 -20.060  1.00  0.00     0.012 C 
BRANCH  15  16
HETATM   16  C16 UNL     1      -6.150  48.689 -18.652  1.00  0.00     0.027 C 
BRANCH  16  17
HETATM   17  C17 UNL     1      -7.590  48.362 -18.256  1.00  0.00     0.164 C 
BRANCH  17  18
HETATM   18  O4  UNL     1      -7.681  47.986 -16.886  1.00  0.00    -0.401 OA
HETATM   19  H25 UNL     1      -7.402  47.052 -16.835  1.00  0.00     0.209 HD
ENDBRANCH  17  18
ENDBRANCH  16  17
ENDBRANCH  15  16
ENDBRANCH   6  15
BRANCH  12  20
HETATM   20  O6  UNL     1      -7.595  48.886 -22.430  1.00  0.00    -0.389 OA
HETATM   21  H34 UNL     1      -8.448  48.492 -22.683  1.00  0.00     0.210 HD
ENDBRANCH  12  20
BRANCH  12  22
HETATM   22  C25 UNL     1      -7.013  48.396 -24.655  1.00  0.00     0.068 C 
BRANCH  22  23
HETATM   23  C26 UNL     1      -8.481  48.612 -25.029  1.00  0.00     0.272 C 
BRANCH  23  24
HETATM   24  N1  UNL     1      -9.085  47.417 -25.625  1.00  0.00     0.079 N 
HETATM   25  C27 UNL     1      -8.071  46.598 -26.277  1.00  0.00     0.306 C 
HETATM   26  H39 UNL     1      -9.767  47.707 -26.324  1.00  0.00     0.315 HD
ENDBRANCH  23  24
ENDBRANCH  22  23
ENDBRANCH  12  22
BRANCH   1  27
HETATM   27  C6  UNL     1      -2.594  51.684 -23.280  1.00  0.00    -0.050 C 
HETATM   28  C5  UNL     1      -1.328  52.064 -22.989  1.00  0.00     0.005 C 
BRANCH  28  29
HETATM   29  C4  UNL     1      -0.311  51.357 -22.247  1.00  0.00     0.001 C 
HETATM   30  C3  UNL     1       0.543  51.811 -21.313  1.00  0.00     0.006 C 
BRANCH  30  31
HETATM   31  C2  UNL     1       0.754  53.135 -20.727  1.00  0.00    -0.067 C 
HETATM   32  C1  UNL     1       1.372  54.064 -21.482  1.00  0.00     0.019 C 
BRANCH  31  33
HETATM   33  C28 UNL     1       0.197  53.435 -19.346  1.00  0.00     0.041 C 
BRANCH  33  34
HETATM   34  C29 UNL     1       0.494  52.429 -18.222  1.00  0.00     0.032 C 
BRANCH  34  35
HETATM   35  C30 UNL     1       1.901  52.595 -17.704  1.00  0.00    -0.024 C 
HETATM   36  C31 UNL     1       2.323  52.465 -16.432  1.00  0.00    -0.091 C 
HETATM   37  C32 UNL     1       3.771  52.682 -16.071  1.00  0.00     0.042 C 
HETATM   38  C33 UNL     1       1.447  52.084 -15.266  1.00  0.00     0.042 C 
ENDBRANCH  34  35
ENDBRANCH  33  34
ENDBRANCH  31  33
ENDBRANCH  30  31
ENDBRANCH  28  29
BRANCH  27  39
HETATM   39  C7  UNL     1      -3.356  52.564 -24.268  1.00  0.00     0.205 C 
BRANCH  39  40
HETATM   40  O1  UNL     1      -2.539  53.018 -25.342  1.00  0.00    -0.363 OA
BRANCH  40  41
HETATM   41  C8  UNL     1      -2.708  52.260 -26.525  1.00  0.00     0.334 C 
BRANCH  41  42
HETATM   42  O2  UNL     1      -2.303  53.062 -27.617  1.00  0.00    -0.377 OA
HETATM   43  H10 UNL     1      -2.783  53.899 -27.489  1.00  0.00     0.212 HD
ENDBRANCH  41  42
ENDBRANCH  40  41
ENDBRANCH  39  40
ENDBRANCH  27  39
ENDBRANCH   1  27
BRANCH   8  44
HETATM   44  C21 UNL     1      -3.014  46.869 -19.551  1.00  0.00     0.265 C 
HETATM   45  O5  UNL     1      -2.685  46.826 -18.372  1.00  0.00    -0.302 OA
ENDBRANCH   8  44
TORSDOF 20
ENDMDL
MODEL 8
REMARK minimizedAffinity -7.40219641
REMARK CNNscore 0.263570249
REMARK CNNaffinity 5.85220098
REMARK  20 active torsions:
REMARK  status: ('A' for Active; 'I' for Inactive)
REMARK    1  A    between atoms: C2_2  and  C3_3 
REMARK    2  A    between atoms: C2_2  and  C28_35 
REMARK    3  A    between atoms: C4_4  and  C5_5 
REMARK    4  A    between atoms: C6_6  and  C7_7 
REMARK    5  A    between atoms: C6_6  and  C9_11 
REMARK    6  A    between atoms: C7_7  and  O1_8 
REMARK    7  A    between atoms: O1_8  and  C8_9 
REMARK    8  A    between atoms: C8_9  and  O2_10 
REMARK    9  A    between atoms: C13_15  and  O3_16 
REMARK   10  A    between atoms: C14_17  and  C15_18 
REMARK   11  A    between atoms: C15_18  and  C16_19 
REMARK   12  A    between atoms: C16_19  and  C17_20 
REMARK   13  A    between atoms: C17_20  and  O4_21 
REMARK   14  A    between atoms: C19_23  and  C21_25 
REMARK   15  A    between atoms: C24_29  and  O6_30 
REMARK   16  A    between atoms: C24_29  and  C25_31 
REMARK   17  A    between atoms: C25_31  and  C26_32 
REMARK   18  A    between atoms: C26_32  and  N1_33 
REMARK   19  A    between atoms: C28_35  and  C29_36 
REMARK   20  A    between atoms: C29_36  and  C30_37 
ROOT
HETATM    1  C9  UNL     1      -6.852  47.350 -28.027  1.00  0.00     0.046 C 
HETATM    2  C10 UNL     1      -7.004  46.101 -28.916  1.00  0.00     0.013 C 
HETATM    3  C11 UNL     1      -8.482  45.689 -28.860  1.00  0.00     0.017 C 
HETATM    4  C12 UNL     1      -9.264  46.831 -28.115  1.00  0.00     0.025 C 
HETATM    5  C13 UNL     1      -8.239  48.005 -28.263  1.00  0.00     0.138 C 
HETATM    6  C14 UNL     1      -9.415  46.344 -26.579  1.00  0.00     0.029 C 
HETATM    7  C18 UNL     1     -10.306  45.080 -26.528  1.00  0.00    -0.066 C 
HETATM    8  C19 UNL     1      -9.927  43.891 -25.997  1.00  0.00    -0.021 C 
HETATM    9  C20 UNL     1     -10.772  42.650 -26.009  1.00  0.00     0.052 C 
HETATM   10  C22 UNL     1     -11.668  45.288 -27.163  1.00  0.00     0.038 C 
HETATM   11  C23 UNL     1     -11.569  45.822 -28.593  1.00  0.00     0.043 C 
HETATM   12  C24 UNL     1     -10.704  47.102 -28.721  1.00  0.00     0.070 C 
ENDROOT
BRANCH   5  13
HETATM   13  O3  UNL     1      -8.269  48.554 -29.582  1.00  0.00    -0.394 OA
HETATM   14  H17 UNL     1      -7.484  49.119 -29.695  1.00  0.00     0.210 HD
ENDBRANCH   5  13
BRANCH   6  15
HETATM   15  C15 UNL     1      -9.947  47.302 -25.468  1.00  0.00     0.012 C 
BRANCH  15  16
HETATM   16  C16 UNL     1      -8.956  47.792 -24.405  1.00  0.00     0.027 C 
BRANCH  16  17
HETATM   17  C17 UNL     1      -8.383  49.186 -24.668  1.00  0.00     0.164 C 
BRANCH  17  18
HETATM   18  O4  UNL     1      -9.272  49.975 -25.451  1.00  0.00    -0.401 OA
HETATM   19  H25 UNL     1      -9.150  49.696 -26.377  1.00  0.00     0.209 HD
ENDBRANCH  17  18
ENDBRANCH  16  17
ENDBRANCH  15  16
ENDBRANCH   6  15
BRANCH  12  20
HETATM   20  O6  UNL     1     -11.323  48.109 -27.873  1.00  0.00    -0.389 OA
HETATM   21  H34 UNL     1     -12.234  48.235 -28.189  1.00  0.00     0.210 HD
ENDBRANCH  12  20
BRANCH  12  22
HETATM   22  C25 UNL     1     -10.870  47.720 -30.147  1.00  0.00     0.068 C 
BRANCH  22  23
HETATM   23  C26 UNL     1     -11.466  46.924 -31.310  1.00  0.00     0.272 C 
BRANCH  23  24
HETATM   24  N1  UNL     1     -10.449  46.168 -32.047  1.00  0.00     0.079 N 
HETATM   25  C27 UNL     1      -9.343  47.035 -32.432  1.00  0.00     0.306 C 
HETATM   26  H39 UNL     1     -10.872  45.786 -32.892  1.00  0.00     0.315 HD
ENDBRANCH  23  24
ENDBRANCH  22  23
ENDBRANCH  12  22
BRANCH   1  27
HETATM   27  C6  UNL     1      -5.540  48.125 -28.233  1.00  0.00    -0.050 C 
HETATM   28  C5  UNL     1      -4.588  48.441 -27.327  1.00  0.00     0.005 C 
BRANCH  28  29
HETATM   29  C4  UNL     1      -4.508  48.092 -25.928  1.00  0.00     0.001 C 
HETATM   30  C3  UNL     1      -3.820  48.680 -24.933  1.00  0.00     0.006 C 
BRANCH  30  31
HETATM   31  C2  UNL     1      -2.931  49.842 -24.899  1.00  0.00    -0.067 C 
HETATM   32  C1  UNL     1      -3.056  50.698 -23.867  1.00  0.00     0.019 C 
BRANCH  31  33
HETATM   33  C28 UNL     1      -1.857  49.988 -25.964  1.00  0.00     0.041 C 
BRANCH  33  34
HETATM   34  C29 UNL     1      -1.247  51.383 -26.175  1.00  0.00     0.032 C 
BRANCH  34  35
HETATM   35  C30 UNL     1       0.250  51.353 -25.998  1.00  0.00    -0.024 C 
HETATM   36  C31 UNL     1       1.189  51.512 -26.951  1.00  0.00    -0.091 C 
HETATM   37  C32 UNL     1       2.655  51.437 -26.612  1.00  0.00     0.042 C 
HETATM   38  C33 UNL     1       0.905  51.792 -28.404  1.00  0.00     0.042 C 
ENDBRANCH  34  35
ENDBRANCH  33  34
ENDBRANCH  31  33
ENDBRANCH  30  31
ENDBRANCH  28  29
BRANCH  27  39
HETATM   39  C7  UNL     1      -5.231  48.464 -29.690  1.00  0.00     0.205 C 
BRANCH  39  40
HETATM   40  O1  UNL     1      -4.496  47.436 -30.348  1.00  0.00    -0.363 OA
BRANCH  40  41
HETATM   41  C8  UNL     1      -4.874  47.266 -31.701  1.00  0.00     0.334 C 
BRANCH  41  42
HETATM   42  O2  UNL     1      -3.703  47.002 -32.449  1.00  0.00    -0.377 OA
HETATM   43  H10 UNL     1      -3.088  47.710 -32.189  1.00  0.00     0.212 HD
ENDBRANCH  41  42
ENDBRANCH  40  41
ENDBRANCH  39  40
ENDBRANCH  27  39
ENDBRANCH   1  27
BRANCH   8  44
HETATM   44  C21 UNL     1      -8.591  43.685 -25.360  1.00  0.00     0.265 C 
HETATM   45  O5  UNL     1      -7.648  43.122 -25.901  1.00  0.00    -0.302 OA
ENDBRANCH   8  44
TORSDOF 20
ENDMDL
MODEL 9
REMARK minimizedAffinity -7.47004509
REMARK CNNscore 0.258924246
REMARK CNNaffinity 6.45060158
REMARK  20 active torsions:
REMARK  status: ('A' for Active; 'I' for Inactive)
REMARK    1  A    between atoms: C2_2  and  C3_3 
REMARK    2  A    between atoms: C2_2  and  C28_35 
REMARK    3  A    between atoms: C4_4  and  C5_5 
REMARK    4  A    between atoms: C6_6  and  C7_7 
REMARK    5  A    between atoms: C6_6  and  C9_11 
REMARK    6  A    between atoms: C7_7  and  O1_8 
REMARK    7  A    between atoms: O1_8  and  C8_9 
REMARK    8  A    between atoms: C8_9  and  O2_10 
REMARK    9  A    between atoms: C13_15  and  O3_16 
REMARK   10  A    between atoms: C14_17  and  C15_18 
REMARK   11  A    between atoms: C15_18  and  C16_19 
REMARK   12  A    between atoms: C16_19  and  C17_20 
REMARK   13  A    between atoms: C17_20  and  O4_21 
REMARK   14  A    between atoms: C19_23  and  C21_25 
REMARK   15  A    between atoms: C24_29  and  O6_30 
REMARK   16  A    between atoms: C24_29  and  C25_31 
REMARK   17  A    between atoms: C25_31  and  C26_32 
REMARK   18  A    between atoms: C26_32  and  N1_33 
REMARK   19  A    between atoms: C28_35  and  C29_36 
REMARK   20  A    between atoms: C29_36  and  C30_37 
ROOT
HETATM    1  C9  UNL     1      -4.337  50.312 -22.996  1.00  0.00     0.046 C 
HETATM    2  C10 UNL     1      -3.890  49.070 -23.793  1.00  0.00     0.013 C 
HETATM    3  C11 UNL     1      -4.896  47.954 -23.481  1.00  0.00     0.017 C 
HETATM    4  C12 UNL     1      -6.081  48.596 -22.672  1.00  0.00     0.025 C 
HETATM    5  C13 UNL     1      -5.874  50.104 -23.035  1.00  0.00     0.138 C 
HETATM    6  C14 UNL     1      -5.773  48.296 -21.112  1.00  0.00     0.029 C 
HETATM    7  C18 UNL     1      -5.831  46.770 -20.861  1.00  0.00    -0.066 C 
HETATM    8  C19 UNL     1      -4.814  46.035 -20.346  1.00  0.00    -0.021 C 
HETATM    9  C20 UNL     1      -4.853  44.546 -20.166  1.00  0.00     0.052 C 
HETATM   10  C22 UNL     1      -7.151  46.151 -21.277  1.00  0.00     0.038 C 
HETATM   11  C23 UNL     1      -7.516  46.474 -22.727  1.00  0.00     0.043 C 
HETATM   12  C24 UNL     1      -7.498  47.990 -23.050  1.00  0.00     0.070 C 
ENDROOT
BRANCH   5  13
HETATM   13  O3  UNL     1      -6.342  50.386 -24.355  1.00  0.00    -0.394 OA
HETATM   14  H17 UNL     1      -6.004  51.261 -24.619  1.00  0.00     0.210 HD
ENDBRANCH   5  13
BRANCH   6  15
HETATM   15  C15 UNL     1      -6.609  48.960 -19.973  1.00  0.00     0.012 C 
BRANCH  15  16
HETATM   16  C16 UNL     1      -6.430  48.431 -18.545  1.00  0.00     0.027 C 
BRANCH  16  17
HETATM   17  C17 UNL     1      -7.737  48.187 -17.791  1.00  0.00     0.164 C 
BRANCH  17  18
HETATM   18  O4  UNL     1      -7.509  47.521 -16.554  1.00  0.00    -0.401 OA
HETATM   19  H25 UNL     1      -7.395  46.575 -16.764  1.00  0.00     0.209 HD
ENDBRANCH  17  18
ENDBRANCH  16  17
ENDBRANCH  15  16
ENDBRANCH   6  15
BRANCH  12  20
HETATM   20  O6  UNL     1      -8.462  48.617 -22.159  1.00  0.00    -0.389 OA
HETATM   21  H34 UNL     1      -9.326  48.204 -22.330  1.00  0.00     0.210 HD
ENDBRANCH  12  20
BRANCH  12  22
HETATM   22  C25 UNL     1      -8.128  48.246 -24.456  1.00  0.00     0.068 C 
BRANCH  22  23
HETATM   23  C26 UNL     1      -7.838  47.336 -25.652  1.00  0.00     0.272 C 
BRANCH  23  24
HETATM   24  N1  UNL     1      -7.639  48.092 -26.892  1.00  0.00     0.079 N 
HETATM   25  C27 UNL     1      -6.468  47.605 -27.610  1.00  0.00     0.306 C 
HETATM   26  H39 UNL     1      -7.494  49.073 -26.659  1.00  0.00     0.315 HD
ENDBRANCH  23  24
ENDBRANCH  22  23
ENDBRANCH  12  22
BRANCH   1  27
HETATM   27  C6  UNL     1      -3.682  51.628 -23.445  1.00  0.00    -0.050 C 
HETATM   28  C5  UNL     1      -2.638  52.289 -22.896  1.00  0.00     0.005 C 
BRANCH  28  29
HETATM   29  C4  UNL     1      -1.811  51.917 -21.772  1.00  0.00     0.001 C 
HETATM   30  C3  UNL     1      -0.508  52.157 -21.546  1.00  0.00     0.006 C 
BRANCH  30  31
HETATM   31  C2  UNL     1       0.518  52.853 -22.324  1.00  0.00    -0.067 C 
HETATM   32  C1  UNL     1       1.258  53.785 -21.694  1.00  0.00     0.019 C 
BRANCH  31  33
HETATM   33  C28 UNL     1       0.765  52.442 -23.766  1.00  0.00     0.041 C 
BRANCH  33  34
HETATM   34  C29 UNL     1       0.701  53.538 -24.842  1.00  0.00     0.032 C 
BRANCH  34  35
HETATM   35  C30 UNL     1       0.364  52.954 -26.190  1.00  0.00    -0.024 C 
HETATM   36  C31 UNL     1       1.116  52.115 -26.928  1.00  0.00    -0.091 C 
HETATM   37  C32 UNL     1       0.641  51.632 -28.275  1.00  0.00     0.042 C 
HETATM   38  C33 UNL     1       2.455  51.563 -26.512  1.00  0.00     0.042 C 
ENDBRANCH  34  35
ENDBRANCH  33  34
ENDBRANCH  31  33
ENDBRANCH  30  31
ENDBRANCH  28  29
BRANCH  27  39
HETATM   39  C7  UNL     1      -4.217  52.180 -24.765  1.00  0.00     0.205 C 
BRANCH  39  40
HETATM   40  O1  UNL     1      -3.181  52.465 -25.700  1.00  0.00    -0.363 OA
BRANCH  40  41
HETATM   41  C8  UNL     1      -2.972  51.419 -26.629  1.00  0.00     0.334 C 
BRANCH  41  42
HETATM   42  O2  UNL     1      -2.762  52.001 -27.900  1.00  0.00    -0.377 OA
HETATM   43  H10 UNL     1      -3.506  52.619 -28.007  1.00  0.00     0.212 HD
ENDBRANCH  41  42
ENDBRANCH  40  41
ENDBRANCH  39  40
ENDBRANCH  27  39
ENDBRANCH   1  27
BRANCH   8  44
HETATM   44  C21 UNL     1      -3.516  46.644 -19.924  1.00  0.00     0.265 C 
HETATM   45  O5  UNL     1      -3.213  46.885 -18.762  1.00  0.00    -0.302 OA
ENDBRANCH   8  44
TORSDOF 20
ENDMDL
