MODEL 1
REMARK minimizedAffinity -8.46111774
REMARK CNNscore 0.270458043
REMARK CNNaffinity 6.72952271
REMARK  12 active torsions:
REMARK  status: ('A' for Active; 'I' for Inactive)
REMARK    1  A    between atoms: C2_2  and  C3_3 
REMARK    2  A    between atoms: C6_6  and  C7_7 
REMARK    3  A    between atoms: C7_7  and  C8_8 
REMARK    4  A    between atoms: C15_19  and  C16_20 
REMARK    5  A    between atoms: C16_20  and  C17_21 
REMARK    6  A    between atoms: C18_22  and  C19_23 
REMARK    7  A    between atoms: C21_25  and  C22_26 
REMARK    8  A    between atoms: C23_28  and  C24_29 
REMARK    9  A    between atoms: C27_34  and  C28_35 
REMARK   10  A    between atoms: C28_35  and  C29_36 
REMARK   11  A    between atoms: C29_36  and  C30_37 
REMARK   12  A    between atoms: C30_37  and  O5_39 
ROOT
HETATM    1  C8  UNL     1      -0.682   7.087  13.856  1.00  0.00     0.016 C 
HETATM    2  N1  UNL     1      -0.420   7.738  14.951  1.00  0.00    -0.362 N 
ATOM      3  H1  UNL     1       0.503   7.901  15.353  1.00  0.00     0.165 HD
HETATM    4  C9  UNL     1      -1.623   8.165  15.465  1.00  0.00     0.023 C 
HETATM    5  C10 UNL     1      -1.739   9.124  16.396  1.00  0.00    -0.000 A 
HETATM    6  C11 UNL     1      -3.054   9.738  16.929  1.00  0.00     0.127 A 
HETATM    7  C12 UNL     1      -2.498  10.873  17.850  1.00  0.00     0.166 A 
HETATM    8  O1  UNL     1      -3.180  11.661  18.492  1.00  0.00    -0.292 OA
HETATM    9  C13 UNL     1      -1.049  10.814  17.832  1.00  0.00     0.045 A 
HETATM   10  C14 UNL     1      -0.665   9.802  17.008  1.00  0.00     0.055 A 
HETATM   11  N2  UNL     1       0.675   9.667  17.022  1.00  0.00    -0.357 N 
HETATM   12  C15 UNL     1       1.190  10.667  17.843  1.00  0.00     0.022 A 
HETATM   13  C25 UNL     1       0.112  11.407  18.358  1.00  0.00    -0.023 A 
HETATM   14  C26 UNL     1       0.160  12.564  19.288  1.00  0.00     0.051 C 
HETATM   15  C27 UNL     1      -2.795   7.483  14.783  1.00  0.00     0.046 C 
HETATM   16  C31 UNL     1      -2.143   7.004  13.477  1.00  0.00     0.041 C 
HETATM   17  C32 UNL     1      -2.438   7.933  12.303  1.00  0.00     0.017 C 
HETATM   18  H10 UNL     1       1.202   8.936  16.570  1.00  0.00     0.166 HD
ENDROOT
BRANCH  15  19
HETATM   19  C28 UNL     1      -3.324   6.323  15.649  1.00  0.00     0.022 C 
BRANCH  19  20
HETATM   20  C29 UNL     1      -4.847   6.190  15.636  1.00  0.00     0.110 C 
BRANCH  20  21
HETATM   21  C30 UNL     1      -5.455   6.125  14.261  1.00  0.00     0.139 C 
HETATM   22  O4  UNL     1      -6.068   7.030  13.717  1.00  0.00    -0.650 OA
BRANCH  21  23
HETATM   23  O5  UNL     1      -5.210   4.975  13.609  1.00  0.00    -0.776 OA
HETATM   24  H29 UNL     1      -5.592   5.116  12.714  1.00  0.00     0.167 HD
ENDBRANCH  21  23
ENDBRANCH  20  21
ENDBRANCH  19  20
ENDBRANCH  15  19
BRANCH   1  25
HETATM   25  C7  UNL     1       0.346   6.468  12.976  1.00  0.00     0.055 C 
BRANCH  25  26
HETATM   26  C6  UNL     1       0.524   6.906  11.726  1.00  0.00     0.043 A 
HETATM   27  C4  UNL     1       1.351   6.387  10.656  1.00  0.00    -0.019 A 
HETATM   28  C3  UNL     1       1.255   7.173   9.555  1.00  0.00     0.039 A 
HETATM   29  C5  UNL     1       2.178   5.156  10.845  1.00  0.00     0.052 C 
HETATM   30  C33 UNL     1       0.283   8.260   9.923  1.00  0.00     0.256 A 
HETATM   31  N4  UNL     1      -0.092   8.000  11.212  1.00  0.00    -0.322 N 
HETATM   32  O6  UNL     1      -0.116   9.193   9.244  1.00  0.00    -0.267 OA
HETATM   33  H34 UNL     1      -0.727   8.571  11.758  1.00  0.00     0.169 HD
BRANCH  28  34
HETATM   34  C2  UNL     1       1.885   6.996   8.270  1.00  0.00     0.007 C 
HETATM   35  C1  UNL     1       2.418   7.967   7.517  1.00  0.00     0.012 C 
ENDBRANCH  28  34
ENDBRANCH  25  26
ENDBRANCH   1  25
BRANCH  12  36
HETATM   36  C16 UNL     1       2.669  10.777  18.093  1.00  0.00     0.115 C 
BRANCH  36  37
HETATM   37  C17 UNL     1       3.039  10.550  19.527  1.00  0.00     0.022 A 
HETATM   38  C18 UNL     1       3.980  11.169  20.341  1.00  0.00    -0.020 A 
HETATM   39  C21 UNL     1       3.910  10.535  21.633  1.00  0.00     0.040 A 
HETATM   40  C23 UNL     1       2.897   9.588  21.569  1.00  0.00     0.084 A 
HETATM   41  N3  UNL     1       2.370   9.634  20.298  1.00  0.00    -0.356 N 
HETATM   42  H20 UNL     1       1.566   9.091  19.995  1.00  0.00     0.166 HD
BRANCH  38  43
HETATM   43  C19 UNL     1       4.900  12.293  19.956  1.00  0.00     0.037 C 
HETATM   44  C20 UNL     1       6.176  11.790  19.295  1.00  0.00     0.010 C 
ENDBRANCH  38  43
BRANCH  39  45
HETATM   45  C22 UNL     1       4.713  10.826  22.821  1.00  0.00     0.273 C 
HETATM   46  O2  UNL     1       4.787  11.936  23.343  1.00  0.00    -0.301 OA
ENDBRANCH  39  45
BRANCH  40  47
HETATM   47  C24 UNL     1       2.385   8.696  22.585  1.00  0.00     0.288 C 
HETATM   48  O3  UNL     1       1.670   7.721  22.380  1.00  0.00    -0.300 OA
ENDBRANCH  40  47
ENDBRANCH  36  37
ENDBRANCH  12  36
TORSDOF 12
ENDMDL
MODEL 2
REMARK minimizedAffinity -8.92340374
REMARK CNNscore 0.244080424
REMARK CNNaffinity 7.75709534
REMARK  12 active torsions:
REMARK  status: ('A' for Active; 'I' for Inactive)
REMARK    1  A    between atoms: C2_2  and  C3_3 
REMARK    2  A    between atoms: C6_6  and  C7_7 
REMARK    3  A    between atoms: C7_7  and  C8_8 
REMARK    4  A    between atoms: C15_19  and  C16_20 
REMARK    5  A    between atoms: C16_20  and  C17_21 
REMARK    6  A    between atoms: C18_22  and  C19_23 
REMARK    7  A    between atoms: C21_25  and  C22_26 
REMARK    8  A    between atoms: C23_28  and  C24_29 
REMARK    9  A    between atoms: C27_34  and  C28_35 
REMARK   10  A    between atoms: C28_35  and  C29_36 
REMARK   11  A    between atoms: C29_36  and  C30_37 
REMARK   12  A    between atoms: C30_37  and  O5_39 
ROOT
HETATM    1  C8  UNL     1      -3.083   8.211  14.091  1.00  0.00     0.016 C 
HETATM    2  N1  UNL     1      -3.527   6.996  13.961  1.00  0.00    -0.362 N 
ATOM      3  H1  UNL     1      -4.440   6.650  14.256  1.00  0.00     0.165 HD
HETATM    4  C9  UNL     1      -2.534   6.265  13.352  1.00  0.00     0.023 C 
HETATM    5  C10 UNL     1      -2.734   5.072  12.769  1.00  0.00    -0.000 A 
HETATM    6  C11 UNL     1      -1.698   4.255  11.963  1.00  0.00     0.127 A 
HETATM    7  C12 UNL     1      -2.590   3.078  11.447  1.00  0.00     0.166 A 
HETATM    8  O1  UNL     1      -2.206   2.160  10.732  1.00  0.00    -0.292 OA
HETATM    9  C13 UNL     1      -3.930   3.247  11.975  1.00  0.00     0.045 A 
HETATM   10  C14 UNL     1      -3.960   4.380  12.728  1.00  0.00     0.055 A 
HETATM   11  N2  UNL     1      -5.172   4.533  13.298  1.00  0.00    -0.357 N 
HETATM   12  C15 UNL     1      -5.980   3.489  12.853  1.00  0.00     0.022 A 
HETATM   13  C25 UNL     1      -5.211   2.670  12.010  1.00  0.00    -0.023 A 
HETATM   14  C26 UNL     1      -5.633   1.432  11.307  1.00  0.00     0.051 C 
HETATM   15  C27 UNL     1      -1.215   7.016  13.341  1.00  0.00     0.046 C 
HETATM   16  C31 UNL     1      -1.693   8.461  13.554  1.00  0.00     0.041 C 
HETATM   17  C32 UNL     1      -1.763   9.250  12.250  1.00  0.00     0.017 C 
HETATM   18  H10 UNL     1      -5.424   5.238  13.972  1.00  0.00     0.166 HD
ENDROOT
BRANCH  15  19
HETATM   19  C28 UNL     1      -0.299   6.515  14.474  1.00  0.00     0.022 C 
BRANCH  19  20
HETATM   20  C29 UNL     1       1.163   6.938  14.318  1.00  0.00     0.110 C 
BRANCH  20  21
HETATM   21  C30 UNL     1       1.862   7.252  15.613  1.00  0.00     0.139 C 
HETATM   22  O4  UNL     1       1.417   7.963  16.500  1.00  0.00    -0.650 OA
BRANCH  21  23
HETATM   23  O5  UNL     1       3.036   6.616  15.768  1.00  0.00    -0.776 OA
HETATM   24  H29 UNL     1       3.323   6.854  16.678  1.00  0.00     0.167 HD
ENDBRANCH  21  23
ENDBRANCH  20  21
ENDBRANCH  19  20
ENDBRANCH  15  19
BRANCH   1  25
HETATM   25  C7  UNL     1      -3.855   9.332  14.693  1.00  0.00     0.055 C 
BRANCH  25  26
HETATM   26  C6  UNL     1      -3.428   9.928  15.810  1.00  0.00     0.043 A 
HETATM   27  C4  UNL     1      -2.640  11.130  15.993  1.00  0.00    -0.019 A 
HETATM   28  C3  UNL     1      -2.405  11.351  17.309  1.00  0.00     0.039 A 
HETATM   29  C5  UNL     1      -2.177  11.938  14.822  1.00  0.00     0.052 C 
HETATM   30  C33 UNL     1      -3.107  10.235  18.033  1.00  0.00     0.256 A 
HETATM   31  N4  UNL     1      -3.684   9.467  17.060  1.00  0.00    -0.322 N 
HETATM   32  O6  UNL     1      -3.176  10.025  19.234  1.00  0.00    -0.267 OA
HETATM   33  H34 UNL     1      -4.213   8.620  17.227  1.00  0.00     0.169 HD
BRANCH  28  34
HETATM   34  C2  UNL     1      -1.695  12.447  17.921  1.00  0.00     0.007 C 
HETATM   35  C1  UNL     1      -2.147  13.702  18.048  1.00  0.00     0.012 C 
ENDBRANCH  28  34
ENDBRANCH  25  26
ENDBRANCH   1  25
BRANCH  12  36
HETATM   36  C16 UNL     1      -7.400   3.355  13.331  1.00  0.00     0.115 C 
BRANCH  36  37
HETATM   37  C17 UNL     1      -8.074   4.676  13.545  1.00  0.00     0.022 A 
HETATM   38  C18 UNL     1      -8.002   5.584  14.595  1.00  0.00    -0.020 A 
HETATM   39  C21 UNL     1      -8.876   6.683  14.269  1.00  0.00     0.040 A 
HETATM   40  C23 UNL     1      -9.408   6.423  13.013  1.00  0.00     0.084 A 
HETATM   41  N3  UNL     1      -8.891   5.221  12.586  1.00  0.00    -0.356 N 
HETATM   42  H20 UNL     1      -9.061   4.822  11.668  1.00  0.00     0.166 HD
BRANCH  38  43
HETATM   43  C19 UNL     1      -7.168   5.455  15.838  1.00  0.00     0.037 C 
HETATM   44  C20 UNL     1      -7.139   6.745  16.645  1.00  0.00     0.010 C 
ENDBRANCH  38  43
BRANCH  39  45
HETATM   45  C22 UNL     1      -9.152   7.877  15.067  1.00  0.00     0.273 C 
HETATM   46  O2  UNL     1      -9.934   8.763  14.726  1.00  0.00    -0.301 OA
ENDBRANCH  39  45
BRANCH  40  47
HETATM   47  C24 UNL     1     -10.312   7.206  12.201  1.00  0.00     0.288 C 
HETATM   48  O3  UNL     1     -11.520   7.317  12.386  1.00  0.00    -0.300 OA
ENDBRANCH  40  47
ENDBRANCH  36  37
ENDBRANCH  12  36
TORSDOF 12
ENDMDL
MODEL 3
REMARK minimizedAffinity -7.45117044
REMARK CNNscore 0.211312503
REMARK CNNaffinity 6.89782667
REMARK  12 active torsions:
REMARK  status: ('A' for Active; 'I' for Inactive)
REMARK    1  A    between atoms: C2_2  and  C3_3 
REMARK    2  A    between atoms: C6_6  and  C7_7 
REMARK    3  A    between atoms: C7_7  and  C8_8 
REMARK    4  A    between atoms: C15_19  and  C16_20 
REMARK    5  A    between atoms: C16_20  and  C17_21 
REMARK    6  A    between atoms: C18_22  and  C19_23 
REMARK    7  A    between atoms: C21_25  and  C22_26 
REMARK    8  A    between atoms: C23_28  and  C24_29 
REMARK    9  A    between atoms: C27_34  and  C28_35 
REMARK   10  A    between atoms: C28_35  and  C29_36 
REMARK   11  A    between atoms: C29_36  and  C30_37 
REMARK   12  A    between atoms: C30_37  and  O5_39 
ROOT
HETATM    1  C8  UNL     1      -9.150   7.085  14.398  1.00  0.00     0.016 C 
HETATM    2  N1  UNL     1      -9.609   8.206  14.871  1.00  0.00    -0.362 N 
ATOM      3  H1  UNL     1      -9.149   8.810  15.552  1.00  0.00     0.165 HD
HETATM    4  C9  UNL     1     -10.832   8.423  14.280  1.00  0.00     0.023 C 
HETATM    5  C10 UNL     1     -11.456   9.611  14.269  1.00  0.00    -0.000 A 
HETATM    6  C11 UNL     1     -12.766   9.958  13.524  1.00  0.00     0.127 A 
HETATM    7  C12 UNL     1     -12.858  11.496  13.791  1.00  0.00     0.166 A 
HETATM    8  O1  UNL     1     -13.742  12.235  13.376  1.00  0.00    -0.292 OA
HETATM    9  C13 UNL     1     -11.741  11.888  14.629  1.00  0.00     0.045 A 
HETATM   10  C14 UNL     1     -10.983  10.787  14.885  1.00  0.00     0.055 A 
HETATM   11  N2  UNL     1      -9.974  11.095  15.723  1.00  0.00    -0.357 N 
HETATM   12  C15 UNL     1     -10.043  12.463  15.978  1.00  0.00     0.022 A 
HETATM   13  C25 UNL     1     -11.151  12.981  15.288  1.00  0.00    -0.023 A 
HETATM   14  C26 UNL     1     -11.637  14.384  15.261  1.00  0.00     0.051 C 
HETATM   15  C27 UNL     1     -11.336   7.181  13.567  1.00  0.00     0.046 C 
HETATM   16  C31 UNL     1     -10.030   6.391  13.384  1.00  0.00     0.041 C 
HETATM   17  C32 UNL     1      -9.447   6.545  11.983  1.00  0.00     0.017 C 
HETATM   18  H10 UNL     1      -9.328  10.442  16.138  1.00  0.00     0.166 HD
ENDROOT
BRANCH  15  19
HETATM   19  C28 UNL     1     -12.369   6.440  14.438  1.00  0.00     0.022 C 
BRANCH  19  20
HETATM   20  C29 UNL     1     -13.764   6.373  13.816  1.00  0.00     0.110 C 
BRANCH  20  21
HETATM   21  C30 UNL     1     -14.815   5.770  14.709  1.00  0.00     0.139 C 
HETATM   22  O4  UNL     1     -15.440   4.749  14.473  1.00  0.00    -0.650 OA
BRANCH  21  23
HETATM   23  O5  UNL     1     -14.982   6.421  15.873  1.00  0.00    -0.776 OA
HETATM   24  H29 UNL     1     -15.627   5.870  16.370  1.00  0.00     0.167 HD
ENDBRANCH  21  23
ENDBRANCH  20  21
ENDBRANCH  19  20
ENDBRANCH  15  19
BRANCH   1  25
HETATM   25  C7  UNL     1      -7.838   6.487  14.769  1.00  0.00     0.055 C 
BRANCH  25  26
HETATM   26  C6  UNL     1      -7.385   5.400  14.138  1.00  0.00     0.043 A 
HETATM   27  C4  UNL     1      -6.167   5.190  13.381  1.00  0.00    -0.019 A 
HETATM   28  C3  UNL     1      -6.128   3.932  12.879  1.00  0.00     0.039 A 
HETATM   29  C5  UNL     1      -5.161   6.285  13.216  1.00  0.00     0.052 C 
HETATM   30  C33 UNL     1      -7.389   3.270  13.360  1.00  0.00     0.256 A 
HETATM   31  N4  UNL     1      -8.045   4.215  14.099  1.00  0.00    -0.322 N 
HETATM   32  O6  UNL     1      -7.781   2.131  13.160  1.00  0.00    -0.267 OA
HETATM   33  H34 UNL     1      -8.946   4.083  14.543  1.00  0.00     0.169 HD
BRANCH  28  34
HETATM   34  C2  UNL     1      -5.084   3.309  12.101  1.00  0.00     0.007 C 
HETATM   35  C1  UNL     1      -5.210   2.842  10.852  1.00  0.00     0.012 C 
ENDBRANCH  28  34
ENDBRANCH  25  26
ENDBRANCH   1  25
BRANCH  12  36
HETATM   36  C16 UNL     1      -9.063  13.125  16.907  1.00  0.00     0.115 C 
BRANCH  36  37
HETATM   37  C17 UNL     1      -9.438  12.983  18.351  1.00  0.00     0.022 A 
HETATM   38  C18 UNL     1     -10.575  12.462  18.958  1.00  0.00    -0.020 A 
HETATM   39  C21 UNL     1     -10.397  12.592  20.382  1.00  0.00     0.040 A 
HETATM   40  C23 UNL     1      -9.139  13.142  20.588  1.00  0.00     0.084 A 
HETATM   41  N3  UNL     1      -8.570  13.345  19.350  1.00  0.00    -0.356 N 
HETATM   42  H20 UNL     1      -7.620  13.676  19.208  1.00  0.00     0.166 HD
BRANCH  38  43
HETATM   43  C19 UNL     1     -11.770  11.870  18.266  1.00  0.00     0.037 C 
HETATM   44  C20 UNL     1     -11.877  10.368  18.492  1.00  0.00     0.010 C 
ENDBRANCH  38  43
BRANCH  39  45
HETATM   45  C22 UNL     1     -11.325  12.202  21.442  1.00  0.00     0.273 C 
HETATM   46  O2  UNL     1     -12.541  12.380  21.388  1.00  0.00    -0.301 OA
ENDBRANCH  39  45
BRANCH  40  47
HETATM   47  C24 UNL     1      -8.444  13.453  21.816  1.00  0.00     0.288 C 
HETATM   48  O3  UNL     1      -7.367  12.978  22.164  1.00  0.00    -0.300 OA
ENDBRANCH  40  47
ENDBRANCH  36  37
ENDBRANCH  12  36
TORSDOF 12
ENDMDL
MODEL 4
REMARK minimizedAffinity -8.86506462
REMARK CNNscore 0.172188804
REMARK CNNaffinity 7.27791214
REMARK  12 active torsions:
REMARK  status: ('A' for Active; 'I' for Inactive)
REMARK    1  A    between atoms: C2_2  and  C3_3 
REMARK    2  A    between atoms: C6_6  and  C7_7 
REMARK    3  A    between atoms: C7_7  and  C8_8 
REMARK    4  A    between atoms: C15_19  and  C16_20 
REMARK    5  A    between atoms: C16_20  and  C17_21 
REMARK    6  A    between atoms: C18_22  and  C19_23 
REMARK    7  A    between atoms: C21_25  and  C22_26 
REMARK    8  A    between atoms: C23_28  and  C24_29 
REMARK    9  A    between atoms: C27_34  and  C28_35 
REMARK   10  A    between atoms: C28_35  and  C29_36 
REMARK   11  A    between atoms: C29_36  and  C30_37 
REMARK   12  A    between atoms: C30_37  and  O5_39 
ROOT
HETATM    1  C8  UNL     1      -2.496   8.879  14.773  1.00  0.00     0.016 C 
HETATM    2  N1  UNL     1      -3.397   7.945  14.861  1.00  0.00    -0.362 N 
ATOM      3  H1  UNL     1      -4.226   7.956  15.454  1.00  0.00     0.165 HD
HETATM    4  C9  UNL     1      -3.020   6.938  14.002  1.00  0.00     0.023 C 
HETATM    5  C10 UNL     1      -3.845   5.967  13.581  1.00  0.00    -0.000 A 
HETATM    6  C11 UNL     1      -3.529   4.881  12.527  1.00  0.00     0.127 A 
HETATM    7  C12 UNL     1      -4.923   4.187  12.392  1.00  0.00     0.166 A 
HETATM    8  O1  UNL     1      -5.179   3.252  11.643  1.00  0.00    -0.292 OA
HETATM    9  C13 UNL     1      -5.845   4.817  13.317  1.00  0.00     0.045 A 
HETATM   10  C14 UNL     1      -5.188   5.809  13.977  1.00  0.00     0.055 A 
HETATM   11  N2  UNL     1      -5.991   6.372  14.901  1.00  0.00    -0.357 N 
HETATM   12  C15 UNL     1      -7.239   5.761  14.800  1.00  0.00     0.022 A 
HETATM   13  C25 UNL     1      -7.166   4.780  13.798  1.00  0.00    -0.023 A 
HETATM   14  C26 UNL     1      -8.239   3.862  13.337  1.00  0.00     0.051 C 
HETATM   15  C27 UNL     1      -1.591   7.120  13.523  1.00  0.00     0.046 C 
HETATM   16  C31 UNL     1      -1.370   8.615  13.801  1.00  0.00     0.041 C 
HETATM   17  C32 UNL     1      -1.538   9.472  12.550  1.00  0.00     0.017 C 
HETATM   18  H10 UNL     1      -5.718   7.063  15.582  1.00  0.00     0.166 HD
ENDROOT
BRANCH  15  19
HETATM   19  C28 UNL     1      -0.634   6.213  14.322  1.00  0.00     0.022 C 
BRANCH  19  20
HETATM   20  C29 UNL     1       0.834   6.629  14.224  1.00  0.00     0.110 C 
BRANCH  20  21
HETATM   21  C30 UNL     1       1.432   7.110  15.518  1.00  0.00     0.139 C 
HETATM   22  O4  UNL     1       0.824   7.688  16.405  1.00  0.00    -0.650 OA
BRANCH  21  23
HETATM   23  O5  UNL     1       2.728   6.789  15.674  1.00  0.00    -0.776 OA
HETATM   24  H29 UNL     1       2.947   7.093  16.583  1.00  0.00     0.167 HD
ENDBRANCH  21  23
ENDBRANCH  20  21
ENDBRANCH  19  20
ENDBRANCH  15  19
BRANCH   1  25
HETATM   25  C7  UNL     1      -2.532  10.159  15.532  1.00  0.00     0.055 C 
BRANCH  25  26
HETATM   26  C6  UNL     1      -1.578  10.447  16.422  1.00  0.00     0.043 A 
HETATM   27  C4  UNL     1      -1.649  10.604  17.861  1.00  0.00    -0.019 A 
HETATM   28  C3  UNL     1      -0.436  10.935  18.366  1.00  0.00     0.039 A 
HETATM   29  C5  UNL     1      -2.940  10.424  18.596  1.00  0.00     0.052 C 
HETATM   30  C33 UNL     1       0.493  10.973  17.183  1.00  0.00     0.256 A 
HETATM   31  N4  UNL     1      -0.278  10.660  16.098  1.00  0.00    -0.322 N 
HETATM   32  O6  UNL     1       1.688  11.222  17.155  1.00  0.00    -0.267 OA
HETATM   33  H34 UNL     1       0.054  10.624  15.142  1.00  0.00     0.169 HD
BRANCH  28  34
HETATM   34  C2  UNL     1      -0.066  11.149  19.744  1.00  0.00     0.007 C 
HETATM   35  C1  UNL     1       1.051  10.701  20.335  1.00  0.00     0.012 C 
ENDBRANCH  28  34
ENDBRANCH  25  26
ENDBRANCH   1  25
BRANCH  12  36
HETATM   36  C16 UNL     1      -8.365   6.148  15.720  1.00  0.00     0.115 C 
BRANCH  36  37
HETATM   37  C17 UNL     1      -9.438   6.937  15.032  1.00  0.00     0.022 A 
HETATM   38  C18 UNL     1      -9.568   8.302  14.800  1.00  0.00    -0.020 A 
HETATM   39  C21 UNL     1     -10.812   8.498  14.101  1.00  0.00     0.040 A 
HETATM   40  C23 UNL     1     -11.367   7.243  13.893  1.00  0.00     0.084 A 
HETATM   41  N3  UNL     1     -10.508   6.317  14.440  1.00  0.00    -0.356 N 
HETATM   42  H20 UNL     1     -10.636   5.311  14.371  1.00  0.00     0.166 HD
BRANCH  38  43
HETATM   43  C19 UNL     1      -8.596   9.377  15.197  1.00  0.00     0.037 C 
HETATM   44  C20 UNL     1      -9.300  10.622  15.717  1.00  0.00     0.010 C 
ENDBRANCH  38  43
BRANCH  39  45
HETATM   45  C22 UNL     1     -11.400   9.760  13.651  1.00  0.00     0.273 C 
HETATM   46  O2  UNL     1     -12.420  10.250  14.129  1.00  0.00    -0.301 OA
ENDBRANCH  39  45
BRANCH  40  47
HETATM   47  C24 UNL     1     -12.586   6.860  13.216  1.00  0.00     0.288 C 
HETATM   48  O3  UNL     1     -13.714   7.240  13.514  1.00  0.00    -0.300 OA
ENDBRANCH  40  47
ENDBRANCH  36  37
ENDBRANCH  12  36
TORSDOF 12
ENDMDL
MODEL 5
REMARK minimizedAffinity -7.50976706
REMARK CNNscore 0.164045468
REMARK CNNaffinity 6.22306681
REMARK  12 active torsions:
REMARK  status: ('A' for Active; 'I' for Inactive)
REMARK    1  A    between atoms: C2_2  and  C3_3 
REMARK    2  A    between atoms: C6_6  and  C7_7 
REMARK    3  A    between atoms: C7_7  and  C8_8 
REMARK    4  A    between atoms: C15_19  and  C16_20 
REMARK    5  A    between atoms: C16_20  and  C17_21 
REMARK    6  A    between atoms: C18_22  and  C19_23 
REMARK    7  A    between atoms: C21_25  and  C22_26 
REMARK    8  A    between atoms: C23_28  and  C24_29 
REMARK    9  A    between atoms: C27_34  and  C28_35 
REMARK   10  A    between atoms: C28_35  and  C29_36 
REMARK   11  A    between atoms: C29_36  and  C30_37 
REMARK   12  A    between atoms: C30_37  and  O5_39 
ROOT
HETATM    1  C8  UNL     1     -10.854   7.881  14.245  1.00  0.00     0.016 C 
HETATM    2  N1  UNL     1     -11.372   8.167  15.403  1.00  0.00    -0.362 N 
ATOM      3  H1  UNL     1     -10.865   8.297  16.278  1.00  0.00     0.165 HD
HETATM    4  C9  UNL     1     -12.733   8.260  15.225  1.00  0.00     0.023 C 
HETATM    5  C10 UNL     1     -13.563   8.845  16.103  1.00  0.00    -0.000 A 
HETATM    6  C11 UNL     1     -15.077   9.095  15.914  1.00  0.00     0.127 A 
HETATM    7  C12 UNL     1     -15.401   9.926  17.199  1.00  0.00     0.166 A 
HETATM    8  O1  UNL     1     -16.501  10.377  17.491  1.00  0.00    -0.292 OA
HETATM    9  C13 UNL     1     -14.191  10.045  17.989  1.00  0.00     0.045 A 
HETATM   10  C14 UNL     1     -13.181   9.407  17.337  1.00  0.00     0.055 A 
HETATM   11  N2  UNL     1     -12.054   9.432  18.076  1.00  0.00    -0.357 N 
HETATM   12  C15 UNL     1     -12.325  10.165  19.229  1.00  0.00     0.022 A 
HETATM   13  C25 UNL     1     -13.670  10.566  19.187  1.00  0.00    -0.023 A 
HETATM   14  C26 UNL     1     -14.420  11.355  20.196  1.00  0.00     0.051 C 
HETATM   15  C27 UNL     1     -13.159   7.705  13.878  1.00  0.00     0.046 C 
HETATM   16  C31 UNL     1     -11.834   7.756  13.102  1.00  0.00     0.041 C 
HETATM   17  C32 UNL     1     -11.740   8.975  12.188  1.00  0.00     0.017 C 
HETATM   18  H10 UNL     1     -11.194   8.954  17.860  1.00  0.00     0.166 HD
ENDROOT
BRANCH  15  19
HETATM   19  C28 UNL     1     -13.709   6.274  14.033  1.00  0.00     0.022 C 
BRANCH  19  20
HETATM   20  C29 UNL     1     -15.203   6.151  13.729  1.00  0.00     0.110 C 
BRANCH  20  21
HETATM   21  C30 UNL     1     -15.683   7.032  12.607  1.00  0.00     0.139 C 
HETATM   22  O4  UNL     1     -15.413   6.881  11.427  1.00  0.00    -0.650 OA
BRANCH  21  23
HETATM   23  O5  UNL     1     -16.526   8.003  12.998  1.00  0.00    -0.776 OA
HETATM   24  H29 UNL     1     -16.811   8.431  12.159  1.00  0.00     0.167 HD
ENDBRANCH  21  23
ENDBRANCH  20  21
ENDBRANCH  19  20
ENDBRANCH  15  19
BRANCH   1  25
HETATM   25  C7  UNL     1      -9.398   7.705  13.993  1.00  0.00     0.055 C 
BRANCH  25  26
HETATM   26  C6  UNL     1      -8.845   6.489  14.024  1.00  0.00     0.043 A 
HETATM   27  C4  UNL     1      -8.583   5.546  12.956  1.00  0.00    -0.019 A 
HETATM   28  C3  UNL     1      -8.037   4.408  13.447  1.00  0.00     0.039 A 
HETATM   29  C5  UNL     1      -8.927   5.871  11.536  1.00  0.00     0.052 C 
HETATM   30  C33 UNL     1      -7.910   4.632  14.929  1.00  0.00     0.256 A 
HETATM   31  N4  UNL     1      -8.401   5.887  15.156  1.00  0.00    -0.322 N 
HETATM   32  O6  UNL     1      -7.465   3.880  15.782  1.00  0.00    -0.267 OA
HETATM   33  H34 UNL     1      -8.474   6.326  16.067  1.00  0.00     0.169 HD
BRANCH  28  34
HETATM   34  C2  UNL     1      -7.598   3.239  12.724  1.00  0.00     0.007 C 
HETATM   35  C1  UNL     1      -6.392   3.069  12.165  1.00  0.00     0.012 C 
ENDBRANCH  28  34
ENDBRANCH  25  26
ENDBRANCH   1  25
BRANCH  12  36
HETATM   36  C16 UNL     1     -11.271  10.358  20.285  1.00  0.00     0.115 C 
BRANCH  36  37
HETATM   37  C17 UNL     1     -11.590   9.650  21.567  1.00  0.00     0.022 A 
HETATM   38  C18 UNL     1     -11.291   9.964  22.888  1.00  0.00    -0.020 A 
HETATM   39  C21 UNL     1     -11.838   8.914  23.710  1.00  0.00     0.040 A 
HETATM   40  C23 UNL     1     -12.490   8.029  22.862  1.00  0.00     0.084 A 
HETATM   41  N3  UNL     1     -12.348   8.507  21.578  1.00  0.00    -0.356 N 
HETATM   42  H20 UNL     1     -12.786   8.088  20.763  1.00  0.00     0.166 HD
BRANCH  38  43
HETATM   43  C19 UNL     1     -10.542  11.171  23.377  1.00  0.00     0.037 C 
HETATM   44  C20 UNL     1     -11.477  12.277  23.844  1.00  0.00     0.010 C 
ENDBRANCH  38  43
BRANCH  39  45
HETATM   45  C22 UNL     1     -11.771   8.786  25.165  1.00  0.00     0.273 C 
HETATM   46  O2  UNL     1     -12.394   9.503  25.946  1.00  0.00    -0.301 OA
ENDBRANCH  39  45
BRANCH  40  47
HETATM   47  C24 UNL     1     -13.234   6.826  23.159  1.00  0.00     0.288 C 
HETATM   48  O3  UNL     1     -12.990   6.047  24.075  1.00  0.00    -0.300 OA
ENDBRANCH  40  47
ENDBRANCH  36  37
ENDBRANCH  12  36
TORSDOF 12
ENDMDL
MODEL 6
REMARK minimizedAffinity -7.50744915
REMARK CNNscore 0.156980649
REMARK CNNaffinity 6.87399626
REMARK  12 active torsions:
REMARK  status: ('A' for Active; 'I' for Inactive)
REMARK    1  A    between atoms: C2_2  and  C3_3 
REMARK    2  A    between atoms: C6_6  and  C7_7 
REMARK    3  A    between atoms: C7_7  and  C8_8 
REMARK    4  A    between atoms: C15_19  and  C16_20 
REMARK    5  A    between atoms: C16_20  and  C17_21 
REMARK    6  A    between atoms: C18_22  and  C19_23 
REMARK    7  A    between atoms: C21_25  and  C22_26 
REMARK    8  A    between atoms: C23_28  and  C24_29 
REMARK    9  A    between atoms: C27_34  and  C28_35 
REMARK   10  A    between atoms: C28_35  and  C29_36 
REMARK   11  A    between atoms: C29_36  and  C30_37 
REMARK   12  A    between atoms: C30_37  and  O5_39 
ROOT
HETATM    1  C8  UNL     1      -7.807   5.825  14.287  1.00  0.00     0.016 C 
HETATM    2  N1  UNL     1      -8.915   6.497  14.171  1.00  0.00    -0.362 N 
ATOM      3  H1  UNL     1      -9.689   6.285  13.541  1.00  0.00     0.165 HD
HETATM    4  C9  UNL     1      -8.847   7.547  15.058  1.00  0.00     0.023 C 
HETATM    5  C10 UNL     1      -9.912   8.261  15.453  1.00  0.00    -0.000 A 
HETATM    6  C11 UNL     1      -9.931   9.368  16.532  1.00  0.00     0.127 A 
HETATM    7  C12 UNL     1     -11.462   9.675  16.613  1.00  0.00     0.166 A 
HETATM    8  O1  UNL     1     -11.981  10.493  17.361  1.00  0.00    -0.292 OA
HETATM    9  C13 UNL     1     -12.151   8.849  15.640  1.00  0.00     0.045 A 
HETATM   10  C14 UNL     1     -11.233   8.076  14.999  1.00  0.00     0.055 A 
HETATM   11  N2  UNL     1     -11.825   7.346  14.033  1.00  0.00    -0.357 N 
HETATM   12  C15 UNL     1     -13.192   7.610  14.086  1.00  0.00     0.022 A 
HETATM   13  C25 UNL     1     -13.416   8.554  15.102  1.00  0.00    -0.023 A 
HETATM   14  C26 UNL     1     -14.707   9.152  15.525  1.00  0.00     0.051 C 
HETATM   15  C27 UNL     1      -7.440   7.730  15.597  1.00  0.00     0.046 C 
HETATM   16  C31 UNL     1      -6.828   6.350  15.311  1.00  0.00     0.041 C 
HETATM   17  C32 UNL     1      -6.818   5.450  16.544  1.00  0.00     0.017 C 
HETATM   18  H10 UNL     1     -11.355   6.764  13.358  1.00  0.00     0.166 HD
ENDROOT
BRANCH  15  19
HETATM   19  C28 UNL     1      -6.721   8.871  14.852  1.00  0.00     0.022 C 
BRANCH  19  20
HETATM   20  C29 UNL     1      -5.199   8.717  14.811  1.00  0.00     0.110 C 
BRANCH  20  21
HETATM   21  C30 UNL     1      -4.451   9.696  15.674  1.00  0.00     0.139 C 
HETATM   22  O4  UNL     1      -3.456   9.440  16.333  1.00  0.00    -0.650 OA
BRANCH  21  23
HETATM   23  O5  UNL     1      -4.930  10.951  15.619  1.00  0.00    -0.776 OA
HETATM   24  H29 UNL     1      -4.299  11.477  16.158  1.00  0.00     0.167 HD
ENDBRANCH  21  23
ENDBRANCH  20  21
ENDBRANCH  19  20
ENDBRANCH  15  19
BRANCH   1  25
HETATM   25  C7  UNL     1      -7.480   4.598  13.512  1.00  0.00     0.055 C 
BRANCH  25  26
HETATM   26  C6  UNL     1      -6.255   4.420  13.008  1.00  0.00     0.043 A 
HETATM   27  C4  UNL     1      -5.700   3.317  12.250  1.00  0.00    -0.019 A 
HETATM   28  C3  UNL     1      -4.394   3.540  11.969  1.00  0.00     0.039 A 
HETATM   29  C5  UNL     1      -6.534   2.127  11.893  1.00  0.00     0.052 C 
HETATM   30  C33 UNL     1      -4.082   4.887  12.560  1.00  0.00     0.256 A 
HETATM   31  N4  UNL     1      -5.246   5.318  13.133  1.00  0.00    -0.322 N 
HETATM   32  O6  UNL     1      -3.027   5.504  12.549  1.00  0.00    -0.267 OA
HETATM   33  H34 UNL     1      -5.357   6.190  13.637  1.00  0.00     0.169 HD
BRANCH  28  34
HETATM   34  C2  UNL     1      -3.486   2.714  11.212  1.00  0.00     0.007 C 
HETATM   35  C1  UNL     1      -2.189   2.515  11.488  1.00  0.00     0.012 C 
ENDBRANCH  28  34
ENDBRANCH  25  26
ENDBRANCH   1  25
BRANCH  12  36
HETATM   36  C16 UNL     1     -14.141   6.966  13.113  1.00  0.00     0.115 C 
BRANCH  36  37
HETATM   37  C17 UNL     1     -15.105   6.025  13.770  1.00  0.00     0.022 A 
HETATM   38  C18 UNL     1     -16.467   6.135  14.021  1.00  0.00    -0.020 A 
HETATM   39  C21 UNL     1     -16.875   4.928  14.694  1.00  0.00     0.040 A 
HETATM   40  C23 UNL     1     -15.756   4.111  14.783  1.00  0.00     0.084 A 
HETATM   41  N3  UNL     1     -14.707   4.783  14.196  1.00  0.00    -0.356 N 
HETATM   42  H20 UNL     1     -13.781   4.388  14.062  1.00  0.00     0.166 HD
BRANCH  38  43
HETATM   43  C19 UNL     1     -17.357   7.290  13.660  1.00  0.00     0.037 C 
HETATM   44  C20 UNL     1     -18.137   7.034  12.377  1.00  0.00     0.010 C 
ENDBRANCH  38  43
BRANCH  39  45
HETATM   45  C22 UNL     1     -18.210   4.576  15.178  1.00  0.00     0.273 C 
HETATM   46  O2  UNL     1     -18.587   4.751  16.335  1.00  0.00    -0.301 OA
ENDBRANCH  39  45
BRANCH  40  47
HETATM   47  C24 UNL     1     -15.610   2.781  15.331  1.00  0.00     0.288 C 
HETATM   48  O3  UNL     1     -15.083   1.831  14.761  1.00  0.00    -0.300 OA
ENDBRANCH  40  47
ENDBRANCH  36  37
ENDBRANCH  12  36
TORSDOF 12
ENDMDL
MODEL 7
REMARK minimizedAffinity -7.7077446
REMARK CNNscore 0.149090812
REMARK CNNaffinity 6.06910563
REMARK  12 active torsions:
REMARK  status: ('A' for Active; 'I' for Inactive)
REMARK    1  A    between atoms: C2_2  and  C3_3 
REMARK    2  A    between atoms: C6_6  and  C7_7 
REMARK    3  A    between atoms: C7_7  and  C8_8 
REMARK    4  A    between atoms: C15_19  and  C16_20 
REMARK    5  A    between atoms: C16_20  and  C17_21 
REMARK    6  A    between atoms: C18_22  and  C19_23 
REMARK    7  A    between atoms: C21_25  and  C22_26 
REMARK    8  A    between atoms: C23_28  and  C24_29 
REMARK    9  A    between atoms: C27_34  and  C28_35 
REMARK   10  A    between atoms: C28_35  and  C29_36 
REMARK   11  A    between atoms: C29_36  and  C30_37 
REMARK   12  A    between atoms: C30_37  and  O5_39 
ROOT
HETATM    1  C8  UNL     1     -13.052   7.055  14.099  1.00  0.00     0.016 C 
HETATM    2  N1  UNL     1     -13.050   7.525  15.311  1.00  0.00    -0.362 N 
ATOM      3  H1  UNL     1     -12.236   7.848  15.835  1.00  0.00     0.165 HD
HETATM    4  C9  UNL     1     -14.352   7.505  15.755  1.00  0.00     0.023 C 
HETATM    5  C10 UNL     1     -14.790   8.198  16.818  1.00  0.00    -0.000 A 
HETATM    6  C11 UNL     1     -16.254   8.320  17.300  1.00  0.00     0.127 A 
HETATM    7  C12 UNL     1     -16.098   9.360  18.457  1.00  0.00     0.166 A 
HETATM    8  O1  UNL     1     -17.012   9.796  19.145  1.00  0.00    -0.292 OA
HETATM    9  C13 UNL     1     -14.693   9.697  18.589  1.00  0.00     0.045 A 
HETATM   10  C14 UNL     1     -13.991   9.006  17.651  1.00  0.00     0.055 A 
HETATM   11  N2  UNL     1     -12.670   9.235  17.790  1.00  0.00    -0.357 N 
HETATM   12  C15 UNL     1     -12.510  10.157  18.821  1.00  0.00     0.022 A 
HETATM   13  C25 UNL     1     -13.781  10.465  19.334  1.00  0.00    -0.023 A 
HETATM   14  C26 UNL     1     -14.119  11.388  20.447  1.00  0.00     0.051 C 
HETATM   15  C27 UNL     1     -15.240   6.681  14.842  1.00  0.00     0.046 C 
HETATM   16  C31 UNL     1     -14.404   6.659  13.553  1.00  0.00     0.041 C 
HETATM   17  C32 UNL     1     -14.882   7.685  12.530  1.00  0.00     0.017 C 
HETATM   18  H10 UNL     1     -11.932   8.774  17.280  1.00  0.00     0.166 HD
ENDROOT
BRANCH  15  19
HETATM   19  C28 UNL     1     -15.467   5.276  15.433  1.00  0.00     0.022 C 
BRANCH  19  20
HETATM   20  C29 UNL     1     -15.788   4.210  14.383  1.00  0.00     0.110 C 
BRANCH  20  21
HETATM   21  C30 UNL     1     -15.561   2.795  14.844  1.00  0.00     0.139 C 
HETATM   22  O4  UNL     1     -14.478   2.234  14.891  1.00  0.00    -0.650 OA
BRANCH  21  23
HETATM   23  O5  UNL     1     -16.671   2.179  15.285  1.00  0.00    -0.776 OA
HETATM   24  H29 UNL     1     -16.351   1.312  15.621  1.00  0.00     0.167 HD
ENDBRANCH  21  23
ENDBRANCH  20  21
ENDBRANCH  19  20
ENDBRANCH  15  19
BRANCH   1  25
HETATM   25  C7  UNL     1     -11.841   6.918  13.246  1.00  0.00     0.055 C 
BRANCH  25  26
HETATM   26  C6  UNL     1     -10.638   6.734  13.797  1.00  0.00     0.043 A 
HETATM   27  C4  UNL     1      -9.382   6.322  13.203  1.00  0.00    -0.019 A 
HETATM   28  C3  UNL     1      -8.415   6.229  14.147  1.00  0.00     0.039 A 
HETATM   29  C5  UNL     1      -9.276   6.040  11.738  1.00  0.00     0.052 C 
HETATM   30  C33 UNL     1      -9.075   6.631  15.438  1.00  0.00     0.256 A 
HETATM   31  N4  UNL     1     -10.372   6.918  15.115  1.00  0.00    -0.322 N 
HETATM   32  O6  UNL     1      -8.591   6.703  16.557  1.00  0.00    -0.267 OA
HETATM   33  H34 UNL     1     -11.086   7.200  15.777  1.00  0.00     0.169 HD
BRANCH  28  34
HETATM   34  C2  UNL     1      -7.024   5.886  13.976  1.00  0.00     0.007 C 
HETATM   35  C1  UNL     1      -6.035   6.741  13.684  1.00  0.00     0.012 C 
ENDBRANCH  28  34
ENDBRANCH  25  26
ENDBRANCH   1  25
BRANCH  12  36
HETATM   36  C16 UNL     1     -11.140  10.608  19.248  1.00  0.00     0.115 C 
BRANCH  36  37
HETATM   37  C17 UNL     1     -10.972  10.643  20.737  1.00  0.00     0.022 A 
HETATM   38  C18 UNL     1     -10.689  11.692  21.604  1.00  0.00    -0.020 A 
HETATM   39  C21 UNL     1     -10.632  11.141  22.935  1.00  0.00     0.040 A 
HETATM   40  C23 UNL     1     -10.928   9.789  22.831  1.00  0.00     0.084 A 
HETATM   41  N3  UNL     1     -11.155   9.518  21.500  1.00  0.00    -0.356 N 
HETATM   42  H20 UNL     1     -11.459   8.615  21.147  1.00  0.00     0.166 HD
BRANCH  38  43
HETATM   43  C19 UNL     1     -10.485  13.133  21.234  1.00  0.00     0.037 C 
HETATM   44  C20 UNL     1      -9.087  13.394  20.691  1.00  0.00     0.010 C 
ENDBRANCH  38  43
BRANCH  39  45
HETATM   45  C22 UNL     1     -10.349  11.844  24.186  1.00  0.00     0.273 C 
HETATM   46  O2  UNL     1     -11.219  12.294  24.930  1.00  0.00    -0.301 OA
ENDBRANCH  39  45
BRANCH  40  47
HETATM   47  C24 UNL     1     -11.040   8.775  23.854  1.00  0.00     0.288 C 
HETATM   48  O3  UNL     1     -11.050   7.564  23.658  1.00  0.00    -0.300 OA
ENDBRANCH  40  47
ENDBRANCH  36  37
ENDBRANCH  12  36
TORSDOF 12
ENDMDL
MODEL 8
REMARK minimizedAffinity -8.75976372
REMARK CNNscore 0.132493779
REMARK CNNaffinity 7.17116022
REMARK  12 active torsions:
REMARK  status: ('A' for Active; 'I' for Inactive)
REMARK    1  A    between atoms: C2_2  and  C3_3 
REMARK    2  A    between atoms: C6_6  and  C7_7 
REMARK    3  A    between atoms: C7_7  and  C8_8 
REMARK    4  A    between atoms: C15_19  and  C16_20 
REMARK    5  A    between atoms: C16_20  and  C17_21 
REMARK    6  A    between atoms: C18_22  and  C19_23 
REMARK    7  A    between atoms: C21_25  and  C22_26 
REMARK    8  A    between atoms: C23_28  and  C24_29 
REMARK    9  A    between atoms: C27_34  and  C28_35 
REMARK   10  A    between atoms: C28_35  and  C29_36 
REMARK   11  A    between atoms: C29_36  and  C30_37 
REMARK   12  A    between atoms: C30_37  and  O5_39 
ROOT
HETATM    1  C8  UNL     1      -2.506   8.631  14.752  1.00  0.00     0.016 C 
HETATM    2  N1  UNL     1      -3.445   7.734  14.812  1.00  0.00    -0.362 N 
ATOM      3  H1  UNL     1      -4.273   7.762  15.407  1.00  0.00     0.165 HD
HETATM    4  C9  UNL     1      -3.111   6.738  13.923  1.00  0.00     0.023 C 
HETATM    5  C10 UNL     1      -3.976   5.816  13.474  1.00  0.00    -0.000 A 
HETATM    6  C11 UNL     1      -3.706   4.750  12.388  1.00  0.00     0.127 A 
HETATM    7  C12 UNL     1      -5.129   4.119  12.234  1.00  0.00     0.166 A 
HETATM    8  O1  UNL     1      -5.424   3.219  11.457  1.00  0.00    -0.292 OA
HETATM    9  C13 UNL     1      -6.023   4.759  13.179  1.00  0.00     0.045 A 
HETATM   10  C14 UNL     1      -5.324   5.702  13.868  1.00  0.00     0.055 A 
HETATM   11  N2  UNL     1      -6.103   6.270  14.810  1.00  0.00    -0.357 N 
HETATM   12  C15 UNL     1      -7.375   5.716  14.692  1.00  0.00     0.022 A 
HETATM   13  C25 UNL     1      -7.344   4.762  13.660  1.00  0.00    -0.023 A 
HETATM   14  C26 UNL     1      -8.454   3.905  13.174  1.00  0.00     0.051 C 
HETATM   15  C27 UNL     1      -1.676   6.874  13.447  1.00  0.00     0.046 C 
HETATM   16  C31 UNL     1      -1.392   8.349  13.770  1.00  0.00     0.041 C 
HETATM   17  C32 UNL     1      -1.525   9.250  12.546  1.00  0.00     0.017 C 
HETATM   18  H10 UNL     1      -5.801   6.928  15.510  1.00  0.00     0.166 HD
ENDROOT
BRANCH  15  19
HETATM   19  C28 UNL     1      -0.758   5.905  14.217  1.00  0.00     0.022 C 
BRANCH  19  20
HETATM   20  C29 UNL     1       0.157   5.075  13.314  1.00  0.00     0.110 C 
BRANCH  20  21
HETATM   21  C30 UNL     1       1.203   5.875  12.586  1.00  0.00     0.139 C 
HETATM   22  O4  UNL     1       1.259   6.027  11.376  1.00  0.00    -0.650 OA
BRANCH  21  23
HETATM   23  O5  UNL     1       2.077   6.498  13.395  1.00  0.00    -0.776 OA
HETATM   24  H29 UNL     1       2.633   7.034  12.787  1.00  0.00     0.167 HD
ENDBRANCH  21  23
ENDBRANCH  20  21
ENDBRANCH  19  20
ENDBRANCH  15  19
BRANCH   1  25
HETATM   25  C7  UNL     1      -2.488   9.888  15.549  1.00  0.00     0.055 C 
BRANCH  25  26
HETATM   26  C6  UNL     1      -1.565  10.078  16.496  1.00  0.00     0.043 A 
HETATM   27  C4  UNL     1      -1.685  10.633  17.829  1.00  0.00    -0.019 A 
HETATM   28  C3  UNL     1      -0.476  10.672  18.441  1.00  0.00     0.039 A 
HETATM   29  C5  UNL     1      -3.005  11.093  18.360  1.00  0.00     0.052 C 
HETATM   30  C33 UNL     1       0.492  10.080  17.452  1.00  0.00     0.256 A 
HETATM   31  N4  UNL     1      -0.255   9.755  16.354  1.00  0.00    -0.322 N 
HETATM   32  O6  UNL     1       1.695   9.905  17.568  1.00  0.00    -0.267 OA
HETATM   33  H34 UNL     1       0.114   9.354  15.500  1.00  0.00     0.169 HD
BRANCH  28  34
HETATM   34  C2  UNL     1      -0.160  11.118  19.776  1.00  0.00     0.007 C 
HETATM   35  C1  UNL     1       1.066  11.397  20.240  1.00  0.00     0.012 C 
ENDBRANCH  28  34
ENDBRANCH  25  26
ENDBRANCH   1  25
BRANCH  12  36
HETATM   36  C16 UNL     1      -8.484   6.121  15.625  1.00  0.00     0.115 C 
BRANCH  36  37
HETATM   37  C17 UNL     1      -9.174   7.382  15.201  1.00  0.00     0.022 A 
HETATM   38  C18 UNL     1     -10.278   7.594  14.384  1.00  0.00    -0.020 A 
HETATM   39  C21 UNL     1     -10.492   9.017  14.316  1.00  0.00     0.040 A 
HETATM   40  C23 UNL     1      -9.540   9.613  15.132  1.00  0.00     0.084 A 
HETATM   41  N3  UNL     1      -8.774   8.606  15.674  1.00  0.00    -0.356 N 
HETATM   42  H20 UNL     1      -8.043   8.755  16.364  1.00  0.00     0.166 HD
BRANCH  38  43
HETATM   43  C19 UNL     1     -11.103   6.542  13.698  1.00  0.00     0.037 C 
HETATM   44  C20 UNL     1     -12.472   6.375  14.344  1.00  0.00     0.010 C 
ENDBRANCH  38  43
BRANCH  39  45
HETATM   45  C22 UNL     1     -11.524   9.736  13.568  1.00  0.00     0.273 C 
HETATM   46  O2  UNL     1     -11.812   9.498  12.397  1.00  0.00    -0.301 OA
ENDBRANCH  39  45
BRANCH  40  47
HETATM   47  C24 UNL     1      -9.323  11.006  15.453  1.00  0.00     0.288 C 
HETATM   48  O3  UNL     1     -10.125  11.737  16.025  1.00  0.00    -0.300 OA
ENDBRANCH  40  47
ENDBRANCH  36  37
ENDBRANCH  12  36
TORSDOF 12
ENDMDL
MODEL 9
REMARK minimizedAffinity -8.86952972
REMARK CNNscore 0.127298757
REMARK CNNaffinity 7.46997643
REMARK  12 active torsions:
REMARK  status: ('A' for Active; 'I' for Inactive)
REMARK    1  A    between atoms: C2_2  and  C3_3 
REMARK    2  A    between atoms: C6_6  and  C7_7 
REMARK    3  A    between atoms: C7_7  and  C8_8 
REMARK    4  A    between atoms: C15_19  and  C16_20 
REMARK    5  A    between atoms: C16_20  and  C17_21 
REMARK    6  A    between atoms: C18_22  and  C19_23 
REMARK    7  A    between atoms: C21_25  and  C22_26 
REMARK    8  A    between atoms: C23_28  and  C24_29 
REMARK    9  A    between atoms: C27_34  and  C28_35 
REMARK   10  A    between atoms: C28_35  and  C29_36 
REMARK   11  A    between atoms: C29_36  and  C30_37 
REMARK   12  A    between atoms: C30_37  and  O5_39 
ROOT
HETATM    1  C8  UNL     1      -1.535   8.050  12.935  1.00  0.00     0.016 C 
HETATM    2  N1  UNL     1      -2.164   6.915  13.017  1.00  0.00    -0.362 N 
ATOM      3  H1  UNL     1      -3.112   6.771  13.363  1.00  0.00     0.165 HD
HETATM    4  C9  UNL     1      -1.308   5.943  12.549  1.00  0.00     0.023 C 
HETATM    5  C10 UNL     1      -1.703   4.714  12.182  1.00  0.00    -0.000 A 
HETATM    6  C11 UNL     1      -0.824   3.618  11.536  1.00  0.00     0.127 A 
HETATM    7  C12 UNL     1      -1.898   2.524  11.228  1.00  0.00     0.166 A 
HETATM    8  O1  UNL     1      -1.676   1.448  10.686  1.00  0.00    -0.292 OA
HETATM    9  C13 UNL     1      -3.183   2.988  11.712  1.00  0.00     0.045 A 
HETATM   10  C14 UNL     1      -3.022   4.225  12.256  1.00  0.00     0.055 A 
HETATM   11  N2  UNL     1      -4.182   4.660  12.785  1.00  0.00    -0.357 N 
HETATM   12  C15 UNL     1      -5.151   3.695  12.525  1.00  0.00     0.022 A 
HETATM   13  C25 UNL     1      -4.537   2.632  11.841  1.00  0.00    -0.023 A 
HETATM   14  C26 UNL     1      -5.161   1.372  11.362  1.00  0.00     0.051 C 
HETATM   15  C27 UNL     1       0.110   6.467  12.414  1.00  0.00     0.046 C 
HETATM   16  C31 UNL     1      -0.135   7.983  12.369  1.00  0.00     0.041 C 
HETATM   17  C32 UNL     1      -0.112   8.536  10.947  1.00  0.00     0.017 C 
HETATM   18  H10 UNL     1      -4.308   5.502  13.324  1.00  0.00     0.166 HD
ENDROOT
BRANCH  15  19
HETATM   19  C28 UNL     1       0.963   6.032  13.621  1.00  0.00     0.022 C 
BRANCH  19  20
HETATM   20  C29 UNL     1       1.266   7.167  14.602  1.00  0.00     0.110 C 
BRANCH  20  21
HETATM   21  C30 UNL     1       2.731   7.375  14.878  1.00  0.00     0.139 C 
HETATM   22  O4  UNL     1       3.430   8.235  14.367  1.00  0.00    -0.650 OA
BRANCH  21  23
HETATM   23  O5  UNL     1       3.230   6.558  15.822  1.00  0.00    -0.776 OA
HETATM   24  H29 UNL     1       4.155   6.867  15.946  1.00  0.00     0.167 HD
ENDBRANCH  21  23
ENDBRANCH  20  21
ENDBRANCH  19  20
ENDBRANCH  15  19
BRANCH   1  25
HETATM   25  C7  UNL     1      -2.111   9.364  13.328  1.00  0.00     0.055 C 
BRANCH  25  26
HETATM   26  C6  UNL     1      -1.567  10.074  14.321  1.00  0.00     0.043 A 
HETATM   27  C4  UNL     1      -1.373   9.743  15.718  1.00  0.00    -0.019 A 
HETATM   28  C3  UNL     1      -0.810  10.783  16.381  1.00  0.00     0.039 A 
HETATM   29  C5  UNL     1      -1.792   8.415  16.264  1.00  0.00     0.052 C 
HETATM   30  C33 UNL     1      -0.600  11.852  15.344  1.00  0.00     0.256 A 
HETATM   31  N4  UNL     1      -1.067  11.326  14.171  1.00  0.00    -0.322 N 
HETATM   32  O6  UNL     1      -0.114  12.964  15.478  1.00  0.00    -0.267 OA
HETATM   33  H34 UNL     1      -1.085  11.814  13.284  1.00  0.00     0.169 HD
BRANCH  28  34
HETATM   34  C2  UNL     1      -0.422  10.857  17.768  1.00  0.00     0.007 C 
HETATM   35  C1  UNL     1      -1.224  11.186  18.791  1.00  0.00     0.012 C 
ENDBRANCH  28  34
ENDBRANCH  25  26
ENDBRANCH   1  25
BRANCH  12  36
HETATM   36  C16 UNL     1      -6.564   3.867  13.012  1.00  0.00     0.115 C 
BRANCH  36  37
HETATM   37  C17 UNL     1      -6.799   5.193  13.668  1.00  0.00     0.022 A 
HETATM   38  C18 UNL     1      -7.902   6.040  13.659  1.00  0.00    -0.020 A 
HETATM   39  C21 UNL     1      -7.564   7.190  14.458  1.00  0.00     0.040 A 
HETATM   40  C23 UNL     1      -6.287   6.977  14.961  1.00  0.00     0.084 A 
HETATM   41  N3  UNL     1      -5.858   5.756  14.492  1.00  0.00    -0.356 N 
HETATM   42  H20 UNL     1      -4.981   5.320  14.761  1.00  0.00     0.166 HD
BRANCH  38  43
HETATM   43  C19 UNL     1      -9.208   5.805  12.954  1.00  0.00     0.037 C 
HETATM   44  C20 UNL     1      -9.094   6.012  11.451  1.00  0.00     0.010 C 
ENDBRANCH  38  43
BRANCH  39  45
HETATM   45  C22 UNL     1      -8.390   8.364  14.737  1.00  0.00     0.273 C 
HETATM   46  O2  UNL     1      -9.285   8.387  15.579  1.00  0.00    -0.301 OA
ENDBRANCH  39  45
BRANCH  40  47
HETATM   47  C24 UNL     1      -5.481   7.793  15.842  1.00  0.00     0.288 C 
HETATM   48  O3  UNL     1      -5.170   8.962  15.641  1.00  0.00    -0.300 OA
ENDBRANCH  40  47
ENDBRANCH  36  37
ENDBRANCH  12  36
TORSDOF 12
ENDMDL
