MODEL 1
REMARK minimizedAffinity -9.15955257
REMARK  4 active torsions:
REMARK  status: ('A' for Active; 'I' for Inactive)
REMARK    1  A    between atoms: C2_2  and  C4_4 
REMARK    2  A    between atoms: C4_4  and  C5_5 
REMARK    3  A    between atoms: C5_5  and  O1_6 
REMARK    4  A    between atoms: C8_9  and  C9_10 
ROOT
HETATM    1  C9  UNL     1      -3.819   8.233  13.132  1.00  0.00     0.001 C 
HETATM    2  C10 UNL     1      -3.419   9.573  13.805  1.00  0.00     0.007 C 
HETATM    3  C11 UNL     1      -1.881   9.610  13.855  1.00  0.00     0.011 C 
HETATM    4  C12 UNL     1      -1.417   8.488  12.906  1.00  0.00    -0.032 C 
HETATM    5  C13 UNL     1      -1.433   9.090  11.465  1.00  0.00     0.016 C 
HETATM    6  C14 UNL     1      -0.016   7.908  13.231  1.00  0.00     0.004 C 
HETATM    7  C15 UNL     1       1.139   8.871  12.931  1.00  0.00     0.007 C 
HETATM    8  C16 UNL     1       2.453   8.252  13.390  1.00  0.00     0.007 C 
HETATM    9  C17 UNL     1       2.874   7.069  12.494  1.00  0.00     0.010 C 
HETATM   10  C18 UNL     1       3.623   7.470  11.160  1.00  0.00     0.018 C 
HETATM   11  C19 UNL     1       4.890   6.601  10.968  1.00  0.00     0.023 C 
HETATM   12  C20 UNL     1       4.126   8.931  11.121  1.00  0.00     0.023 C 
HETATM   13  C21 UNL     1       2.706   7.233   9.952  1.00  0.00     0.135 C 
HETATM   14  O2  UNL     1       2.516   8.094   9.090  1.00  0.00    -0.297 OA
HETATM   15  C22 UNL     1       2.088   5.863   9.785  1.00  0.00     0.080 C 
HETATM   16  C23 UNL     1       1.947   5.132  11.107  1.00  0.00     0.018 C 
HETATM   17  C24 UNL     1       1.682   6.101  12.241  1.00  0.00    -0.026 A 
HETATM   18  C25 UNL     1       0.981   5.519  13.441  1.00  0.00     0.021 A 
HETATM   19  C26 UNL     1       0.220   6.521  12.585  1.00  0.00    -0.027 A 
HETATM   20  C27 UNL     1      -0.917   5.952  11.722  1.00  0.00     0.011 C 
HETATM   21  C28 UNL     1      -2.368   6.308  12.097  1.00  0.00     0.011 C 
HETATM   22  C29 UNL     1      -2.506   7.387  13.177  1.00  0.00    -0.032 C 
HETATM   23  C30 UNL     1      -2.363   6.686  14.555  1.00  0.00     0.016 C 
ENDROOT
BRANCH   1  24
HETATM   24  C8  UNL     1      -5.191   7.683  13.604  1.00  0.00     0.014 C 
HETATM   25  C7  UNL     1      -5.997   8.557  14.580  1.00  0.00     0.010 C 
HETATM   26  C6  UNL     1      -6.752   7.719  15.610  1.00  0.00     0.041 C 
HETATM   27  C4  UNL     1      -7.404   6.453  15.001  1.00  0.00     0.085 C 
HETATM   28  O3  UNL     1      -6.445   5.684  14.233  1.00  0.00    -0.377 OA
HETATM   29  C31 UNL     1      -5.136   6.235  14.096  1.00  0.00     0.174 C 
BRANCH  27  30
HETATM   30  C2  UNL     1      -8.568   6.808  14.006  1.00  0.00     0.014 C 
HETATM   31  C1  UNL     1      -9.933   7.061  14.652  1.00  0.00     0.012 C 
HETATM   32  C3  UNL     1      -8.736   5.771  12.883  1.00  0.00     0.012 C 
ENDBRANCH  27  30
BRANCH  27  33
HETATM   33  C5  UNL     1      -7.855   5.514  16.153  1.00  0.00     0.202 C 
BRANCH  33  34
HETATM   34  O1  UNL     1      -7.892   4.138  15.797  1.00  0.00    -0.398 OA
HETATM   35  H10 UNL     1      -8.685   3.996  15.255  1.00  0.00     0.209 HD
ENDBRANCH  33  34
ENDBRANCH  27  33
ENDBRANCH   1  24
TORSDOF 4
ENDMDL
MODEL 2
REMARK minimizedAffinity -8.94020176
REMARK  4 active torsions:
REMARK  status: ('A' for Active; 'I' for Inactive)
REMARK    1  A    between atoms: C2_2  and  C4_4 
REMARK    2  A    between atoms: C4_4  and  C5_5 
REMARK    3  A    between atoms: C5_5  and  O1_6 
REMARK    4  A    between atoms: C8_9  and  C9_10 
ROOT
HETATM    1  C9  UNL     1      -3.511   5.852  13.575  1.00  0.00     0.001 C 
HETATM    2  C10 UNL     1      -2.578   5.220  12.509  1.00  0.00     0.007 C 
HETATM    3  C11 UNL     1      -1.315   6.096  12.440  1.00  0.00     0.011 C 
HETATM    4  C12 UNL     1      -1.372   6.990  13.695  1.00  0.00    -0.032 C 
HETATM    5  C13 UNL     1      -0.782   6.145  14.869  1.00  0.00     0.016 C 
HETATM    6  C14 UNL     1      -0.610   8.333  13.563  1.00  0.00     0.004 C 
HETATM    7  C15 UNL     1       0.916   8.182  13.534  1.00  0.00     0.007 C 
HETATM    8  C16 UNL     1       1.559   9.541  13.289  1.00  0.00     0.007 C 
HETATM    9  C17 UNL     1       1.423  10.469  14.513  1.00  0.00     0.010 C 
HETATM   10  C18 UNL     1       2.507  10.251  15.645  1.00  0.00     0.018 C 
HETATM   11  C19 UNL     1       3.098  11.609  16.098  1.00  0.00     0.023 C 
HETATM   12  C20 UNL     1       3.725   9.403  15.214  1.00  0.00     0.023 C 
HETATM   13  C21 UNL     1       1.859   9.593  16.871  1.00  0.00     0.135 C 
HETATM   14  O2  UNL     1       2.339   8.595  17.415  1.00  0.00    -0.297 OA
HETATM   15  C22 UNL     1       0.635  10.250  17.470  1.00  0.00     0.080 C 
HETATM   16  C23 UNL     1      -0.130  11.074  16.451  1.00  0.00     0.018 C 
HETATM   17  C24 UNL     1      -0.030  10.461  15.069  1.00  0.00    -0.026 A 
HETATM   18  C25 UNL     1      -1.147  10.813  14.121  1.00  0.00     0.021 A 
HETATM   19  C26 UNL     1      -1.056   9.377  14.617  1.00  0.00    -0.027 A 
HETATM   20  C27 UNL     1      -2.130   8.936  15.623  1.00  0.00     0.011 C 
HETATM   21  C28 UNL     1      -3.188   7.916  15.162  1.00  0.00     0.011 C 
HETATM   22  C29 UNL     1      -2.914   7.278  13.795  1.00  0.00    -0.032 C 
HETATM   23  C30 UNL     1      -3.442   8.257  12.712  1.00  0.00     0.016 C 
ENDROOT
BRANCH   1  24
HETATM   24  C8  UNL     1      -5.019   5.602  13.311  1.00  0.00     0.014 C 
HETATM   25  C7  UNL     1      -5.963   5.665  14.524  1.00  0.00     0.010 C 
HETATM   26  C6  UNL     1      -7.090   4.640  14.428  1.00  0.00     0.041 C 
HETATM   27  C4  UNL     1      -7.685   4.526  13.002  1.00  0.00     0.085 C 
HETATM   28  O3  UNL     1      -6.647   4.326  12.012  1.00  0.00    -0.377 OA
HETATM   29  C31 UNL     1      -5.298   4.351  12.476  1.00  0.00     0.174 C 
BRANCH  27  30
HETATM   30  C2  UNL     1      -8.445   5.834  12.573  1.00  0.00     0.014 C 
HETATM   31  C1  UNL     1      -9.592   6.261  13.493  1.00  0.00     0.012 C 
HETATM   32  C3  UNL     1      -8.963   5.780  11.126  1.00  0.00     0.012 C 
ENDBRANCH  27  30
BRANCH  27  33
HETATM   33  C5  UNL     1      -8.575   3.255  12.927  1.00  0.00     0.202 C 
BRANCH  33  34
HETATM   34  O1  UNL     1      -7.845   2.049  12.736  1.00  0.00    -0.398 OA
HETATM   35  H10 UNL     1      -7.570   2.017  11.805  1.00  0.00     0.209 HD
ENDBRANCH  33  34
ENDBRANCH  27  33
ENDBRANCH   1  24
TORSDOF 4
ENDMDL
MODEL 3
REMARK minimizedAffinity -8.5844698
REMARK  4 active torsions:
REMARK  status: ('A' for Active; 'I' for Inactive)
REMARK    1  A    between atoms: C2_2  and  C4_4 
REMARK    2  A    between atoms: C4_4  and  C5_5 
REMARK    3  A    between atoms: C5_5  and  O1_6 
REMARK    4  A    between atoms: C8_9  and  C9_10 
ROOT
HETATM    1  C9  UNL     1      -3.106   7.023  14.421  1.00  0.00     0.001 C 
HETATM    2  C10 UNL     1      -2.177   7.006  13.178  1.00  0.00     0.007 C 
HETATM    3  C11 UNL     1      -1.163   8.149  13.359  1.00  0.00     0.011 C 
HETATM    4  C12 UNL     1      -1.284   8.569  14.837  1.00  0.00    -0.032 C 
HETATM    5  C13 UNL     1      -0.391   7.582  15.653  1.00  0.00     0.016 C 
HETATM    6  C14 UNL     1      -0.869  10.035  15.126  1.00  0.00     0.004 C 
HETATM    7  C15 UNL     1       0.638  10.290  15.002  1.00  0.00     0.007 C 
HETATM    8  C16 UNL     1       0.922  11.774  15.192  1.00  0.00     0.007 C 
HETATM    9  C17 UNL     1       0.713  12.216  16.656  1.00  0.00     0.010 C 
HETATM   10  C18 UNL     1       1.936  11.941  17.621  1.00  0.00     0.018 C 
HETATM   11  C19 UNL     1       2.247  13.196  18.471  1.00  0.00     0.023 C 
HETATM   12  C20 UNL     1       3.260  11.602  16.900  1.00  0.00     0.023 C 
HETATM   13  C21 UNL     1       1.595  10.796  18.586  1.00  0.00     0.135 C 
HETATM   14  O2  UNL     1       2.348   9.835  18.760  1.00  0.00    -0.297 OA
HETATM   15  C22 UNL     1       0.328  10.907  19.403  1.00  0.00     0.080 C 
HETATM   16  C23 UNL     1      -0.714  11.782  18.732  1.00  0.00     0.018 C 
HETATM   17  C24 UNL     1      -0.630  11.671  17.223  1.00  0.00    -0.026 A 
HETATM   18  C25 UNL     1      -1.895  12.003  16.477  1.00  0.00     0.021 A 
HETATM   19  C26 UNL     1      -1.423  10.556  16.475  1.00  0.00    -0.027 A 
HETATM   20  C27 UNL     1      -2.250   9.571  17.316  1.00  0.00     0.011 C 
HETATM   21  C28 UNL     1      -3.091   8.510  16.581  1.00  0.00     0.011 C 
HETATM   22  C29 UNL     1      -2.831   8.414  15.074  1.00  0.00    -0.032 C 
HETATM   23  C30 UNL     1      -3.686   9.512  14.385  1.00  0.00     0.016 C 
ENDROOT
BRANCH   1  24
HETATM   24  C8  UNL     1      -4.537   6.494  14.137  1.00  0.00     0.014 C 
HETATM   25  C7  UNL     1      -5.549   6.556  15.293  1.00  0.00     0.010 C 
HETATM   26  C6  UNL     1      -6.491   5.354  15.296  1.00  0.00     0.041 C 
HETATM   27  C4  UNL     1      -6.974   4.960  13.878  1.00  0.00     0.085 C 
HETATM   28  O3  UNL     1      -5.860   4.808  12.965  1.00  0.00    -0.377 OA
HETATM   29  C31 UNL     1      -4.562   5.116  13.472  1.00  0.00     0.174 C 
BRANCH  27  30
HETATM   30  C2  UNL     1      -7.905   6.057  13.245  1.00  0.00     0.014 C 
HETATM   31  C1  UNL     1      -9.091   6.495  14.111  1.00  0.00     0.012 C 
HETATM   32  C3  UNL     1      -8.426   5.672  11.850  1.00  0.00     0.012 C 
ENDBRANCH  27  30
BRANCH  27  33
HETATM   33  C5  UNL     1      -7.644   3.561  13.946  1.00  0.00     0.202 C 
BRANCH  33  34
HETATM   34  O1  UNL     1      -8.717   3.388  13.028  1.00  0.00    -0.398 OA
HETATM   35  H10 UNL     1      -9.485   3.867  13.380  1.00  0.00     0.209 HD
ENDBRANCH  33  34
ENDBRANCH  27  33
ENDBRANCH   1  24
TORSDOF 4
ENDMDL
MODEL 4
REMARK minimizedAffinity -8.52266121
REMARK  4 active torsions:
REMARK  status: ('A' for Active; 'I' for Inactive)
REMARK    1  A    between atoms: C2_2  and  C4_4 
REMARK    2  A    between atoms: C4_4  and  C5_5 
REMARK    3  A    between atoms: C5_5  and  O1_6 
REMARK    4  A    between atoms: C8_9  and  C9_10 
ROOT
HETATM    1  C9  UNL     1      -3.422   5.810  13.819  1.00  0.00     0.001 C 
HETATM    2  C10 UNL     1      -2.940   5.218  12.468  1.00  0.00     0.007 C 
HETATM    3  C11 UNL     1      -1.637   5.948  12.096  1.00  0.00     0.011 C 
HETATM    4  C12 UNL     1      -1.198   6.676  13.382  1.00  0.00    -0.032 C 
HETATM    5  C13 UNL     1      -0.423   5.627  14.243  1.00  0.00     0.016 C 
HETATM    6  C14 UNL     1      -0.320   7.931  13.144  1.00  0.00     0.004 C 
HETATM    7  C15 UNL     1       1.093   7.614  12.639  1.00  0.00     0.007 C 
HETATM    8  C16 UNL     1       1.828   8.912  12.331  1.00  0.00     0.007 C 
HETATM    9  C17 UNL     1       2.189   9.687  13.615  1.00  0.00     0.010 C 
HETATM   10  C18 UNL     1       3.510   9.206  14.341  1.00  0.00     0.018 C 
HETATM   11  C19 UNL     1       4.397  10.420  14.709  1.00  0.00     0.023 C 
HETATM   12  C20 UNL     1       4.414   8.288  13.487  1.00  0.00     0.023 C 
HETATM   13  C21 UNL     1       3.156   8.474  15.643  1.00  0.00     0.135 C 
HETATM   14  O2  UNL     1       3.622   7.368  15.925  1.00  0.00    -0.297 OA
HETATM   15  C22 UNL     1       2.267   9.184  16.640  1.00  0.00     0.080 C 
HETATM   16  C23 UNL     1       1.367  10.211  15.978  1.00  0.00     0.018 C 
HETATM   17  C24 UNL     1       0.973   9.772  14.583  1.00  0.00    -0.026 A 
HETATM   18  C25 UNL     1      -0.307  10.364  14.054  1.00  0.00     0.021 A 
HETATM   19  C26 UNL     1      -0.285   8.875  14.370  1.00  0.00    -0.027 A 
HETATM   20  C27 UNL     1      -1.075   8.434  15.612  1.00  0.00     0.011 C 
HETATM   21  C28 UNL     1      -2.357   7.606  15.407  1.00  0.00     0.011 C 
HETATM   22  C29 UNL     1      -2.586   7.120  13.971  1.00  0.00    -0.032 C 
HETATM   23  C30 UNL     1      -3.258   8.282  13.190  1.00  0.00     0.016 C 
ENDROOT
BRANCH   1  24
HETATM   24  C8  UNL     1      -4.961   5.767  14.004  1.00  0.00     0.014 C 
HETATM   25  C7  UNL     1      -5.793   6.773  13.191  1.00  0.00     0.010 C 
HETATM   26  C6  UNL     1      -7.001   7.285  13.974  1.00  0.00     0.041 C 
HETATM   27  C4  UNL     1      -7.719   6.170  14.776  1.00  0.00     0.085 C 
HETATM   28  O3  UNL     1      -6.784   5.423  15.593  1.00  0.00    -0.377 OA
HETATM   29  C31 UNL     1      -5.403   5.761  15.469  1.00  0.00     0.174 C 
BRANCH  27  30
HETATM   30  C2  UNL     1      -8.408   5.116  13.835  1.00  0.00     0.014 C 
HETATM   31  C1  UNL     1      -7.712   3.755  13.750  1.00  0.00     0.012 C 
HETATM   32  C3  UNL     1      -8.639   5.644  12.409  1.00  0.00     0.012 C 
ENDBRANCH  27  30
BRANCH  27  33
HETATM   33  C5  UNL     1      -8.706   6.828  15.778  1.00  0.00     0.202 C 
BRANCH  33  34
HETATM   34  O1  UNL     1     -10.077   6.600  15.473  1.00  0.00    -0.398 OA
HETATM   35  H10 UNL     1     -10.313   7.178  14.728  1.00  0.00     0.209 HD
ENDBRANCH  33  34
ENDBRANCH  27  33
ENDBRANCH   1  24
TORSDOF 4
ENDMDL
MODEL 5
REMARK minimizedAffinity -8.51312351
REMARK  4 active torsions:
REMARK  status: ('A' for Active; 'I' for Inactive)
REMARK    1  A    between atoms: C2_2  and  C4_4 
REMARK    2  A    between atoms: C4_4  and  C5_5 
REMARK    3  A    between atoms: C5_5  and  O1_6 
REMARK    4  A    between atoms: C8_9  and  C9_10 
ROOT
HETATM    1  C9  UNL     1      -1.870   6.768  12.927  1.00  0.00     0.001 C 
HETATM    2  C10 UNL     1      -1.151   7.616  11.845  1.00  0.00     0.007 C 
HETATM    3  C11 UNL     1      -1.170   9.076  12.330  1.00  0.00     0.011 C 
HETATM    4  C12 UNL     1      -1.564   9.004  13.819  1.00  0.00    -0.032 C 
HETATM    5  C13 UNL     1      -0.253   8.705  14.612  1.00  0.00     0.016 C 
HETATM    6  C14 UNL     1      -2.246  10.284  14.367  1.00  0.00     0.004 C 
HETATM    7  C15 UNL     1      -1.298  11.482  14.502  1.00  0.00     0.007 C 
HETATM    8  C16 UNL     1      -2.086  12.710  14.938  1.00  0.00     0.007 C 
HETATM    9  C17 UNL     1      -2.560  12.600  16.401  1.00  0.00     0.010 C 
HETATM   10  C18 UNL     1      -1.484  13.006  17.488  1.00  0.00     0.018 C 
HETATM   11  C19 UNL     1      -2.110  13.952  18.542  1.00  0.00     0.023 C 
HETATM   12  C20 UNL     1      -0.265  13.772  16.929  1.00  0.00     0.023 C 
HETATM   13  C21 UNL     1      -0.984  11.754  18.223  1.00  0.00     0.135 C 
HETATM   14  O2  UNL     1       0.216  11.513  18.370  1.00  0.00    -0.297 OA
HETATM   15  C22 UNL     1      -2.010  10.839  18.853  1.00  0.00     0.080 C 
HETATM   16  C23 UNL     1      -3.360  10.930  18.165  1.00  0.00     0.018 C 
HETATM   17  C24 UNL     1      -3.198  11.208  16.684  1.00  0.00    -0.026 A 
HETATM   18  C25 UNL     1      -4.348  10.772  15.813  1.00  0.00     0.021 A 
HETATM   19  C26 UNL     1      -3.026  10.028  15.679  1.00  0.00    -0.027 A 
HETATM   20  C27 UNL     1      -2.991   8.600  16.244  1.00  0.00     0.011 C 
HETATM   21  C28 UNL     1      -2.891   7.425  15.253  1.00  0.00     0.011 C 
HETATM   22  C29 UNL     1      -2.610   7.830  13.802  1.00  0.00    -0.032 C 
HETATM   23  C30 UNL     1      -3.970   8.208  13.154  1.00  0.00     0.016 C 
ENDROOT
BRANCH   1  24
HETATM   24  C8  UNL     1      -2.571   5.504  12.365  1.00  0.00     0.014 C 
HETATM   25  C7  UNL     1      -3.474   4.716  13.330  1.00  0.00     0.010 C 
HETATM   26  C6  UNL     1      -3.393   3.210  13.091  1.00  0.00     0.041 C 
HETATM   27  C4  UNL     1      -3.370   2.836  11.588  1.00  0.00     0.085 C 
HETATM   28  O3  UNL     1      -2.353   3.581  10.875  1.00  0.00    -0.377 OA
HETATM   29  C31 UNL     1      -1.627   4.559  11.618  1.00  0.00     0.174 C 
BRANCH  27  30
HETATM   30  C2  UNL     1      -4.731   3.170  10.875  1.00  0.00     0.014 C 
HETATM   31  C1  UNL     1      -5.826   2.109  11.016  1.00  0.00     0.012 C 
HETATM   32  C3  UNL     1      -4.560   3.511   9.385  1.00  0.00     0.012 C 
ENDBRANCH  27  30
BRANCH  27  33
HETATM   33  C5  UNL     1      -2.961   1.344  11.447  1.00  0.00     0.202 C 
BRANCH  33  34
HETATM   34  O1  UNL     1      -1.822   1.133  10.622  1.00  0.00    -0.398 OA
HETATM   35  H10 UNL     1      -2.105   1.232   9.698  1.00  0.00     0.209 HD
ENDBRANCH  33  34
ENDBRANCH  27  33
ENDBRANCH   1  24
TORSDOF 4
ENDMDL
MODEL 6
REMARK minimizedAffinity -8.46490955
REMARK  4 active torsions:
REMARK  status: ('A' for Active; 'I' for Inactive)
REMARK    1  A    between atoms: C2_2  and  C4_4 
REMARK    2  A    between atoms: C4_4  and  C5_5 
REMARK    3  A    between atoms: C5_5  and  O1_6 
REMARK    4  A    between atoms: C8_9  and  C9_10 
ROOT
HETATM    1  C9  UNL     1      -3.920   7.905  14.418  1.00  0.00     0.001 C 
HETATM    2  C10 UNL     1      -3.918   8.427  15.879  1.00  0.00     0.007 C 
HETATM    3  C11 UNL     1      -2.449   8.486  16.334  1.00  0.00     0.011 C 
HETATM    4  C12 UNL     1      -1.618   8.350  15.042  1.00  0.00    -0.032 C 
HETATM    5  C13 UNL     1      -1.533   9.778  14.417  1.00  0.00     0.016 C 
HETATM    6  C14 UNL     1      -0.197   7.767  15.250  1.00  0.00     0.004 C 
HETATM    7  C15 UNL     1       0.766   8.719  15.970  1.00  0.00     0.007 C 
HETATM    8  C16 UNL     1       2.091   8.012  16.223  1.00  0.00     0.007 C 
HETATM    9  C17 UNL     1       2.883   7.793  14.918  1.00  0.00     0.010 C 
HETATM   10  C18 UNL     1       3.734   9.035  14.432  1.00  0.00     0.018 C 
HETATM   11  C19 UNL     1       5.167   8.594  14.048  1.00  0.00     0.023 C 
HETATM   12  C20 UNL     1       3.922  10.140  15.496  1.00  0.00     0.023 C 
HETATM   13  C21 UNL     1       3.088   9.658  13.186  1.00  0.00     0.135 C 
HETATM   14  O2  UNL     1       2.860  10.867  13.096  1.00  0.00    -0.297 OA
HETATM   15  C22 UNL     1       2.801   8.756  12.006  1.00  0.00     0.080 C 
HETATM   16  C23 UNL     1       2.609   7.309  12.422  1.00  0.00     0.018 C 
HETATM   17  C24 UNL     1       1.973   7.216  13.794  1.00  0.00    -0.026 A 
HETATM   18  C25 UNL     1       1.229   5.938  14.079  1.00  0.00     0.021 A 
HETATM   19  C26 UNL     1       0.421   7.220  13.939  1.00  0.00    -0.027 A 
HETATM   20  C27 UNL     1      -0.423   7.355  12.662  1.00  0.00     0.011 C 
HETATM   21  C28 UNL     1      -1.957   7.291  12.790  1.00  0.00     0.011 C 
HETATM   22  C29 UNL     1      -2.484   7.320  14.229  1.00  0.00    -0.032 C 
HETATM   23  C30 UNL     1      -2.417   5.869  14.777  1.00  0.00     0.016 C 
ENDROOT
BRANCH   1  24
HETATM   24  C8  UNL     1      -5.205   7.124  14.037  1.00  0.00     0.014 C 
HETATM   25  C7  UNL     1      -6.258   6.927  15.140  1.00  0.00     0.010 C 
HETATM   26  C6  UNL     1      -6.944   5.566  15.042  1.00  0.00     0.041 C 
HETATM   27  C4  UNL     1      -7.278   5.159  13.586  1.00  0.00     0.085 C 
HETATM   28  O3  UNL     1      -6.117   5.275  12.726  1.00  0.00    -0.377 OA
HETATM   29  C31 UNL     1      -4.929   5.804  13.313  1.00  0.00     0.174 C 
BRANCH  27  30
HETATM   30  C2  UNL     1      -8.379   6.085  12.951  1.00  0.00     0.014 C 
HETATM   31  C1  UNL     1      -9.666   6.233  13.768  1.00  0.00     0.012 C 
HETATM   32  C3  UNL     1      -8.748   5.681  11.514  1.00  0.00     0.012 C 
ENDBRANCH  27  30
BRANCH  27  33
HETATM   33  C5  UNL     1      -7.660   3.654  13.558  1.00  0.00     0.202 C 
BRANCH  33  34
HETATM   34  O1  UNL     1      -8.978   3.400  13.087  1.00  0.00    -0.398 OA
HETATM   35  H10 UNL     1      -9.595   3.633  13.800  1.00  0.00     0.209 HD
ENDBRANCH  33  34
ENDBRANCH  27  33
ENDBRANCH   1  24
TORSDOF 4
ENDMDL
MODEL 7
REMARK minimizedAffinity -8.45969296
REMARK  4 active torsions:
REMARK  status: ('A' for Active; 'I' for Inactive)
REMARK    1  A    between atoms: C2_2  and  C4_4 
REMARK    2  A    between atoms: C4_4  and  C5_5 
REMARK    3  A    between atoms: C5_5  and  O1_6 
REMARK    4  A    between atoms: C8_9  and  C9_10 
ROOT
HETATM    1  C9  UNL     1       2.311   7.806  11.753  1.00  0.00     0.001 C 
HETATM    2  C10 UNL     1       2.139   6.418  11.083  1.00  0.00     0.007 C 
HETATM    3  C11 UNL     1       0.861   5.791  11.668  1.00  0.00     0.011 C 
HETATM    4  C12 UNL     1       0.129   6.948  12.378  1.00  0.00    -0.032 C 
HETATM    5  C13 UNL     1      -0.684   7.700  11.277  1.00  0.00     0.016 C 
HETATM    6  C14 UNL     1      -0.807   6.506  13.532  1.00  0.00     0.004 C 
HETATM    7  C15 UNL     1      -2.069   5.773  13.061  1.00  0.00     0.007 C 
HETATM    8  C16 UNL     1      -2.857   5.286  14.270  1.00  0.00     0.007 C 
HETATM    9  C17 UNL     1      -3.515   6.452  15.035  1.00  0.00     0.010 C 
HETATM   10  C18 UNL     1      -4.894   6.952  14.440  1.00  0.00     0.018 C 
HETATM   11  C19 UNL     1      -5.945   7.107  15.566  1.00  0.00     0.023 C 
HETATM   12  C20 UNL     1      -5.537   5.992  13.415  1.00  0.00     0.023 C 
HETATM   13  C21 UNL     1      -4.712   8.326  13.779  1.00  0.00     0.135 C 
HETATM   14  O2  UNL     1      -5.114   8.567  12.639  1.00  0.00    -0.297 OA
HETATM   15  C22 UNL     1      -4.089   9.434  14.599  1.00  0.00     0.080 C 
HETATM   16  C23 UNL     1      -3.187   8.900  15.696  1.00  0.00     0.018 C 
HETATM   17  C24 UNL     1      -2.508   7.616  15.266  1.00  0.00    -0.026 A 
HETATM   18  C25 UNL     1      -1.216   7.297  15.972  1.00  0.00     0.021 A 
HETATM   19  C26 UNL     1      -1.152   7.667  14.497  1.00  0.00    -0.027 A 
HETATM   20  C27 UNL     1      -0.561   9.046  14.167  1.00  0.00     0.011 C 
HETATM   21  C28 UNL     1       0.811   9.105  13.469  1.00  0.00     0.011 C 
HETATM   22  C29 UNL     1       1.340   7.754  12.975  1.00  0.00    -0.032 C 
HETATM   23  C30 UNL     1       2.027   7.056  14.180  1.00  0.00     0.016 C 
ENDROOT
BRANCH   1  24
HETATM   24  C8  UNL     1       3.789   8.263  11.871  1.00  0.00     0.014 C 
HETATM   25  C7  UNL     1       4.760   7.781  10.780  1.00  0.00     0.010 C 
HETATM   26  C6  UNL     1       6.149   7.482  11.340  1.00  0.00     0.041 C 
HETATM   27  C4  UNL     1       6.623   8.531  12.376  1.00  0.00     0.085 C 
HETATM   28  O3  UNL     1       5.627   8.742  13.407  1.00  0.00    -0.377 OA
HETATM   29  C31 UNL     1       4.390   8.046  13.261  1.00  0.00     0.174 C 
BRANCH  27  30
HETATM   30  C2  UNL     1       6.871   9.938  11.720  1.00  0.00     0.014 C 
HETATM   31  C1  UNL     1       5.952  11.062  12.207  1.00  0.00     0.012 C 
HETATM   32  C3  UNL     1       6.836   9.900  10.183  1.00  0.00     0.012 C 
ENDBRANCH  27  30
BRANCH  27  33
HETATM   33  C5  UNL     1       7.871   7.978  13.118  1.00  0.00     0.202 C 
BRANCH  33  34
HETATM   34  O1  UNL     1       9.003   8.837  13.066  1.00  0.00    -0.398 OA
HETATM   35  H10 UNL     1       9.390   8.761  12.178  1.00  0.00     0.209 HD
ENDBRANCH  33  34
ENDBRANCH  27  33
ENDBRANCH   1  24
TORSDOF 4
ENDMDL
MODEL 8
REMARK minimizedAffinity -8.15659428
REMARK  4 active torsions:
REMARK  status: ('A' for Active; 'I' for Inactive)
REMARK    1  A    between atoms: C2_2  and  C4_4 
REMARK    2  A    between atoms: C4_4  and  C5_5 
REMARK    3  A    between atoms: C5_5  and  O1_6 
REMARK    4  A    between atoms: C8_9  and  C9_10 
ROOT
HETATM    1  C9  UNL     1      -6.088   6.675  14.448  1.00  0.00     0.001 C 
HETATM    2  C10 UNL     1      -5.777   5.397  13.626  1.00  0.00     0.007 C 
HETATM    3  C11 UNL     1      -4.310   5.501  13.170  1.00  0.00     0.011 C 
HETATM    4  C12 UNL     1      -3.700   6.634  14.020  1.00  0.00    -0.032 C 
HETATM    5  C13 UNL     1      -3.283   5.992  15.381  1.00  0.00     0.016 C 
HETATM    6  C14 UNL     1      -2.489   7.347  13.366  1.00  0.00     0.004 C 
HETATM    7  C15 UNL     1      -1.222   6.486  13.301  1.00  0.00     0.007 C 
HETATM    8  C16 UNL     1      -0.133   7.235  12.545  1.00  0.00     0.007 C 
HETATM    9  C17 UNL     1       0.416   8.426  13.358  1.00  0.00     0.010 C 
HETATM   10  C18 UNL     1       1.524   8.056  14.424  1.00  0.00     0.018 C 
HETATM   11  C19 UNL     1       2.722   9.031  14.320  1.00  0.00     0.023 C 
HETATM   12  C20 UNL     1       2.134   6.646  14.254  1.00  0.00     0.023 C 
HETATM   13  C21 UNL     1       0.948   8.174  15.842  1.00  0.00     0.135 C 
HETATM   14  O2  UNL     1       1.064   7.275  16.678  1.00  0.00    -0.297 OA
HETATM   15  C22 UNL     1       0.288   9.476  16.237  1.00  0.00     0.080 C 
HETATM   16  C23 UNL     1      -0.258  10.230  15.039  1.00  0.00     0.018 C 
HETATM   17  C24 UNL     1      -0.739   9.273  13.967  1.00  0.00    -0.026 A 
HETATM   18  C25 UNL     1      -1.779   9.823  13.026  1.00  0.00     0.021 A 
HETATM   19  C26 UNL     1      -2.201   8.731  13.999  1.00  0.00    -0.027 A 
HETATM   20  C27 UNL     1      -3.107   9.169  15.160  1.00  0.00     0.011 C 
HETATM   21  C28 UNL     1      -4.573   8.694  15.162  1.00  0.00     0.011 C 
HETATM   22  C29 UNL     1      -4.908   7.638  14.103  1.00  0.00    -0.032 C 
HETATM   23  C30 UNL     1      -5.194   8.388  12.774  1.00  0.00     0.016 C 
ENDROOT
BRANCH   1  24
HETATM   24  C8  UNL     1      -7.576   7.111  14.384  1.00  0.00     0.014 C 
HETATM   25  C7  UNL     1      -8.256   7.477  15.714  1.00  0.00     0.010 C 
HETATM   26  C6  UNL     1      -9.719   7.039  15.749  1.00  0.00     0.041 C 
HETATM   27  C4  UNL     1     -10.461   7.296  14.414  1.00  0.00     0.085 C 
HETATM   28  O3  UNL     1      -9.729   6.748  13.290  1.00  0.00    -0.377 OA
HETATM   29  C31 UNL     1      -8.459   6.163  13.569  1.00  0.00     0.174 C 
BRANCH  27  30
HETATM   30  C2  UNL     1     -10.625   8.831  14.116  1.00  0.00     0.014 C 
HETATM   31  C1  UNL     1     -11.029   9.695  15.315  1.00  0.00     0.012 C 
HETATM   32  C3  UNL     1     -11.589   9.117  12.953  1.00  0.00     0.012 C 
ENDBRANCH  27  30
BRANCH  27  33
HETATM   33  C5  UNL     1     -11.814   6.533  14.435  1.00  0.00     0.202 C 
BRANCH  33  34
HETATM   34  O1  UNL     1     -12.759   7.056  15.360  1.00  0.00    -0.398 OA
HETATM   35  H10 UNL     1     -12.488   6.775  16.249  1.00  0.00     0.209 HD
ENDBRANCH  33  34
ENDBRANCH  27  33
ENDBRANCH   1  24
TORSDOF 4
ENDMDL
MODEL 9
REMARK minimizedAffinity -7.92941999
REMARK  4 active torsions:
REMARK  status: ('A' for Active; 'I' for Inactive)
REMARK    1  A    between atoms: C2_2  and  C4_4 
REMARK    2  A    between atoms: C4_4  and  C5_5 
REMARK    3  A    between atoms: C5_5  and  O1_6 
REMARK    4  A    between atoms: C8_9  and  C9_10 
ROOT
HETATM    1  C9  UNL     1       0.553   6.899  12.244  1.00  0.00     0.001 C 
HETATM    2  C10 UNL     1       0.587   7.473  10.803  1.00  0.00     0.007 C 
HETATM    3  C11 UNL     1       1.762   8.465  10.742  1.00  0.00     0.011 C 
HETATM    4  C12 UNL     1       2.596   8.186  12.008  1.00  0.00    -0.032 C 
HETATM    5  C13 UNL     1       3.530   6.983  11.667  1.00  0.00     0.016 C 
HETATM    6  C14 UNL     1       3.431   9.393  12.508  1.00  0.00     0.004 C 
HETATM    7  C15 UNL     1       4.616   9.745  11.601  1.00  0.00     0.007 C 
HETATM    8  C16 UNL     1       5.298  11.006  12.118  1.00  0.00     0.007 C 
HETATM    9  C17 UNL     1       6.058  10.748  13.435  1.00  0.00     0.010 C 
HETATM   10  C18 UNL     1       7.506  10.133  13.264  1.00  0.00     0.018 C 
HETATM   11  C19 UNL     1       8.526  10.900  14.142  1.00  0.00     0.023 C 
HETATM   12  C20 UNL     1       8.071  10.208  11.828  1.00  0.00     0.023 C 
HETATM   13  C21 UNL     1       7.509   8.667  13.718  1.00  0.00     0.135 C 
HETATM   14  O2  UNL     1       7.978   7.762  13.023  1.00  0.00    -0.297 OA
HETATM   15  C22 UNL     1       6.990   8.348  15.102  1.00  0.00     0.080 C 
HETATM   16  C23 UNL     1       5.992   9.381  15.593  1.00  0.00     0.018 C 
HETATM   17  C24 UNL     1       5.185   9.948  14.444  1.00  0.00    -0.026 A 
HETATM   18  C25 UNL     1       3.840  10.516  14.814  1.00  0.00     0.021 A 
HETATM   19  C26 UNL     1       3.873   9.241  13.984  1.00  0.00    -0.027 A 
HETATM   20  C27 UNL     1       3.458   7.949  14.707  1.00  0.00     0.011 C 
HETATM   21  C28 UNL     1       2.129   7.282  14.305  1.00  0.00     0.011 C 
HETATM   22  C29 UNL     1       1.466   7.872  13.056  1.00  0.00    -0.032 C 
HETATM   23  C30 UNL     1       0.658   9.120  13.504  1.00  0.00     0.016 C 
ENDROOT
BRANCH   1  24
HETATM   24  C8  UNL     1      -0.865   6.484  12.716  1.00  0.00     0.014 C 
HETATM   25  C7  UNL     1      -2.002   7.496  12.492  1.00  0.00     0.010 C 
HETATM   26  C6  UNL     1      -3.015   7.483  13.635  1.00  0.00     0.041 C 
HETATM   27  C4  UNL     1      -3.351   6.054  14.131  1.00  0.00     0.085 C 
HETATM   28  O3  UNL     1      -2.147   5.303  14.428  1.00  0.00    -0.377 OA
HETATM   29  C31 UNL     1      -0.902   5.940  14.146  1.00  0.00     0.174 C 
BRANCH  27  30
HETATM   30  C2  UNL     1      -4.124   5.219  13.047  1.00  0.00     0.014 C 
HETATM   31  C1  UNL     1      -5.638   5.112  13.255  1.00  0.00     0.012 C 
HETATM   32  C3  UNL     1      -3.550   3.805  12.855  1.00  0.00     0.012 C 
ENDBRANCH  27  30
BRANCH  27  33
HETATM   33  C5  UNL     1      -4.114   6.156  15.479  1.00  0.00     0.202 C 
BRANCH  33  34
HETATM   34  O1  UNL     1      -3.271   6.345  16.609  1.00  0.00    -0.398 OA
HETATM   35  H10 UNL     1      -2.853   5.492  16.810  1.00  0.00     0.209 HD
ENDBRANCH  33  34
ENDBRANCH  27  33
ENDBRANCH   1  24
TORSDOF 4
ENDMDL
