MODEL 1
REMARK minimizedAffinity -5.26807165
REMARK CNNscore 0.827646136
REMARK CNNaffinity 6.621737
REMARK  13 active torsions:
REMARK  status: ('A' for Active; 'I' for Inactive)
REMARK    1  A    between atoms: C2_2  and  C3_3 
REMARK    2  A    between atoms: C3_3  and  C4_4 
REMARK    3  A    between atoms: C4_4  and  O2_6 
REMARK    4  A    between atoms: O2_6  and  C5_7 
REMARK    5  A    between atoms: C7_9  and  C8_10 
REMARK    6  A    between atoms: C15_18  and  O4_20 
REMARK    7  A    between atoms: C17_21  and  O5_22 
REMARK    8  A    between atoms: C20_25  and  O6_27 
REMARK    9  A    between atoms: O6_27  and  C22_28 
REMARK   10  A    between atoms: C22_28  and  C23_30 
REMARK   11  A    between atoms: C23_30  and  C24_31 
REMARK   12  A    between atoms: C27_34  and  O8_36 
REMARK   13  A    between atoms: O8_36  and  C29_37 
ROOT
HETATM    1  C5  UNL     1       5.231  53.060  -7.844  1.00  0.00     0.167 C 
HETATM    2  C6  UNL     1       4.868  53.634  -9.214  1.00  0.00     0.041 C 
HETATM    3  C7  UNL     1       3.473  54.275  -9.285  1.00  0.00    -0.002 C 
HETATM    4  C11 UNL     1       2.755  54.524  -7.923  1.00  0.00     0.032 C 
HETATM    5  C12 UNL     1       1.659  53.459  -7.648  1.00  0.00     0.161 C 
HETATM    6  O3  UNL     1       1.689  53.172  -6.252  1.00  0.00    -0.377 OA
HETATM    7  C13 UNL     1       2.818  53.737  -5.621  1.00  0.00     0.132 C 
HETATM    8  C14 UNL     1       2.393  54.458  -4.323  1.00  0.00     0.072 C 
HETATM    9  C15 UNL     1       1.414  55.667  -4.303  1.00  0.00     0.082 C 
HETATM   10  C16 UNL     1       1.868  56.880  -5.124  1.00  0.00     0.049 C 
HETATM   11  C17 UNL     1      -0.109  55.333  -4.449  1.00  0.00     0.152 C 
HETATM   12  C18 UNL     1      -0.647  54.449  -5.574  1.00  0.00     0.038 C 
HETATM   13  C19 UNL     1      -0.402  54.904  -7.022  1.00  0.00     0.043 C 
HETATM   14  C20 UNL     1       0.179  53.835  -8.009  1.00  0.00     0.093 C 
HETATM   15  C21 UNL     1      -0.742  52.591  -7.966  1.00  0.00     0.049 C 
HETATM   16  C26 UNL     1       3.616  54.561  -6.637  1.00  0.00     0.059 C 
HETATM   17  C27 UNL     1       5.131  54.178  -6.779  1.00  0.00     0.100 C 
HETATM   18  C28 UNL     1       5.766  53.840  -5.415  1.00  0.00     0.050 C 
ENDROOT
BRANCH  14  19
HETATM   19  O6  UNL     1       0.067  54.479  -9.315  1.00  0.00    -0.308 OA
BRANCH  19  20
HETATM   20  C22 UNL     1      -0.718  53.962 -10.296  1.00  0.00     0.259 C 
HETATM   21  O7  UNL     1      -0.429  53.022 -11.019  1.00  0.00    -0.265 OA
BRANCH  20  22
HETATM   22  C23 UNL     1      -2.008  54.746 -10.387  1.00  0.00     0.111 C 
BRANCH  22  23
HETATM   23  C24 UNL     1      -3.216  53.835 -10.196  1.00  0.00     0.005 C 
HETATM   24  C25 UNL     1      -3.861  53.478 -11.526  1.00  0.00     0.005 C 
ENDBRANCH  22  23
ENDBRANCH  20  22
ENDBRANCH  19  20
ENDBRANCH  14  19
BRANCH   3  25
HETATM   25  C8  UNL     1       3.404  55.522 -10.222  1.00  0.00    -0.018 C 
HETATM   26  C9  UNL     1       3.444  56.865  -9.494  1.00  0.00     0.010 C 
HETATM   27  C10 UNL     1       4.495  55.486 -11.300  1.00  0.00     0.010 C 
ENDBRANCH   3  25
BRANCH  11  28
HETATM   28  O5  UNL     1      -0.865  56.557  -4.453  1.00  0.00    -0.393 OA
HETATM   29  H29 UNL     1      -0.585  57.021  -3.640  1.00  0.00     0.210 HD
ENDBRANCH  11  28
BRANCH  17  30
HETATM   30  O8  UNL     1       5.742  55.437  -7.255  1.00  0.00    -0.308 OA
BRANCH  30  31
HETATM   31  C29 UNL     1       6.656  56.142  -6.538  1.00  0.00     0.255 C 
HETATM   32  C30 UNL     1       6.011  57.347  -5.921  1.00  0.00     0.126 C 
HETATM   33  O9  UNL     1       7.837  55.874  -6.400  1.00  0.00    -0.266 OA
ENDBRANCH  30  31
ENDBRANCH  17  30
BRANCH   9  34
HETATM   34  O4  UNL     1       1.484  56.179  -2.926  1.00  0.00    -0.388 OA
HETATM   35  H27 UNL     1       2.406  56.435  -2.743  1.00  0.00     0.210 HD
ENDBRANCH   9  34
BRANCH   1  36
HETATM   36  O2  UNL     1       6.553  52.503  -7.980  1.00  0.00    -0.313 OA
BRANCH  36  37
HETATM   37  C4  UNL     1       6.701  51.197  -7.634  1.00  0.00     0.259 C 
HETATM   38  O1  UNL     1       5.866  50.534  -7.032  1.00  0.00    -0.265 OA
BRANCH  37  39
HETATM   39  C3  UNL     1       8.001  50.633  -8.150  1.00  0.00     0.111 C 
BRANCH  39  40
HETATM   40  C2  UNL     1       8.697  49.735  -7.135  1.00  0.00     0.005 C 
HETATM   41  C1  UNL     1      10.187  49.620  -7.420  1.00  0.00     0.005 C 
ENDBRANCH  39  40
ENDBRANCH  37  39
ENDBRANCH  36  37
ENDBRANCH   1  36
TORSDOF 13
ENDMDL
MODEL 2
REMARK minimizedAffinity -5.66257048
REMARK CNNscore 0.753262162
REMARK CNNaffinity 6.85063219
REMARK  13 active torsions:
REMARK  status: ('A' for Active; 'I' for Inactive)
REMARK    1  A    between atoms: C2_2  and  C3_3 
REMARK    2  A    between atoms: C3_3  and  C4_4 
REMARK    3  A    between atoms: C4_4  and  O2_6 
REMARK    4  A    between atoms: O2_6  and  C5_7 
REMARK    5  A    between atoms: C7_9  and  C8_10 
REMARK    6  A    between atoms: C15_18  and  O4_20 
REMARK    7  A    between atoms: C17_21  and  O5_22 
REMARK    8  A    between atoms: C20_25  and  O6_27 
REMARK    9  A    between atoms: O6_27  and  C22_28 
REMARK   10  A    between atoms: C22_28  and  C23_30 
REMARK   11  A    between atoms: C23_30  and  C24_31 
REMARK   12  A    between atoms: C27_34  and  O8_36 
REMARK   13  A    between atoms: O8_36  and  C29_37 
ROOT
HETATM    1  C5  UNL     1       1.233  53.718  -8.344  1.00  0.00     0.167 C 
HETATM    2  C6  UNL     1       1.903  55.045  -8.703  1.00  0.00     0.041 C 
HETATM    3  C7  UNL     1       3.438  54.992  -8.743  1.00  0.00    -0.002 C 
HETATM    4  C11 UNL     1       4.083  53.572  -8.714  1.00  0.00     0.032 C 
HETATM    5  C12 UNL     1       4.645  53.223  -7.309  1.00  0.00     0.161 C 
HETATM    6  O3  UNL     1       4.391  51.838  -7.084  1.00  0.00    -0.377 OA
HETATM    7  C13 UNL     1       3.529  51.294  -8.059  1.00  0.00     0.132 C 
HETATM    8  C14 UNL     1       4.096  49.956  -8.579  1.00  0.00     0.072 C 
HETATM    9  C15 UNL     1       5.467  49.837  -9.306  1.00  0.00     0.082 C 
HETATM   10  C16 UNL     1       5.595  50.675 -10.584  1.00  0.00     0.049 C 
HETATM   11  C17 UNL     1       6.742  49.862  -8.397  1.00  0.00     0.152 C 
HETATM   12  C18 UNL     1       6.977  50.952  -7.352  1.00  0.00     0.038 C 
HETATM   13  C19 UNL     1       7.050  52.409  -7.839  1.00  0.00     0.043 C 
HETATM   14  C20 UNL     1       6.178  53.456  -7.066  1.00  0.00     0.093 C 
HETATM   15  C21 UNL     1       6.528  53.356  -5.561  1.00  0.00     0.049 C 
HETATM   16  C26 UNL     1       3.204  52.360  -9.112  1.00  0.00     0.059 C 
HETATM   17  C27 UNL     1       1.678  52.632  -9.353  1.00  0.00     0.100 C 
HETATM   18  C28 UNL     1       0.852  51.329  -9.318  1.00  0.00     0.050 C 
ENDROOT
BRANCH  14  19
HETATM   19  O6  UNL     1       6.639  54.739  -7.590  1.00  0.00    -0.308 OA
BRANCH  19  20
HETATM   20  C22 UNL     1       7.025  55.746  -6.762  1.00  0.00     0.259 C 
HETATM   21  O7  UNL     1       8.129  55.866  -6.254  1.00  0.00    -0.265 OA
BRANCH  20  22
HETATM   22  C23 UNL     1       5.870  56.693  -6.533  1.00  0.00     0.111 C 
BRANCH  22  23
HETATM   23  C24 UNL     1       6.324  57.936  -5.775  1.00  0.00     0.005 C 
HETATM   24  C25 UNL     1       5.950  57.859  -4.303  1.00  0.00     0.005 C 
ENDBRANCH  22  23
ENDBRANCH  20  22
ENDBRANCH  19  20
ENDBRANCH  14  19
BRANCH   3  25
HETATM   25  C8  UNL     1       4.067  55.901  -9.844  1.00  0.00    -0.018 C 
HETATM   26  C9  UNL     1       5.347  55.347 -10.468  1.00  0.00     0.010 C 
HETATM   27  C10 UNL     1       3.059  56.241 -10.948  1.00  0.00     0.010 C 
ENDBRANCH   3  25
BRANCH  11  28
HETATM   28  O5  UNL     1       7.916  49.787  -9.225  1.00  0.00    -0.393 OA
HETATM   29  H29 UNL     1       7.776  48.993  -9.777  1.00  0.00     0.210 HD
ENDBRANCH  11  28
BRANCH  17  30
HETATM   30  O8  UNL     1       1.652  53.138 -10.742  1.00  0.00    -0.308 OA
BRANCH  30  31
HETATM   31  C29 UNL     1       1.438  52.343 -11.822  1.00  0.00     0.255 C 
HETATM   32  C30 UNL     1       2.744  51.979 -12.463  1.00  0.00     0.126 C 
HETATM   33  O9  UNL     1       0.359  51.968 -12.248  1.00  0.00    -0.266 OA
ENDBRANCH  30  31
ENDBRANCH  17  30
BRANCH   9  34
HETATM   34  O4  UNL     1       5.492  48.463  -9.830  1.00  0.00    -0.388 OA
HETATM   35  H27 UNL     1       4.734  48.353 -10.431  1.00  0.00     0.210 HD
ENDBRANCH   9  34
BRANCH   1  36
HETATM   36  O2  UNL     1      -0.186  53.969  -8.350  1.00  0.00    -0.313 OA
BRANCH  36  37
HETATM   37  C4  UNL     1      -0.580  55.220  -8.705  1.00  0.00     0.259 C 
HETATM   38  O1  UNL     1      -0.458  56.218  -8.004  1.00  0.00    -0.265 OA
BRANCH  37  39
HETATM   39  C3  UNL     1      -1.128  55.250 -10.110  1.00  0.00     0.111 C 
BRANCH  39  40
HETATM   40  C2  UNL     1      -1.834  53.955 -10.495  1.00  0.00     0.005 C 
HETATM   41  C1  UNL     1      -3.342  54.139 -10.557  1.00  0.00     0.005 C 
ENDBRANCH  39  40
ENDBRANCH  37  39
ENDBRANCH  36  37
ENDBRANCH   1  36
TORSDOF 13
ENDMDL
MODEL 3
REMARK minimizedAffinity -6.63635588
REMARK CNNscore 0.731320381
REMARK CNNaffinity 7.44153357
REMARK  13 active torsions:
REMARK  status: ('A' for Active; 'I' for Inactive)
REMARK    1  A    between atoms: C2_2  and  C3_3 
REMARK    2  A    between atoms: C3_3  and  C4_4 
REMARK    3  A    between atoms: C4_4  and  O2_6 
REMARK    4  A    between atoms: O2_6  and  C5_7 
REMARK    5  A    between atoms: C7_9  and  C8_10 
REMARK    6  A    between atoms: C15_18  and  O4_20 
REMARK    7  A    between atoms: C17_21  and  O5_22 
REMARK    8  A    between atoms: C20_25  and  O6_27 
REMARK    9  A    between atoms: O6_27  and  C22_28 
REMARK   10  A    between atoms: C22_28  and  C23_30 
REMARK   11  A    between atoms: C23_30  and  C24_31 
REMARK   12  A    between atoms: C27_34  and  O8_36 
REMARK   13  A    between atoms: O8_36  and  C29_37 
ROOT
HETATM    1  C5  UNL     1      -2.477  51.707 -23.088  1.00  0.00     0.167 C 
HETATM    2  C6  UNL     1      -1.626  50.720 -22.289  1.00  0.00     0.041 C 
HETATM    3  C7  UNL     1      -2.409  49.537 -21.699  1.00  0.00    -0.002 C 
HETATM    4  C11 UNL     1      -3.863  49.337 -22.227  1.00  0.00     0.032 C 
HETATM    5  C12 UNL     1      -4.920  49.846 -21.209  1.00  0.00     0.161 C 
HETATM    6  O3  UNL     1      -5.974  50.446 -21.958  1.00  0.00    -0.377 OA
HETATM    7  C13 UNL     1      -5.632  50.603 -23.318  1.00  0.00     0.132 C 
HETATM    8  C14 UNL     1      -6.786  50.107 -24.215  1.00  0.00     0.072 C 
HETATM    9  C15 UNL     1      -7.295  48.636 -24.213  1.00  0.00     0.082 C 
HETATM   10  C16 UNL     1      -6.235  47.585 -24.567  1.00  0.00     0.049 C 
HETATM   11  C17 UNL     1      -8.228  48.223 -23.024  1.00  0.00     0.152 C 
HETATM   12  C18 UNL     1      -7.854  48.482 -21.565  1.00  0.00     0.038 C 
HETATM   13  C19 UNL     1      -6.559  47.844 -21.033  1.00  0.00     0.043 C 
HETATM   14  C20 UNL     1      -5.576  48.785 -20.257  1.00  0.00     0.093 C 
HETATM   15  C21 UNL     1      -6.367  49.470 -19.116  1.00  0.00     0.049 C 
HETATM   16  C26 UNL     1      -4.250  49.993 -23.575  1.00  0.00     0.059 C 
HETATM   17  C27 UNL     1      -3.196  50.953 -24.231  1.00  0.00     0.100 C 
HETATM   18  C28 UNL     1      -3.836  51.854 -25.308  1.00  0.00     0.050 C 
ENDROOT
BRANCH  14  19
HETATM   19  O6  UNL     1      -4.598  47.863 -19.687  1.00  0.00    -0.308 OA
BRANCH  19  20
HETATM   20  C22 UNL     1      -4.313  47.864 -18.358  1.00  0.00     0.259 C 
HETATM   21  O7  UNL     1      -5.015  47.390 -17.479  1.00  0.00    -0.265 OA
BRANCH  20  22
HETATM   22  C23 UNL     1      -2.998  48.569 -18.116  1.00  0.00     0.111 C 
BRANCH  22  23
HETATM   23  C24 UNL     1      -3.219  49.930 -17.463  1.00  0.00     0.005 C 
HETATM   24  C25 UNL     1      -2.800  51.064 -18.385  1.00  0.00     0.005 C 
ENDBRANCH  22  23
ENDBRANCH  20  22
ENDBRANCH  19  20
ENDBRANCH  14  19
BRANCH   3  25
HETATM   25  C8  UNL     1      -1.603  48.201 -21.677  1.00  0.00    -0.018 C 
HETATM   26  C9  UNL     1      -0.618  48.074 -20.515  1.00  0.00     0.010 C 
HETATM   27  C10 UNL     1      -2.526  46.977 -21.707  1.00  0.00     0.010 C 
ENDBRANCH   3  25
BRANCH  11  28
HETATM   28  O5  UNL     1      -8.569  46.831 -23.150  1.00  0.00    -0.393 OA
HETATM   29  H29 UNL     1      -8.933  46.749 -24.053  1.00  0.00     0.210 HD
ENDBRANCH  11  28
BRANCH  17  30
HETATM   30  O8  UNL     1      -2.285  50.015 -24.920  1.00  0.00    -0.308 OA
BRANCH  30  31
HETATM   31  C29 UNL     1      -2.292  49.818 -26.264  1.00  0.00     0.255 C 
HETATM   32  C30 UNL     1      -3.086  48.592 -26.603  1.00  0.00     0.126 C 
HETATM   33  O9  UNL     1      -1.737  50.506 -27.104  1.00  0.00    -0.266 OA
ENDBRANCH  30  31
ENDBRANCH  17  30
BRANCH   9  34
HETATM   34  O4  UNL     1      -8.209  48.557 -25.361  1.00  0.00    -0.388 OA
HETATM   35  H27 UNL     1      -7.709  48.783 -26.165  1.00  0.00     0.210 HD
ENDBRANCH   9  34
BRANCH   1  36
HETATM   36  O2  UNL     1      -1.578  52.735 -23.545  1.00  0.00    -0.313 OA
BRANCH  36  37
HETATM   37  C4  UNL     1      -0.253  52.529 -23.320  1.00  0.00     0.259 C 
HETATM   38  O1  UNL     1       0.357  52.917 -22.332  1.00  0.00    -0.265 OA
BRANCH  37  39
HETATM   39  C3  UNL     1       0.369  51.692 -24.410  1.00  0.00     0.111 C 
BRANCH  39  40
HETATM   40  C2  UNL     1       0.845  52.526 -25.594  1.00  0.00     0.005 C 
HETATM   41  C1  UNL     1       1.897  51.789 -26.408  1.00  0.00     0.005 C 
ENDBRANCH  39  40
ENDBRANCH  37  39
ENDBRANCH  36  37
ENDBRANCH   1  36
TORSDOF 13
ENDMDL
MODEL 4
REMARK minimizedAffinity -5.0651269
REMARK CNNscore 0.716062248
REMARK CNNaffinity 6.91905642
REMARK  13 active torsions:
REMARK  status: ('A' for Active; 'I' for Inactive)
REMARK    1  A    between atoms: C2_2  and  C3_3 
REMARK    2  A    between atoms: C3_3  and  C4_4 
REMARK    3  A    between atoms: C4_4  and  O2_6 
REMARK    4  A    between atoms: O2_6  and  C5_7 
REMARK    5  A    between atoms: C7_9  and  C8_10 
REMARK    6  A    between atoms: C15_18  and  O4_20 
REMARK    7  A    between atoms: C17_21  and  O5_22 
REMARK    8  A    between atoms: C20_25  and  O6_27 
REMARK    9  A    between atoms: O6_27  and  C22_28 
REMARK   10  A    between atoms: C22_28  and  C23_30 
REMARK   11  A    between atoms: C23_30  and  C24_31 
REMARK   12  A    between atoms: C27_34  and  O8_36 
REMARK   13  A    between atoms: O8_36  and  C29_37 
ROOT
HETATM    1  C5  UNL     1       0.085  52.520 -11.071  1.00  0.00     0.167 C 
HETATM    2  C6  UNL     1       1.033  53.614 -11.565  1.00  0.00     0.041 C 
HETATM    3  C7  UNL     1       1.730  54.404 -10.447  1.00  0.00    -0.002 C 
HETATM    4  C11 UNL     1       1.622  53.810  -9.009  1.00  0.00     0.032 C 
HETATM    5  C12 UNL     1       0.574  54.567  -8.150  1.00  0.00     0.161 C 
HETATM    6  O3  UNL     1      -0.091  53.599  -7.342  1.00  0.00    -0.377 OA
HETATM    7  C13 UNL     1       0.225  52.280  -7.732  1.00  0.00     0.132 C 
HETATM    8  C14 UNL     1       0.576  51.431  -6.491  1.00  0.00     0.072 C 
HETATM    9  C15 UNL     1       1.775  51.751  -5.551  1.00  0.00     0.082 C 
HETATM   10  C16 UNL     1       3.147  51.767  -6.237  1.00  0.00     0.049 C 
HETATM   11  C17 UNL     1       1.563  52.913  -4.522  1.00  0.00     0.152 C 
HETATM   12  C18 UNL     1       1.051  54.291  -4.942  1.00  0.00     0.038 C 
HETATM   13  C19 UNL     1       1.879  55.082  -5.969  1.00  0.00     0.043 C 
HETATM   14  C20 UNL     1       1.101  55.687  -7.186  1.00  0.00     0.093 C 
HETATM   15  C21 UNL     1      -0.063  56.545  -6.633  1.00  0.00     0.049 C 
HETATM   16  C26 UNL     1       1.263  52.311  -8.859  1.00  0.00     0.059 C 
HETATM   17  C27 UNL     1       0.867  51.538 -10.166  1.00  0.00     0.100 C 
HETATM   18  C28 UNL     1       0.135  50.217  -9.850  1.00  0.00     0.050 C 
ENDROOT
BRANCH  14  19
HETATM   19  O6  UNL     1       2.087  56.556  -7.824  1.00  0.00    -0.308 OA
BRANCH  19  20
HETATM   20  C22 UNL     1       3.026  57.217  -7.097  1.00  0.00     0.259 C 
HETATM   21  O7  UNL     1       2.951  58.377  -6.724  1.00  0.00    -0.265 OA
BRANCH  20  22
HETATM   22  C23 UNL     1       4.206  56.309  -6.837  1.00  0.00     0.111 C 
BRANCH  22  23
HETATM   23  C24 UNL     1       5.516  56.992  -7.215  1.00  0.00     0.005 C 
HETATM   24  C25 UNL     1       6.605  55.976  -7.524  1.00  0.00     0.005 C 
ENDBRANCH  22  23
ENDBRANCH  20  22
ENDBRANCH  19  20
ENDBRANCH  14  19
BRANCH   3  25
HETATM   25  C8  UNL     1       3.190  54.831 -10.799  1.00  0.00    -0.018 C 
HETATM   26  C9  UNL     1       3.402  56.341 -10.897  1.00  0.00     0.010 C 
HETATM   27  C10 UNL     1       4.211  54.227  -9.827  1.00  0.00     0.010 C 
ENDBRANCH   3  25
BRANCH  11  28
HETATM   28  O5  UNL     1       2.773  53.105  -3.768  1.00  0.00    -0.393 OA
HETATM   29  H29 UNL     1       2.980  52.221  -3.407  1.00  0.00     0.210 HD
ENDBRANCH  11  28
BRANCH  17  30
HETATM   30  O8  UNL     1       2.180  51.190 -10.750  1.00  0.00    -0.308 OA
BRANCH  30  31
HETATM   31  C29 UNL     1       2.340  50.259 -11.727  1.00  0.00     0.255 C 
HETATM   32  C30 UNL     1       2.875  50.903 -12.971  1.00  0.00     0.126 C 
HETATM   33  O9  UNL     1       2.088  49.069 -11.647  1.00  0.00    -0.266 OA
ENDBRANCH  30  31
ENDBRANCH  17  30
BRANCH   9  34
HETATM   34  O4  UNL     1       1.880  50.578  -4.670  1.00  0.00    -0.388 OA
HETATM   35  H27 UNL     1       2.033  49.793  -5.226  1.00  0.00     0.210 HD
ENDBRANCH   9  34
BRANCH   1  36
HETATM   36  O2  UNL     1      -0.471  51.907 -12.250  1.00  0.00    -0.313 OA
BRANCH  36  37
HETATM   37  C4  UNL     1      -1.804  52.076 -12.451  1.00  0.00     0.259 C 
HETATM   38  O1  UNL     1      -2.333  52.223 -13.546  1.00  0.00    -0.265 OA
BRANCH  37  39
HETATM   39  C3  UNL     1      -2.575  51.988 -11.157  1.00  0.00     0.111 C 
BRANCH  39  40
HETATM   40  C2  UNL     1      -3.906  52.728 -11.212  1.00  0.00     0.005 C 
HETATM   41  C1  UNL     1      -3.813  54.093 -10.549  1.00  0.00     0.005 C 
ENDBRANCH  39  40
ENDBRANCH  37  39
ENDBRANCH  36  37
ENDBRANCH   1  36
TORSDOF 13
ENDMDL
MODEL 5
REMARK minimizedAffinity -4.96142292
REMARK CNNscore 0.665436625
REMARK CNNaffinity 6.74562693
REMARK  13 active torsions:
REMARK  status: ('A' for Active; 'I' for Inactive)
REMARK    1  A    between atoms: C2_2  and  C3_3 
REMARK    2  A    between atoms: C3_3  and  C4_4 
REMARK    3  A    between atoms: C4_4  and  O2_6 
REMARK    4  A    between atoms: O2_6  and  C5_7 
REMARK    5  A    between atoms: C7_9  and  C8_10 
REMARK    6  A    between atoms: C15_18  and  O4_20 
REMARK    7  A    between atoms: C17_21  and  O5_22 
REMARK    8  A    between atoms: C20_25  and  O6_27 
REMARK    9  A    between atoms: O6_27  and  C22_28 
REMARK   10  A    between atoms: C22_28  and  C23_30 
REMARK   11  A    between atoms: C23_30  and  C24_31 
REMARK   12  A    between atoms: C27_34  and  O8_36 
REMARK   13  A    between atoms: O8_36  and  C29_37 
ROOT
HETATM    1  C5  UNL     1       5.107  52.226  -8.861  1.00  0.00     0.167 C 
HETATM    2  C6  UNL     1       4.599  53.245  -9.882  1.00  0.00     0.041 C 
HETATM    3  C7  UNL     1       3.103  53.574  -9.761  1.00  0.00    -0.002 C 
HETATM    4  C11 UNL     1       2.387  53.078  -8.466  1.00  0.00     0.032 C 
HETATM    5  C12 UNL     1       1.534  51.809  -8.731  1.00  0.00     0.161 C 
HETATM    6  O3  UNL     1       1.659  50.968  -7.586  1.00  0.00    -0.377 OA
HETATM    7  C13 UNL     1       2.669  51.418  -6.709  1.00  0.00     0.132 C 
HETATM    8  C14 UNL     1       2.145  51.425  -5.257  1.00  0.00     0.072 C 
HETATM    9  C15 UNL     1       0.945  52.298  -4.789  1.00  0.00     0.082 C 
HETATM   10  C16 UNL     1       1.125  53.807  -4.995  1.00  0.00     0.049 C 
HETATM   11  C17 UNL     1      -0.484  51.770  -5.153  1.00  0.00     0.152 C 
HETATM   12  C18 UNL     1      -0.865  51.362  -6.576  1.00  0.00     0.038 C 
HETATM   13  C19 UNL     1      -0.756  52.425  -7.681  1.00  0.00     0.043 C 
HETATM   14  C20 UNL     1      -0.001  52.010  -8.989  1.00  0.00     0.093 C 
HETATM   15  C21 UNL     1      -0.653  50.713  -9.528  1.00  0.00     0.049 C 
HETATM   16  C26 UNL     1       3.259  52.732  -7.234  1.00  0.00     0.059 C 
HETATM   17  C27 UNL     1       4.815  52.745  -7.433  1.00  0.00     0.100 C 
HETATM   18  C28 UNL     1       5.542  51.990  -6.302  1.00  0.00     0.050 C 
ENDROOT
BRANCH  14  19
HETATM   19  O6  UNL     1      -0.275  53.112  -9.907  1.00  0.00    -0.308 OA
BRANCH  19  20
HETATM   20  C22 UNL     1      -1.175  54.083  -9.602  1.00  0.00     0.259 C 
HETATM   21  O7  UNL     1      -0.903  55.228  -9.276  1.00  0.00    -0.265 OA
BRANCH  20  22
HETATM   22  C23 UNL     1      -2.578  53.530  -9.696  1.00  0.00     0.111 C 
BRANCH  22  23
HETATM   23  C24 UNL     1      -3.267  54.001 -10.972  1.00  0.00     0.005 C 
HETATM   24  C25 UNL     1      -4.088  52.888 -11.605  1.00  0.00     0.005 C 
ENDBRANCH  22  23
ENDBRANCH  20  22
ENDBRANCH  19  20
ENDBRANCH  14  19
BRANCH   3  25
HETATM   25  C8  UNL     1       2.760  55.061 -10.088  1.00  0.00    -0.018 C 
HETATM   26  C9  UNL     1       2.425  55.918  -8.869  1.00  0.00     0.010 C 
HETATM   27  C10 UNL     1       3.870  55.736 -10.905  1.00  0.00     0.010 C 
ENDBRANCH   3  25
BRANCH  11  28
HETATM   28  O5  UNL     1      -1.469  52.710  -4.688  1.00  0.00    -0.393 OA
HETATM   29  H29 UNL     1      -1.265  52.830  -3.740  1.00  0.00     0.210 HD
ENDBRANCH  11  28
BRANCH  17  30
HETATM   30  O8  UNL     1       5.149  54.179  -7.297  1.00  0.00    -0.308 OA
BRANCH  30  31
HETATM   31  C29 UNL     1       6.378  54.629  -6.932  1.00  0.00     0.255 C 
HETATM   32  C30 UNL     1       7.042  55.314  -8.089  1.00  0.00     0.126 C 
HETATM   33  O9  UNL     1       6.904  54.504  -5.840  1.00  0.00    -0.266 OA
ENDBRANCH  30  31
ENDBRANCH  17  30
BRANCH   9  34
HETATM   34  O4  UNL     1       0.950  52.180  -3.323  1.00  0.00    -0.388 OA
HETATM   35  H27 UNL     1       1.807  52.506  -2.994  1.00  0.00     0.210 HD
ENDBRANCH   9  34
BRANCH   1  36
HETATM   36  O2  UNL     1       6.509  52.045  -9.138  1.00  0.00    -0.313 OA
BRANCH  36  37
HETATM   37  C4  UNL     1       6.876  50.844  -9.657  1.00  0.00     0.259 C 
HETATM   38  O1  UNL     1       6.964  50.596 -10.853  1.00  0.00    -0.265 OA
BRANCH  37  39
HETATM   39  C3  UNL     1       7.237  49.860  -8.572  1.00  0.00     0.111 C 
BRANCH  39  40
HETATM   40  C2  UNL     1       8.457  50.291  -7.767  1.00  0.00     0.005 C 
HETATM   41  C1  UNL     1       9.395  49.122  -7.507  1.00  0.00     0.005 C 
ENDBRANCH  39  40
ENDBRANCH  37  39
ENDBRANCH  36  37
ENDBRANCH   1  36
TORSDOF 13
ENDMDL
MODEL 6
REMARK minimizedAffinity -6.15702438
REMARK CNNscore 0.663983226
REMARK CNNaffinity 7.24414444
REMARK  13 active torsions:
REMARK  status: ('A' for Active; 'I' for Inactive)
REMARK    1  A    between atoms: C2_2  and  C3_3 
REMARK    2  A    between atoms: C3_3  and  C4_4 
REMARK    3  A    between atoms: C4_4  and  O2_6 
REMARK    4  A    between atoms: O2_6  and  C5_7 
REMARK    5  A    between atoms: C7_9  and  C8_10 
REMARK    6  A    between atoms: C15_18  and  O4_20 
REMARK    7  A    between atoms: C17_21  and  O5_22 
REMARK    8  A    between atoms: C20_25  and  O6_27 
REMARK    9  A    between atoms: O6_27  and  C22_28 
REMARK   10  A    between atoms: C22_28  and  C23_30 
REMARK   11  A    between atoms: C23_30  and  C24_31 
REMARK   12  A    between atoms: C27_34  and  O8_36 
REMARK   13  A    between atoms: O8_36  and  C29_37 
ROOT
HETATM    1  C5  UNL     1       2.205  52.719 -11.612  1.00  0.00     0.167 C 
HETATM    2  C6  UNL     1       1.604  52.033 -10.386  1.00  0.00     0.041 C 
HETATM    3  C7  UNL     1       0.301  51.266 -10.661  1.00  0.00    -0.002 C 
HETATM    4  C11 UNL     1      -0.064  51.037 -12.160  1.00  0.00     0.032 C 
HETATM    5  C12 UNL     1      -1.172  52.014 -12.638  1.00  0.00     0.161 C 
HETATM    6  O3  UNL     1      -0.859  52.386 -13.979  1.00  0.00    -0.377 OA
HETATM    7  C13 UNL     1       0.434  51.964 -14.355  1.00  0.00     0.132 C 
HETATM    8  C14 UNL     1       0.388  51.288 -15.742  1.00  0.00     0.072 C 
HETATM    9  C15 UNL     1      -0.434  49.999 -16.033  1.00  0.00     0.082 C 
HETATM   10  C16 UNL     1      -0.056  48.784 -15.176  1.00  0.00     0.049 C 
HETATM   11  C17 UNL     1      -1.977  50.185 -16.228  1.00  0.00     0.152 C 
HETATM   12  C18 UNL     1      -2.840  50.948 -15.223  1.00  0.00     0.038 C 
HETATM   13  C19 UNL     1      -2.883  50.430 -13.776  1.00  0.00     0.043 C 
HETATM   14  C20 UNL     1      -2.650  51.485 -12.641  1.00  0.00     0.093 C 
HETATM   15  C21 UNL     1      -3.658  52.641 -12.847  1.00  0.00     0.049 C 
HETATM   16  C26 UNL     1       1.064  51.155 -13.215  1.00  0.00     0.059 C 
HETATM   17  C27 UNL     1       2.461  51.663 -12.714  1.00  0.00     0.100 C 
HETATM   18  C28 UNL     1       3.349  52.139 -13.882  1.00  0.00     0.050 C 
ENDROOT
BRANCH  14  19
HETATM   19  O6  UNL     1      -2.986  50.756 -11.421  1.00  0.00    -0.308 OA
BRANCH  19  20
HETATM   20  C22 UNL     1      -3.234  51.404 -10.253  1.00  0.00     0.259 C 
HETATM   21  O7  UNL     1      -3.466  50.871  -9.179  1.00  0.00    -0.265 OA
BRANCH  20  22
HETATM   22  C23 UNL     1      -3.210  52.898 -10.480  1.00  0.00     0.111 C 
BRANCH  22  23
HETATM   23  C24 UNL     1      -2.244  53.582  -9.518  1.00  0.00     0.005 C 
HETATM   24  C25 UNL     1      -1.554  54.769 -10.172  1.00  0.00     0.005 C 
ENDBRANCH  22  23
ENDBRANCH  20  22
ENDBRANCH  19  20
ENDBRANCH  14  19
BRANCH   3  25
HETATM   25  C8  UNL     1       0.150  49.964  -9.814  1.00  0.00    -0.018 C 
HETATM   26  C9  UNL     1      -0.308  48.741 -10.607  1.00  0.00     0.010 C 
HETATM   27  C10 UNL     1       1.435  49.630  -9.047  1.00  0.00     0.010 C 
ENDBRANCH   3  25
BRANCH  11  28
HETATM   28  O5  UNL     1      -2.587  48.900 -16.444  1.00  0.00    -0.393 OA
HETATM   29  H29 UNL     1      -2.086  48.513 -17.188  1.00  0.00     0.210 HD
ENDBRANCH  11  28
BRANCH  17  30
HETATM   30  O8  UNL     1       3.074  50.438 -12.159  1.00  0.00    -0.308 OA
BRANCH  30  31
HETATM   31  C29 UNL     1       3.755  49.536 -12.913  1.00  0.00     0.255 C 
HETATM   32  C30 UNL     1       2.930  48.300 -13.112  1.00  0.00     0.126 C 
HETATM   33  O9  UNL     1       4.877  49.669 -13.371  1.00  0.00    -0.266 OA
ENDBRANCH  30  31
ENDBRANCH  17  30
BRANCH   9  34
HETATM   34  O4  UNL     1      -0.005  49.580 -17.376  1.00  0.00    -0.388 OA
HETATM   35  H27 UNL     1       0.956  49.419 -17.352  1.00  0.00     0.210 HD
ENDBRANCH   9  34
BRANCH   1  36
HETATM   36  O2  UNL     1       3.399  53.384 -11.156  1.00  0.00    -0.313 OA
BRANCH  36  37
HETATM   37  C4  UNL     1       3.282  54.702 -10.847  1.00  0.00     0.259 C 
HETATM   38  O1  UNL     1       2.221  55.281 -10.647  1.00  0.00    -0.265 OA
BRANCH  37  39
HETATM   39  C3  UNL     1       4.632  55.360 -10.708  1.00  0.00     0.111 C 
BRANCH  39  40
HETATM   40  C2  UNL     1       5.206  55.237  -9.302  1.00  0.00     0.005 C 
HETATM   41  C1  UNL     1       6.578  54.582  -9.315  1.00  0.00     0.005 C 
ENDBRANCH  39  40
ENDBRANCH  37  39
ENDBRANCH  36  37
ENDBRANCH   1  36
TORSDOF 13
ENDMDL
MODEL 7
REMARK minimizedAffinity -6.3380537
REMARK CNNscore 0.645601332
REMARK CNNaffinity 7.63756418
REMARK  13 active torsions:
REMARK  status: ('A' for Active; 'I' for Inactive)
REMARK    1  A    between atoms: C2_2  and  C3_3 
REMARK    2  A    between atoms: C3_3  and  C4_4 
REMARK    3  A    between atoms: C4_4  and  O2_6 
REMARK    4  A    between atoms: O2_6  and  C5_7 
REMARK    5  A    between atoms: C7_9  and  C8_10 
REMARK    6  A    between atoms: C15_18  and  O4_20 
REMARK    7  A    between atoms: C17_21  and  O5_22 
REMARK    8  A    between atoms: C20_25  and  O6_27 
REMARK    9  A    between atoms: O6_27  and  C22_28 
REMARK   10  A    between atoms: C22_28  and  C23_30 
REMARK   11  A    between atoms: C23_30  and  C24_31 
REMARK   12  A    between atoms: C27_34  and  O8_36 
REMARK   13  A    between atoms: O8_36  and  C29_37 
ROOT
HETATM    1  C5  UNL     1       0.871  51.819 -13.032  1.00  0.00     0.167 C 
HETATM    2  C6  UNL     1       2.051  50.904 -12.703  1.00  0.00     0.041 C 
HETATM    3  C7  UNL     1       2.916  51.380 -11.526  1.00  0.00    -0.002 C 
HETATM    4  C11 UNL     1       2.325  52.530 -10.653  1.00  0.00     0.032 C 
HETATM    5  C12 UNL     1       2.980  53.898 -10.985  1.00  0.00     0.161 C 
HETATM    6  O3  UNL     1       1.955  54.887 -10.908  1.00  0.00    -0.377 OA
HETATM    7  C13 UNL     1       0.672  54.310 -10.800  1.00  0.00     0.132 C 
HETATM    8  C14 UNL     1      -0.128  55.004  -9.676  1.00  0.00     0.072 C 
HETATM    9  C15 UNL     1       0.319  54.999  -8.186  1.00  0.00     0.082 C 
HETATM   10  C16 UNL     1       0.468  53.606  -7.560  1.00  0.00     0.049 C 
HETATM   11  C17 UNL     1       1.461  55.998  -7.797  1.00  0.00     0.152 C 
HETATM   12  C18 UNL     1       2.777  56.073  -8.571  1.00  0.00     0.038 C 
HETATM   13  C19 UNL     1       3.639  54.802  -8.645  1.00  0.00     0.043 C 
HETATM   14  C20 UNL     1       4.154  54.380 -10.063  1.00  0.00     0.093 C 
HETATM   15  C21 UNL     1       4.894  55.590 -10.685  1.00  0.00     0.049 C 
HETATM   16  C26 UNL     1       0.799  52.785 -10.713  1.00  0.00     0.059 C 
HETATM   17  C27 UNL     1      -0.020  51.974 -11.777  1.00  0.00     0.100 C 
HETATM   18  C28 UNL     1      -1.405  52.603 -12.033  1.00  0.00     0.050 C 
ENDROOT
BRANCH  14  19
HETATM   19  O6  UNL     1       5.113  53.317  -9.776  1.00  0.00    -0.308 OA
BRANCH  19  20
HETATM   20  C22 UNL     1       6.357  53.592  -9.301  1.00  0.00     0.259 C 
HETATM   21  O7  UNL     1       7.234  52.770  -9.085  1.00  0.00    -0.265 OA
BRANCH  20  22
HETATM   22  C23 UNL     1       6.493  55.075  -9.047  1.00  0.00     0.111 C 
BRANCH  22  23
HETATM   23  C24 UNL     1       7.129  55.342  -7.687  1.00  0.00     0.005 C 
HETATM   24  C25 UNL     1       6.408  56.453  -6.942  1.00  0.00     0.005 C 
ENDBRANCH  22  23
ENDBRANCH  20  22
ENDBRANCH  19  20
ENDBRANCH  14  19
BRANCH   3  25
HETATM   25  C8  UNL     1       3.485  50.215 -10.656  1.00  0.00    -0.018 C 
HETATM   26  C9  UNL     1       3.101  50.281  -9.179  1.00  0.00     0.010 C 
HETATM   27  C10 UNL     1       3.111  48.842 -11.227  1.00  0.00     0.010 C 
ENDBRANCH   3  25
BRANCH  11  28
HETATM   28  O5  UNL     1       1.780  55.835  -6.404  1.00  0.00    -0.393 OA
HETATM   29  H29 UNL     1       0.924  55.935  -5.943  1.00  0.00     0.210 HD
ENDBRANCH  11  28
BRANCH  17  30
HETATM   30  O8  UNL     1      -0.238  50.677 -11.103  1.00  0.00    -0.308 OA
BRANCH  30  31
HETATM   31  C29 UNL     1      -1.385  49.958 -11.218  1.00  0.00     0.255 C 
HETATM   32  C30 UNL     1      -2.124  49.952  -9.913  1.00  0.00     0.126 C 
HETATM   33  O9  UNL     1      -1.786  49.379 -12.213  1.00  0.00    -0.266 OA
ENDBRANCH  30  31
ENDBRANCH  17  30
BRANCH   9  34
HETATM   34  O4  UNL     1      -0.831  55.549  -7.452  1.00  0.00    -0.388 OA
HETATM   35  H27 UNL     1      -1.601  54.976  -7.618  1.00  0.00     0.210 HD
ENDBRANCH   9  34
BRANCH   1  36
HETATM   36  O2  UNL     1       0.197  51.217 -14.154  1.00  0.00    -0.313 OA
BRANCH  36  37
HETATM   37  C4  UNL     1       0.875  51.195 -15.331  1.00  0.00     0.259 C 
HETATM   38  O1  UNL     1       0.964  50.222 -16.069  1.00  0.00    -0.265 OA
BRANCH  37  39
HETATM   39  C3  UNL     1       1.454  52.549 -15.662  1.00  0.00     0.111 C 
BRANCH  39  40
HETATM   40  C2  UNL     1       2.579  52.474 -16.686  1.00  0.00     0.005 C 
HETATM   41  C1  UNL     1       3.945  52.528 -16.020  1.00  0.00     0.005 C 
ENDBRANCH  39  40
ENDBRANCH  37  39
ENDBRANCH  36  37
ENDBRANCH   1  36
TORSDOF 13
ENDMDL
MODEL 8
REMARK minimizedAffinity -6.87198877
REMARK CNNscore 0.644196808
REMARK CNNaffinity 6.55049944
REMARK  13 active torsions:
REMARK  status: ('A' for Active; 'I' for Inactive)
REMARK    1  A    between atoms: C2_2  and  C3_3 
REMARK    2  A    between atoms: C3_3  and  C4_4 
REMARK    3  A    between atoms: C4_4  and  O2_6 
REMARK    4  A    between atoms: O2_6  and  C5_7 
REMARK    5  A    between atoms: C7_9  and  C8_10 
REMARK    6  A    between atoms: C15_18  and  O4_20 
REMARK    7  A    between atoms: C17_21  and  O5_22 
REMARK    8  A    between atoms: C20_25  and  O6_27 
REMARK    9  A    between atoms: O6_27  and  C22_28 
REMARK   10  A    between atoms: C22_28  and  C23_30 
REMARK   11  A    between atoms: C23_30  and  C24_31 
REMARK   12  A    between atoms: C27_34  and  O8_36 
REMARK   13  A    between atoms: O8_36  and  C29_37 
ROOT
HETATM    1  C5  UNL     1       6.165  65.127 -35.404  1.00  0.00     0.167 C 
HETATM    2  C6  UNL     1       7.134  66.299 -35.255  1.00  0.00     0.041 C 
HETATM    3  C7  UNL     1       6.681  67.592 -35.951  1.00  0.00    -0.002 C 
HETATM    4  C11 UNL     1       5.201  67.631 -36.442  1.00  0.00     0.032 C 
HETATM    5  C12 UNL     1       5.097  67.409 -37.975  1.00  0.00     0.161 C 
HETATM    6  O3  UNL     1       3.932  66.622 -38.211  1.00  0.00    -0.377 OA
HETATM    7  C13 UNL     1       3.393  66.105 -37.014  1.00  0.00     0.132 C 
HETATM    8  C14 UNL     1       1.867  66.332 -36.979  1.00  0.00     0.072 C 
HETATM    9  C15 UNL     1       1.215  67.745 -37.003  1.00  0.00     0.082 C 
HETATM   10  C16 UNL     1       1.630  68.667 -35.850  1.00  0.00     0.049 C 
HETATM   11  C17 UNL     1       1.147  68.457 -38.397  1.00  0.00     0.152 C 
HETATM   12  C18 UNL     1       2.373  68.606 -39.297  1.00  0.00     0.038 C 
HETATM   13  C19 UNL     1       3.584  69.372 -38.740  1.00  0.00     0.043 C 
HETATM   14  C20 UNL     1       4.983  68.683 -38.884  1.00  0.00     0.093 C 
HETATM   15  C21 UNL     1       5.192  68.327 -40.376  1.00  0.00     0.049 C 
HETATM   16  C26 UNL     1       4.195  66.632 -35.819  1.00  0.00     0.059 C 
HETATM   17  C27 UNL     1       4.777  65.538 -34.857  1.00  0.00     0.100 C 
HETATM   18  C28 UNL     1       3.786  64.375 -34.647  1.00  0.00     0.050 C 
ENDROOT
BRANCH  14  19
HETATM   19  O6  UNL     1       5.923  69.733 -38.498  1.00  0.00    -0.308 OA
BRANCH  19  20
HETATM   20  C22 UNL     1       6.749  70.315 -39.406  1.00  0.00     0.259 C 
HETATM   21  O7  UNL     1       6.466  71.264 -40.120  1.00  0.00    -0.265 OA
BRANCH  20  22
HETATM   22  C23 UNL     1       8.077  69.593 -39.429  1.00  0.00     0.111 C 
BRANCH  22  23
HETATM   23  C24 UNL     1       8.726  69.684 -40.806  1.00  0.00     0.005 C 
HETATM   24  C25 UNL     1       9.896  68.722 -40.936  1.00  0.00     0.005 C 
ENDBRANCH  22  23
ENDBRANCH  20  22
ENDBRANCH  19  20
ENDBRANCH  14  19
BRANCH   3  25
HETATM   25  C8  UNL     1       7.079  68.890 -35.181  1.00  0.00    -0.018 C 
HETATM   26  C9  UNL     1       8.266  69.643 -35.780  1.00  0.00     0.010 C 
HETATM   27  C10 UNL     1       5.890  69.845 -35.019  1.00  0.00     0.010 C 
ENDBRANCH   3  25
BRANCH  11  28
HETATM   28  O5  UNL     1       0.560  69.760 -38.236  1.00  0.00    -0.393 OA
HETATM   29  H29 UNL     1      -0.286  69.592 -37.778  1.00  0.00     0.210 HD
ENDBRANCH  11  28
BRANCH  17  30
HETATM   30  O8  UNL     1       4.894  66.261 -33.572  1.00  0.00    -0.308 OA
BRANCH  30  31
HETATM   31  C29 UNL     1       5.346  65.684 -32.429  1.00  0.00     0.255 C 
HETATM   32  C30 UNL     1       4.309  64.754 -31.874  1.00  0.00     0.126 C 
HETATM   33  O9  UNL     1       6.424  65.876 -31.893  1.00  0.00    -0.266 OA
ENDBRANCH  30  31
ENDBRANCH  17  30
BRANCH   9  34
HETATM   34  O4  UNL     1      -0.207  67.503 -36.714  1.00  0.00    -0.388 OA
HETATM   35  H27 UNL     1      -0.271  67.072 -35.843  1.00  0.00     0.210 HD
ENDBRANCH   9  34
BRANCH   1  36
HETATM   36  O2  UNL     1       6.762  64.019 -34.702  1.00  0.00    -0.313 OA
BRANCH  36  37
HETATM   37  C4  UNL     1       8.116  64.033 -34.585  1.00  0.00     0.259 C 
HETATM   38  O1  UNL     1       8.725  64.246 -33.544  1.00  0.00    -0.265 OA
BRANCH  37  39
HETATM   39  C3  UNL     1       8.788  63.680 -35.888  1.00  0.00     0.111 C 
BRANCH  39  40
HETATM   40  C2  UNL     1       9.570  62.375 -35.814  1.00  0.00     0.005 C 
HETATM   41  C1  UNL     1      10.905  62.483 -36.535  1.00  0.00     0.005 C 
ENDBRANCH  39  40
ENDBRANCH  37  39
ENDBRANCH  36  37
ENDBRANCH   1  36
TORSDOF 13
ENDMDL
MODEL 9
REMARK minimizedAffinity -5.78788567
REMARK CNNscore 0.628689647
REMARK CNNaffinity 6.86762285
REMARK  13 active torsions:
REMARK  status: ('A' for Active; 'I' for Inactive)
REMARK    1  A    between atoms: C2_2  and  C3_3 
REMARK    2  A    between atoms: C3_3  and  C4_4 
REMARK    3  A    between atoms: C4_4  and  O2_6 
REMARK    4  A    between atoms: O2_6  and  C5_7 
REMARK    5  A    between atoms: C7_9  and  C8_10 
REMARK    6  A    between atoms: C15_18  and  O4_20 
REMARK    7  A    between atoms: C17_21  and  O5_22 
REMARK    8  A    between atoms: C20_25  and  O6_27 
REMARK    9  A    between atoms: O6_27  and  C22_28 
REMARK   10  A    between atoms: C22_28  and  C23_30 
REMARK   11  A    between atoms: C23_30  and  C24_31 
REMARK   12  A    between atoms: C27_34  and  O8_36 
REMARK   13  A    between atoms: O8_36  and  C29_37 
ROOT
HETATM    1  C5  UNL     1       3.133  50.737 -11.529  1.00  0.00     0.167 C 
HETATM    2  C6  UNL     1       4.450  50.763 -10.753  1.00  0.00     0.041 C 
HETATM    3  C7  UNL     1       4.508  51.815  -9.634  1.00  0.00    -0.002 C 
HETATM    4  C11 UNL     1       3.156  52.488  -9.246  1.00  0.00     0.032 C 
HETATM    5  C12 UNL     1       3.033  53.916  -9.843  1.00  0.00     0.161 C 
HETATM    6  O3  UNL     1       1.672  54.096 -10.231  1.00  0.00    -0.377 OA
HETATM    7  C13 UNL     1       0.945  52.888 -10.181  1.00  0.00     0.132 C 
HETATM    8  C14 UNL     1      -0.402  53.111  -9.461  1.00  0.00     0.072 C 
HETATM    9  C15 UNL     1      -0.508  53.575  -7.979  1.00  0.00     0.082 C 
HETATM   10  C16 UNL     1       0.168  52.647  -6.961  1.00  0.00     0.049 C 
HETATM   11  C17 UNL     1      -0.272  55.099  -7.708  1.00  0.00     0.152 C 
HETATM   12  C18 UNL     1       0.957  55.840  -8.234  1.00  0.00     0.038 C 
HETATM   13  C19 UNL     1       2.341  55.341  -7.788  1.00  0.00     0.043 C 
HETATM   14  C20 UNL     1       3.409  55.123  -8.914  1.00  0.00     0.093 C 
HETATM   15  C21 UNL     1       3.528  56.438  -9.723  1.00  0.00     0.049 C 
HETATM   16  C26 UNL     1       1.841  51.770  -9.636  1.00  0.00     0.059 C 
HETATM   17  C27 UNL     1       1.964  50.496 -10.544  1.00  0.00     0.100 C 
HETATM   18  C28 UNL     1       0.618  50.132 -11.203  1.00  0.00     0.050 C 
ENDROOT
BRANCH  14  19
HETATM   19  O6  UNL     1       4.646  54.894  -8.172  1.00  0.00    -0.308 OA
BRANCH  19  20
HETATM   20  C22 UNL     1       5.860  55.193  -8.706  1.00  0.00     0.259 C 
HETATM   21  O7  UNL     1       6.193  55.003  -9.866  1.00  0.00    -0.265 OA
BRANCH  20  22
HETATM   22  C23 UNL     1       6.761  55.775  -7.641  1.00  0.00     0.111 C 
BRANCH  22  23
HETATM   23  C24 UNL     1       5.963  56.156  -6.398  1.00  0.00     0.005 C 
HETATM   24  C25 UNL     1       6.028  57.651  -6.132  1.00  0.00     0.005 C 
ENDBRANCH  22  23
ENDBRANCH  20  22
ENDBRANCH  19  20
ENDBRANCH  14  19
BRANCH   3  25
HETATM   25  C8  UNL     1       5.315  51.351  -8.381  1.00  0.00    -0.018 C 
HETATM   26  C9  UNL     1       6.773  51.808  -8.361  1.00  0.00     0.010 C 
HETATM   27  C10 UNL     1       4.627  51.764  -7.074  1.00  0.00     0.010 C 
ENDBRANCH   3  25
BRANCH  11  28
HETATM   28  O5  UNL     1      -0.363  55.349  -6.294  1.00  0.00    -0.393 OA
HETATM   29  H29 UNL     1      -1.229  54.978  -6.035  1.00  0.00     0.210 HD
ENDBRANCH  11  28
BRANCH  17  30
HETATM   30  O8  UNL     1       2.286  49.432  -9.570  1.00  0.00    -0.308 OA
BRANCH  30  31
HETATM   31  C29 UNL     1       1.654  48.230  -9.541  1.00  0.00     0.255 C 
HETATM   32  C30 UNL     1       2.444  47.211 -10.308  1.00  0.00     0.126 C 
HETATM   33  O9  UNL     1       0.594  47.977  -8.995  1.00  0.00    -0.266 OA
ENDBRANCH  30  31
ENDBRANCH  17  30
BRANCH   9  34
HETATM   34  O4  UNL     1      -1.932  53.422  -7.643  1.00  0.00    -0.388 OA
HETATM   35  H27 UNL     1      -2.175  52.487  -7.766  1.00  0.00     0.210 HD
ENDBRANCH   9  34
BRANCH   1  36
HETATM   36  O2  UNL     1       3.274  49.707 -12.526  1.00  0.00    -0.313 OA
BRANCH  36  37
HETATM   37  C4  UNL     1       3.958  50.041 -13.652  1.00  0.00     0.259 C 
HETATM   38  O1  UNL     1       4.952  49.457 -14.066  1.00  0.00    -0.265 OA
BRANCH  37  39
HETATM   39  C3  UNL     1       3.298  51.185 -14.381  1.00  0.00     0.111 C 
BRANCH  39  40
HETATM   40  C2  UNL     1       4.187  51.785 -15.463  1.00  0.00     0.005 C 
HETATM   41  C1  UNL     1       3.429  52.792 -16.314  1.00  0.00     0.005 C 
ENDBRANCH  39  40
ENDBRANCH  37  39
ENDBRANCH  36  37
ENDBRANCH   1  36
TORSDOF 13
ENDMDL
