MODEL 1
REMARK minimizedAffinity -6.66038513
REMARK CNNscore 0.729583144
REMARK CNNaffinity 6.39568853
REMARK  2 active torsions:
REMARK  status: ('A' for Active; 'I' for Inactive)
REMARK    1  A    between atoms: C21_27  and  C22_28 
REMARK    2  A    between atoms: C22_28  and  O7_30 
ROOT
HETATM    1  C1  UNL     1      -1.579  49.375  -6.443  1.00  0.00     0.043 C 
HETATM    2  C2  UNL     1      -0.412  49.347  -7.397  1.00  0.00    -0.076 C 
HETATM    3  C3  UNL     1       0.630  50.182  -7.210  1.00  0.00     0.084 C 
HETATM    4  C4  UNL     1       1.810  50.303  -8.097  1.00  0.00     0.283 C 
HETATM    5  O1  UNL     1       2.106  49.561  -9.018  1.00  0.00    -0.260 OA
HETATM    6  O2  UNL     1       2.483  51.423  -7.724  1.00  0.00    -0.317 OA
HETATM    7  C5  UNL     1       3.646  51.752  -8.492  1.00  0.00     0.195 C 
HETATM    8  C6  UNL     1       3.780  53.289  -8.776  1.00  0.00     0.053 C 
HETATM    9  C7  UNL     1       3.620  54.084  -7.419  1.00  0.00     0.159 C 
HETATM   10  C8  UNL     1       4.807  53.986  -6.497  1.00  0.00     0.011 C 
HETATM   11  C9  UNL     1       6.061  53.804  -6.954  1.00  0.00    -0.054 C 
HETATM   12  C10 UNL     1       7.234  53.736  -6.018  1.00  0.00     0.046 C 
HETATM   13  C11 UNL     1       6.355  53.737  -8.396  1.00  0.00     0.180 A 
HETATM   14  O3  UNL     1       5.828  54.719  -9.303  1.00  0.00    -0.370 OA
HETATM   15  C12 UNL     1       5.208  53.435  -9.341  1.00  0.00     0.170 A 
HETATM   16  O4  UNL     1       3.371  55.493  -7.580  1.00  0.00    -0.372 OA
HETATM   17  C13 UNL     1       2.422  55.847  -8.590  1.00  0.00     0.162 C 
HETATM   18  C14 UNL     1       1.091  55.117  -8.391  1.00  0.00     0.068 C 
HETATM   19  C15 UNL     1       1.229  53.815  -9.220  1.00  0.00     0.147 C 
HETATM   20  O5  UNL     1       0.249  53.844 -10.283  1.00  0.00    -0.312 OA
HETATM   21  C16 UNL     1      -1.005  53.439  -9.955  1.00  0.00     0.283 C 
HETATM   22  O6  UNL     1      -1.359  53.008  -8.872  1.00  0.00    -0.260 OA
HETATM   23  C17 UNL     1      -1.853  53.656 -11.150  1.00  0.00     0.082 C 
HETATM   24  C18 UNL     1      -3.121  53.254 -11.315  1.00  0.00     0.006 C 
HETATM   25  C19 UNL     1      -3.928  52.475 -10.410  1.00  0.00    -0.001 C 
HETATM   26  C20 UNL     1      -3.832  51.152 -10.202  1.00  0.00     0.007 C 
HETATM   27  C21 UNL     1      -2.859  50.180 -10.816  1.00  0.00     0.172 C 
HETATM   28  O8  UNL     1      -2.370  49.404  -9.711  1.00  0.00    -0.379 OA
HETATM   29  C24 UNL     1      -1.006  49.004  -9.845  1.00  0.00     0.173 C 
HETATM   30  C25 UNL     1      -0.545  48.354  -8.538  1.00  0.00     0.060 C 
HETATM   31  C26 UNL     1       2.693  53.827  -9.824  1.00  0.00     0.034 C 
HETATM   32  C27 UNL     1       2.752  53.113 -11.183  1.00  0.00     0.022 C 
HETATM   33  C28 UNL     1       2.907  55.324  -9.898  1.00  0.00     0.119 A 
HETATM   34  C29 UNL     1       3.774  56.092 -10.864  1.00  0.00     0.210 A 
HETATM   35  O9  UNL     1       2.355  55.989 -11.047  1.00  0.00    -0.371 OA
ENDROOT
BRANCH  27  36
HETATM   36  C22 UNL     1      -3.514  49.240 -11.870  1.00  0.00     0.146 C 
HETATM   37  C23 UNL     1      -4.918  48.777 -11.496  1.00  0.00     0.042 C 
BRANCH  36  38
HETATM   38  O7  UNL     1      -3.624  49.899 -13.144  1.00  0.00    -0.393 OA
HETATM   39  H27 UNL     1      -4.124  50.722 -13.012  1.00  0.00     0.210 HD
ENDBRANCH  36  38
ENDBRANCH  27  36
TORSDOF 2
ENDMDL
MODEL 2
REMARK minimizedAffinity -6.51363134
REMARK CNNscore 0.664941251
REMARK CNNaffinity 5.60474253
REMARK  2 active torsions:
REMARK  status: ('A' for Active; 'I' for Inactive)
REMARK    1  A    between atoms: C21_27  and  C22_28 
REMARK    2  A    between atoms: C22_28  and  O7_30 
ROOT
HETATM    1  C1  UNL     1       7.092  49.655  -3.753  1.00  0.00     0.043 C 
HETATM    2  C2  UNL     1       7.533  51.020  -4.217  1.00  0.00    -0.076 C 
HETATM    3  C3  UNL     1       6.617  51.982  -4.445  1.00  0.00     0.084 C 
HETATM    4  C4  UNL     1       6.903  53.343  -4.956  1.00  0.00     0.283 C 
HETATM    5  O1  UNL     1       8.000  53.857  -5.080  1.00  0.00    -0.260 OA
HETATM    6  O2  UNL     1       5.714  53.901  -5.306  1.00  0.00    -0.317 OA
HETATM    7  C5  UNL     1       5.770  55.215  -5.871  1.00  0.00     0.195 C 
HETATM    8  C6  UNL     1       4.779  55.410  -7.072  1.00  0.00     0.053 C 
HETATM    9  C7  UNL     1       3.339  54.921  -6.641  1.00  0.00     0.159 C 
HETATM   10  C8  UNL     1       2.625  55.848  -5.691  1.00  0.00     0.011 C 
HETATM   11  C9  UNL     1       2.850  57.175  -5.675  1.00  0.00    -0.054 C 
HETATM   12  C10 UNL     1       2.107  58.085  -4.738  1.00  0.00     0.046 C 
HETATM   13  C11 UNL     1       3.777  57.813  -6.626  1.00  0.00     0.180 A 
HETATM   14  O3  UNL     1       3.710  57.521  -8.031  1.00  0.00    -0.370 OA
HETATM   15  C12 UNL     1       4.798  56.933  -7.320  1.00  0.00     0.170 A 
HETATM   16  O4  UNL     1       2.427  54.715  -7.737  1.00  0.00    -0.372 OA
HETATM   17  C13 UNL     1       2.967  54.041  -8.877  1.00  0.00     0.162 C 
HETATM   18  C14 UNL     1       3.604  52.703  -8.490  1.00  0.00     0.068 C 
HETATM   19  C15 UNL     1       5.088  53.043  -8.205  1.00  0.00     0.147 C 
HETATM   20  O5  UNL     1       5.909  52.353  -9.174  1.00  0.00    -0.312 OA
HETATM   21  C16 UNL     1       6.209  51.058  -8.894  1.00  0.00     0.283 C 
HETATM   22  O6  UNL     1       5.894  50.451  -7.886  1.00  0.00    -0.260 OA
HETATM   23  C17 UNL     1       6.952  50.527 -10.060  1.00  0.00     0.082 C 
HETATM   24  C18 UNL     1       7.567  49.339 -10.144  1.00  0.00     0.006 C 
HETATM   25  C19 UNL     1       7.702  48.337  -9.115  1.00  0.00    -0.001 C 
HETATM   26  C20 UNL     1       8.544  48.384  -8.070  1.00  0.00     0.007 C 
HETATM   27  C21 UNL     1       9.506  49.480  -7.696  1.00  0.00     0.172 C 
HETATM   28  O8  UNL     1       9.298  49.687  -6.290  1.00  0.00    -0.379 OA
HETATM   29  C24 UNL     1       9.460  51.043  -5.876  1.00  0.00     0.173 C 
HETATM   30  C25 UNL     1       9.031  51.172  -4.411  1.00  0.00     0.060 C 
HETATM   31  C26 UNL     1       5.227  54.610  -8.386  1.00  0.00     0.034 C 
HETATM   32  C27 UNL     1       6.625  55.002  -8.890  1.00  0.00     0.022 C 
HETATM   33  C28 UNL     1       4.118  54.831  -9.393  1.00  0.00     0.119 A 
HETATM   34  C29 UNL     1       4.021  55.907 -10.448  1.00  0.00     0.210 A 
HETATM   35  O9  UNL     1       4.449  54.576 -10.769  1.00  0.00    -0.371 OA
ENDROOT
BRANCH  27  36
HETATM   36  C22 UNL     1      10.994  49.105  -7.958  1.00  0.00     0.146 C 
HETATM   37  C23 UNL     1      11.432  47.810  -7.282  1.00  0.00     0.042 C 
BRANCH  36  38
HETATM   38  O7  UNL     1      11.239  48.938  -9.365  1.00  0.00    -0.393 OA
HETATM   39  H27 UNL     1      10.618  48.268  -9.699  1.00  0.00     0.210 HD
ENDBRANCH  36  38
ENDBRANCH  27  36
TORSDOF 2
ENDMDL
MODEL 3
REMARK minimizedAffinity -7.45333624
REMARK CNNscore 0.421645969
REMARK CNNaffinity 6.00240469
REMARK  2 active torsions:
REMARK  status: ('A' for Active; 'I' for Inactive)
REMARK    1  A    between atoms: C21_27  and  C22_28 
REMARK    2  A    between atoms: C22_28  and  O7_30 
ROOT
HETATM    1  C1  UNL     1      -0.108  48.576 -10.501  1.00  0.00     0.043 C 
HETATM    2  C2  UNL     1       0.847  49.649 -10.954  1.00  0.00    -0.076 C 
HETATM    3  C3  UNL     1       1.646  50.261 -10.057  1.00  0.00     0.084 C 
HETATM    4  C4  UNL     1       2.587  51.368 -10.351  1.00  0.00     0.283 C 
HETATM    5  O1  UNL     1       2.910  51.772 -11.454  1.00  0.00    -0.260 OA
HETATM    6  O2  UNL     1       2.990  51.882  -9.160  1.00  0.00    -0.317 OA
HETATM    7  C5  UNL     1       3.879  53.004  -9.220  1.00  0.00     0.195 C 
HETATM    8  C6  UNL     1       3.551  54.105  -8.152  1.00  0.00     0.053 C 
HETATM    9  C7  UNL     1       3.414  53.427  -6.731  1.00  0.00     0.159 C 
HETATM   10  C8  UNL     1       4.722  52.994  -6.120  1.00  0.00     0.011 C 
HETATM   11  C9  UNL     1       5.884  53.618  -6.391  1.00  0.00    -0.054 C 
HETATM   12  C10 UNL     1       7.173  53.188  -5.749  1.00  0.00     0.046 C 
HETATM   13  C11 UNL     1       5.941  54.801  -7.268  1.00  0.00     0.180 A 
HETATM   14  O3  UNL     1       5.027  55.896  -7.090  1.00  0.00    -0.370 OA
HETATM   15  C12 UNL     1       4.774  55.044  -8.206  1.00  0.00     0.170 A 
HETATM   16  O4  UNL     1       2.778  54.250  -5.736  1.00  0.00    -0.372 OA
HETATM   17  C13 UNL     1       1.614  54.960  -6.169  1.00  0.00     0.162 C 
HETATM   18  C14 UNL     1       0.576  54.018  -6.786  1.00  0.00     0.068 C 
HETATM   19  C15 UNL     1       0.914  53.999  -8.298  1.00  0.00     0.147 C 
HETATM   20  O5  UNL     1      -0.201  54.564  -9.023  1.00  0.00    -0.312 OA
HETATM   21  C16 UNL     1      -1.230  53.720  -9.297  1.00  0.00     0.283 C 
HETATM   22  O6  UNL     1      -1.270  52.531  -9.035  1.00  0.00    -0.260 OA
HETATM   23  C17 UNL     1      -2.292  54.531  -9.935  1.00  0.00     0.082 C 
HETATM   24  C18 UNL     1      -3.417  54.072 -10.502  1.00  0.00     0.006 C 
HETATM   25  C19 UNL     1      -3.825  52.700 -10.676  1.00  0.00    -0.001 C 
HETATM   26  C20 UNL     1      -3.348  51.842 -11.593  1.00  0.00     0.007 C 
HETATM   27  C21 UNL     1      -2.268  52.077 -12.617  1.00  0.00     0.172 C 
HETATM   28  O8  UNL     1      -1.413  50.928 -12.518  1.00  0.00    -0.379 OA
HETATM   29  C24 UNL     1      -0.034  51.212 -12.755  1.00  0.00     0.173 C 
HETATM   30  C25 UNL     1       0.794  49.964 -12.438  1.00  0.00     0.060 C 
HETATM   31  C26 UNL     1       2.200  54.905  -8.477  1.00  0.00     0.034 C 
HETATM   32  C27 UNL     1       2.219  55.600  -9.847  1.00  0.00     0.022 C 
HETATM   33  C28 UNL     1       1.994  55.843  -7.306  1.00  0.00     0.119 A 
HETATM   34  C29 UNL     1       2.452  57.275  -7.170  1.00  0.00     0.210 A 
HETATM   35  O9  UNL     1       1.101  56.949  -7.528  1.00  0.00    -0.371 OA
ENDROOT
BRANCH  27  36
HETATM   36  C22 UNL     1      -2.817  52.201 -14.068  1.00  0.00     0.146 C 
HETATM   37  C23 UNL     1      -3.206  50.867 -14.697  1.00  0.00     0.042 C 
BRANCH  36  38
HETATM   38  O7  UNL     1      -3.992  53.030 -14.101  1.00  0.00    -0.393 OA
HETATM   39  H27 UNL     1      -4.642  52.651 -13.485  1.00  0.00     0.210 HD
ENDBRANCH  36  38
ENDBRANCH  27  36
TORSDOF 2
ENDMDL
MODEL 4
REMARK minimizedAffinity -6.64287281
REMARK CNNscore 0.415849864
REMARK CNNaffinity 5.15687561
REMARK  2 active torsions:
REMARK  status: ('A' for Active; 'I' for Inactive)
REMARK    1  A    between atoms: C21_27  and  C22_28 
REMARK    2  A    between atoms: C22_28  and  O7_30 
ROOT
HETATM    1  C1  UNL     1       2.923  49.195  -9.248  1.00  0.00     0.043 C 
HETATM    2  C2  UNL     1       3.698  50.417  -9.666  1.00  0.00    -0.076 C 
HETATM    3  C3  UNL     1       4.171  51.267  -8.732  1.00  0.00     0.084 C 
HETATM    4  C4  UNL     1       4.895  52.531  -9.000  1.00  0.00     0.283 C 
HETATM    5  O1  UNL     1       5.325  52.907 -10.077  1.00  0.00    -0.260 OA
HETATM    6  O2  UNL     1       4.955  53.219  -7.830  1.00  0.00    -0.317 OA
HETATM    7  C5  UNL     1       5.583  54.505  -7.879  1.00  0.00     0.195 C 
HETATM    8  C6  UNL     1       4.839  55.586  -7.019  1.00  0.00     0.053 C 
HETATM    9  C7  UNL     1       4.588  55.012  -5.568  1.00  0.00     0.159 C 
HETATM   10  C8  UNL     1       5.822  54.940  -4.706  1.00  0.00     0.011 C 
HETATM   11  C9  UNL     1       6.856  55.789  -4.857  1.00  0.00    -0.054 C 
HETATM   12  C10 UNL     1       8.066  55.718  -3.968  1.00  0.00     0.046 C 
HETATM   13  C11 UNL     1       6.824  56.878  -5.849  1.00  0.00     0.180 A 
HETATM   14  O3  UNL     1       5.684  57.746  -5.955  1.00  0.00    -0.370 OA
HETATM   15  C12 UNL     1       5.826  56.771  -6.986  1.00  0.00     0.170 A 
HETATM   16  O4  UNL     1       3.620  55.746  -4.795  1.00  0.00    -0.372 OA
HETATM   17  C13 UNL     1       2.433  56.134  -5.493  1.00  0.00     0.162 C 
HETATM   18  C14 UNL     1       1.749  54.933  -6.153  1.00  0.00     0.068 C 
HETATM   19  C15 UNL     1       2.357  54.869  -7.576  1.00  0.00     0.147 C 
HETATM   20  O5  UNL     1       1.301  55.104  -8.535  1.00  0.00    -0.312 OA
HETATM   21  C16 UNL     1       0.542  54.028  -8.868  1.00  0.00     0.283 C 
HETATM   22  O6  UNL     1       0.704  52.887  -8.476  1.00  0.00    -0.260 OA
HETATM   23  C17 UNL     1      -0.531  54.520  -9.763  1.00  0.00     0.082 C 
HETATM   24  C18 UNL     1      -1.409  53.773 -10.445  1.00  0.00     0.006 C 
HETATM   25  C19 UNL     1      -1.481  52.334 -10.517  1.00  0.00    -0.001 C 
HETATM   26  C20 UNL     1      -0.673  51.536 -11.234  1.00  0.00     0.007 C 
HETATM   27  C21 UNL     1       0.503  51.927 -12.091  1.00  0.00     0.172 C 
HETATM   28  O8  UNL     1       1.547  51.015 -11.717  1.00  0.00    -0.379 OA
HETATM   29  C24 UNL     1       2.855  51.586 -11.761  1.00  0.00     0.173 C 
HETATM   30  C25 UNL     1       3.855  50.590 -11.166  1.00  0.00     0.060 C 
HETATM   31  C26 UNL     1       3.434  56.027  -7.652  1.00  0.00     0.034 C 
HETATM   32  C27 UNL     1       3.559  56.594  -9.075  1.00  0.00     0.022 C 
HETATM   33  C28 UNL     1       2.822  56.985  -6.652  1.00  0.00     0.119 A 
HETATM   34  C29 UNL     1       2.936  58.490  -6.616  1.00  0.00     0.210 A 
HETATM   35  O9  UNL     1       1.774  57.836  -7.146  1.00  0.00    -0.371 OA
ENDROOT
BRANCH  27  36
HETATM   36  C22 UNL     1       0.218  51.804 -13.616  1.00  0.00     0.146 C 
HETATM   37  C23 UNL     1      -1.261  51.653 -13.958  1.00  0.00     0.042 C 
BRANCH  36  38
HETATM   38  O7  UNL     1       0.686  52.968 -14.319  1.00  0.00    -0.393 OA
HETATM   39  H27 UNL     1       0.263  53.748 -13.919  1.00  0.00     0.210 HD
ENDBRANCH  36  38
ENDBRANCH  27  36
TORSDOF 2
ENDMDL
MODEL 5
REMARK minimizedAffinity -6.77475548
REMARK CNNscore 0.391759694
REMARK CNNaffinity 5.59134912
REMARK  2 active torsions:
REMARK  status: ('A' for Active; 'I' for Inactive)
REMARK    1  A    between atoms: C21_27  and  C22_28 
REMARK    2  A    between atoms: C22_28  and  O7_30 
ROOT
HETATM    1  C1  UNL     1       2.487  56.577  -2.580  1.00  0.00     0.043 C 
HETATM    2  C2  UNL     1       2.172  57.121  -3.949  1.00  0.00    -0.076 C 
HETATM    3  C3  UNL     1       1.508  56.358  -4.840  1.00  0.00     0.084 C 
HETATM    4  C4  UNL     1       1.184  56.741  -6.234  1.00  0.00     0.283 C 
HETATM    5  O1  UNL     1       1.306  57.847  -6.730  1.00  0.00    -0.260 OA
HETATM    6  O2  UNL     1       0.766  55.618  -6.875  1.00  0.00    -0.317 OA
HETATM    7  C5  UNL     1       0.442  55.760  -8.263  1.00  0.00     0.195 C 
HETATM    8  C6  UNL     1       0.937  54.556  -9.137  1.00  0.00     0.053 C 
HETATM    9  C7  UNL     1       0.468  53.202  -8.469  1.00  0.00     0.159 C 
HETATM   10  C8  UNL     1      -1.004  52.914  -8.616  1.00  0.00     0.011 C 
HETATM   11  C9  UNL     1      -1.724  53.362  -9.662  1.00  0.00    -0.054 C 
HETATM   12  C10 UNL     1      -3.185  53.039  -9.803  1.00  0.00     0.046 C 
HETATM   13  C11 UNL     1      -1.103  54.125 -10.759  1.00  0.00     0.180 A 
HETATM   14  O3  UNL     1       0.109  53.667 -11.382  1.00  0.00    -0.370 OA
HETATM   15  C12 UNL     1       0.241  54.777 -10.495  1.00  0.00     0.170 A 
HETATM   16  O4  UNL     1       1.142  52.029  -8.962  1.00  0.00    -0.372 OA
HETATM   17  C13 UNL     1       2.557  52.149  -9.129  1.00  0.00     0.162 C 
HETATM   18  C14 UNL     1       3.238  52.620  -7.840  1.00  0.00     0.068 C 
HETATM   19  C15 UNL     1       3.268  54.165  -7.954  1.00  0.00     0.147 C 
HETATM   20  O5  UNL     1       4.647  54.592  -8.007  1.00  0.00    -0.312 OA
HETATM   21  C16 UNL     1       5.283  54.721  -6.813  1.00  0.00     0.283 C 
HETATM   22  O6  UNL     1       4.782  54.562  -5.714  1.00  0.00    -0.260 OA
HETATM   23  C17 UNL     1       6.695  55.054  -7.111  1.00  0.00     0.082 C 
HETATM   24  C18 UNL     1       7.636  55.415  -6.228  1.00  0.00     0.006 C 
HETATM   25  C19 UNL     1       7.485  55.621  -4.808  1.00  0.00    -0.001 C 
HETATM   26  C20 UNL     1       6.921  56.688  -4.218  1.00  0.00     0.007 C 
HETATM   27  C21 UNL     1       6.287  57.887  -4.872  1.00  0.00     0.172 C 
HETATM   28  O8  UNL     1       5.043  58.068  -4.176  1.00  0.00    -0.379 OA
HETATM   29  C24 UNL     1       3.986  58.558  -5.002  1.00  0.00     0.173 C 
HETATM   30  C25 UNL     1       2.678  58.529  -4.207  1.00  0.00     0.060 C 
HETATM   31  C26 UNL     1       2.531  54.524  -9.309  1.00  0.00     0.034 C 
HETATM   32  C27 UNL     1       3.100  55.803  -9.943  1.00  0.00     0.022 C 
HETATM   33  C28 UNL     1       2.830  53.259 -10.084  1.00  0.00     0.119 A 
HETATM   34  C29 UNL     1       2.968  53.095 -11.578  1.00  0.00     0.210 A 
HETATM   35  O9  UNL     1       4.116  53.194 -10.723  1.00  0.00    -0.371 OA
ENDROOT
BRANCH  27  36
HETATM   36  C22 UNL     1       7.148  59.178  -4.752  1.00  0.00     0.146 C 
HETATM   37  C23 UNL     1       7.232  59.735  -3.334  1.00  0.00     0.042 C 
BRANCH  36  38
HETATM   38  O7  UNL     1       8.499  58.932  -5.178  1.00  0.00    -0.393 OA
HETATM   39  H27 UNL     1       8.850  58.196  -4.648  1.00  0.00     0.210 HD
ENDBRANCH  36  38
ENDBRANCH  27  36
TORSDOF 2
ENDMDL
MODEL 6
REMARK minimizedAffinity -7.50176191
REMARK CNNscore 0.383196443
REMARK CNNaffinity 5.33665085
REMARK  2 active torsions:
REMARK  status: ('A' for Active; 'I' for Inactive)
REMARK    1  A    between atoms: C21_27  and  C22_28 
REMARK    2  A    between atoms: C22_28  and  O7_30 
ROOT
HETATM    1  C1  UNL     1     -10.858  43.980 -23.644  1.00  0.00     0.043 C 
HETATM    2  C2  UNL     1     -11.839  45.017 -23.164  1.00  0.00    -0.076 C 
HETATM    3  C3  UNL     1     -12.945  44.638 -22.491  1.00  0.00     0.084 C 
HETATM    4  C4  UNL     1     -14.018  45.540 -22.014  1.00  0.00     0.283 C 
HETATM    5  O1  UNL     1     -13.989  46.758 -21.997  1.00  0.00    -0.260 OA
HETATM    6  O2  UNL     1     -15.065  44.759 -21.639  1.00  0.00    -0.317 OA
HETATM    7  C5  UNL     1     -16.238  45.444 -21.182  1.00  0.00     0.195 C 
HETATM    8  C6  UNL     1     -17.569  44.795 -21.700  1.00  0.00     0.053 C 
HETATM    9  C7  UNL     1     -17.537  43.241 -21.408  1.00  0.00     0.159 C 
HETATM   10  C8  UNL     1     -17.732  42.877 -19.959  1.00  0.00     0.011 C 
HETATM   11  C9  UNL     1     -18.447  43.643 -19.114  1.00  0.00    -0.054 C 
HETATM   12  C10 UNL     1     -18.652  43.246 -17.679  1.00  0.00     0.046 C 
HETATM   13  C11 UNL     1     -19.128  44.867 -19.569  1.00  0.00     0.180 A 
HETATM   14  O3  UNL     1     -19.939  44.863 -20.755  1.00  0.00    -0.370 OA
HETATM   15  C12 UNL     1     -18.665  45.495 -20.870  1.00  0.00     0.170 A 
HETATM   16  O4  UNL     1     -18.519  42.479 -22.133  1.00  0.00    -0.372 OA
HETATM   17  C13 UNL     1     -18.677  42.820 -23.513  1.00  0.00     0.162 C 
HETATM   18  C14 UNL     1     -17.341  42.769 -24.262  1.00  0.00     0.068 C 
HETATM   19  C15 UNL     1     -16.774  44.206 -24.150  1.00  0.00     0.147 C 
HETATM   20  O5  UNL     1     -16.694  44.771 -25.478  1.00  0.00    -0.312 OA
HETATM   21  C16 UNL     1     -15.591  44.449 -26.203  1.00  0.00     0.283 C 
HETATM   22  O6  UNL     1     -14.650  43.779 -25.817  1.00  0.00    -0.260 OA
HETATM   23  C17 UNL     1     -15.775  45.038 -27.550  1.00  0.00     0.082 C 
HETATM   24  C18 UNL     1     -14.863  45.092 -28.531  1.00  0.00     0.006 C 
HETATM   25  C19 UNL     1     -13.491  44.652 -28.489  1.00  0.00    -0.001 C 
HETATM   26  C20 UNL     1     -12.472  45.291 -27.890  1.00  0.00     0.007 C 
HETATM   27  C21 UNL     1     -12.511  46.573 -27.100  1.00  0.00     0.172 C 
HETATM   28  O8  UNL     1     -11.755  46.294 -25.912  1.00  0.00    -0.379 OA
HETATM   29  C24 UNL     1     -12.239  46.965 -24.749  1.00  0.00     0.173 C 
HETATM   30  C25 UNL     1     -11.481  46.448 -23.523  1.00  0.00     0.060 C 
HETATM   31  C26 UNL     1     -17.805  45.023 -23.268  1.00  0.00     0.034 C 
HETATM   32  C27 UNL     1     -17.844  46.506 -23.668  1.00  0.00     0.022 C 
HETATM   33  C28 UNL     1     -19.065  44.255 -23.605  1.00  0.00     0.119 A 
HETATM   34  C29 UNL     1     -20.486  44.763 -23.624  1.00  0.00     0.210 A 
HETATM   35  O9  UNL     1     -19.723  44.618 -24.830  1.00  0.00    -0.371 OA
ENDROOT
BRANCH  27  36
HETATM   36  C22 UNL     1     -11.879  47.778 -27.856  1.00  0.00     0.146 C 
HETATM   37  C23 UNL     1     -12.087  47.737 -29.366  1.00  0.00     0.042 C 
BRANCH  36  38
HETATM   38  O7  UNL     1     -12.439  49.020 -27.396  1.00  0.00    -0.393 OA
HETATM   39  H27 UNL     1     -13.404  48.972 -27.507  1.00  0.00     0.210 HD
ENDBRANCH  36  38
ENDBRANCH  27  36
TORSDOF 2
ENDMDL
MODEL 7
REMARK minimizedAffinity -7.32841015
REMARK CNNscore 0.37939322
REMARK CNNaffinity 5.86845636
REMARK  2 active torsions:
REMARK  status: ('A' for Active; 'I' for Inactive)
REMARK    1  A    between atoms: C21_27  and  C22_28 
REMARK    2  A    between atoms: C22_28  and  O7_30 
ROOT
HETATM    1  C1  UNL     1       6.418  55.218  -9.589  1.00  0.00     0.043 C 
HETATM    2  C2  UNL     1       5.706  54.020  -9.018  1.00  0.00    -0.076 C 
HETATM    3  C3  UNL     1       4.815  53.344  -9.771  1.00  0.00     0.084 C 
HETATM    4  C4  UNL     1       4.003  52.189  -9.322  1.00  0.00     0.283 C 
HETATM    5  O1  UNL     1       4.136  51.569  -8.282  1.00  0.00    -0.260 OA
HETATM    6  O2  UNL     1       3.049  51.975 -10.266  1.00  0.00    -0.317 OA
HETATM    7  C5  UNL     1       2.119  50.918 -10.001  1.00  0.00     0.195 C 
HETATM    8  C6  UNL     1       0.646  51.281 -10.403  1.00  0.00     0.053 C 
HETATM    9  C7  UNL     1       0.634  51.837 -11.883  1.00  0.00     0.159 C 
HETATM   10  C8  UNL     1       0.837  50.787 -12.944  1.00  0.00     0.011 C 
HETATM   11  C9  UNL     1       0.461  49.506 -12.770  1.00  0.00    -0.054 C 
HETATM   12  C10 UNL     1       0.648  48.480 -13.852  1.00  0.00     0.046 C 
HETATM   13  C11 UNL     1      -0.219  49.060 -11.541  1.00  0.00     0.180 A 
HETATM   14  O3  UNL     1      -1.336  49.791 -11.009  1.00  0.00    -0.370 OA
HETATM   15  C12 UNL     1      -0.102  49.935 -10.308  1.00  0.00     0.170 A 
HETATM   16  O4  UNL     1      -0.575  52.527 -12.249  1.00  0.00    -0.372 OA
HETATM   17  C13 UNL     1      -1.097  53.431 -11.271  1.00  0.00     0.162 C 
HETATM   18  C14 UNL     1      -0.044  54.453 -10.830  1.00  0.00     0.068 C 
HETATM   19  C15 UNL     1       0.648  53.800  -9.607  1.00  0.00     0.147 C 
HETATM   20  O5  UNL     1       0.386  54.618  -8.444  1.00  0.00    -0.312 OA
HETATM   21  C16 UNL     1       1.202  55.690  -8.267  1.00  0.00     0.283 C 
HETATM   22  O6  UNL     1       2.156  55.987  -8.964  1.00  0.00    -0.260 OA
HETATM   23  C17 UNL     1       0.686  56.434  -7.095  1.00  0.00     0.082 C 
HETATM   24  C18 UNL     1       1.276  57.468  -6.481  1.00  0.00     0.006 C 
HETATM   25  C19 UNL     1       2.561  58.055  -6.771  1.00  0.00    -0.001 C 
HETATM   26  C20 UNL     1       3.758  57.541  -6.444  1.00  0.00     0.007 C 
HETATM   27  C21 UNL     1       4.054  56.240  -5.745  1.00  0.00     0.172 C 
HETATM   28  O8  UNL     1       5.097  55.634  -6.525  1.00  0.00    -0.379 OA
HETATM   29  C24 UNL     1       5.026  54.209  -6.575  1.00  0.00     0.173 C 
HETATM   30  C25 UNL     1       6.061  53.693  -7.578  1.00  0.00     0.060 C 
HETATM   31  C26 UNL     1      -0.014  52.372  -9.432  1.00  0.00     0.034 C 
HETATM   32  C27 UNL     1      -0.045  51.937  -7.959  1.00  0.00     0.022 C 
HETATM   33  C28 UNL     1      -1.376  52.668 -10.023  1.00  0.00     0.119 A 
HETATM   34  C29 UNL     1      -2.695  52.016  -9.689  1.00  0.00     0.210 A 
HETATM   35  O9  UNL     1      -2.328  53.290  -9.143  1.00  0.00    -0.371 OA
ENDROOT
BRANCH  27  36
HETATM   36  C22 UNL     1       4.538  56.429  -4.277  1.00  0.00     0.146 C 
HETATM   37  C23 UNL     1       5.436  57.645  -4.075  1.00  0.00     0.042 C 
BRANCH  36  38
HETATM   38  O7  UNL     1       3.420  56.591  -3.388  1.00  0.00    -0.393 OA
HETATM   39  H27 UNL     1       2.889  57.341  -3.708  1.00  0.00     0.210 HD
ENDBRANCH  36  38
ENDBRANCH  27  36
TORSDOF 2
ENDMDL
MODEL 8
REMARK minimizedAffinity -6.60022783
REMARK CNNscore 0.303462029
REMARK CNNaffinity 5.26823282
REMARK  2 active torsions:
REMARK  status: ('A' for Active; 'I' for Inactive)
REMARK    1  A    between atoms: C21_27  and  C22_28 
REMARK    2  A    between atoms: C22_28  and  O7_30 
ROOT
HETATM    1  C1  UNL     1     -19.597  45.605 -25.498  1.00  0.00     0.043 C 
HETATM    2  C2  UNL     1     -18.962  44.275 -25.183  1.00  0.00    -0.076 C 
HETATM    3  C3  UNL     1     -19.736  43.190 -24.982  1.00  0.00     0.084 C 
HETATM    4  C4  UNL     1     -19.252  41.840 -24.609  1.00  0.00     0.283 C 
HETATM    5  O1  UNL     1     -18.094  41.461 -24.600  1.00  0.00    -0.260 OA
HETATM    6  O2  UNL     1     -20.336  41.111 -24.236  1.00  0.00    -0.317 OA
HETATM    7  C5  UNL     1     -20.081  39.774 -23.791  1.00  0.00     0.195 C 
HETATM    8  C6  UNL     1     -20.950  39.362 -22.552  1.00  0.00     0.053 C 
HETATM    9  C7  UNL     1     -22.467  39.698 -22.847  1.00  0.00     0.159 C 
HETATM   10  C8  UNL     1     -23.130  38.766 -23.828  1.00  0.00     0.011 C 
HETATM   11  C9  UNL     1     -22.749  37.482 -23.972  1.00  0.00    -0.054 C 
HETATM   12  C10 UNL     1     -23.443  36.562 -24.937  1.00  0.00     0.046 C 
HETATM   13  C11 UNL     1     -21.685  36.894 -23.141  1.00  0.00     0.180 A 
HETATM   14  O3  UNL     1     -21.684  37.065 -21.714  1.00  0.00    -0.370 OA
HETATM   15  C12 UNL     1     -20.729  37.839 -22.439  1.00  0.00     0.170 A 
HETATM   16  O4  UNL     1     -23.314  39.700 -21.684  1.00  0.00    -0.372 OA
HETATM   17  C13 UNL     1     -22.778  40.346 -20.525  1.00  0.00     0.162 C 
HETATM   18  C14 UNL     1     -22.336  41.780 -20.834  1.00  0.00     0.068 C 
HETATM   19  C15 UNL     1     -20.847  41.653 -21.240  1.00  0.00     0.147 C 
HETATM   20  O5  UNL     1     -20.047  42.364 -20.269  1.00  0.00    -0.312 OA
HETATM   21  C16 UNL     1     -19.927  43.705 -20.453  1.00  0.00     0.283 C 
HETATM   22  O6  UNL     1     -20.386  44.343 -21.383  1.00  0.00    -0.260 OA
HETATM   23  C17 UNL     1     -19.170  44.232 -19.295  1.00  0.00     0.082 C 
HETATM   24  C18 UNL     1     -18.699  45.478 -19.147  1.00  0.00     0.006 C 
HETATM   25  C19 UNL     1     -18.761  46.566 -20.091  1.00  0.00    -0.001 C 
HETATM   26  C20 UNL     1     -17.998  46.708 -21.188  1.00  0.00     0.007 C 
HETATM   27  C21 UNL     1     -16.940  45.775 -21.714  1.00  0.00     0.172 C 
HETATM   28  O8  UNL     1     -17.224  45.654 -23.117  1.00  0.00    -0.379 OA
HETATM   29  C24 UNL     1     -16.930  44.365 -23.657  1.00  0.00     0.173 C 
HETATM   30  C25 UNL     1     -17.446  44.298 -25.097  1.00  0.00     0.060 C 
HETATM   31  C26 UNL     1     -20.507  40.107 -21.204  1.00  0.00     0.034 C 
HETATM   32  C27 UNL     1     -19.039  39.857 -20.825  1.00  0.00     0.022 C 
HETATM   33  C28 UNL     1     -21.505  39.670 -20.152  1.00  0.00     0.119 A 
HETATM   34  C29 UNL     1     -21.394  38.512 -19.191  1.00  0.00     0.210 A 
HETATM   35  O9  UNL     1     -21.108  39.857 -18.783  1.00  0.00    -0.371 OA
ENDROOT
BRANCH  27  36
HETATM   36  C22 UNL     1     -15.493  46.313 -21.515  1.00  0.00     0.146 C 
HETATM   37  C23 UNL     1     -15.065  47.334 -22.564  1.00  0.00     0.042 C 
BRANCH  36  38
HETATM   38  O7  UNL     1     -15.360  46.956 -20.236  1.00  0.00    -0.393 OA
HETATM   39  H27 UNL     1     -16.032  47.657 -20.182  1.00  0.00     0.210 HD
ENDBRANCH  36  38
ENDBRANCH  27  36
TORSDOF 2
ENDMDL
MODEL 9
REMARK minimizedAffinity -6.76658297
REMARK CNNscore 0.276846498
REMARK CNNaffinity 5.10416317
REMARK  2 active torsions:
REMARK  status: ('A' for Active; 'I' for Inactive)
REMARK    1  A    between atoms: C21_27  and  C22_28 
REMARK    2  A    between atoms: C22_28  and  O7_30 
ROOT
HETATM    1  C1  UNL     1     -15.064  49.180 -18.773  1.00  0.00     0.043 C 
HETATM    2  C2  UNL     1     -14.291  47.888 -18.825  1.00  0.00    -0.076 C 
HETATM    3  C3  UNL     1     -13.208  47.783 -19.621  1.00  0.00     0.084 C 
HETATM    4  C4  UNL     1     -12.392  46.561 -19.814  1.00  0.00     0.283 C 
HETATM    5  O1  UNL     1     -12.461  45.532 -19.166  1.00  0.00    -0.260 OA
HETATM    6  O2  UNL     1     -11.579  46.783 -20.880  1.00  0.00    -0.317 OA
HETATM    7  C5  UNL     1     -10.729  45.697 -21.269  1.00  0.00     0.195 C 
HETATM    8  C6  UNL     1     -10.624  45.525 -22.824  1.00  0.00     0.053 C 
HETATM    9  C7  UNL     1     -10.278  46.922 -23.479  1.00  0.00     0.159 C 
HETATM   10  C8  UNL     1      -8.855  47.371 -23.270  1.00  0.00     0.011 C 
HETATM   11  C9  UNL     1      -7.840  46.499 -23.116  1.00  0.00    -0.054 C 
HETATM   12  C10 UNL     1      -6.424  46.968 -22.936  1.00  0.00     0.046 C 
HETATM   13  C11 UNL     1      -8.054  45.043 -23.193  1.00  0.00     0.180 A 
HETATM   14  O3  UNL     1      -8.808  44.464 -24.270  1.00  0.00    -0.370 OA
HETATM   15  C12 UNL     1      -9.466  44.523 -23.005  1.00  0.00     0.170 A 
HETATM   16  O4  UNL     1     -10.497  46.984 -24.900  1.00  0.00    -0.372 OA
HETATM   17  C13 UNL     1     -11.713  46.395 -25.369  1.00  0.00     0.162 C 
HETATM   18  C14 UNL     1     -12.933  46.969 -24.642  1.00  0.00     0.068 C 
HETATM   19  C15 UNL     1     -13.147  46.028 -23.430  1.00  0.00     0.147 C 
HETATM   20  O5  UNL     1     -14.425  45.370 -23.582  1.00  0.00    -0.312 OA
HETATM   21  C16 UNL     1     -15.513  46.068 -23.164  1.00  0.00     0.283 C 
HETATM   22  O6  UNL     1     -15.501  47.163 -22.631  1.00  0.00    -0.260 OA
HETATM   23  C17 UNL     1     -16.703  45.259 -23.515  1.00  0.00     0.082 C 
HETATM   24  C18 UNL     1     -17.970  45.500 -23.151  1.00  0.00     0.006 C 
HETATM   25  C19 UNL     1     -18.461  46.552 -22.295  1.00  0.00    -0.001 C 
HETATM   26  C20 UNL     1     -18.365  46.593 -20.956  1.00  0.00     0.007 C 
HETATM   27  C21 UNL     1     -17.705  45.599 -20.038  1.00  0.00     0.172 C 
HETATM   28  O8  UNL     1     -16.910  46.395 -19.146  1.00  0.00    -0.379 OA
HETATM   29  C24 UNL     1     -15.693  45.768 -18.742  1.00  0.00     0.173 C 
HETATM   30  C25 UNL     1     -14.850  46.776 -17.955  1.00  0.00     0.060 C 
HETATM   31  C26 UNL     1     -11.974  44.965 -23.482  1.00  0.00     0.034 C 
HETATM   32  C27 UNL     1     -12.413  43.608 -22.909  1.00  0.00     0.022 C 
HETATM   33  C28 UNL     1     -11.726  44.958 -24.975  1.00  0.00     0.119 A 
HETATM   34  C29 UNL     1     -11.199  43.827 -25.825  1.00  0.00     0.210 A 
HETATM   35  O9  UNL     1     -12.600  44.131 -25.762  1.00  0.00    -0.371 OA
ENDROOT
BRANCH  27  36
HETATM   36  C22 UNL     1     -18.723  44.751 -19.220  1.00  0.00     0.146 C 
HETATM   37  C23 UNL     1     -19.773  45.582 -18.490  1.00  0.00     0.042 C 
BRANCH  36  38
HETATM   38  O7  UNL     1     -19.438  43.845 -20.078  1.00  0.00    -0.393 OA
HETATM   39  H27 UNL     1     -19.863  44.369 -20.778  1.00  0.00     0.210 HD
ENDBRANCH  36  38
ENDBRANCH  27  36
TORSDOF 2
ENDMDL
