MODEL 1
REMARK minimizedAffinity -7.35502243
REMARK CNNscore 0.814656615
REMARK CNNaffinity 7.04846191
REMARK  12 active torsions:
REMARK  status: ('A' for Active; 'I' for Inactive)
REMARK    1  A    between atoms: O1_2  and  C2_3 
REMARK    2  A    between atoms: C3_5  and  C4_6 
REMARK    3  A    between atoms: C4_6  and  O3_7 
REMARK    4  A    between atoms: C4_6  and  C5_8 
REMARK    5  A    between atoms: C5_8  and  O4_10 
REMARK    6  A    between atoms: C5_8  and  C7_11 
REMARK    7  A    between atoms: C7_11  and  O5_12 
REMARK    8  A    between atoms: C9_14  and  C10_15 
REMARK    9  A    between atoms: C23_28  and  O6_29 
REMARK   10  A    between atoms: O6_29  and  C24_30 
REMARK   11  A    between atoms: C24_30  and  C25_32 
REMARK   12  A    between atoms: C34_41  and  O8_42 
ROOT
HETATM    1  C10 UNL     1      -0.890  52.158 -12.087  1.00  0.00     0.004 C 
HETATM    2  C11 UNL     1       0.077  51.056 -12.583  1.00  0.00     0.007 C 
HETATM    3  C12 UNL     1       0.978  50.701 -11.396  1.00  0.00     0.011 C 
HETATM    4  C13 UNL     1       1.050  51.988 -10.592  1.00  0.00    -0.021 A 
HETATM    5  C14 UNL     1      -0.028  52.111  -9.547  1.00  0.00     0.022 A 
HETATM    6  C15 UNL     1      -0.195  52.803 -10.889  1.00  0.00    -0.027 A 
HETATM    7  C16 UNL     1      -0.217  54.314 -10.812  1.00  0.00     0.011 C 
HETATM    8  C17 UNL     1       1.168  54.964 -10.829  1.00  0.00     0.007 C 
HETATM    9  C18 UNL     1       2.179  54.209  -9.935  1.00  0.00     0.005 C 
HETATM   10  C19 UNL     1       3.486  55.035  -9.548  1.00  0.00    -0.035 C 
HETATM   11  C20 UNL     1       4.240  55.546 -10.800  1.00  0.00     0.016 C 
HETATM   12  C21 UNL     1       3.063  56.285  -8.714  1.00  0.00     0.012 C 
HETATM   13  C22 UNL     1       4.221  57.010  -8.032  1.00  0.00     0.034 C 
HETATM   14  C23 UNL     1       5.061  56.082  -7.152  1.00  0.00     0.140 C 
HETATM   15  C29 UNL     1       5.588  54.825  -7.913  1.00  0.00    -0.016 C 
HETATM   16  C30 UNL     1       6.204  53.877  -6.845  1.00  0.00     0.018 C 
HETATM   17  C31 UNL     1       6.741  55.185  -8.875  1.00  0.00     0.018 C 
HETATM   18  C32 UNL     1       4.362  54.122  -8.608  1.00  0.00     0.007 C 
HETATM   19  C33 UNL     1       4.676  52.760  -9.271  1.00  0.00     0.038 C 
HETATM   20  C34 UNL     1       3.393  51.970  -9.577  1.00  0.00     0.128 C 
HETATM   21  C35 UNL     1       2.415  52.748 -10.504  1.00  0.00    -0.005 C 
HETATM   22  C36 UNL     1       3.026  52.784 -11.936  1.00  0.00     0.019 C 
ENDROOT
BRANCH   1  23
HETATM   23  C9  UNL     1      -2.353  51.726 -11.895  1.00  0.00     0.048 C 
HETATM   24  C2  UNL     1      -2.927  50.616 -12.778  1.00  0.00     0.264 C 
HETATM   25  O2  UNL     1      -3.969  49.972 -12.014  1.00  0.00    -0.353 OA
HETATM   26  C3  UNL     1      -4.102  50.669 -10.753  1.00  0.00     0.157 C 
HETATM   27  C8  UNL     1      -2.718  51.248 -10.503  1.00  0.00     0.044 C 
BRANCH  24  28
HETATM   28  O1  UNL     1      -3.465  51.187 -13.965  1.00  0.00    -0.366 OA
HETATM   29  C1  UNL     1      -2.736  50.799 -15.121  1.00  0.00     0.204 C 
ENDBRANCH  24  28
BRANCH  26  30
HETATM   30  C4  UNL     1      -4.553  49.678  -9.663  1.00  0.00     0.183 C 
BRANCH  30  31
HETATM   31  O3  UNL     1      -3.502  48.727  -9.434  1.00  0.00    -0.390 OA
HETATM   32  H7  UNL     1      -3.079  48.592 -10.304  1.00  0.00     0.210 HD
ENDBRANCH  30  31
BRANCH  30  33
HETATM   33  C5  UNL     1      -5.889  48.957  -9.986  1.00  0.00     0.103 C 
HETATM   34  C6  UNL     1      -7.075  49.892  -9.696  1.00  0.00     0.051 C 
BRANCH  33  35
HETATM   35  O4  UNL     1      -5.926  48.666 -11.398  1.00  0.00    -0.385 OA
HETATM   36  H11 UNL     1      -6.701  48.077 -11.509  1.00  0.00     0.210 HD
ENDBRANCH  33  35
BRANCH  33  37
HETATM   37  C7  UNL     1      -6.063  47.621  -9.238  1.00  0.00     0.204 C 
BRANCH  37  38
HETATM   38  O5  UNL     1      -6.030  47.866  -7.825  1.00  0.00    -0.398 OA
HETATM   39  H14 UNL     1      -6.320  47.040  -7.392  1.00  0.00     0.209 HD
ENDBRANCH  37  38
ENDBRANCH  33  37
ENDBRANCH  30  33
ENDBRANCH  26  30
ENDBRANCH   1  23
BRANCH  20  40
HETATM   40  O8  UNL     1       2.762  51.663  -8.329  1.00  0.00    -0.395 OA
HETATM   41  H55 UNL     1       3.374  51.107  -7.819  1.00  0.00     0.210 HD
ENDBRANCH  20  40
BRANCH  14  42
HETATM   42  O6  UNL     1       6.184  56.825  -6.633  1.00  0.00    -0.312 OA
BRANCH  42  43
HETATM   43  C24 UNL     1       6.005  57.441  -5.442  1.00  0.00     0.283 C 
HETATM   44  O7  UNL     1       5.113  57.224  -4.637  1.00  0.00    -0.260 OA
BRANCH  43  45
HETATM   45  C25 UNL     1       7.105  58.388  -5.157  1.00  0.00     0.084 C 
HETATM   46  C26 UNL     1       7.060  59.539  -4.458  1.00  0.00    -0.082 C 
HETATM   47  C27 UNL     1       5.855  60.088  -3.742  1.00  0.00     0.043 C 
HETATM   48  C28 UNL     1       8.299  60.386  -4.317  1.00  0.00     0.043 C 
ENDBRANCH  43  45
ENDBRANCH  42  43
ENDBRANCH  14  42
TORSDOF 12
ENDMDL
MODEL 2
REMARK minimizedAffinity -7.63663721
REMARK CNNscore 0.757738948
REMARK CNNaffinity 7.00947189
REMARK  12 active torsions:
REMARK  status: ('A' for Active; 'I' for Inactive)
REMARK    1  A    between atoms: O1_2  and  C2_3 
REMARK    2  A    between atoms: C3_5  and  C4_6 
REMARK    3  A    between atoms: C4_6  and  O3_7 
REMARK    4  A    between atoms: C4_6  and  C5_8 
REMARK    5  A    between atoms: C5_8  and  O4_10 
REMARK    6  A    between atoms: C5_8  and  C7_11 
REMARK    7  A    between atoms: C7_11  and  O5_12 
REMARK    8  A    between atoms: C9_14  and  C10_15 
REMARK    9  A    between atoms: C23_28  and  O6_29 
REMARK   10  A    between atoms: O6_29  and  C24_30 
REMARK   11  A    between atoms: C24_30  and  C25_32 
REMARK   12  A    between atoms: C34_41  and  O8_42 
ROOT
HETATM    1  C10 UNL     1       7.174  57.196  -5.932  1.00  0.00     0.004 C 
HETATM    2  C11 UNL     1       6.083  58.141  -5.376  1.00  0.00     0.007 C 
HETATM    3  C12 UNL     1       4.833  57.282  -5.156  1.00  0.00     0.011 C 
HETATM    4  C13 UNL     1       4.951  56.188  -6.203  1.00  0.00    -0.021 A 
HETATM    5  C14 UNL     1       5.694  54.968  -5.724  1.00  0.00     0.022 A 
HETATM    6  C15 UNL     1       6.420  56.017  -6.547  1.00  0.00    -0.027 A 
HETATM    7  C16 UNL     1       6.888  55.532  -7.902  1.00  0.00     0.011 C 
HETATM    8  C17 UNL     1       5.830  55.629  -9.004  1.00  0.00     0.007 C 
HETATM    9  C18 UNL     1       4.434  55.175  -8.515  1.00  0.00     0.005 C 
HETATM   10  C19 UNL     1       3.394  54.828  -9.672  1.00  0.00    -0.035 C 
HETATM   11  C20 UNL     1       3.199  56.011 -10.650  1.00  0.00     0.016 C 
HETATM   12  C21 UNL     1       3.945  53.624 -10.499  1.00  0.00     0.012 C 
HETATM   13  C22 UNL     1       2.930  52.997 -11.453  1.00  0.00     0.034 C 
HETATM   14  C23 UNL     1       1.642  52.572 -10.747  1.00  0.00     0.140 C 
HETATM   15  C29 UNL     1       0.974  53.728  -9.938  1.00  0.00    -0.016 C 
HETATM   16  C30 UNL     1      -0.167  53.089  -9.097  1.00  0.00     0.018 C 
HETATM   17  C31 UNL     1       0.291  54.753 -10.869  1.00  0.00     0.018 C 
HETATM   18  C32 UNL     1       2.060  54.348  -8.982  1.00  0.00     0.007 C 
HETATM   19  C33 UNL     1       1.529  55.401  -7.981  1.00  0.00     0.038 C 
HETATM   20  C34 UNL     1       2.537  55.667  -6.850  1.00  0.00     0.128 C 
HETATM   21  C35 UNL     1       3.918  56.152  -7.377  1.00  0.00    -0.005 C 
HETATM   22  C36 UNL     1       3.754  57.608  -7.905  1.00  0.00     0.019 C 
ENDROOT
BRANCH   1  23
HETATM   23  C9  UNL     1       8.324  56.860  -4.968  1.00  0.00     0.048 C 
HETATM   24  C2  UNL     1       8.035  56.010  -3.729  1.00  0.00     0.264 C 
HETATM   25  O2  UNL     1       9.258  55.314  -3.408  1.00  0.00    -0.353 OA
HETATM   26  C3  UNL     1      10.281  55.743  -4.337  1.00  0.00     0.157 C 
HETATM   27  C8  UNL     1       9.506  56.138  -5.583  1.00  0.00     0.044 C 
BRANCH  24  28
HETATM   28  O1  UNL     1       7.651  56.857  -2.652  1.00  0.00    -0.366 OA
HETATM   29  C1  UNL     1       8.493  57.997  -2.546  1.00  0.00     0.204 C 
ENDBRANCH  24  28
BRANCH  26  30
HETATM   30  C4  UNL     1      11.275  54.591  -4.577  1.00  0.00     0.183 C 
BRANCH  30  31
HETATM   31  O3  UNL     1      11.142  53.633  -3.514  1.00  0.00    -0.390 OA
HETATM   32  H7  UNL     1      10.929  54.157  -2.717  1.00  0.00     0.210 HD
ENDBRANCH  30  31
BRANCH  30  33
HETATM   33  C5  UNL     1      12.749  55.055  -4.720  1.00  0.00     0.103 C 
HETATM   34  C6  UNL     1      13.404  54.358  -5.925  1.00  0.00     0.051 C 
BRANCH  33  35
HETATM   35  O4  UNL     1      12.762  56.470  -5.001  1.00  0.00    -0.385 OA
HETATM   36  H11 UNL     1      13.703  56.730  -4.918  1.00  0.00     0.210 HD
ENDBRANCH  33  35
BRANCH  33  37
HETATM   37  C7  UNL     1      13.590  54.833  -3.448  1.00  0.00     0.204 C 
BRANCH  37  38
HETATM   38  O5  UNL     1      14.256  56.056  -3.106  1.00  0.00    -0.398 OA
HETATM   39  H14 UNL     1      14.626  55.931  -2.211  1.00  0.00     0.209 HD
ENDBRANCH  37  38
ENDBRANCH  33  37
ENDBRANCH  30  33
ENDBRANCH  26  30
ENDBRANCH   1  23
BRANCH  20  40
HETATM   40  O8  UNL     1       2.684  54.454  -6.103  1.00  0.00    -0.395 OA
HETATM   41  H55 UNL     1       1.816  54.235  -5.724  1.00  0.00     0.210 HD
ENDBRANCH  20  40
BRANCH  14  42
HETATM   42  O6  UNL     1       0.708  52.088 -11.736  1.00  0.00    -0.312 OA
BRANCH  42  43
HETATM   43  C24 UNL     1       1.052  50.955 -12.392  1.00  0.00     0.283 C 
HETATM   44  O7  UNL     1       1.442  49.913 -11.889  1.00  0.00    -0.260 OA
BRANCH  43  45
HETATM   45  C25 UNL     1       0.812  51.084 -13.846  1.00  0.00     0.084 C 
HETATM   46  C26 UNL     1       1.711  51.297 -14.828  1.00  0.00    -0.082 C 
HETATM   47  C27 UNL     1       3.202  51.389 -14.652  1.00  0.00     0.043 C 
HETATM   48  C28 UNL     1       1.248  51.437 -16.256  1.00  0.00     0.043 C 
ENDBRANCH  43  45
ENDBRANCH  42  43
ENDBRANCH  14  42
TORSDOF 12
ENDMDL
MODEL 3
REMARK minimizedAffinity -7.88504553
REMARK CNNscore 0.626042664
REMARK CNNaffinity 7.16034174
REMARK  12 active torsions:
REMARK  status: ('A' for Active; 'I' for Inactive)
REMARK    1  A    between atoms: O1_2  and  C2_3 
REMARK    2  A    between atoms: C3_5  and  C4_6 
REMARK    3  A    between atoms: C4_6  and  O3_7 
REMARK    4  A    between atoms: C4_6  and  C5_8 
REMARK    5  A    between atoms: C5_8  and  O4_10 
REMARK    6  A    between atoms: C5_8  and  C7_11 
REMARK    7  A    between atoms: C7_11  and  O5_12 
REMARK    8  A    between atoms: C9_14  and  C10_15 
REMARK    9  A    between atoms: C23_28  and  O6_29 
REMARK   10  A    between atoms: O6_29  and  C24_30 
REMARK   11  A    between atoms: C24_30  and  C25_32 
REMARK   12  A    between atoms: C34_41  and  O8_42 
ROOT
HETATM    1  C10 UNL     1      -3.430  51.831  -9.966  1.00  0.00     0.004 C 
HETATM    2  C11 UNL     1      -3.573  52.807 -11.159  1.00  0.00     0.007 C 
HETATM    3  C12 UNL     1      -2.180  52.943 -11.781  1.00  0.00     0.011 C 
HETATM    4  C13 UNL     1      -1.234  52.719 -10.613  1.00  0.00    -0.021 A 
HETATM    5  C14 UNL     1      -0.844  51.276 -10.417  1.00  0.00     0.022 A 
HETATM    6  C15 UNL     1      -1.954  51.880  -9.574  1.00  0.00    -0.027 A 
HETATM    7  C16 UNL     1      -1.637  51.965  -8.096  1.00  0.00     0.011 C 
HETATM    8  C17 UNL     1      -0.863  53.222  -7.692  1.00  0.00     0.007 C 
HETATM    9  C18 UNL     1       0.264  53.563  -8.694  1.00  0.00     0.005 C 
HETATM   10  C19 UNL     1       1.376  54.564  -8.145  1.00  0.00    -0.035 C 
HETATM   11  C20 UNL     1       0.761  55.893  -7.644  1.00  0.00     0.016 C 
HETATM   12  C21 UNL     1       2.099  53.896  -6.933  1.00  0.00     0.012 C 
HETATM   13  C22 UNL     1       3.374  54.611  -6.489  1.00  0.00     0.034 C 
HETATM   14  C23 UNL     1       4.375  54.796  -7.630  1.00  0.00     0.140 C 
HETATM   15  C29 UNL     1       3.764  55.514  -8.873  1.00  0.00    -0.016 C 
HETATM   16  C30 UNL     1       4.813  55.410 -10.015  1.00  0.00     0.018 C 
HETATM   17  C31 UNL     1       3.565  57.024  -8.617  1.00  0.00     0.018 C 
HETATM   18  C32 UNL     1       2.449  54.751  -9.285  1.00  0.00     0.007 C 
HETATM   19  C33 UNL     1       1.799  55.227 -10.605  1.00  0.00     0.038 C 
HETATM   20  C34 UNL     1       0.774  54.209 -11.131  1.00  0.00     0.128 C 
HETATM   21  C35 UNL     1      -0.361  53.915 -10.108  1.00  0.00    -0.005 C 
HETATM   22  C36 UNL     1      -1.282  55.169 -10.030  1.00  0.00     0.019 C 
ENDROOT
BRANCH   1  23
HETATM   23  C9  UNL     1      -4.054  50.440 -10.162  1.00  0.00     0.048 C 
HETATM   24  C2  UNL     1      -4.012  49.434  -9.009  1.00  0.00     0.264 C 
HETATM   25  O2  UNL     1      -5.156  48.569  -9.170  1.00  0.00    -0.353 OA
HETATM   26  C3  UNL     1      -5.845  48.950 -10.384  1.00  0.00     0.157 C 
HETATM   27  C8  UNL     1      -5.520  50.427 -10.545  1.00  0.00     0.044 C 
BRANCH  24  28
HETATM   28  O1  UNL     1      -2.808  48.680  -9.082  1.00  0.00    -0.366 OA
HETATM   29  C1  UNL     1      -2.628  48.086 -10.361  1.00  0.00     0.204 C 
ENDBRANCH  24  28
BRANCH  26  30
HETATM   30  C4  UNL     1      -7.352  48.671 -10.231  1.00  0.00     0.183 C 
BRANCH  30  31
HETATM   31  O3  UNL     1      -8.087  49.815 -10.695  1.00  0.00    -0.390 OA
HETATM   32  H7  UNL     1      -7.538  50.589 -10.460  1.00  0.00     0.210 HD
ENDBRANCH  30  31
BRANCH  30  33
HETATM   33  C5  UNL     1      -7.776  48.292  -8.787  1.00  0.00     0.103 C 
HETATM   34  C6  UNL     1      -8.349  46.865  -8.764  1.00  0.00     0.051 C 
BRANCH  33  35
HETATM   35  O4  UNL     1      -6.601  48.281  -7.950  1.00  0.00    -0.385 OA
HETATM   36  H11 UNL     1      -6.948  48.199  -7.037  1.00  0.00     0.210 HD
ENDBRANCH  33  35
BRANCH  33  37
HETATM   37  C7  UNL     1      -8.775  49.283  -8.159  1.00  0.00     0.204 C 
BRANCH  37  38
HETATM   38  O5  UNL     1      -8.365  49.577  -6.816  1.00  0.00    -0.398 OA
HETATM   39  H14 UNL     1      -8.907  50.332  -6.518  1.00  0.00     0.209 HD
ENDBRANCH  37  38
ENDBRANCH  33  37
ENDBRANCH  30  33
ENDBRANCH  26  30
ENDBRANCH   1  23
BRANCH  20  40
HETATM   40  O8  UNL     1       1.481  53.005 -11.453  1.00  0.00    -0.395 OA
HETATM   41  H55 UNL     1       2.120  53.219 -12.153  1.00  0.00     0.210 HD
ENDBRANCH  20  40
BRANCH  14  42
HETATM   42  O6  UNL     1       5.497  55.565  -7.145  1.00  0.00    -0.312 OA
BRANCH  42  43
HETATM   43  C24 UNL     1       6.643  54.885  -6.912  1.00  0.00     0.283 C 
HETATM   44  O7  UNL     1       6.819  53.685  -7.054  1.00  0.00    -0.260 OA
BRANCH  43  45
HETATM   45  C25 UNL     1       7.742  55.800  -6.535  1.00  0.00     0.084 C 
HETATM   46  C26 UNL     1       8.553  55.738  -5.460  1.00  0.00    -0.082 C 
HETATM   47  C27 UNL     1       8.551  54.653  -4.418  1.00  0.00     0.043 C 
HETATM   48  C28 UNL     1       9.595  56.804  -5.239  1.00  0.00     0.043 C 
ENDBRANCH  43  45
ENDBRANCH  42  43
ENDBRANCH  14  42
TORSDOF 12
ENDMDL
MODEL 4
REMARK minimizedAffinity -7.67333937
REMARK CNNscore 0.609854043
REMARK CNNaffinity 7.07808828
REMARK  12 active torsions:
REMARK  status: ('A' for Active; 'I' for Inactive)
REMARK    1  A    between atoms: O1_2  and  C2_3 
REMARK    2  A    between atoms: C3_5  and  C4_6 
REMARK    3  A    between atoms: C4_6  and  O3_7 
REMARK    4  A    between atoms: C4_6  and  C5_8 
REMARK    5  A    between atoms: C5_8  and  O4_10 
REMARK    6  A    between atoms: C5_8  and  C7_11 
REMARK    7  A    between atoms: C7_11  and  O5_12 
REMARK    8  A    between atoms: C9_14  and  C10_15 
REMARK    9  A    between atoms: C23_28  and  O6_29 
REMARK   10  A    between atoms: O6_29  and  C24_30 
REMARK   11  A    between atoms: C24_30  and  C25_32 
REMARK   12  A    between atoms: C34_41  and  O8_42 
ROOT
HETATM    1  C10 UNL     1      -3.602  51.651  -9.939  1.00  0.00     0.004 C 
HETATM    2  C11 UNL     1      -3.892  52.717 -11.022  1.00  0.00     0.007 C 
HETATM    3  C12 UNL     1      -2.579  52.943 -11.776  1.00  0.00     0.011 C 
HETATM    4  C13 UNL     1      -1.506  52.649 -10.741  1.00  0.00    -0.021 A 
HETATM    5  C14 UNL     1      -1.071  51.206 -10.712  1.00  0.00     0.022 A 
HETATM    6  C15 UNL     1      -2.092  51.707  -9.705  1.00  0.00    -0.027 A 
HETATM    7  C16 UNL     1      -1.617  51.678  -8.269  1.00  0.00     0.011 C 
HETATM    8  C17 UNL     1      -0.827  52.918  -7.844  1.00  0.00     0.007 C 
HETATM    9  C18 UNL     1       0.177  53.372  -8.929  1.00  0.00     0.005 C 
HETATM   10  C19 UNL     1       1.324  54.354  -8.420  1.00  0.00    -0.035 C 
HETATM   11  C20 UNL     1       0.744  55.619  -7.743  1.00  0.00     0.016 C 
HETATM   12  C21 UNL     1       2.188  53.609  -7.354  1.00  0.00     0.012 C 
HETATM   13  C22 UNL     1       3.491  54.319  -6.990  1.00  0.00     0.034 C 
HETATM   14  C23 UNL     1       4.357  54.625  -8.213  1.00  0.00     0.140 C 
HETATM   15  C29 UNL     1       3.600  55.427  -9.317  1.00  0.00    -0.016 C 
HETATM   16  C30 UNL     1       4.520  55.447 -10.570  1.00  0.00     0.018 C 
HETATM   17  C31 UNL     1       3.403  56.904  -8.913  1.00  0.00     0.018 C 
HETATM   18  C32 UNL     1       2.263  54.664  -9.648  1.00  0.00     0.007 C 
HETATM   19  C33 UNL     1       1.463  55.230 -10.845  1.00  0.00     0.038 C 
HETATM   20  C34 UNL     1       0.405  54.231 -11.343  1.00  0.00     0.128 C 
HETATM   21  C35 UNL     1      -0.606  53.822 -10.232  1.00  0.00    -0.005 C 
HETATM   22  C36 UNL     1      -1.535  55.039  -9.949  1.00  0.00     0.019 C 
ENDROOT
BRANCH   1  23
HETATM   23  C9  UNL     1      -4.217  50.264 -10.184  1.00  0.00     0.048 C 
HETATM   24  C2  UNL     1      -3.947  49.139  -9.183  1.00  0.00     0.264 C 
HETATM   25  O2  UNL     1      -5.080  48.247  -9.242  1.00  0.00    -0.353 OA
HETATM   26  C3  UNL     1      -5.984  48.731 -10.263  1.00  0.00     0.157 C 
HETATM   27  C8  UNL     1      -5.728  50.229 -10.304  1.00  0.00     0.044 C 
BRANCH  24  28
HETATM   28  O1  UNL     1      -2.758  48.451  -9.554  1.00  0.00    -0.366 OA
HETATM   29  C1  UNL     1      -2.813  47.975 -10.892  1.00  0.00     0.204 C 
ENDBRANCH  24  28
BRANCH  26  30
HETATM   30  C4  UNL     1      -7.433  48.371  -9.882  1.00  0.00     0.183 C 
BRANCH  30  31
HETATM   31  O3  UNL     1      -7.408  47.329  -8.893  1.00  0.00    -0.390 OA
HETATM   32  H7  UNL     1      -6.634  46.776  -9.117  1.00  0.00     0.210 HD
ENDBRANCH  30  31
BRANCH  30  33
HETATM   33  C5  UNL     1      -8.316  47.963 -11.090  1.00  0.00     0.103 C 
HETATM   34  C6  UNL     1      -9.501  47.107 -10.611  1.00  0.00     0.051 C 
BRANCH  33  35
HETATM   35  O4  UNL     1      -8.876  49.156 -11.676  1.00  0.00    -0.385 OA
HETATM   36  H11 UNL     1      -9.281  48.854 -12.515  1.00  0.00     0.210 HD
ENDBRANCH  33  35
BRANCH  33  37
HETATM   37  C7  UNL     1      -7.539  47.230 -12.201  1.00  0.00     0.204 C 
BRANCH  37  38
HETATM   38  O5  UNL     1      -8.390  47.071 -13.344  1.00  0.00    -0.398 OA
HETATM   39  H14 UNL     1      -7.819  46.772 -14.078  1.00  0.00     0.209 HD
ENDBRANCH  37  38
ENDBRANCH  33  37
ENDBRANCH  30  33
ENDBRANCH  26  30
ENDBRANCH   1  23
BRANCH  20  40
HETATM   40  O8  UNL     1       1.095  53.078 -11.841  1.00  0.00    -0.395 OA
HETATM   41  H55 UNL     1       1.649  53.366 -12.585  1.00  0.00     0.210 HD
ENDBRANCH  20  40
BRANCH  14  42
HETATM   42  O6  UNL     1       5.511  55.382  -7.787  1.00  0.00    -0.312 OA
BRANCH  42  43
HETATM   43  C24 UNL     1       6.646  54.681  -7.563  1.00  0.00     0.283 C 
HETATM   44  O7  UNL     1       7.419  54.825  -6.629  1.00  0.00    -0.260 OA
BRANCH  43  45
HETATM   45  C25 UNL     1       6.821  53.608  -8.567  1.00  0.00     0.084 C 
HETATM   46  C26 UNL     1       6.723  52.275  -8.395  1.00  0.00    -0.082 C 
HETATM   47  C27 UNL     1       6.340  51.579  -7.117  1.00  0.00     0.043 C 
HETATM   48  C28 UNL     1       6.979  51.344  -9.553  1.00  0.00     0.043 C 
ENDBRANCH  43  45
ENDBRANCH  42  43
ENDBRANCH  14  42
TORSDOF 12
ENDMDL
MODEL 5
REMARK minimizedAffinity -9.59019947
REMARK CNNscore 0.567954719
REMARK CNNaffinity 7.25343752
REMARK  12 active torsions:
REMARK  status: ('A' for Active; 'I' for Inactive)
REMARK    1  A    between atoms: O1_2  and  C2_3 
REMARK    2  A    between atoms: C3_5  and  C4_6 
REMARK    3  A    between atoms: C4_6  and  O3_7 
REMARK    4  A    between atoms: C4_6  and  C5_8 
REMARK    5  A    between atoms: C5_8  and  O4_10 
REMARK    6  A    between atoms: C5_8  and  C7_11 
REMARK    7  A    between atoms: C7_11  and  O5_12 
REMARK    8  A    between atoms: C9_14  and  C10_15 
REMARK    9  A    between atoms: C23_28  and  O6_29 
REMARK   10  A    between atoms: O6_29  and  C24_30 
REMARK   11  A    between atoms: C24_30  and  C25_32 
REMARK   12  A    between atoms: C34_41  and  O8_42 
ROOT
HETATM    1  C10 UNL     1      -1.770  49.999 -22.259  1.00  0.00     0.004 C 
HETATM    2  C11 UNL     1      -2.810  48.880 -22.012  1.00  0.00     0.007 C 
HETATM    3  C12 UNL     1      -3.626  49.305 -20.787  1.00  0.00     0.011 C 
HETATM    4  C13 UNL     1      -2.656  50.144 -19.973  1.00  0.00    -0.021 A 
HETATM    5  C14 UNL     1      -2.685  51.611 -20.319  1.00  0.00     0.022 A 
HETATM    6  C15 UNL     1      -1.614  50.715 -20.918  1.00  0.00    -0.027 A 
HETATM    7  C16 UNL     1      -0.205  51.045 -20.474  1.00  0.00     0.011 C 
HETATM    8  C17 UNL     1       0.208  50.388 -19.155  1.00  0.00     0.007 C 
HETATM    9  C18 UNL     1      -0.918  50.446 -18.095  1.00  0.00     0.005 C 
HETATM   10  C19 UNL     1      -0.445  50.192 -16.594  1.00  0.00    -0.035 C 
HETATM   11  C20 UNL     1       0.292  48.840 -16.440  1.00  0.00     0.016 C 
HETATM   12  C21 UNL     1       0.556  51.319 -16.186  1.00  0.00     0.012 C 
HETATM   13  C22 UNL     1       0.868  51.373 -14.691  1.00  0.00     0.034 C 
HETATM   14  C23 UNL     1      -0.390  51.483 -13.829  1.00  0.00     0.140 C 
HETATM   15  C29 UNL     1      -1.434  50.359 -14.118  1.00  0.00    -0.016 C 
HETATM   16  C30 UNL     1      -2.732  50.742 -13.355  1.00  0.00     0.018 C 
HETATM   17  C31 UNL     1      -0.984  49.003 -13.535  1.00  0.00     0.018 C 
HETATM   18  C32 UNL     1      -1.713  50.335 -15.668  1.00  0.00     0.007 C 
HETATM   19  C33 UNL     1      -2.852  49.390 -16.116  1.00  0.00     0.038 C 
HETATM   20  C34 UNL     1      -3.318  49.702 -17.547  1.00  0.00     0.128 C 
HETATM   21  C35 UNL     1      -2.167  49.603 -18.589  1.00  0.00    -0.005 C 
HETATM   22  C36 UNL     1      -1.805  48.099 -18.774  1.00  0.00     0.019 C 
ENDROOT
BRANCH   1  23
HETATM   23  C9  UNL     1      -2.016  50.879 -23.495  1.00  0.00     0.048 C 
HETATM   24  C2  UNL     1      -2.479  52.325 -23.301  1.00  0.00     0.264 C 
HETATM   25  O2  UNL     1      -2.003  53.071 -24.442  1.00  0.00    -0.353 OA
HETATM   26  C3  UNL     1      -1.341  52.150 -25.340  1.00  0.00     0.157 C 
HETATM   27  C8  UNL     1      -0.834  51.044 -24.429  1.00  0.00     0.044 C 
BRANCH  24  28
HETATM   28  O1  UNL     1      -3.900  52.364 -23.243  1.00  0.00    -0.366 OA
HETATM   29  C1  UNL     1      -4.495  51.461 -24.166  1.00  0.00     0.204 C 
ENDBRANCH  24  28
BRANCH  26  30
HETATM   30  C4  UNL     1      -0.215  52.885 -26.092  1.00  0.00     0.183 C 
BRANCH  30  31
HETATM   31  O3  UNL     1      -0.302  54.289 -25.805  1.00  0.00    -0.390 OA
HETATM   32  H7  UNL     1      -1.257  54.477 -25.713  1.00  0.00     0.210 HD
ENDBRANCH  30  31
BRANCH  30  33
HETATM   33  C5  UNL     1      -0.216  52.633 -27.623  1.00  0.00     0.103 C 
HETATM   34  C6  UNL     1       1.124  52.014 -28.056  1.00  0.00     0.051 C 
BRANCH  33  35
HETATM   35  O4  UNL     1      -1.240  51.665 -27.931  1.00  0.00    -0.385 OA
HETATM   36  H11 UNL     1      -1.301  51.672 -28.909  1.00  0.00     0.210 HD
ENDBRANCH  33  35
BRANCH  33  37
HETATM   37  C7  UNL     1      -0.516  53.897 -28.453  1.00  0.00     0.204 C 
BRANCH  37  38
HETATM   38  O5  UNL     1      -1.910  54.214 -28.339  1.00  0.00    -0.398 OA
HETATM   39  H14 UNL     1      -2.026  55.105 -28.721  1.00  0.00     0.209 HD
ENDBRANCH  37  38
ENDBRANCH  33  37
ENDBRANCH  30  33
ENDBRANCH  26  30
ENDBRANCH   1  23
BRANCH  20  40
HETATM   40  O8  UNL     1      -3.879  51.020 -17.545  1.00  0.00    -0.395 OA
HETATM   41  H55 UNL     1      -4.644  51.013 -16.946  1.00  0.00     0.210 HD
ENDBRANCH  20  40
BRANCH  14  42
HETATM   42  O6  UNL     1      -0.007  51.425 -12.438  1.00  0.00    -0.312 OA
BRANCH  42  43
HETATM   43  C24 UNL     1       0.585  52.528 -11.926  1.00  0.00     0.283 C 
HETATM   44  O7  UNL     1       1.778  52.789 -11.943  1.00  0.00    -0.260 OA
BRANCH  43  45
HETATM   45  C25 UNL     1      -0.418  53.478 -11.396  1.00  0.00     0.084 C 
HETATM   46  C26 UNL     1      -0.213  54.591 -10.664  1.00  0.00    -0.082 C 
HETATM   47  C27 UNL     1       1.126  55.154 -10.274  1.00  0.00     0.043 C 
HETATM   48  C28 UNL     1      -1.389  55.406 -10.186  1.00  0.00     0.043 C 
ENDBRANCH  43  45
ENDBRANCH  42  43
ENDBRANCH  14  42
TORSDOF 12
ENDMDL
MODEL 6
REMARK minimizedAffinity -9.85259628
REMARK CNNscore 0.501795471
REMARK CNNaffinity 7.39164305
REMARK  12 active torsions:
REMARK  status: ('A' for Active; 'I' for Inactive)
REMARK    1  A    between atoms: O1_2  and  C2_3 
REMARK    2  A    between atoms: C3_5  and  C4_6 
REMARK    3  A    between atoms: C4_6  and  O3_7 
REMARK    4  A    between atoms: C4_6  and  C5_8 
REMARK    5  A    between atoms: C5_8  and  O4_10 
REMARK    6  A    between atoms: C5_8  and  C7_11 
REMARK    7  A    between atoms: C7_11  and  O5_12 
REMARK    8  A    between atoms: C9_14  and  C10_15 
REMARK    9  A    between atoms: C23_28  and  O6_29 
REMARK   10  A    between atoms: O6_29  and  C24_30 
REMARK   11  A    between atoms: C24_30  and  C25_32 
REMARK   12  A    between atoms: C34_41  and  O8_42 
ROOT
HETATM    1  C10 UNL     1      -0.060  50.984 -20.439  1.00  0.00     0.004 C 
HETATM    2  C11 UNL     1      -0.678  49.570 -20.556  1.00  0.00     0.007 C 
HETATM    3  C12 UNL     1      -1.886  49.543 -19.614  1.00  0.00     0.011 C 
HETATM    4  C13 UNL     1      -1.517  50.527 -18.516  1.00  0.00    -0.021 A 
HETATM    5  C14 UNL     1      -1.954  51.941 -18.798  1.00  0.00     0.022 A 
HETATM    6  C15 UNL     1      -0.523  51.523 -19.086  1.00  0.00    -0.027 A 
HETATM    7  C16 UNL     1       0.514  52.218 -18.231  1.00  0.00     0.011 C 
HETATM    8  C17 UNL     1       0.760  51.552 -16.875  1.00  0.00     0.007 C 
HETATM    9  C18 UNL     1      -0.556  51.104 -16.197  1.00  0.00     0.005 C 
HETATM   10  C19 UNL     1      -0.443  50.811 -14.634  1.00  0.00    -0.035 C 
HETATM   11  C20 UNL     1       0.643  49.755 -14.320  1.00  0.00     0.016 C 
HETATM   12  C21 UNL     1      -0.038  52.130 -13.903  1.00  0.00     0.012 C 
HETATM   13  C22 UNL     1      -0.174  52.075 -12.382  1.00  0.00     0.034 C 
HETATM   14  C23 UNL     1      -1.575  51.662 -11.929  1.00  0.00     0.140 C 
HETATM   15  C29 UNL     1      -2.051  50.315 -12.559  1.00  0.00    -0.016 C 
HETATM   16  C30 UNL     1      -3.556  50.158 -12.202  1.00  0.00     0.018 C 
HETATM   17  C31 UNL     1      -1.336  49.105 -11.922  1.00  0.00     0.018 C 
HETATM   18  C32 UNL     1      -1.881  50.416 -14.121  1.00  0.00     0.007 C 
HETATM   19  C33 UNL     1      -2.463  49.229 -14.924  1.00  0.00     0.038 C 
HETATM   20  C34 UNL     1      -2.608  49.570 -16.416  1.00  0.00     0.128 C 
HETATM   21  C35 UNL     1      -1.260  49.985 -17.072  1.00  0.00    -0.005 C 
HETATM   22  C36 UNL     1      -0.369  48.714 -17.198  1.00  0.00     0.019 C 
ENDROOT
BRANCH   1  23
HETATM   23  C9  UNL     1      -0.255  51.902 -21.657  1.00  0.00     0.048 C 
HETATM   24  C2  UNL     1       0.962  52.604 -22.265  1.00  0.00     0.264 C 
HETATM   25  O2  UNL     1       0.668  52.810 -23.663  1.00  0.00    -0.353 OA
HETATM   26  C3  UNL     1      -0.675  52.334 -23.919  1.00  0.00     0.157 C 
HETATM   27  C8  UNL     1      -0.889  51.254 -22.872  1.00  0.00     0.044 C 
BRANCH  24  28
HETATM   28  O1  UNL     1       1.161  53.853 -21.613  1.00  0.00    -0.366 OA
HETATM   29  C1  UNL     1       1.564  54.870 -22.521  1.00  0.00     0.204 C 
ENDBRANCH  24  28
BRANCH  26  30
HETATM   30  C4  UNL     1      -0.769  51.810 -25.364  1.00  0.00     0.183 C 
BRANCH  30  31
HETATM   31  O3  UNL     1      -0.884  50.378 -25.334  1.00  0.00    -0.390 OA
HETATM   32  H7  UNL     1      -0.350  50.091 -24.567  1.00  0.00     0.210 HD
ENDBRANCH  30  31
BRANCH  30  33
HETATM   33  C5  UNL     1       0.413  52.249 -26.268  1.00  0.00     0.103 C 
HETATM   34  C6  UNL     1       0.048  52.044 -27.748  1.00  0.00     0.051 C 
BRANCH  33  35
HETATM   35  O4  UNL     1       0.633  53.663 -26.087  1.00  0.00    -0.385 OA
HETATM   36  H11 UNL     1       1.478  53.843 -26.548  1.00  0.00     0.210 HD
ENDBRANCH  33  35
BRANCH  33  37
HETATM   37  C7  UNL     1       1.738  51.534 -25.938  1.00  0.00     0.204 C 
BRANCH  37  38
HETATM   38  O5  UNL     1       2.799  52.142 -26.688  1.00  0.00    -0.398 OA
HETATM   39  H14 UNL     1       3.635  51.791 -26.324  1.00  0.00     0.209 HD
ENDBRANCH  37  38
ENDBRANCH  33  37
ENDBRANCH  30  33
ENDBRANCH  26  30
ENDBRANCH   1  23
BRANCH  20  40
HETATM   40  O8  UNL     1      -3.567  50.628 -16.530  1.00  0.00    -0.395 OA
HETATM   41  H55 UNL     1      -4.413  50.297 -16.186  1.00  0.00     0.210 HD
ENDBRANCH  20  40
BRANCH  14  42
HETATM   42  O6  UNL     1      -1.581  51.538 -10.491  1.00  0.00    -0.312 OA
BRANCH  42  43
HETATM   43  C24 UNL     1      -2.269  52.479  -9.805  1.00  0.00     0.283 C 
HETATM   44  O7  UNL     1      -3.480  52.635  -9.796  1.00  0.00    -0.260 OA
BRANCH  43  45
HETATM   45  C25 UNL     1      -1.368  53.286  -8.952  1.00  0.00     0.084 C 
HETATM   46  C26 UNL     1      -0.919  54.540  -9.159  1.00  0.00    -0.082 C 
HETATM   47  C27 UNL     1      -1.303  55.435 -10.306  1.00  0.00     0.043 C 
HETATM   48  C28 UNL     1       0.033  55.172  -8.176  1.00  0.00     0.043 C 
ENDBRANCH  43  45
ENDBRANCH  42  43
ENDBRANCH  14  42
TORSDOF 12
ENDMDL
MODEL 7
REMARK minimizedAffinity -9.37680244
REMARK CNNscore 0.436663687
REMARK CNNaffinity 6.93299532
REMARK  12 active torsions:
REMARK  status: ('A' for Active; 'I' for Inactive)
REMARK    1  A    between atoms: O1_2  and  C2_3 
REMARK    2  A    between atoms: C3_5  and  C4_6 
REMARK    3  A    between atoms: C4_6  and  O3_7 
REMARK    4  A    between atoms: C4_6  and  C5_8 
REMARK    5  A    between atoms: C5_8  and  O4_10 
REMARK    6  A    between atoms: C5_8  and  C7_11 
REMARK    7  A    between atoms: C7_11  and  O5_12 
REMARK    8  A    between atoms: C9_14  and  C10_15 
REMARK    9  A    between atoms: C23_28  and  O6_29 
REMARK   10  A    between atoms: O6_29  and  C24_30 
REMARK   11  A    between atoms: C24_30  and  C25_32 
REMARK   12  A    between atoms: C34_41  and  O8_42 
ROOT
HETATM    1  C10 UNL     1      -1.772  50.189 -21.273  1.00  0.00     0.004 C 
HETATM    2  C11 UNL     1      -1.213  48.813 -21.708  1.00  0.00     0.007 C 
HETATM    3  C12 UNL     1      -2.389  48.033 -22.304  1.00  0.00     0.011 C 
HETATM    4  C13 UNL     1      -3.600  48.577 -21.566  1.00  0.00    -0.021 A 
HETATM    5  C14 UNL     1      -4.238  49.765 -22.240  1.00  0.00     0.022 A 
HETATM    6  C15 UNL     1      -3.274  49.979 -21.086  1.00  0.00    -0.027 A 
HETATM    7  C16 UNL     1      -3.905  50.585 -19.851  1.00  0.00     0.011 C 
HETATM    8  C17 UNL     1      -4.552  49.565 -18.912  1.00  0.00     0.007 C 
HETATM    9  C18 UNL     1      -5.354  48.488 -19.680  1.00  0.00     0.005 C 
HETATM   10  C19 UNL     1      -6.398  47.667 -18.800  1.00  0.00    -0.035 C 
HETATM   11  C20 UNL     1      -5.721  46.986 -17.586  1.00  0.00     0.016 C 
HETATM   12  C21 UNL     1      -7.473  48.654 -18.244  1.00  0.00     0.012 C 
HETATM   13  C22 UNL     1      -8.693  47.973 -17.625  1.00  0.00     0.034 C 
HETATM   14  C23 UNL     1      -9.365  46.986 -18.580  1.00  0.00     0.140 C 
HETATM   15  C29 UNL     1      -8.383  45.913 -19.147  1.00  0.00    -0.016 C 
HETATM   16  C30 UNL     1      -9.145  45.151 -20.267  1.00  0.00     0.018 C 
HETATM   17  C31 UNL     1      -8.023  44.854 -18.083  1.00  0.00     0.018 C 
HETATM   18  C32 UNL     1      -7.140  46.661 -19.760  1.00  0.00     0.007 C 
HETATM   19  C33 UNL     1      -6.140  45.758 -20.519  1.00  0.00     0.038 C 
HETATM   20  C34 UNL     1      -5.187  46.583 -21.400  1.00  0.00     0.128 C 
HETATM   21  C35 UNL     1      -4.375  47.633 -20.588  1.00  0.00    -0.005 C 
HETATM   22  C36 UNL     1      -3.318  46.874 -19.731  1.00  0.00     0.019 C 
ENDROOT
BRANCH   1  23
HETATM   23  C9  UNL     1      -1.337  51.389 -22.130  1.00  0.00     0.048 C 
HETATM   24  C2  UNL     1       0.044  52.008 -21.903  1.00  0.00     0.264 C 
HETATM   25  O2  UNL     1       0.453  52.586 -23.161  1.00  0.00    -0.353 OA
HETATM   26  C3  UNL     1      -0.624  52.411 -24.111  1.00  0.00     0.157 C 
HETATM   27  C8  UNL     1      -1.343  51.162 -23.628  1.00  0.00     0.044 C 
BRANCH  24  28
HETATM   28  O1  UNL     1      -0.047  53.016 -20.902  1.00  0.00    -0.366 OA
HETATM   29  C1  UNL     1       1.173  53.728 -20.752  1.00  0.00     0.204 C 
ENDBRANCH  24  28
BRANCH  26  30
HETATM   30  C4  UNL     1      -0.041  52.268 -25.530  1.00  0.00     0.183 C 
BRANCH  30  31
HETATM   31  O3  UNL     1       1.074  53.164 -25.667  1.00  0.00    -0.390 OA
HETATM   32  H7  UNL     1       0.845  53.948 -25.130  1.00  0.00     0.210 HD
ENDBRANCH  30  31
BRANCH  30  33
HETATM   33  C5  UNL     1      -1.078  52.502 -26.660  1.00  0.00     0.103 C 
HETATM   34  C6  UNL     1      -1.404  51.171 -27.359  1.00  0.00     0.051 C 
BRANCH  33  35
HETATM   35  O4  UNL     1      -2.307  52.972 -26.068  1.00  0.00    -0.385 OA
HETATM   36  H11 UNL     1      -2.857  53.253 -26.829  1.00  0.00     0.210 HD
ENDBRANCH  33  35
BRANCH  33  37
HETATM   37  C7  UNL     1      -0.635  53.556 -27.693  1.00  0.00     0.204 C 
BRANCH  37  38
HETATM   38  O5  UNL     1      -1.797  54.108 -28.328  1.00  0.00    -0.398 OA
HETATM   39  H14 UNL     1      -1.495  54.887 -28.835  1.00  0.00     0.209 HD
ENDBRANCH  37  38
ENDBRANCH  33  37
ENDBRANCH  30  33
ENDBRANCH  26  30
ENDBRANCH   1  23
BRANCH  20  40
HETATM   40  O8  UNL     1      -5.975  47.230 -22.407  1.00  0.00    -0.395 OA
HETATM   41  H55 UNL     1      -6.396  46.536 -22.941  1.00  0.00     0.210 HD
ENDBRANCH  20  40
BRANCH  14  42
HETATM   42  O6  UNL     1     -10.439  46.321 -17.881  1.00  0.00    -0.312 OA
BRANCH  42  43
HETATM   43  C24 UNL     1     -11.500  47.084 -17.532  1.00  0.00     0.283 C 
HETATM   44  O7  UNL     1     -11.846  47.375 -16.397  1.00  0.00    -0.260 OA
BRANCH  43  45
HETATM   45  C25 UNL     1     -12.181  47.633 -18.725  1.00  0.00     0.084 C 
HETATM   46  C26 UNL     1     -13.497  47.855 -18.910  1.00  0.00    -0.082 C 
HETATM   47  C27 UNL     1     -14.578  47.644 -17.885  1.00  0.00     0.043 C 
HETATM   48  C28 UNL     1     -13.993  48.389 -20.230  1.00  0.00     0.043 C 
ENDBRANCH  43  45
ENDBRANCH  42  43
ENDBRANCH  14  42
TORSDOF 12
ENDMDL
MODEL 8
REMARK minimizedAffinity -9.88265038
REMARK CNNscore 0.431345522
REMARK CNNaffinity 6.89473963
REMARK  12 active torsions:
REMARK  status: ('A' for Active; 'I' for Inactive)
REMARK    1  A    between atoms: O1_2  and  C2_3 
REMARK    2  A    between atoms: C3_5  and  C4_6 
REMARK    3  A    between atoms: C4_6  and  O3_7 
REMARK    4  A    between atoms: C4_6  and  C5_8 
REMARK    5  A    between atoms: C5_8  and  O4_10 
REMARK    6  A    between atoms: C5_8  and  C7_11 
REMARK    7  A    between atoms: C7_11  and  O5_12 
REMARK    8  A    between atoms: C9_14  and  C10_15 
REMARK    9  A    between atoms: C23_28  and  O6_29 
REMARK   10  A    between atoms: O6_29  and  C24_30 
REMARK   11  A    between atoms: C24_30  and  C25_32 
REMARK   12  A    between atoms: C34_41  and  O8_42 
ROOT
HETATM    1  C10 UNL     1      -6.834  47.437 -24.908  1.00  0.00     0.004 C 
HETATM    2  C11 UNL     1      -7.531  46.671 -23.758  1.00  0.00     0.007 C 
HETATM    3  C12 UNL     1      -7.501  47.596 -22.537  1.00  0.00     0.011 C 
HETATM    4  C13 UNL     1      -6.248  48.431 -22.740  1.00  0.00    -0.021 A 
HETATM    5  C14 UNL     1      -6.486  49.702 -23.513  1.00  0.00     0.022 A 
HETATM    6  C15 UNL     1      -5.944  48.476 -24.226  1.00  0.00    -0.027 A 
HETATM    7  C16 UNL     1      -4.539  48.638 -24.766  1.00  0.00     0.011 C 
HETATM    8  C17 UNL     1      -3.437  48.338 -23.748  1.00  0.00     0.007 C 
HETATM    9  C18 UNL     1      -3.750  48.930 -22.354  1.00  0.00     0.005 C 
HETATM   10  C19 UNL     1      -2.499  49.049 -21.374  1.00  0.00    -0.035 C 
HETATM   11  C20 UNL     1      -1.792  47.688 -21.170  1.00  0.00     0.016 C 
HETATM   12  C21 UNL     1      -1.457  50.026 -22.006  1.00  0.00     0.012 C 
HETATM   13  C22 UNL     1      -0.343  50.461 -21.055  1.00  0.00     0.034 C 
HETATM   14  C23 UNL     1      -0.879  51.070 -19.759  1.00  0.00     0.140 C 
HETATM   15  C29 UNL     1      -1.888  50.140 -19.014  1.00  0.00    -0.016 C 
HETATM   16  C30 UNL     1      -2.517  50.983 -17.868  1.00  0.00     0.018 C 
HETATM   17  C31 UNL     1      -1.171  48.959 -18.326  1.00  0.00     0.018 C 
HETATM   18  C32 UNL     1      -3.006  49.710 -20.036  1.00  0.00     0.007 C 
HETATM   19  C33 UNL     1      -4.185  48.918 -19.424  1.00  0.00     0.038 C 
HETATM   20  C34 UNL     1      -5.392  48.874 -20.375  1.00  0.00     0.128 C 
HETATM   21  C35 UNL     1      -5.047  48.243 -21.755  1.00  0.00    -0.005 C 
HETATM   22  C36 UNL     1      -4.841  46.712 -21.553  1.00  0.00     0.019 C 
ENDROOT
BRANCH   1  23
HETATM   23  C9  UNL     1      -7.755  47.939 -26.032  1.00  0.00     0.048 C 
HETATM   24  C2  UNL     1      -7.763  47.204 -27.374  1.00  0.00     0.264 C 
HETATM   25  O2  UNL     1      -9.073  47.399 -27.948  1.00  0.00    -0.353 OA
HETATM   26  C3  UNL     1      -9.830  48.260 -27.065  1.00  0.00     0.157 C 
HETATM   27  C8  UNL     1      -9.231  48.000 -25.692  1.00  0.00     0.044 C 
BRANCH  24  28
HETATM   28  O1  UNL     1      -6.765  47.758 -28.223  1.00  0.00    -0.366 OA
HETATM   29  C1  UNL     1      -7.052  47.538 -29.597  1.00  0.00     0.204 C 
ENDBRANCH  24  28
BRANCH  26  30
HETATM   30  C4  UNL     1     -11.326  47.902 -27.154  1.00  0.00     0.183 C 
BRANCH  30  31
HETATM   31  O3  UNL     1     -12.103  49.097 -26.975  1.00  0.00    -0.390 OA
HETATM   32  H7  UNL     1     -11.598  49.642 -26.340  1.00  0.00     0.210 HD
ENDBRANCH  30  31
BRANCH  30  33
HETATM   33  C5  UNL     1     -11.768  46.802 -26.153  1.00  0.00     0.103 C 
HETATM   34  C6  UNL     1     -10.875  45.559 -26.308  1.00  0.00     0.051 C 
BRANCH  33  35
HETATM   35  O4  UNL     1     -11.568  47.292 -24.811  1.00  0.00    -0.385 OA
HETATM   36  H11 UNL     1     -12.010  46.632 -24.238  1.00  0.00     0.210 HD
ENDBRANCH  33  35
BRANCH  33  37
HETATM   37  C7  UNL     1     -13.254  46.414 -26.282  1.00  0.00     0.204 C 
BRANCH  37  38
HETATM   38  O5  UNL     1     -14.041  47.289 -25.461  1.00  0.00    -0.398 OA
HETATM   39  H14 UNL     1     -14.974  47.135 -25.704  1.00  0.00     0.209 HD
ENDBRANCH  37  38
ENDBRANCH  33  37
ENDBRANCH  30  33
ENDBRANCH  26  30
ENDBRANCH   1  23
BRANCH  20  40
HETATM   40  O8  UNL     1      -5.865  50.216 -20.543  1.00  0.00    -0.395 OA
HETATM   41  H55 UNL     1      -6.147  50.539 -19.671  1.00  0.00     0.210 HD
ENDBRANCH  20  40
BRANCH  14  42
HETATM   42  O6  UNL     1       0.233  51.356 -18.884  1.00  0.00    -0.312 OA
BRANCH  42  43
HETATM   43  C24 UNL     1       0.570  52.658 -18.737  1.00  0.00     0.283 C 
HETATM   44  O7  UNL     1      -0.087  53.625 -19.092  1.00  0.00    -0.260 OA
BRANCH  43  45
HETATM   45  C25 UNL     1       1.835  52.803 -17.985  1.00  0.00     0.084 C 
HETATM   46  C26 UNL     1       2.096  52.456 -16.709  1.00  0.00    -0.082 C 
HETATM   47  C27 UNL     1       1.141  51.768 -15.771  1.00  0.00     0.043 C 
HETATM   48  C28 UNL     1       3.455  52.728 -16.117  1.00  0.00     0.043 C 
ENDBRANCH  43  45
ENDBRANCH  42  43
ENDBRANCH  14  42
TORSDOF 12
ENDMDL
MODEL 9
REMARK minimizedAffinity -9.74888515
REMARK CNNscore 0.374858439
REMARK CNNaffinity 6.45240068
REMARK  12 active torsions:
REMARK  status: ('A' for Active; 'I' for Inactive)
REMARK    1  A    between atoms: O1_2  and  C2_3 
REMARK    2  A    between atoms: C3_5  and  C4_6 
REMARK    3  A    between atoms: C4_6  and  O3_7 
REMARK    4  A    between atoms: C4_6  and  C5_8 
REMARK    5  A    between atoms: C5_8  and  O4_10 
REMARK    6  A    between atoms: C5_8  and  C7_11 
REMARK    7  A    between atoms: C7_11  and  O5_12 
REMARK    8  A    between atoms: C9_14  and  C10_15 
REMARK    9  A    between atoms: C23_28  and  O6_29 
REMARK   10  A    between atoms: O6_29  and  C24_30 
REMARK   11  A    between atoms: C24_30  and  C25_32 
REMARK   12  A    between atoms: C34_41  and  O8_42 
ROOT
HETATM    1  C10 UNL     1      -2.579  50.185 -22.033  1.00  0.00     0.004 C 
HETATM    2  C11 UNL     1      -2.173  48.838 -22.677  1.00  0.00     0.007 C 
HETATM    3  C12 UNL     1      -3.395  48.340 -23.455  1.00  0.00     0.011 C 
HETATM    4  C13 UNL     1      -4.576  48.916 -22.691  1.00  0.00    -0.021 A 
HETATM    5  C14 UNL     1      -5.005  50.277 -23.175  1.00  0.00     0.022 A 
HETATM    6  C15 UNL     1      -4.105  50.158 -21.957  1.00  0.00    -0.027 A 
HETATM    7  C16 UNL     1      -4.739  50.630 -20.666  1.00  0.00     0.011 C 
HETATM    8  C17 UNL     1      -5.577  49.567 -19.953  1.00  0.00     0.007 C 
HETATM    9  C18 UNL     1      -6.455  48.757 -20.936  1.00  0.00     0.005 C 
HETATM   10  C19 UNL     1      -7.655  47.953 -20.264  1.00  0.00    -0.035 C 
HETATM   11  C20 UNL     1      -7.160  46.990 -19.158  1.00  0.00     0.016 C 
HETATM   12  C21 UNL     1      -8.631  48.973 -19.594  1.00  0.00     0.012 C 
HETATM   13  C22 UNL     1      -9.969  48.375 -19.163  1.00  0.00     0.034 C 
HETATM   14  C23 UNL     1     -10.694  47.666 -20.308  1.00  0.00     0.140 C 
HETATM   15  C29 UNL     1      -9.821  46.577 -21.008  1.00  0.00    -0.016 C 
HETATM   16  C30 UNL     1     -10.595  46.128 -22.279  1.00  0.00     0.018 C 
HETATM   17  C31 UNL     1      -9.677  45.315 -20.132  1.00  0.00     0.018 C 
HETATM   18  C32 UNL     1      -8.452  47.237 -21.421  1.00  0.00     0.007 C 
HETATM   19  C33 UNL     1      -7.525  46.343 -22.278  1.00  0.00     0.038 C 
HETATM   20  C34 UNL     1      -6.414  47.163 -22.954  1.00  0.00     0.128 C 
HETATM   21  C35 UNL     1      -5.533  47.939 -21.933  1.00  0.00    -0.005 C 
HETATM   22  C36 UNL     1      -4.646  46.907 -21.174  1.00  0.00     0.019 C 
ENDROOT
BRANCH   1  23
HETATM   23  C9  UNL     1      -1.934  51.439 -22.644  1.00  0.00     0.048 C 
HETATM   24  C2  UNL     1      -0.528  51.847 -22.199  1.00  0.00     0.264 C 
HETATM   25  O2  UNL     1       0.070  52.554 -23.307  1.00  0.00    -0.353 OA
HETATM   26  C3  UNL     1      -0.913  52.654 -24.364  1.00  0.00     0.157 C 
HETATM   27  C8  UNL     1      -1.805  51.442 -24.154  1.00  0.00     0.044 C 
BRANCH  24  28
HETATM   28  O1  UNL     1      -0.619  52.697 -21.062  1.00  0.00    -0.366 OA
HETATM   29  C1  UNL     1       0.632  53.288 -20.737  1.00  0.00     0.204 C 
ENDBRANCH  24  28
BRANCH  26  30
HETATM   30  C4  UNL     1      -0.201  52.658 -25.730  1.00  0.00     0.183 C 
BRANCH  30  31
HETATM   31  O3  UNL     1       0.700  53.776 -25.783  1.00  0.00    -0.390 OA
HETATM   32  H7  UNL     1       0.263  54.485 -25.271  1.00  0.00     0.210 HD
ENDBRANCH  30  31
BRANCH  30  33
HETATM   33  C5  UNL     1      -1.170  52.673 -26.942  1.00  0.00     0.103 C 
HETATM   34  C6  UNL     1      -1.333  51.250 -27.503  1.00  0.00     0.051 C 
BRANCH  33  35
HETATM   35  O4  UNL     1      -2.473  53.090 -26.485  1.00  0.00    -0.385 OA
HETATM   36  H11 UNL     1      -2.988  53.236 -27.306  1.00  0.00     0.210 HD
ENDBRANCH  33  35
BRANCH  33  37
HETATM   37  C7  UNL     1      -0.744  53.645 -28.058  1.00  0.00     0.204 C 
BRANCH  37  38
HETATM   38  O5  UNL     1      -1.900  54.343 -28.541  1.00  0.00    -0.398 OA
HETATM   39  H14 UNL     1      -1.573  55.067 -29.109  1.00  0.00     0.209 HD
ENDBRANCH  37  38
ENDBRANCH  33  37
ENDBRANCH  30  33
ENDBRANCH  26  30
ENDBRANCH   1  23
BRANCH  20  40
HETATM   40  O8  UNL     1      -7.039  48.074 -23.868  1.00  0.00    -0.395 OA
HETATM   41  H55 UNL     1      -7.507  47.545 -24.535  1.00  0.00     0.210 HD
ENDBRANCH  20  40
BRANCH  14  42
HETATM   42  O6  UNL     1     -11.891  47.049 -19.789  1.00  0.00    -0.312 OA
BRANCH  42  43
HETATM   43  C24 UNL     1     -13.067  47.481 -20.299  1.00  0.00     0.283 C 
HETATM   44  O7  UNL     1     -13.604  47.090 -21.323  1.00  0.00    -0.260 OA
BRANCH  43  45
HETATM   45  C25 UNL     1     -13.713  48.462 -19.400  1.00  0.00     0.084 C 
HETATM   46  C26 UNL     1     -14.935  48.402 -18.835  1.00  0.00    -0.082 C 
HETATM   47  C27 UNL     1     -15.905  47.258 -18.954  1.00  0.00     0.043 C 
HETATM   48  C28 UNL     1     -15.423  49.538 -17.972  1.00  0.00     0.043 C 
ENDBRANCH  43  45
ENDBRANCH  42  43
ENDBRANCH  14  42
TORSDOF 12
ENDMDL
