MODEL 1
REMARK minimizedAffinity -9.19853115
REMARK CNNscore 0.130038753
REMARK CNNaffinity 6.67060995
REMARK  6 active torsions:
REMARK  status: ('A' for Active; 'I' for Inactive)
REMARK    1  A    between atoms: C6_7  and  O2_8 
REMARK    2  A    between atoms: C17_21  and  C18_22 
REMARK    3  A    between atoms: C18_22  and  C19_23 
REMARK    4  A    between atoms: C23_27  and  C24_28 
REMARK    5  A    between atoms: C24_28  and  N1_29 
REMARK    6  A    between atoms: C24_28  and  N2_30 
ROOT
HETATM    1  C1  UNL     1       2.246  51.456 -14.691  1.00  0.00     0.077 C 
HETATM    2  C2  UNL     1       1.592  51.569 -16.032  1.00  0.00     0.053 A 
HETATM    3  C3  UNL     1       1.888  52.547 -16.898  1.00  0.00     0.088 A 
HETATM    4  C4  UNL     1       1.198  52.592 -18.195  1.00  0.00     0.190 A 
HETATM    5  O1  UNL     1       1.438  53.468 -19.019  1.00  0.00    -0.287 OA
HETATM    6  C5  UNL     1       0.205  51.543 -18.463  1.00  0.00     0.082 A 
HETATM    7  C6  UNL     1      -0.524  51.505 -19.662  1.00  0.00     0.092 A 
HETATM    8  C7  UNL     1      -1.474  50.496 -19.893  1.00  0.00     0.016 A 
HETATM    9  C8  UNL     1      -1.675  49.528 -18.873  1.00  0.00     0.082 A 
HETATM   10  C9  UNL     1      -0.952  49.581 -17.679  1.00  0.00     0.075 A 
HETATM   11  C10 UNL     1      -0.011  50.585 -17.477  1.00  0.00     0.095 A 
HETATM   12  O3  UNL     1       0.662  50.572 -16.280  1.00  0.00    -0.314 OA
HETATM   13  O4  UNL     1      -2.587  48.488 -18.934  1.00  0.00    -0.337 OA
HETATM   14  C11 UNL     1      -3.059  48.187 -20.262  1.00  0.00     0.091 C 
HETATM   15  C12 UNL     1      -1.940  47.400 -20.978  1.00  0.00     0.049 C 
HETATM   16  C13 UNL     1      -4.368  47.282 -20.190  1.00  0.00     0.041 C 
HETATM   17  C14 UNL     1      -4.736  46.509 -21.498  1.00  0.00     0.003 C 
HETATM   18  C15 UNL     1      -6.211  46.474 -21.970  1.00  0.00     0.003 C 
HETATM   19  C16 UNL     1      -6.893  47.733 -22.562  1.00  0.00     0.042 C 
HETATM   20  C17 UNL     1      -6.384  48.280 -23.918  1.00  0.00     0.107 A 
HETATM   21  O5  UNL     1      -5.005  48.068 -24.121  1.00  0.00    -0.352 OA
HETATM   22  C26 UNL     1      -5.342  49.468 -23.892  1.00  0.00     0.180 A 
HETATM   23  C27 UNL     1      -4.618  50.253 -24.976  1.00  0.00     0.052 C 
HETATM   24  C28 UNL     1      -3.298  50.923 -24.430  1.00  0.00     0.004 C 
HETATM   25  C29 UNL     1      -2.221  49.953 -23.867  1.00  0.00     0.001 C 
HETATM   26  C30 UNL     1      -1.524  50.317 -22.512  1.00  0.00     0.012 C 
HETATM   27  C31 UNL     1      -2.323  50.494 -21.165  1.00  0.00     0.057 C 
HETATM   28  C32 UNL     1      -3.472  49.528 -20.886  1.00  0.00     0.175 C 
HETATM   29  O6  UNL     1      -4.107  49.196 -22.073  1.00  0.00    -0.310 OA
HETATM   30  C33 UNL     1      -5.083  49.964 -22.533  1.00  0.00     0.297 C 
HETATM   31  O7  UNL     1      -5.620  50.928 -22.020  1.00  0.00    -0.262 OA
ENDROOT
BRANCH  20  32
HETATM   32  C18 UNL     1      -7.251  48.094 -25.132  1.00  0.00     0.080 C 
BRANCH  32  33
HETATM   33  C19 UNL     1      -8.268  46.994 -24.935  1.00  0.00    -0.055 A 
HETATM   34  C20 UNL     1      -7.938  45.670 -25.244  1.00  0.00     0.007 A 
HETATM   35  C21 UNL     1      -8.862  44.646 -25.053  1.00  0.00     0.001 A 
HETATM   36  C22 UNL     1     -10.127  44.934 -24.539  1.00  0.00     0.011 A 
HETATM   37  C23 UNL     1     -10.488  46.251 -24.209  1.00  0.00     0.004 A 
HETATM   38  C25 UNL     1      -9.544  47.273 -24.421  1.00  0.00     0.018 A 
BRANCH  37  39
HETATM   39  C24 UNL     1     -11.837  46.593 -23.612  1.00  0.00     0.479 C 
BRANCH  39  40
HETATM   40  N1  UNL     1     -12.847  46.875 -24.590  1.00  0.00     0.116 N 
HETATM   41  H24 UNL     1     -13.725  46.903 -24.074  1.00  0.00     0.316 HD
HETATM   42  H25 UNL     1     -12.932  46.087 -25.221  1.00  0.00     0.316 HD
ENDBRANCH  39  40
BRANCH  39  43
HETATM   43  N2  UNL     1     -12.401  45.506 -22.853  1.00  0.00     0.116 N 
HETATM   44  H26 UNL     1     -11.762  45.303 -22.085  1.00  0.00     0.316 HD
HETATM   45  H27 UNL     1     -12.393  44.667 -23.425  1.00  0.00     0.316 HD
ENDBRANCH  39  43
ENDBRANCH  37  39
ENDBRANCH  32  33
ENDBRANCH  20  32
BRANCH   7  46
HETATM   46  O2  UNL     1      -0.355  52.464 -20.629  1.00  0.00    -0.359 OA
HETATM   47  H5  UNL     1       0.322  53.107 -20.322  1.00  0.00     0.217 HD
ENDBRANCH   7  46
TORSDOF 6
ENDMDL
MODEL 2
REMARK minimizedAffinity -9.65410709
REMARK CNNscore 0.120643325
REMARK CNNaffinity 5.99304819
REMARK  6 active torsions:
REMARK  status: ('A' for Active; 'I' for Inactive)
REMARK    1  A    between atoms: C6_7  and  O2_8 
REMARK    2  A    between atoms: C17_21  and  C18_22 
REMARK    3  A    between atoms: C18_22  and  C19_23 
REMARK    4  A    between atoms: C23_27  and  C24_28 
REMARK    5  A    between atoms: C24_28  and  N1_29 
REMARK    6  A    between atoms: C24_28  and  N2_30 
ROOT
HETATM    1  C1  UNL     1      -1.829  48.372 -20.183  1.00  0.00     0.077 C 
HETATM    2  C2  UNL     1      -2.650  48.446 -21.433  1.00  0.00     0.053 A 
HETATM    3  C3  UNL     1      -2.238  49.100 -22.527  1.00  0.00     0.088 A 
HETATM    4  C4  UNL     1      -3.105  49.131 -23.713  1.00  0.00     0.190 A 
HETATM    5  O1  UNL     1      -2.769  49.716 -24.738  1.00  0.00    -0.287 OA
HETATM    6  C5  UNL     1      -4.394  48.433 -23.622  1.00  0.00     0.082 A 
HETATM    7  C6  UNL     1      -5.304  48.417 -24.689  1.00  0.00     0.092 A 
HETATM    8  C7  UNL     1      -6.535  47.748 -24.576  1.00  0.00     0.016 A 
HETATM    9  C8  UNL     1      -6.826  47.101 -23.346  1.00  0.00     0.082 A 
HETATM   10  C9  UNL     1      -5.918  47.132 -22.284  1.00  0.00     0.075 A 
HETATM   11  C10 UNL     1      -4.703  47.793 -22.424  1.00  0.00     0.095 A 
HETATM   12  O3  UNL     1      -3.861  47.779 -21.340  1.00  0.00    -0.314 OA
HETATM   13  O4  UNL     1      -8.000  46.422 -23.063  1.00  0.00    -0.337 OA
HETATM   14  C11 UNL     1      -8.769  46.056 -24.226  1.00  0.00     0.091 C 
HETATM   15  C12 UNL     1      -8.079  44.831 -24.864  1.00  0.00     0.049 C 
HETATM   16  C13 UNL     1     -10.251  45.655 -23.802  1.00  0.00     0.041 C 
HETATM   17  C14 UNL     1     -11.058  44.821 -24.849  1.00  0.00     0.003 C 
HETATM   18  C15 UNL     1     -12.538  45.183 -25.131  1.00  0.00     0.003 C 
HETATM   19  C16 UNL     1     -12.913  46.465 -25.915  1.00  0.00     0.042 C 
HETATM   20  C17 UNL     1     -12.516  46.561 -27.408  1.00  0.00     0.107 A 
HETATM   21  O5  UNL     1     -11.321  45.878 -27.712  1.00  0.00    -0.352 OA
HETATM   22  C26 UNL     1     -11.184  47.328 -27.772  1.00  0.00     0.180 A 
HETATM   23  C27 UNL     1     -10.467  47.624 -29.082  1.00  0.00     0.052 C 
HETATM   24  C28 UNL     1      -8.933  47.915 -28.855  1.00  0.00     0.004 C 
HETATM   25  C29 UNL     1      -8.106  46.766 -28.210  1.00  0.00     0.001 C 
HETATM   26  C30 UNL     1      -7.102  47.123 -27.062  1.00  0.00     0.012 C 
HETATM   27  C31 UNL     1      -7.560  47.792 -25.710  1.00  0.00     0.057 C 
HETATM   28  C32 UNL     1      -8.873  47.321 -25.089  1.00  0.00     0.175 C 
HETATM   29  O6  UNL     1      -9.780  47.004 -26.090  1.00  0.00    -0.310 OA
HETATM   30  C33 UNL     1     -10.551  47.951 -26.601  1.00  0.00     0.297 C 
HETATM   31  O7  UNL     1     -10.679  49.114 -26.265  1.00  0.00    -0.262 OA
ENDROOT
BRANCH  20  32
HETATM   32  C18 UNL     1     -13.603  46.451 -28.442  1.00  0.00     0.080 C 
BRANCH  32  33
HETATM   33  C19 UNL     1     -14.320  45.123 -28.366  1.00  0.00    -0.055 A 
HETATM   34  C20 UNL     1     -13.589  43.932 -28.309  1.00  0.00     0.007 A 
HETATM   35  C21 UNL     1     -14.240  42.704 -28.223  1.00  0.00     0.001 A 
HETATM   36  C22 UNL     1     -15.634  42.654 -28.183  1.00  0.00     0.011 A 
HETATM   37  C23 UNL     1     -16.400  43.832 -28.229  1.00  0.00     0.004 A 
HETATM   38  C25 UNL     1     -15.723  45.062 -28.327  1.00  0.00     0.018 A 
BRANCH  37  39
HETATM   39  C24 UNL     1     -17.911  43.815 -28.146  1.00  0.00     0.479 C 
BRANCH  39  40
HETATM   40  N1  UNL     1     -18.464  44.939 -27.447  1.00  0.00     0.116 N 
HETATM   41  H24 UNL     1     -19.467  44.903 -27.623  1.00  0.00     0.316 HD
HETATM   42  H25 UNL     1     -18.146  45.796 -27.884  1.00  0.00     0.316 HD
ENDBRANCH  39  40
BRANCH  39  43
HETATM   43  N2  UNL     1     -18.540  43.885 -29.440  1.00  0.00     0.116 N 
HETATM   44  H26 UNL     1     -18.247  43.063 -29.969  1.00  0.00     0.316 HD
HETATM   45  H27 UNL     1     -18.154  44.673 -29.951  1.00  0.00     0.316 HD
ENDBRANCH  39  43
ENDBRANCH  37  39
ENDBRANCH  32  33
ENDBRANCH  20  32
BRANCH   7  46
HETATM   46  O2  UNL     1      -5.036  49.076 -25.863  1.00  0.00    -0.359 OA
HETATM   47  H5  UNL     1      -4.156  49.508 -25.790  1.00  0.00     0.217 HD
ENDBRANCH   7  46
TORSDOF 6
ENDMDL
MODEL 3
REMARK minimizedAffinity -10.2253351
REMARK CNNscore 0.111669958
REMARK CNNaffinity 5.16946793
REMARK  6 active torsions:
REMARK  status: ('A' for Active; 'I' for Inactive)
REMARK    1  A    between atoms: C6_7  and  O2_8 
REMARK    2  A    between atoms: C17_21  and  C18_22 
REMARK    3  A    between atoms: C18_22  and  C19_23 
REMARK    4  A    between atoms: C23_27  and  C24_28 
REMARK    5  A    between atoms: C24_28  and  N1_29 
REMARK    6  A    between atoms: C24_28  and  N2_30 
ROOT
HETATM    1  C1  UNL     1      -2.523  48.904 -25.882  1.00  0.00     0.077 C 
HETATM    2  C2  UNL     1      -3.815  48.515 -26.530  1.00  0.00     0.053 A 
HETATM    3  C3  UNL     1      -3.957  48.432 -27.859  1.00  0.00     0.088 A 
HETATM    4  C4  UNL     1      -5.260  48.048 -28.419  1.00  0.00     0.190 A 
HETATM    5  O1  UNL     1      -5.438  47.958 -29.629  1.00  0.00    -0.287 OA
HETATM    6  C5  UNL     1      -6.346  47.777 -27.467  1.00  0.00     0.082 A 
HETATM    7  C6  UNL     1      -7.634  47.421 -27.896  1.00  0.00     0.092 A 
HETATM    8  C7  UNL     1      -8.659  47.174 -26.967  1.00  0.00     0.016 A 
HETATM    9  C8  UNL     1      -8.349  47.305 -25.588  1.00  0.00     0.082 A 
HETATM   10  C9  UNL     1      -7.066  47.670 -25.170  1.00  0.00     0.075 A 
HETATM   11  C10 UNL     1      -6.067  47.901 -26.109  1.00  0.00     0.095 A 
HETATM   12  O3  UNL     1      -4.832  48.254 -25.625  1.00  0.00    -0.314 OA
HETATM   13  O4  UNL     1      -9.248  47.120 -24.550  1.00  0.00    -0.337 OA
HETATM   14  C11 UNL     1     -10.437  46.393 -24.916  1.00  0.00     0.091 C 
HETATM   15  C12 UNL     1     -10.053  44.900 -25.001  1.00  0.00     0.049 C 
HETATM   16  C13 UNL     1     -11.560  46.578 -23.802  1.00  0.00     0.041 C 
HETATM   17  C14 UNL     1     -12.714  45.524 -23.814  1.00  0.00     0.003 C 
HETATM   18  C15 UNL     1     -14.179  45.998 -23.639  1.00  0.00     0.003 C 
HETATM   19  C16 UNL     1     -14.913  46.763 -24.767  1.00  0.00     0.042 C 
HETATM   20  C17 UNL     1     -15.224  46.016 -26.086  1.00  0.00     0.107 A 
HETATM   21  O5  UNL     1     -14.261  45.039 -26.413  1.00  0.00    -0.352 OA
HETATM   22  C26 UNL     1     -14.223  46.200 -27.294  1.00  0.00     0.180 A 
HETATM   23  C27 UNL     1     -14.173  45.645 -28.711  1.00  0.00     0.052 C 
HETATM   24  C28 UNL     1     -12.710  45.681 -29.302  1.00  0.00     0.004 C 
HETATM   25  C29 UNL     1     -11.639  44.864 -28.526  1.00  0.00     0.001 C 
HETATM   26  C30 UNL     1     -10.245  45.526 -28.258  1.00  0.00     0.012 C 
HETATM   27  C31 UNL     1     -10.082  46.859 -27.432  1.00  0.00     0.057 C 
HETATM   28  C32 UNL     1     -10.964  47.048 -26.201  1.00  0.00     0.175 C 
HETATM   29  O6  UNL     1     -12.206  46.472 -26.419  1.00  0.00    -0.310 OA
HETATM   30  C33 UNL     1     -13.162  47.176 -27.008  1.00  0.00     0.297 C 
HETATM   31  O7  UNL     1     -13.174  48.348 -27.334  1.00  0.00    -0.262 OA
ENDROOT
BRANCH  20  32
HETATM   32  C18 UNL     1     -16.651  45.634 -26.370  1.00  0.00     0.080 C 
BRANCH  32  33
HETATM   33  C19 UNL     1     -17.535  45.821 -25.160  1.00  0.00    -0.055 A 
HETATM   34  C20 UNL     1     -18.927  45.754 -25.290  1.00  0.00     0.007 A 
HETATM   35  C21 UNL     1     -19.751  45.910 -24.179  1.00  0.00     0.001 A 
HETATM   36  C22 UNL     1     -19.192  46.125 -22.919  1.00  0.00     0.011 A 
HETATM   37  C23 UNL     1     -17.798  46.189 -22.750  1.00  0.00     0.004 A 
HETATM   38  C25 UNL     1     -16.982  46.041 -23.888  1.00  0.00     0.018 A 
BRANCH  37  39
HETATM   39  C24 UNL     1     -17.157  46.381 -21.392  1.00  0.00     0.479 C 
BRANCH  39  40
HETATM   40  N1  UNL     1     -18.086  46.744 -20.361  1.00  0.00     0.116 N 
HETATM   41  H24 UNL     1     -17.570  46.660 -19.487  1.00  0.00     0.316 HD
HETATM   42  H25 UNL     1     -18.818  46.046 -20.308  1.00  0.00     0.316 HD
ENDBRANCH  39  40
BRANCH  39  43
HETATM   43  N2  UNL     1     -16.552  45.176 -20.887  1.00  0.00     0.116 N 
HETATM   44  H26 UNL     1     -15.819  44.901 -21.541  1.00  0.00     0.316 HD
HETATM   45  H27 UNL     1     -17.233  44.423 -20.929  1.00  0.00     0.316 HD
ENDBRANCH  39  43
ENDBRANCH  37  39
ENDBRANCH  32  33
ENDBRANCH  20  32
BRANCH   7  46
HETATM   46  O2  UNL     1      -7.941  47.334 -29.231  1.00  0.00    -0.359 OA
HETATM   47  H5  UNL     1      -7.137  47.549 -29.755  1.00  0.00     0.217 HD
ENDBRANCH   7  46
TORSDOF 6
ENDMDL
MODEL 4
REMARK minimizedAffinity -8.57922173
REMARK CNNscore 0.0962359533
REMARK CNNaffinity 6.2950654
REMARK  6 active torsions:
REMARK  status: ('A' for Active; 'I' for Inactive)
REMARK    1  A    between atoms: C6_7  and  O2_8 
REMARK    2  A    between atoms: C17_21  and  C18_22 
REMARK    3  A    between atoms: C18_22  and  C19_23 
REMARK    4  A    between atoms: C23_27  and  C24_28 
REMARK    5  A    between atoms: C24_28  and  N1_29 
REMARK    6  A    between atoms: C24_28  and  N2_30 
ROOT
HETATM    1  C1  UNL     1       1.846  54.185 -22.050  1.00  0.00     0.077 C 
HETATM    2  C2  UNL     1       0.743  53.350 -21.480  1.00  0.00     0.053 A 
HETATM    3  C3  UNL     1       0.583  53.170 -20.162  1.00  0.00     0.088 A 
HETATM    4  C4  UNL     1      -0.523  52.332 -19.681  1.00  0.00     0.190 A 
HETATM    5  O1  UNL     1      -0.710  52.140 -18.484  1.00  0.00    -0.287 OA
HETATM    6  C5  UNL     1      -1.399  51.728 -20.695  1.00  0.00     0.082 A 
HETATM    7  C6  UNL     1      -2.472  50.895 -20.344  1.00  0.00     0.092 A 
HETATM    8  C7  UNL     1      -3.291  50.323 -21.331  1.00  0.00     0.016 A 
HETATM    9  C8  UNL     1      -2.990  50.608 -22.689  1.00  0.00     0.082 A 
HETATM   10  C9  UNL     1      -1.912  51.430 -23.030  1.00  0.00     0.075 A 
HETATM   11  C10 UNL     1      -1.121  51.992 -22.033  1.00  0.00     0.095 A 
HETATM   12  O3  UNL     1      -0.082  52.789 -22.443  1.00  0.00    -0.314 OA
HETATM   13  O4  UNL     1      -3.681  50.106 -23.780  1.00  0.00    -0.337 OA
HETATM   14  C11 UNL     1      -4.987  49.583 -23.466  1.00  0.00     0.091 C 
HETATM   15  C12 UNL     1      -5.931  50.791 -23.278  1.00  0.00     0.049 C 
HETATM   16  C13 UNL     1      -5.524  48.685 -24.667  1.00  0.00     0.041 C 
HETATM   17  C14 UNL     1      -7.065  48.422 -24.687  1.00  0.00     0.003 C 
HETATM   18  C15 UNL     1      -7.588  46.996 -24.992  1.00  0.00     0.003 C 
HETATM   19  C16 UNL     1      -7.441  45.851 -23.960  1.00  0.00     0.042 C 
HETATM   20  C17 UNL     1      -8.228  45.947 -22.631  1.00  0.00     0.107 A 
HETATM   21  O5  UNL     1      -8.411  47.273 -22.187  1.00  0.00    -0.352 OA
HETATM   22  C26 UNL     1      -7.476  46.515 -21.364  1.00  0.00     0.180 A 
HETATM   23  C27 UNL     1      -7.891  46.768 -19.921  1.00  0.00     0.052 C 
HETATM   24  C28 UNL     1      -6.968  47.844 -19.228  1.00  0.00     0.004 C 
HETATM   25  C29 UNL     1      -6.952  49.255 -19.881  1.00  0.00     0.001 C 
HETATM   26  C30 UNL     1      -5.572  49.969 -20.080  1.00  0.00     0.012 C 
HETATM   27  C31 UNL     1      -4.415  49.355 -20.956  1.00  0.00     0.057 C 
HETATM   28  C32 UNL     1      -4.800  48.655 -22.257  1.00  0.00     0.175 C 
HETATM   29  O6  UNL     1      -6.019  48.011 -22.102  1.00  0.00    -0.310 OA
HETATM   30  C33 UNL     1      -6.053  46.777 -21.620  1.00  0.00     0.297 C 
HETATM   31  O7  UNL     1      -5.136  46.022 -21.355  1.00  0.00    -0.262 OA
ENDROOT
BRANCH  20  32
HETATM   32  C18 UNL     1      -9.407  45.034 -22.433  1.00  0.00     0.080 C 
BRANCH  32  33
HETATM   33  C19 UNL     1     -10.714  45.723 -22.750  1.00  0.00    -0.055 A 
HETATM   34  C20 UNL     1     -11.090  45.936 -24.081  1.00  0.00     0.007 A 
HETATM   35  C21 UNL     1     -12.299  46.557 -24.384  1.00  0.00     0.001 A 
HETATM   36  C22 UNL     1     -13.153  46.963 -23.358  1.00  0.00     0.011 A 
HETATM   37  C23 UNL     1     -12.810  46.756 -22.010  1.00  0.00     0.004 A 
HETATM   38  C25 UNL     1     -11.579  46.138 -21.725  1.00  0.00     0.018 A 
BRANCH  37  39
HETATM   39  C24 UNL     1     -13.731  47.148 -20.874  1.00  0.00     0.479 C 
BRANCH  39  40
HETATM   40  N1  UNL     1     -13.388  48.397 -20.258  1.00  0.00     0.116 N 
HETATM   41  H24 UNL     1     -14.175  48.627 -19.653  1.00  0.00     0.316 HD
HETATM   42  H25 UNL     1     -13.371  49.125 -20.963  1.00  0.00     0.316 HD
ENDBRANCH  39  40
BRANCH  39  43
HETATM   43  N2  UNL     1     -15.090  47.349 -21.303  1.00  0.00     0.116 N 
HETATM   44  H26 UNL     1     -15.426  46.465 -21.686  1.00  0.00     0.316 HD
HETATM   45  H27 UNL     1     -15.095  47.991 -22.091  1.00  0.00     0.316 HD
ENDBRANCH  39  43
ENDBRANCH  37  39
ENDBRANCH  32  33
ENDBRANCH  20  32
BRANCH   7  46
HETATM   46  O2  UNL     1      -2.737  50.589 -19.032  1.00  0.00    -0.359 OA
HETATM   47  H5  UNL     1      -2.076  51.043 -18.462  1.00  0.00     0.217 HD
ENDBRANCH   7  46
TORSDOF 6
ENDMDL
MODEL 5
REMARK minimizedAffinity -10.2411833
REMARK CNNscore 0.0960071161
REMARK CNNaffinity 6.1868701
REMARK  6 active torsions:
REMARK  status: ('A' for Active; 'I' for Inactive)
REMARK    1  A    between atoms: C6_7  and  O2_8 
REMARK    2  A    between atoms: C17_21  and  C18_22 
REMARK    3  A    between atoms: C18_22  and  C19_23 
REMARK    4  A    between atoms: C23_27  and  C24_28 
REMARK    5  A    between atoms: C24_28  and  N1_29 
REMARK    6  A    between atoms: C24_28  and  N2_30 
ROOT
HETATM    1  C1  UNL     1     -12.936  44.444 -25.125  1.00  0.00     0.077 C 
HETATM    2  C2  UNL     1     -11.910  45.533 -25.071  1.00  0.00     0.053 A 
HETATM    3  C3  UNL     1     -12.035  46.674 -25.761  1.00  0.00     0.088 A 
HETATM    4  C4  UNL     1     -10.982  47.693 -25.659  1.00  0.00     0.190 A 
HETATM    5  O1  UNL     1     -11.054  48.754 -26.271  1.00  0.00    -0.287 OA
HETATM    6  C5  UNL     1      -9.835  47.389 -24.792  1.00  0.00     0.082 A 
HETATM    7  C6  UNL     1      -8.766  48.285 -24.638  1.00  0.00     0.092 A 
HETATM    8  C7  UNL     1      -7.677  47.969 -23.809  1.00  0.00     0.016 A 
HETATM    9  C8  UNL     1      -7.692  46.715 -23.144  1.00  0.00     0.082 A 
HETATM   10  C9  UNL     1      -8.756  45.825 -23.312  1.00  0.00     0.075 A 
HETATM   11  C10 UNL     1      -9.827  46.164 -24.131  1.00  0.00     0.095 A 
HETATM   12  O3  UNL     1     -10.836  45.241 -24.246  1.00  0.00    -0.314 OA
HETATM   13  O4  UNL     1      -6.688  46.243 -22.314  1.00  0.00    -0.337 OA
HETATM   14  C11 UNL     1      -5.789  47.260 -21.832  1.00  0.00     0.091 C 
HETATM   15  C12 UNL     1      -6.520  48.021 -20.705  1.00  0.00     0.049 C 
HETATM   16  C13 UNL     1      -4.470  46.593 -21.237  1.00  0.00     0.041 C 
HETATM   17  C14 UNL     1      -3.617  47.495 -20.288  1.00  0.00     0.003 C 
HETATM   18  C15 UNL     1      -2.075  47.515 -20.441  1.00  0.00     0.003 C 
HETATM   19  C16 UNL     1      -1.400  48.208 -21.650  1.00  0.00     0.042 C 
HETATM   20  C17 UNL     1      -1.517  49.746 -21.780  1.00  0.00     0.107 A 
HETATM   21  O5  UNL     1      -2.725  50.258 -21.263  1.00  0.00    -0.352 OA
HETATM   22  C26 UNL     1      -2.650  50.325 -22.717  1.00  0.00     0.180 A 
HETATM   23  C27 UNL     1      -3.084  51.735 -23.092  1.00  0.00     0.052 C 
HETATM   24  C28 UNL     1      -4.580  51.771 -23.592  1.00  0.00     0.004 C 
HETATM   25  C29 UNL     1      -5.654  51.291 -22.576  1.00  0.00     0.001 C 
HETATM   26  C30 UNL     1      -6.782  50.328 -23.081  1.00  0.00     0.012 C 
HETATM   27  C31 UNL     1      -6.476  48.910 -23.698  1.00  0.00     0.057 C 
HETATM   28  C32 UNL     1      -5.366  48.079 -23.060  1.00  0.00     0.175 C 
HETATM   29  O6  UNL     1      -4.353  48.913 -22.609  1.00  0.00    -0.310 OA
HETATM   30  C33 UNL     1      -3.383  49.273 -23.436  1.00  0.00     0.297 C 
HETATM   31  O7  UNL     1      -3.156  48.907 -24.574  1.00  0.00    -0.262 OA
ENDROOT
BRANCH  20  32
HETATM   32  C18 UNL     1      -0.295  50.580 -21.509  1.00  0.00     0.080 C 
BRANCH  32  33
HETATM   33  C19 UNL     1      -0.151  50.908 -20.041  1.00  0.00    -0.055 A 
HETATM   34  C20 UNL     1       0.247  52.189 -19.644  1.00  0.00     0.007 A 
HETATM   35  C21 UNL     1       0.368  52.506 -18.294  1.00  0.00     0.001 A 
HETATM   36  C22 UNL     1       0.082  51.547 -17.322  1.00  0.00     0.011 A 
HETATM   37  C23 UNL     1      -0.329  50.253 -17.686  1.00  0.00     0.004 A 
HETATM   38  C25 UNL     1      -0.434  49.949 -19.056  1.00  0.00     0.018 A 
BRANCH  37  39
HETATM   39  C24 UNL     1      -0.686  49.201 -16.657  1.00  0.00     0.479 C 
BRANCH  39  40
HETATM   40  N1  UNL     1      -1.485  48.130 -17.179  1.00  0.00     0.116 N 
HETATM   41  H24 UNL     1      -1.495  47.418 -16.451  1.00  0.00     0.316 HD
HETATM   42  H25 UNL     1      -1.005  47.705 -17.963  1.00  0.00     0.316 HD
ENDBRANCH  39  40
BRANCH  39  43
HETATM   43  N2  UNL     1       0.470  48.527 -16.126  1.00  0.00     0.116 N 
HETATM   44  H26 UNL     1       1.051  49.228 -15.667  1.00  0.00     0.316 HD
HETATM   45  H27 UNL     1       1.036  48.187 -16.898  1.00  0.00     0.316 HD
ENDBRANCH  39  43
ENDBRANCH  37  39
ENDBRANCH  32  33
ENDBRANCH  20  32
BRANCH   7  46
HETATM   46  O2  UNL     1      -8.736  49.480 -25.313  1.00  0.00    -0.359 OA
HETATM   47  H5  UNL     1      -9.549  49.554 -25.862  1.00  0.00     0.217 HD
ENDBRANCH   7  46
TORSDOF 6
ENDMDL
MODEL 6
REMARK minimizedAffinity -10.3382206
REMARK CNNscore 0.0924711078
REMARK CNNaffinity 6.59324694
REMARK  6 active torsions:
REMARK  status: ('A' for Active; 'I' for Inactive)
REMARK    1  A    between atoms: C6_7  and  O2_8 
REMARK    2  A    between atoms: C17_21  and  C18_22 
REMARK    3  A    between atoms: C18_22  and  C19_23 
REMARK    4  A    between atoms: C23_27  and  C24_28 
REMARK    5  A    between atoms: C24_28  and  N1_29 
REMARK    6  A    between atoms: C24_28  and  N2_30 
ROOT
HETATM    1  C1  UNL     1     -12.594  45.927 -17.376  1.00  0.00     0.077 C 
HETATM    2  C2  UNL     1     -11.125  46.052 -17.634  1.00  0.00     0.053 A 
HETATM    3  C3  UNL     1     -10.210  45.369 -16.933  1.00  0.00     0.088 A 
HETATM    4  C4  UNL     1      -8.786  45.551 -17.243  1.00  0.00     0.190 A 
HETATM    5  O1  UNL     1      -7.913  44.946 -16.630  1.00  0.00    -0.287 OA
HETATM    6  C5  UNL     1      -8.448  46.490 -18.321  1.00  0.00     0.082 A 
HETATM    7  C6  UNL     1      -7.118  46.752 -18.685  1.00  0.00     0.092 A 
HETATM    8  C7  UNL     1      -6.819  47.660 -19.714  1.00  0.00     0.016 A 
HETATM    9  C8  UNL     1      -7.903  48.308 -20.362  1.00  0.00     0.082 A 
HETATM   10  C9  UNL     1      -9.224  48.050 -19.986  1.00  0.00     0.075 A 
HETATM   11  C10 UNL     1      -9.494  47.139 -18.970  1.00  0.00     0.095 A 
HETATM   12  O3  UNL     1     -10.815  46.936 -18.656  1.00  0.00    -0.314 OA
HETATM   13  O4  UNL     1      -7.779  49.244 -21.375  1.00  0.00    -0.337 OA
HETATM   14  C11 UNL     1      -6.494  49.248 -22.027  1.00  0.00     0.091 C 
HETATM   15  C12 UNL     1      -6.464  48.038 -22.986  1.00  0.00     0.049 C 
HETATM   16  C13 UNL     1      -6.308  50.586 -22.872  1.00  0.00     0.041 C 
HETATM   17  C14 UNL     1      -5.200  50.550 -23.973  1.00  0.00     0.003 C 
HETATM   18  C15 UNL     1      -4.245  51.760 -24.129  1.00  0.00     0.003 C 
HETATM   19  C16 UNL     1      -3.145  52.053 -23.079  1.00  0.00     0.042 C 
HETATM   20  C17 UNL     1      -1.980  51.046 -22.928  1.00  0.00     0.107 A 
HETATM   21  O5  UNL     1      -2.357  49.714 -23.195  1.00  0.00    -0.352 OA
HETATM   22  C26 UNL     1      -2.083  49.961 -21.785  1.00  0.00     0.180 A 
HETATM   23  C27 UNL     1      -1.178  48.824 -21.331  1.00  0.00     0.052 C 
HETATM   24  C28 UNL     1      -1.981  47.717 -20.543  1.00  0.00     0.004 C 
HETATM   25  C29 UNL     1      -3.127  47.015 -21.326  1.00  0.00     0.001 C 
HETATM   26  C30 UNL     1      -4.502  46.804 -20.606  1.00  0.00     0.012 C 
HETATM   27  C31 UNL     1      -5.369  48.003 -20.062  1.00  0.00     0.057 C 
HETATM   28  C32 UNL     1      -5.443  49.272 -20.908  1.00  0.00     0.175 C 
HETATM   29  O6  UNL     1      -4.232  49.480 -21.551  1.00  0.00    -0.310 OA
HETATM   30  C33 UNL     1      -3.267  50.145 -20.934  1.00  0.00     0.297 C 
HETATM   31  O7  UNL     1      -3.284  50.724 -19.864  1.00  0.00    -0.262 OA
ENDROOT
BRANCH  20  32
HETATM   32  C18 UNL     1      -0.622  51.445 -23.437  1.00  0.00     0.080 C 
BRANCH  32  33
HETATM   33  C19 UNL     1       0.089  52.372 -22.479  1.00  0.00    -0.055 A 
HETATM   34  C20 UNL     1       0.931  53.377 -22.968  1.00  0.00     0.007 A 
HETATM   35  C21 UNL     1       1.579  54.246 -22.094  1.00  0.00     0.001 A 
HETATM   36  C22 UNL     1       1.384  54.127 -20.718  1.00  0.00     0.011 A 
HETATM   37  C23 UNL     1       0.538  53.135 -20.192  1.00  0.00     0.004 A 
HETATM   38  C25 UNL     1      -0.098  52.259 -21.091  1.00  0.00     0.018 A 
BRANCH  37  39
HETATM   39  C24 UNL     1       0.274  53.003 -18.707  1.00  0.00     0.479 C 
BRANCH  39  40
HETATM   40  N1  UNL     1      -0.373  51.776 -18.342  1.00  0.00     0.116 N 
HETATM   41  H24 UNL     1      -0.323  51.734 -17.326  1.00  0.00     0.316 HD
HETATM   42  H25 UNL     1       0.181  50.994 -18.671  1.00  0.00     0.316 HD
ENDBRANCH  39  40
BRANCH  39  43
HETATM   43  N2  UNL     1       1.483  52.988 -17.926  1.00  0.00     0.116 N 
HETATM   44  H26 UNL     1       1.961  53.876 -18.080  1.00  0.00     0.316 HD
HETATM   45  H27 UNL     1       2.112  52.286 -18.306  1.00  0.00     0.316 HD
ENDBRANCH  39  43
ENDBRANCH  37  39
ENDBRANCH  32  33
ENDBRANCH  20  32
BRANCH   7  46
HETATM   46  O2  UNL     1      -6.070  46.154 -18.030  1.00  0.00    -0.359 OA
HETATM   47  H5  UNL     1      -6.430  45.564 -17.330  1.00  0.00     0.217 HD
ENDBRANCH   7  46
TORSDOF 6
ENDMDL
MODEL 7
REMARK minimizedAffinity -10.2580519
REMARK CNNscore 0.0895880014
REMARK CNNaffinity 6.83248758
REMARK  6 active torsions:
REMARK  status: ('A' for Active; 'I' for Inactive)
REMARK    1  A    between atoms: C6_7  and  O2_8 
REMARK    2  A    between atoms: C17_21  and  C18_22 
REMARK    3  A    between atoms: C18_22  and  C19_23 
REMARK    4  A    between atoms: C23_27  and  C24_28 
REMARK    5  A    between atoms: C24_28  and  N1_29 
REMARK    6  A    between atoms: C24_28  and  N2_30 
ROOT
HETATM    1  C1  UNL     1     -12.725  44.098 -25.746  1.00  0.00     0.077 C 
HETATM    2  C2  UNL     1     -11.802  45.256 -25.528  1.00  0.00     0.053 A 
HETATM    3  C3  UNL     1     -12.032  46.468 -26.050  1.00  0.00     0.088 A 
HETATM    4  C4  UNL     1     -11.075  47.553 -25.794  1.00  0.00     0.190 A 
HETATM    5  O1  UNL     1     -11.245  48.679 -26.250  1.00  0.00    -0.287 OA
HETATM    6  C5  UNL     1      -9.902  47.233 -24.969  1.00  0.00     0.082 A 
HETATM    7  C6  UNL     1      -8.917  48.190 -24.681  1.00  0.00     0.092 A 
HETATM    8  C7  UNL     1      -7.800  47.859 -23.896  1.00  0.00     0.016 A 
HETATM    9  C8  UNL     1      -7.699  46.526 -23.416  1.00  0.00     0.082 A 
HETATM   10  C9  UNL     1      -8.679  45.577 -23.718  1.00  0.00     0.075 A 
HETATM   11  C10 UNL     1      -9.780  45.932 -24.490  1.00  0.00     0.095 A 
HETATM   12  O3  UNL     1     -10.702  44.947 -24.744  1.00  0.00    -0.314 OA
HETATM   13  O4  UNL     1      -6.653  46.033 -22.654  1.00  0.00    -0.337 OA
HETATM   14  C11 UNL     1      -5.847  47.048 -22.024  1.00  0.00     0.091 C 
HETATM   15  C12 UNL     1      -6.639  47.571 -20.806  1.00  0.00     0.049 C 
HETATM   16  C13 UNL     1      -4.471  46.424 -21.519  1.00  0.00     0.041 C 
HETATM   17  C14 UNL     1      -3.699  47.254 -20.443  1.00  0.00     0.003 C 
HETATM   18  C15 UNL     1      -2.166  47.434 -20.579  1.00  0.00     0.003 C 
HETATM   19  C16 UNL     1      -1.561  48.351 -21.671  1.00  0.00     0.042 C 
HETATM   20  C17 UNL     1      -1.817  49.875 -21.582  1.00  0.00     0.107 A 
HETATM   21  O5  UNL     1      -3.064  50.197 -21.007  1.00  0.00    -0.352 OA
HETATM   22  C26 UNL     1      -3.002  50.477 -22.437  1.00  0.00     0.180 A 
HETATM   23  C27 UNL     1      -3.563  51.881 -22.611  1.00  0.00     0.052 C 
HETATM   24  C28 UNL     1      -5.059  51.854 -23.113  1.00  0.00     0.004 C 
HETATM   25  C29 UNL     1      -6.080  51.139 -22.185  1.00  0.00     0.001 C 
HETATM   26  C30 UNL     1      -7.119  50.160 -22.832  1.00  0.00     0.012 C 
HETATM   27  C31 UNL     1      -6.688  48.878 -23.642  1.00  0.00     0.057 C 
HETATM   28  C32 UNL     1      -5.505  48.068 -23.119  1.00  0.00     0.175 C 
HETATM   29  O6  UNL     1      -4.570  48.917 -22.546  1.00  0.00    -0.310 OA
HETATM   30  C33 UNL     1      -3.640  49.477 -23.304  1.00  0.00     0.297 C 
HETATM   31  O7  UNL     1      -3.386  49.298 -24.481  1.00  0.00    -0.262 OA
ENDROOT
BRANCH  20  32
HETATM   32  C18 UNL     1      -0.674  50.768 -21.185  1.00  0.00     0.080 C 
BRANCH  32  33
HETATM   33  C19 UNL     1      -0.205  51.628 -22.335  1.00  0.00    -0.055 A 
HETATM   34  C20 UNL     1       0.444  52.842 -22.085  1.00  0.00     0.007 A 
HETATM   35  C21 UNL     1       0.894  53.635 -23.137  1.00  0.00     0.001 A 
HETATM   36  C22 UNL     1       0.710  53.217 -24.456  1.00  0.00     0.011 A 
HETATM   37  C23 UNL     1       0.071  51.998 -24.743  1.00  0.00     0.004 A 
HETATM   38  C25 UNL     1      -0.388  51.217 -23.665  1.00  0.00     0.018 A 
BRANCH  37  39
HETATM   39  C24 UNL     1      -0.110  51.496 -26.160  1.00  0.00     0.479 C 
BRANCH  39  40
HETATM   40  N1  UNL     1       1.075  50.913 -26.721  1.00  0.00     0.116 N 
HETATM   41  H24 UNL     1       0.773  50.459 -27.582  1.00  0.00     0.316 HD
HETATM   42  H25 UNL     1       1.396  50.163 -26.121  1.00  0.00     0.316 HD
ENDBRANCH  39  40
BRANCH  39  43
HETATM   43  N2  UNL     1      -1.080  50.437 -26.255  1.00  0.00     0.116 N 
HETATM   44  H26 UNL     1      -1.976  50.810 -25.940  1.00  0.00     0.316 HD
HETATM   45  H27 UNL     1      -0.848  49.715 -25.579  1.00  0.00     0.316 HD
ENDBRANCH  39  43
ENDBRANCH  37  39
ENDBRANCH  32  33
ENDBRANCH  20  32
BRANCH   7  46
HETATM   46  O2  UNL     1      -8.998  49.467 -25.178  1.00  0.00    -0.359 OA
HETATM   47  H5  UNL     1      -9.816  49.545 -25.718  1.00  0.00     0.217 HD
ENDBRANCH   7  46
TORSDOF 6
ENDMDL
MODEL 8
REMARK minimizedAffinity -11.8523912
REMARK CNNscore 0.0807521418
REMARK CNNaffinity 6.0840764
REMARK  6 active torsions:
REMARK  status: ('A' for Active; 'I' for Inactive)
REMARK    1  A    between atoms: C6_7  and  O2_8 
REMARK    2  A    between atoms: C17_21  and  C18_22 
REMARK    3  A    between atoms: C18_22  and  C19_23 
REMARK    4  A    between atoms: C23_27  and  C24_28 
REMARK    5  A    between atoms: C24_28  and  N1_29 
REMARK    6  A    between atoms: C24_28  and  N2_30 
ROOT
HETATM    1  C1  UNL     1      -8.085  46.410 -28.033  1.00  0.00     0.077 C 
HETATM    2  C2  UNL     1      -6.857  47.125 -27.563  1.00  0.00     0.053 A 
HETATM    3  C3  UNL     1      -5.825  47.393 -28.375  1.00  0.00     0.088 A 
HETATM    4  C4  UNL     1      -4.652  48.095 -27.837  1.00  0.00     0.190 A 
HETATM    5  O1  UNL     1      -3.685  48.363 -28.542  1.00  0.00    -0.287 OA
HETATM    6  C5  UNL     1      -4.684  48.463 -26.414  1.00  0.00     0.082 A 
HETATM    7  C6  UNL     1      -3.609  49.119 -25.796  1.00  0.00     0.092 A 
HETATM    8  C7  UNL     1      -3.659  49.454 -24.433  1.00  0.00     0.016 A 
HETATM    9  C8  UNL     1      -4.826  49.100 -23.705  1.00  0.00     0.082 A 
HETATM   10  C9  UNL     1      -5.887  48.437 -24.327  1.00  0.00     0.075 A 
HETATM   11  C10 UNL     1      -5.817  48.124 -25.680  1.00  0.00     0.095 A 
HETATM   12  O3  UNL     1      -6.898  47.474 -26.223  1.00  0.00    -0.314 OA
HETATM   13  O4  UNL     1      -5.023  49.335 -22.355  1.00  0.00    -0.337 OA
HETATM   14  C11 UNL     1      -4.141  50.325 -21.789  1.00  0.00     0.091 C 
HETATM   15  C12 UNL     1      -4.668  51.710 -22.225  1.00  0.00     0.049 C 
HETATM   16  C13 UNL     1      -4.163  50.238 -20.199  1.00  0.00     0.041 C 
HETATM   17  C14 UNL     1      -3.633  51.496 -19.439  1.00  0.00     0.003 C 
HETATM   18  C15 UNL     1      -2.690  51.308 -18.223  1.00  0.00     0.003 C 
HETATM   19  C16 UNL     1      -1.223  50.847 -18.412  1.00  0.00     0.042 C 
HETATM   20  C17 UNL     1      -0.238  51.794 -19.138  1.00  0.00     0.107 A 
HETATM   21  O5  UNL     1      -0.855  52.589 -20.125  1.00  0.00    -0.352 OA
HETATM   22  C26 UNL     1       0.015  51.558 -20.679  1.00  0.00     0.180 A 
HETATM   23  C27 UNL     1       0.877  52.257 -21.721  1.00  0.00     0.052 C 
HETATM   24  C28 UNL     1       0.348  51.999 -23.185  1.00  0.00     0.004 C 
HETATM   25  C29 UNL     1      -1.097  52.486 -23.487  1.00  0.00     0.001 C 
HETATM   26  C30 UNL     1      -2.058  51.529 -24.272  1.00  0.00     0.012 C 
HETATM   27  C31 UNL     1      -2.459  50.102 -23.738  1.00  0.00     0.057 C 
HETATM   28  C32 UNL     1      -2.724  49.948 -22.242  1.00  0.00     0.175 C 
HETATM   29  O6  UNL     1      -1.879  50.784 -21.527  1.00  0.00    -0.310 OA
HETATM   30  C33 UNL     1      -0.670  50.362 -21.189  1.00  0.00     0.297 C 
HETATM   31  O7  UNL     1      -0.164  49.264 -21.327  1.00  0.00    -0.262 OA
ENDROOT
BRANCH  20  32
HETATM   32  C18 UNL     1       0.819  52.485 -18.321  1.00  0.00     0.080 C 
BRANCH  32  33
HETATM   33  C19 UNL     1       1.137  51.727 -17.053  1.00  0.00    -0.055 A 
HETATM   34  C20 UNL     1       2.002  52.280 -16.103  1.00  0.00     0.007 A 
HETATM   35  C21 UNL     1       2.290  51.597 -14.924  1.00  0.00     0.001 A 
HETATM   36  C22 UNL     1       1.707  50.354 -14.676  1.00  0.00     0.011 A 
HETATM   37  C23 UNL     1       0.825  49.773 -15.605  1.00  0.00     0.004 A 
HETATM   38  C25 UNL     1       0.557  50.475 -16.795  1.00  0.00     0.018 A 
BRANCH  37  39
HETATM   39  C24 UNL     1       0.144  48.446 -15.350  1.00  0.00     0.479 C 
BRANCH  39  40
HETATM   40  N1  UNL     1      -0.826  48.093 -16.346  1.00  0.00     0.116 N 
HETATM   41  H24 UNL     1      -1.066  47.121 -16.161  1.00  0.00     0.316 HD
HETATM   42  H25 UNL     1      -0.385  48.092 -17.258  1.00  0.00     0.316 HD
ENDBRANCH  39  40
BRANCH  39  43
HETATM   43  N2  UNL     1       1.061  47.336 -15.370  1.00  0.00     0.116 N 
HETATM   44  H26 UNL     1       1.742  47.486 -14.625  1.00  0.00     0.316 HD
HETATM   45  H27 UNL     1       1.604  47.373 -16.228  1.00  0.00     0.316 HD
ENDBRANCH  39  43
ENDBRANCH  37  39
ENDBRANCH  32  33
ENDBRANCH  20  32
BRANCH   7  46
HETATM   46  O2  UNL     1      -2.466  49.425 -26.492  1.00  0.00    -0.359 OA
HETATM   47  H5  UNL     1      -2.569  49.117 -27.420  1.00  0.00     0.217 HD
ENDBRANCH   7  46
TORSDOF 6
ENDMDL
MODEL 9
REMARK minimizedAffinity -8.71029377
REMARK CNNscore 0.0769129246
REMARK CNNaffinity 6.54599714
REMARK  6 active torsions:
REMARK  status: ('A' for Active; 'I' for Inactive)
REMARK    1  A    between atoms: C6_7  and  O2_8 
REMARK    2  A    between atoms: C17_21  and  C18_22 
REMARK    3  A    between atoms: C18_22  and  C19_23 
REMARK    4  A    between atoms: C23_27  and  C24_28 
REMARK    5  A    between atoms: C24_28  and  N1_29 
REMARK    6  A    between atoms: C24_28  and  N2_30 
ROOT
HETATM    1  C1  UNL     1      -0.761  54.273 -28.614  1.00  0.00     0.077 C 
HETATM    2  C2  UNL     1      -1.074  53.401 -27.439  1.00  0.00     0.053 A 
HETATM    3  C3  UNL     1      -1.940  52.381 -27.510  1.00  0.00     0.088 A 
HETATM    4  C4  UNL     1      -2.197  51.573 -26.310  1.00  0.00     0.190 A 
HETATM    5  O1  UNL     1      -2.980  50.629 -26.328  1.00  0.00    -0.287 OA
HETATM    6  C5  UNL     1      -1.477  51.944 -25.084  1.00  0.00     0.082 A 
HETATM    7  C6  UNL     1      -1.665  51.251 -23.878  1.00  0.00     0.092 A 
HETATM    8  C7  UNL     1      -0.971  51.628 -22.717  1.00  0.00     0.016 A 
HETATM    9  C8  UNL     1      -0.086  52.736 -22.803  1.00  0.00     0.082 A 
HETATM   10  C9  UNL     1       0.086  53.427 -24.006  1.00  0.00     0.075 A 
HETATM   11  C10 UNL     1      -0.607  53.028 -25.144  1.00  0.00     0.095 A 
HETATM   12  O3  UNL     1      -0.386  53.753 -26.289  1.00  0.00    -0.314 OA
HETATM   13  O4  UNL     1       0.652  53.249 -21.749  1.00  0.00    -0.337 OA
HETATM   14  C11 UNL     1       0.787  52.354 -20.627  1.00  0.00     0.091 C 
HETATM   15  C12 UNL     1       1.849  51.300 -21.008  1.00  0.00     0.049 C 
HETATM   16  C13 UNL     1       1.284  53.152 -19.342  1.00  0.00     0.041 C 
HETATM   17  C14 UNL     1       1.902  52.287 -18.197  1.00  0.00     0.003 C 
HETATM   18  C15 UNL     1       1.509  52.580 -16.727  1.00  0.00     0.003 C 
HETATM   19  C16 UNL     1       0.101  52.226 -16.188  1.00  0.00     0.042 C 
HETATM   20  C17 UNL     1      -0.299  50.734 -16.086  1.00  0.00     0.107 A 
HETATM   21  O5  UNL     1       0.294  49.930 -17.081  1.00  0.00    -0.352 OA
HETATM   22  C26 UNL     1      -1.140  50.111 -17.269  1.00  0.00     0.180 A 
HETATM   23  C27 UNL     1      -1.703  48.722 -17.540  1.00  0.00     0.052 C 
HETATM   24  C28 UNL     1      -1.962  48.487 -19.078  1.00  0.00     0.004 C 
HETATM   25  C29 UNL     1      -0.718  48.590 -20.005  1.00  0.00     0.001 C 
HETATM   26  C30 UNL     1      -0.850  49.393 -21.344  1.00  0.00     0.012 C 
HETATM   27  C31 UNL     1      -1.228  50.923 -21.384  1.00  0.00     0.057 C 
HETATM   28  C32 UNL     1      -0.625  51.835 -20.318  1.00  0.00     0.175 C 
HETATM   29  O6  UNL     1      -0.503  51.144 -19.121  1.00  0.00    -0.310 OA
HETATM   30  C33 UNL     1      -1.524  51.108 -18.278  1.00  0.00     0.297 C 
HETATM   31  O7  UNL     1      -2.593  51.686 -18.328  1.00  0.00    -0.262 OA
ENDROOT
BRANCH  20  32
HETATM   32  C18 UNL     1      -0.384  50.111 -14.720  1.00  0.00     0.080 C 
BRANCH  32  33
HETATM   33  C19 UNL     1       0.829  50.432 -13.878  1.00  0.00    -0.055 A 
HETATM   34  C20 UNL     1       2.015  49.710 -14.053  1.00  0.00     0.007 A 
HETATM   35  C21 UNL     1       3.143  50.008 -13.292  1.00  0.00     0.001 A 
HETATM   36  C22 UNL     1       3.102  51.039 -12.353  1.00  0.00     0.011 A 
HETATM   37  C23 UNL     1       1.929  51.790 -12.159  1.00  0.00     0.004 A 
HETATM   38  C25 UNL     1       0.796  51.466 -12.929  1.00  0.00     0.018 A 
BRANCH  37  39
HETATM   39  C24 UNL     1       1.862  52.941 -11.178  1.00  0.00     0.479 C 
BRANCH  39  40
HETATM   40  N1  UNL     1       0.874  53.926 -11.510  1.00  0.00     0.116 N 
HETATM   41  H24 UNL     1       0.805  54.530 -10.693  1.00  0.00     0.316 HD
HETATM   42  H25 UNL     1      -0.032  53.479 -11.589  1.00  0.00     0.316 HD
ENDBRANCH  39  40
BRANCH  39  43
HETATM   43  N2  UNL     1       1.483  52.522  -9.853  1.00  0.00     0.116 N 
HETATM   44  H26 UNL     1       2.195  51.870  -9.521  1.00  0.00     0.316 HD
HETATM   45  H27 UNL     1       0.633  51.969  -9.913  1.00  0.00     0.316 HD
ENDBRANCH  39  43
ENDBRANCH  37  39
ENDBRANCH  32  33
ENDBRANCH  20  32
BRANCH   7  46
HETATM   46  O2  UNL     1      -2.550  50.205 -23.788  1.00  0.00    -0.359 OA
HETATM   47  H5  UNL     1      -2.969  50.070 -24.667  1.00  0.00     0.217 HD
ENDBRANCH   7  46
TORSDOF 6
ENDMDL
