MODEL 1
REMARK minimizedAffinity -6.66740465
REMARK CNNscore 0.708165407
REMARK CNNaffinity 6.70025253
REMARK  4 active torsions:
REMARK  status: ('A' for Active; 'I' for Inactive)
REMARK    1  A    between atoms: C4_4  and  C5_5 
REMARK    2  A    between atoms: C5_5  and  C6_6 
REMARK    3  A    between atoms: C6_6  and  C7_7 
REMARK    4  A    between atoms: C9_9  and  O1_10 
ROOT
HETATM    1  C7  UNL     1     -14.146   7.393  23.318  1.00  0.00    -0.007 C 
HETATM    2  C8  UNL     1     -13.616   7.944  24.643  1.00  0.00     0.038 C 
HETATM    3  C9  UNL     1     -13.160   9.409  24.607  1.00  0.00     0.131 C 
HETATM    4  C10 UNL     1     -12.150   9.733  23.432  1.00  0.00     0.013 C 
HETATM    5  C11 UNL     1     -10.816   8.991  23.760  1.00  0.00     0.023 C 
HETATM    6  C12 UNL     1     -11.764  11.248  23.305  1.00  0.00    -0.067 C 
HETATM    7  C13 UNL     1     -11.758  12.101  24.351  1.00  0.00    -0.022 C 
HETATM    8  C14 UNL     1     -11.336  13.541  24.315  1.00  0.00     0.034 C 
HETATM    9  C15 UNL     1     -11.077  14.092  22.900  1.00  0.00     0.013 C 
HETATM   10  C16 UNL     1     -10.519  15.559  22.886  1.00  0.00     0.018 C 
HETATM   11  C17 UNL     1     -11.625  16.521  23.387  1.00  0.00     0.023 C 
HETATM   12  C18 UNL     1      -9.280  15.813  23.759  1.00  0.00     0.023 C 
HETATM   13  C19 UNL     1     -10.161  15.957  21.449  1.00  0.00     0.135 C 
HETATM   14  O2  UNL     1     -10.382  17.086  21.002  1.00  0.00    -0.297 OA
HETATM   15  C20 UNL     1      -9.408  14.954  20.610  1.00  0.00     0.080 C 
HETATM   16  C21 UNL     1     -10.124  13.615  20.601  1.00  0.00     0.017 C 
HETATM   17  C22 UNL     1     -10.343  13.018  22.015  1.00  0.00    -0.031 C 
HETATM   18  C23 UNL     1      -8.979  12.567  22.590  1.00  0.00     0.016 C 
HETATM   19  C24 UNL     1     -11.333  11.775  21.927  1.00  0.00     0.024 C 
HETATM   20  C25 UNL     1     -10.855  10.660  20.991  1.00  0.00     0.010 C 
HETATM   21  C26 UNL     1     -11.801   9.458  20.886  1.00  0.00     0.011 C 
HETATM   22  C27 UNL     1     -12.803   9.242  22.064  1.00  0.00    -0.027 C 
HETATM   23  C28 UNL     1     -14.106  10.043  21.733  1.00  0.00     0.016 C 
HETATM   24  C29 UNL     1     -13.178   7.700  22.140  1.00  0.00    -0.005 C 
HETATM   25  C30 UNL     1     -13.744   7.139  20.821  1.00  0.00     0.011 C 
ENDROOT
BRANCH   1  26
HETATM   26  C6  UNL     1     -14.536   5.899  23.470  1.00  0.00     0.009 C 
BRANCH  26  27
HETATM   27  C5  UNL     1     -13.378   4.932  23.743  1.00  0.00     0.028 C 
BRANCH  27  28
HETATM   28  C4  UNL     1     -13.892   3.609  24.250  1.00  0.00    -0.025 C 
HETATM   29  C2  UNL     1     -13.178   2.501  24.529  1.00  0.00    -0.091 C 
HETATM   30  C1  UNL     1     -13.854   1.270  25.076  1.00  0.00     0.042 C 
HETATM   31  C3  UNL     1     -11.692   2.359  24.342  1.00  0.00     0.042 C 
ENDBRANCH  27  28
ENDBRANCH  26  27
ENDBRANCH   1  26
BRANCH   3  32
HETATM   32  O1  UNL     1     -12.580   9.645  25.899  1.00  0.00    -0.394 OA
HETATM   33  H16 UNL     1     -13.286   9.532  26.559  1.00  0.00     0.210 HD
ENDBRANCH   3  32
TORSDOF 4
ENDMDL
MODEL 2
REMARK minimizedAffinity -7.17742682
REMARK CNNscore 0.708095074
REMARK CNNaffinity 6.99546289
REMARK  4 active torsions:
REMARK  status: ('A' for Active; 'I' for Inactive)
REMARK    1  A    between atoms: C4_4  and  C5_5 
REMARK    2  A    between atoms: C5_5  and  C6_6 
REMARK    3  A    between atoms: C6_6  and  C7_7 
REMARK    4  A    between atoms: C9_9  and  O1_10 
ROOT
HETATM    1  C7  UNL     1     -11.491  11.943  23.813  1.00  0.00    -0.007 C 
HETATM    2  C8  UNL     1     -12.605  11.855  24.858  1.00  0.00     0.038 C 
HETATM    3  C9  UNL     1     -13.014  10.432  25.261  1.00  0.00     0.131 C 
HETATM    4  C10 UNL     1     -13.338   9.490  24.031  1.00  0.00     0.013 C 
HETATM    5  C11 UNL     1     -14.650  10.028  23.378  1.00  0.00     0.023 C 
HETATM    6  C12 UNL     1     -13.642   8.000  24.414  1.00  0.00    -0.067 C 
HETATM    7  C13 UNL     1     -14.168   7.635  25.603  1.00  0.00    -0.022 C 
HETATM    8  C14 UNL     1     -14.546   6.240  26.010  1.00  0.00     0.034 C 
HETATM    9  C15 UNL     1     -14.101   5.146  25.021  1.00  0.00     0.013 C 
HETATM   10  C16 UNL     1     -14.610   3.710  25.397  1.00  0.00     0.018 C 
HETATM   11  C17 UNL     1     -13.900   3.250  26.695  1.00  0.00     0.023 C 
HETATM   12  C18 UNL     1     -16.121   3.578  25.645  1.00  0.00     0.023 C 
HETATM   13  C19 UNL     1     -14.238   2.726  24.281  1.00  0.00     0.135 C 
HETATM   14  O2  UNL     1     -13.850   1.578  24.514  1.00  0.00    -0.297 OA
HETATM   15  C20 UNL     1     -14.474   3.161  22.855  1.00  0.00     0.080 C 
HETATM   16  C21 UNL     1     -13.818   4.503  22.586  1.00  0.00     0.017 C 
HETATM   17  C22 UNL     1     -14.297   5.630  23.537  1.00  0.00    -0.031 C 
HETATM   18  C23 UNL     1     -15.761   5.995  23.191  1.00  0.00     0.016 C 
HETATM   19  C24 UNL     1     -13.365   6.909  23.368  1.00  0.00     0.024 C 
HETATM   20  C25 UNL     1     -13.312   7.460  21.940  1.00  0.00     0.010 C 
HETATM   21  C26 UNL     1     -12.411   8.687  21.756  1.00  0.00     0.011 C 
HETATM   22  C27 UNL     1     -12.097   9.531  23.032  1.00  0.00    -0.027 C 
HETATM   23  C28 UNL     1     -10.811   8.934  23.694  1.00  0.00     0.016 C 
HETATM   24  C29 UNL     1     -11.777  11.024  22.592  1.00  0.00    -0.005 C 
HETATM   25  C30 UNL     1     -10.634  11.130  21.562  1.00  0.00     0.011 C 
ENDROOT
BRANCH   1  26
HETATM   26  C6  UNL     1     -11.196  13.425  23.459  1.00  0.00     0.009 C 
BRANCH  26  27
HETATM   27  C5  UNL     1      -9.898  14.002  24.038  1.00  0.00     0.028 C 
BRANCH  27  28
HETATM   28  C4  UNL     1      -8.695  13.394  23.366  1.00  0.00    -0.025 C 
HETATM   29  C2  UNL     1      -7.442  13.887  23.319  1.00  0.00    -0.091 C 
HETATM   30  C1  UNL     1      -6.339  13.118  22.638  1.00  0.00     0.042 C 
HETATM   31  C3  UNL     1      -7.005  15.199  23.910  1.00  0.00     0.042 C 
ENDBRANCH  27  28
ENDBRANCH  26  27
ENDBRANCH   1  26
BRANCH   3  32
HETATM   32  O1  UNL     1     -14.150  10.606  26.123  1.00  0.00    -0.394 OA
HETATM   33  H16 UNL     1     -13.848  11.100  26.905  1.00  0.00     0.210 HD
ENDBRANCH   3  32
TORSDOF 4
ENDMDL
MODEL 3
REMARK minimizedAffinity -9.43740177
REMARK CNNscore 0.645586789
REMARK CNNaffinity 7.27356195
REMARK  4 active torsions:
REMARK  status: ('A' for Active; 'I' for Inactive)
REMARK    1  A    between atoms: C4_4  and  C5_5 
REMARK    2  A    between atoms: C5_5  and  C6_6 
REMARK    3  A    between atoms: C6_6  and  C7_7 
REMARK    4  A    between atoms: C9_9  and  O1_10 
ROOT
HETATM    1  C7  UNL     1      -4.266   7.248  14.507  1.00  0.00    -0.007 C 
HETATM    2  C8  UNL     1      -3.796   8.611  13.995  1.00  0.00     0.038 C 
HETATM    3  C9  UNL     1      -2.804   8.565  12.825  1.00  0.00     0.131 C 
HETATM    4  C10 UNL     1      -1.564   7.615  13.078  1.00  0.00     0.013 C 
HETATM    5  C11 UNL     1      -0.704   8.277  14.201  1.00  0.00     0.023 C 
HETATM    6  C12 UNL     1      -0.600   7.461  11.851  1.00  0.00    -0.067 C 
HETATM    7  C13 UNL     1      -0.439   8.418  10.912  1.00  0.00    -0.022 C 
HETATM    8  C14 UNL     1       0.513   8.366   9.752  1.00  0.00     0.034 C 
HETATM    9  C15 UNL     1       1.203   7.003   9.557  1.00  0.00     0.013 C 
HETATM   10  C16 UNL     1       2.285   7.000   8.420  1.00  0.00     0.018 C 
HETATM   11  C17 UNL     1       1.576   7.177   7.053  1.00  0.00     0.023 C 
HETATM   12  C18 UNL     1       3.356   8.099   8.511  1.00  0.00     0.023 C 
HETATM   13  C19 UNL     1       3.009   5.648   8.404  1.00  0.00     0.135 C 
HETATM   14  O2  UNL     1       3.328   5.081   7.356  1.00  0.00    -0.297 OA
HETATM   15  C20 UNL     1       3.440   5.069   9.730  1.00  0.00     0.080 C 
HETATM   16  C21 UNL     1       2.271   5.006  10.695  1.00  0.00     0.017 C 
HETATM   17  C22 UNL     1       1.597   6.380  10.947  1.00  0.00    -0.031 C 
HETATM   18  C23 UNL     1       2.557   7.267  11.776  1.00  0.00     0.016 C 
HETATM   19  C24 UNL     1       0.231   6.173  11.735  1.00  0.00     0.024 C 
HETATM   20  C25 UNL     1       0.386   5.448  13.076  1.00  0.00     0.010 C 
HETATM   21  C26 UNL     1      -0.922   5.232  13.846  1.00  0.00     0.011 C 
HETATM   22  C27 UNL     1      -2.114   6.178  13.496  1.00  0.00    -0.027 C 
HETATM   23  C28 UNL     1      -2.922   5.516  12.332  1.00  0.00     0.016 C 
HETATM   24  C29 UNL     1      -3.069   6.287  14.761  1.00  0.00    -0.005 C 
HETATM   25  C30 UNL     1      -3.576   4.922  15.268  1.00  0.00     0.011 C 
ENDROOT
BRANCH   1  26
HETATM   26  C6  UNL     1      -5.229   7.423  15.711  1.00  0.00     0.009 C 
BRANCH  26  27
HETATM   27  C5  UNL     1      -6.700   7.080  15.443  1.00  0.00     0.028 C 
BRANCH  27  28
HETATM   28  C4  UNL     1      -6.859   5.616  15.125  1.00  0.00    -0.025 C 
HETATM   29  C2  UNL     1      -7.455   5.068  14.049  1.00  0.00    -0.091 C 
HETATM   30  C1  UNL     1      -7.484   3.572  13.865  1.00  0.00     0.042 C 
HETATM   31  C3  UNL     1      -8.131   5.838  12.948  1.00  0.00     0.042 C 
ENDBRANCH  27  28
ENDBRANCH  26  27
ENDBRANCH   1  26
BRANCH   3  32
HETATM   32  O1  UNL     1      -2.407   9.931  12.626  1.00  0.00    -0.394 OA
HETATM   33  H16 UNL     1      -3.202  10.429  12.370  1.00  0.00     0.210 HD
ENDBRANCH   3  32
TORSDOF 4
ENDMDL
MODEL 4
REMARK minimizedAffinity -10.1963825
REMARK CNNscore 0.638726234
REMARK CNNaffinity 7.28907061
REMARK  4 active torsions:
REMARK  status: ('A' for Active; 'I' for Inactive)
REMARK    1  A    between atoms: C4_4  and  C5_5 
REMARK    2  A    between atoms: C5_5  and  C6_6 
REMARK    3  A    between atoms: C6_6  and  C7_7 
REMARK    4  A    between atoms: C9_9  and  O1_10 
ROOT
HETATM    1  C7  UNL     1       1.463   6.693  11.063  1.00  0.00    -0.007 C 
HETATM    2  C8  UNL     1       0.932   5.265  11.198  1.00  0.00     0.038 C 
HETATM    3  C9  UNL     1      -0.564   5.151  11.523  1.00  0.00     0.131 C 
HETATM    4  C10 UNL     1      -1.015   6.026  12.763  1.00  0.00     0.013 C 
HETATM    5  C11 UNL     1      -0.362   5.390  14.031  1.00  0.00     0.023 C 
HETATM    6  C12 UNL     1      -2.558   6.017  13.039  1.00  0.00    -0.067 C 
HETATM    7  C13 UNL     1      -3.362   4.983  12.712  1.00  0.00    -0.022 C 
HETATM    8  C14 UNL     1      -4.831   4.879  13.006  1.00  0.00     0.034 C 
HETATM    9  C15 UNL     1      -5.461   6.170  13.562  1.00  0.00     0.013 C 
HETATM   10  C16 UNL     1      -6.965   6.008  13.980  1.00  0.00     0.018 C 
HETATM   11  C17 UNL     1      -7.818   5.780  12.707  1.00  0.00     0.023 C 
HETATM   12  C18 UNL     1      -7.274   4.846  14.937  1.00  0.00     0.023 C 
HETATM   13  C19 UNL     1      -7.452   7.300  14.650  1.00  0.00     0.135 C 
HETATM   14  O2  UNL     1      -8.579   7.761  14.453  1.00  0.00    -0.297 OA
HETATM   15  C20 UNL     1      -6.547   7.945  15.670  1.00  0.00     0.080 C 
HETATM   16  C21 UNL     1      -5.159   8.165  15.095  1.00  0.00     0.017 C 
HETATM   17  C22 UNL     1      -4.486   6.866  14.581  1.00  0.00    -0.031 C 
HETATM   18  C23 UNL     1      -4.115   5.977  15.793  1.00  0.00     0.016 C 
HETATM   19  C24 UNL     1      -3.177   7.229  13.753  1.00  0.00     0.024 C 
HETATM   20  C25 UNL     1      -2.143   8.040  14.542  1.00  0.00     0.010 C 
HETATM   21  C26 UNL     1      -0.878   8.408  13.757  1.00  0.00     0.011 C 
HETATM   22  C27 UNL     1      -0.536   7.526  12.515  1.00  0.00    -0.027 C 
HETATM   23  C28 UNL     1      -1.249   8.155  11.272  1.00  0.00     0.016 C 
HETATM   24  C29 UNL     1       1.032   7.582  12.264  1.00  0.00    -0.005 C 
HETATM   25  C30 UNL     1       1.577   9.014  12.094  1.00  0.00     0.011 C 
ENDROOT
BRANCH   1  26
HETATM   26  C6  UNL     1       2.988   6.680  10.775  1.00  0.00     0.009 C 
BRANCH  26  27
HETATM   27  C5  UNL     1       3.426   5.890   9.535  1.00  0.00     0.028 C 
BRANCH  27  28
HETATM   28  C4  UNL     1       2.514   6.175   8.370  1.00  0.00    -0.025 C 
HETATM   29  C2  UNL     1       2.379   7.333   7.694  1.00  0.00    -0.091 C 
HETATM   30  C1  UNL     1       1.446   7.429   6.514  1.00  0.00     0.042 C 
HETATM   31  C3  UNL     1       3.105   8.611   8.013  1.00  0.00     0.042 C 
ENDBRANCH  27  28
ENDBRANCH  26  27
ENDBRANCH   1  26
BRANCH   3  32
HETATM   32  O1  UNL     1      -0.786   3.749  11.741  1.00  0.00    -0.394 OA
HETATM   33  H16 UNL     1      -0.591   3.291  10.905  1.00  0.00     0.210 HD
ENDBRANCH   3  32
TORSDOF 4
ENDMDL
MODEL 5
REMARK minimizedAffinity -9.34715462
REMARK CNNscore 0.631971836
REMARK CNNaffinity 7.13180923
REMARK  4 active torsions:
REMARK  status: ('A' for Active; 'I' for Inactive)
REMARK    1  A    between atoms: C4_4  and  C5_5 
REMARK    2  A    between atoms: C5_5  and  C6_6 
REMARK    3  A    between atoms: C6_6  and  C7_7 
REMARK    4  A    between atoms: C9_9  and  O1_10 
ROOT
HETATM    1  C7  UNL     1      -6.996   7.442  15.122  1.00  0.00    -0.007 C 
HETATM    2  C8  UNL     1      -6.235   8.769  15.179  1.00  0.00     0.038 C 
HETATM    3  C9  UNL     1      -5.007   8.859  14.263  1.00  0.00     0.131 C 
HETATM    4  C10 UNL     1      -4.005   7.644  14.420  1.00  0.00     0.013 C 
HETATM    5  C11 UNL     1      -3.359   7.765  15.836  1.00  0.00     0.023 C 
HETATM    6  C12 UNL     1      -2.805   7.655  13.411  1.00  0.00    -0.067 C 
HETATM    7  C13 UNL     1      -2.294   8.787  12.882  1.00  0.00    -0.022 C 
HETATM    8  C14 UNL     1      -1.108   8.877  11.966  1.00  0.00     0.034 C 
HETATM    9  C15 UNL     1      -0.583   7.517  11.471  1.00  0.00     0.013 C 
HETATM   10  C16 UNL     1       0.730   7.620  10.616  1.00  0.00     0.018 C 
HETATM   11  C17 UNL     1       0.401   8.323   9.275  1.00  0.00     0.023 C 
HETATM   12  C18 UNL     1       1.887   8.403  11.257  1.00  0.00     0.023 C 
HETATM   13  C19 UNL     1       1.246   6.211  10.297  1.00  0.00     0.135 C 
HETATM   14  O2  UNL     1       1.727   5.917   9.200  1.00  0.00    -0.297 OA
HETATM   15  C20 UNL     1       1.262   5.200  11.418  1.00  0.00     0.080 C 
HETATM   16  C21 UNL     1      -0.103   5.103  12.075  1.00  0.00     0.017 C 
HETATM   17  C22 UNL     1      -0.623   6.454  12.630  1.00  0.00    -0.031 C 
HETATM   18  C23 UNL     1       0.220   6.850  13.866  1.00  0.00     0.016 C 
HETATM   19  C24 UNL     1      -2.154   6.313  13.039  1.00  0.00     0.024 C 
HETATM   20  C25 UNL     1      -2.426   5.218  14.076  1.00  0.00     0.010 C 
HETATM   21  C26 UNL     1      -3.898   5.062  14.476  1.00  0.00     0.011 C 
HETATM   22  C27 UNL     1      -4.830   6.292  14.238  1.00  0.00    -0.027 C 
HETATM   23  C28 UNL     1      -5.417   6.172  12.792  1.00  0.00     0.016 C 
HETATM   24  C29 UNL     1      -6.038   6.226  15.268  1.00  0.00    -0.005 C 
HETATM   25  C30 UNL     1      -6.833   4.906  15.200  1.00  0.00     0.011 C 
ENDROOT
BRANCH   1  26
HETATM   26  C6  UNL     1      -8.187   7.457  16.116  1.00  0.00     0.009 C 
BRANCH  26  27
HETATM   27  C5  UNL     1      -9.500   6.864  15.592  1.00  0.00     0.028 C 
BRANCH  27  28
HETATM   28  C4  UNL     1      -9.998   7.637  14.398  1.00  0.00    -0.025 C 
HETATM   29  C2  UNL     1     -11.205   7.548  13.805  1.00  0.00    -0.091 C 
HETATM   30  C1  UNL     1     -11.555   8.437  12.640  1.00  0.00     0.042 C 
HETATM   31  C3  UNL     1     -12.301   6.600  14.210  1.00  0.00     0.042 C 
ENDBRANCH  27  28
ENDBRANCH  26  27
ENDBRANCH   1  26
BRANCH   3  32
HETATM   32  O1  UNL     1      -4.392  10.113  14.597  1.00  0.00    -0.394 OA
HETATM   33  H16 UNL     1      -5.026  10.816  14.373  1.00  0.00     0.210 HD
ENDBRANCH   3  32
TORSDOF 4
ENDMDL
MODEL 6
REMARK minimizedAffinity -6.29564857
REMARK CNNscore 0.616516232
REMARK CNNaffinity 6.62920523
REMARK  4 active torsions:
REMARK  status: ('A' for Active; 'I' for Inactive)
REMARK    1  A    between atoms: C4_4  and  C5_5 
REMARK    2  A    between atoms: C5_5  and  C6_6 
REMARK    3  A    between atoms: C6_6  and  C7_7 
REMARK    4  A    between atoms: C9_9  and  O1_10 
ROOT
HETATM    1  C7  UNL     1      -0.944  14.537   4.371  1.00  0.00    -0.007 C 
HETATM    2  C8  UNL     1      -1.912  14.776   3.211  1.00  0.00     0.038 C 
HETATM    3  C9  UNL     1      -1.330  14.536   1.812  1.00  0.00     0.131 C 
HETATM    4  C10 UNL     1       0.036  15.291   1.552  1.00  0.00     0.013 C 
HETATM    5  C11 UNL     1      -0.289  16.818   1.507  1.00  0.00     0.023 C 
HETATM    6  C12 UNL     1       0.708  14.966   0.173  1.00  0.00    -0.067 C 
HETATM    7  C13 UNL     1       0.009  14.600  -0.923  1.00  0.00    -0.022 C 
HETATM    8  C14 UNL     1       0.578  14.340  -2.287  1.00  0.00     0.034 C 
HETATM    9  C15 UNL     1       2.117  14.321  -2.341  1.00  0.00     0.013 C 
HETATM   10  C16 UNL     1       2.696  14.172  -3.792  1.00  0.00     0.018 C 
HETATM   11  C17 UNL     1       2.357  12.757  -4.325  1.00  0.00     0.023 C 
HETATM   12  C18 UNL     1       2.169  15.176  -4.831  1.00  0.00     0.023 C 
HETATM   13  C19 UNL     1       4.223  14.309  -3.751  1.00  0.00     0.135 C 
HETATM   14  O2  UNL     1       4.968  13.609  -4.443  1.00  0.00    -0.297 OA
HETATM   15  C20 UNL     1       4.805  15.424  -2.917  1.00  0.00     0.080 C 
HETATM   16  C21 UNL     1       4.263  15.375  -1.500  1.00  0.00     0.017 C 
HETATM   17  C22 UNL     1       2.715  15.450  -1.424  1.00  0.00    -0.031 C 
HETATM   18  C23 UNL     1       2.260  16.876  -1.815  1.00  0.00     0.016 C 
HETATM   19  C24 UNL     1       2.233  15.112   0.054  1.00  0.00     0.024 C 
HETATM   20  C25 UNL     1       2.824  16.029   1.130  1.00  0.00     0.010 C 
HETATM   21  C26 UNL     1       2.377  15.712   2.562  1.00  0.00     0.011 C 
HETATM   22  C27 UNL     1       1.044  14.916   2.727  1.00  0.00    -0.027 C 
HETATM   23  C28 UNL     1       1.396  13.391   2.713  1.00  0.00     0.016 C 
HETATM   24  C29 UNL     1       0.413  15.263   4.144  1.00  0.00    -0.005 C 
HETATM   25  C30 UNL     1       1.368  14.996   5.325  1.00  0.00     0.011 C 
ENDROOT
BRANCH   1  26
HETATM   26  C6  UNL     1      -1.632  14.849   5.726  1.00  0.00     0.009 C 
BRANCH  26  27
HETATM   27  C5  UNL     1      -1.845  16.336   6.038  1.00  0.00     0.028 C 
BRANCH  27  28
HETATM   28  C4  UNL     1      -3.303  16.701   5.933  1.00  0.00    -0.025 C 
HETATM   29  C2  UNL     1      -4.052  17.366   6.835  1.00  0.00    -0.091 C 
HETATM   30  C1  UNL     1      -5.495  17.690   6.545  1.00  0.00     0.042 C 
HETATM   31  C3  UNL     1      -3.567  17.848   8.175  1.00  0.00     0.042 C 
ENDBRANCH  27  28
ENDBRANCH  26  27
ENDBRANCH   1  26
BRANCH   3  32
HETATM   32  O1  UNL     1      -2.363  14.958   0.908  1.00  0.00    -0.394 OA
HETATM   33  H16 UNL     1      -3.131  14.379   1.053  1.00  0.00     0.210 HD
ENDBRANCH   3  32
TORSDOF 4
ENDMDL
MODEL 7
REMARK minimizedAffinity -6.07202673
REMARK CNNscore 0.528217673
REMARK CNNaffinity 6.44972754
REMARK  4 active torsions:
REMARK  status: ('A' for Active; 'I' for Inactive)
REMARK    1  A    between atoms: C4_4  and  C5_5 
REMARK    2  A    between atoms: C5_5  and  C6_6 
REMARK    3  A    between atoms: C6_6  and  C7_7 
REMARK    4  A    between atoms: C9_9  and  O1_10 
ROOT
HETATM    1  C7  UNL     1     -13.974   7.070  23.998  1.00  0.00    -0.007 C 
HETATM    2  C8  UNL     1     -12.462   7.030  23.768  1.00  0.00     0.038 C 
HETATM    3  C9  UNL     1     -11.752   8.388  23.844  1.00  0.00     0.131 C 
HETATM    4  C10 UNL     1     -12.416   9.505  22.941  1.00  0.00     0.013 C 
HETATM    5  C11 UNL     1     -12.168   9.096  21.454  1.00  0.00     0.023 C 
HETATM    6  C12 UNL     1     -11.779  10.930  23.094  1.00  0.00    -0.067 C 
HETATM    7  C13 UNL     1     -10.490  11.130  23.443  1.00  0.00    -0.022 C 
HETATM    8  C14 UNL     1      -9.798  12.459  23.543  1.00  0.00     0.034 C 
HETATM    9  C15 UNL     1     -10.734  13.675  23.407  1.00  0.00     0.013 C 
HETATM   10  C16 UNL     1      -9.982  15.052  23.389  1.00  0.00     0.018 C 
HETATM   11  C17 UNL     1      -9.361  15.303  24.787  1.00  0.00     0.023 C 
HETATM   12  C18 UNL     1      -8.841  15.179  22.367  1.00  0.00     0.023 C 
HETATM   13  C19 UNL     1     -10.983  16.179  23.107  1.00  0.00     0.135 C 
HETATM   14  O2  UNL     1     -10.925  17.272  23.676  1.00  0.00    -0.297 OA
HETATM   15  C20 UNL     1     -11.992  15.961  22.006  1.00  0.00     0.080 C 
HETATM   16  C21 UNL     1     -12.743  14.658  22.215  1.00  0.00     0.017 C 
HETATM   17  C22 UNL     1     -11.818  13.416  22.298  1.00  0.00    -0.031 C 
HETATM   18  C23 UNL     1     -11.221  13.137  20.897  1.00  0.00     0.016 C 
HETATM   19  C24 UNL     1     -12.655  12.155  22.791  1.00  0.00     0.024 C 
HETATM   20  C25 UNL     1     -13.858  11.816  21.904  1.00  0.00     0.010 C 
HETATM   21  C26 UNL     1     -14.681  10.610  22.370  1.00  0.00     0.011 C 
HETATM   22  C27 UNL     1     -13.966   9.583  23.303  1.00  0.00    -0.027 C 
HETATM   23  C28 UNL     1     -14.184  10.050  24.781  1.00  0.00     0.016 C 
HETATM   24  C29 UNL     1     -14.657   8.163  23.127  1.00  0.00    -0.005 C 
HETATM   25  C30 UNL     1     -16.177   8.183  23.387  1.00  0.00     0.011 C 
ENDROOT
BRANCH   1  26
HETATM   26  C6  UNL     1     -14.583   5.650  23.857  1.00  0.00     0.009 C 
BRANCH  26  27
HETATM   27  C5  UNL     1     -13.575   4.508  23.675  1.00  0.00     0.028 C 
BRANCH  27  28
HETATM   28  C4  UNL     1     -13.577   3.596  24.875  1.00  0.00    -0.025 C 
HETATM   29  C2  UNL     1     -12.694   2.622  25.170  1.00  0.00    -0.091 C 
HETATM   30  C1  UNL     1     -12.822   1.830  26.446  1.00  0.00     0.042 C 
HETATM   31  C3  UNL     1     -11.527   2.222  24.309  1.00  0.00     0.042 C 
ENDBRANCH  27  28
ENDBRANCH  26  27
ENDBRANCH   1  26
BRANCH   3  32
HETATM   32  O1  UNL     1     -10.396   8.115  23.458  1.00  0.00    -0.394 OA
HETATM   33  H16 UNL     1     -10.023   7.507  24.119  1.00  0.00     0.210 HD
ENDBRANCH   3  32
TORSDOF 4
ENDMDL
MODEL 8
REMARK minimizedAffinity -7.06043816
REMARK CNNscore 0.508522034
REMARK CNNaffinity 6.73539543
REMARK  4 active torsions:
REMARK  status: ('A' for Active; 'I' for Inactive)
REMARK    1  A    between atoms: C4_4  and  C5_5 
REMARK    2  A    between atoms: C5_5  and  C6_6 
REMARK    3  A    between atoms: C6_6  and  C7_7 
REMARK    4  A    between atoms: C9_9  and  O1_10 
ROOT
HETATM    1  C7  UNL     1     -13.699   6.146  22.559  1.00  0.00    -0.007 C 
HETATM    2  C8  UNL     1     -13.705   6.824  21.188  1.00  0.00     0.038 C 
HETATM    3  C9  UNL     1     -12.731   8.000  21.035  1.00  0.00     0.131 C 
HETATM    4  C10 UNL     1     -12.853   9.082  22.184  1.00  0.00     0.013 C 
HETATM    5  C11 UNL     1     -14.236   9.784  22.004  1.00  0.00     0.023 C 
HETATM    6  C12 UNL     1     -11.789  10.231  22.113  1.00  0.00    -0.067 C 
HETATM    7  C13 UNL     1     -11.224  10.645  20.959  1.00  0.00    -0.022 C 
HETATM    8  C14 UNL     1     -10.252  11.780  20.809  1.00  0.00     0.034 C 
HETATM    9  C15 UNL     1      -9.747  12.365  22.141  1.00  0.00     0.013 C 
HETATM   10  C16 UNL     1      -8.830  13.627  21.969  1.00  0.00     0.018 C 
HETATM   11  C17 UNL     1      -7.499  13.193  21.306  1.00  0.00     0.023 C 
HETATM   12  C18 UNL     1      -9.407  14.762  21.108  1.00  0.00     0.023 C 
HETATM   13  C19 UNL     1      -8.502  14.214  23.348  1.00  0.00     0.135 C 
HETATM   14  O2  UNL     1      -7.387  14.661  23.628  1.00  0.00    -0.297 OA
HETATM   15  C20 UNL     1      -9.632  14.345  24.340  1.00  0.00     0.080 C 
HETATM   16  C21 UNL     1     -10.354  13.021  24.513  1.00  0.00     0.017 C 
HETATM   17  C22 UNL     1     -10.918  12.445  23.188  1.00  0.00    -0.031 C 
HETATM   18  C23 UNL     1     -12.109  13.318  22.724  1.00  0.00     0.016 C 
HETATM   19  C24 UNL     1     -11.401  10.946  23.417  1.00  0.00     0.024 C 
HETATM   20  C25 UNL     1     -12.462  10.791  24.513  1.00  0.00     0.010 C 
HETATM   21  C26 UNL     1     -12.933   9.352  24.753  1.00  0.00     0.011 C 
HETATM   22  C27 UNL     1     -12.725   8.335  23.586  1.00  0.00    -0.027 C 
HETATM   23  C28 UNL     1     -11.310   7.690  23.763  1.00  0.00     0.016 C 
HETATM   24  C29 UNL     1     -13.812   7.183  23.712  1.00  0.00    -0.005 C 
HETATM   25  C30 UNL     1     -13.796   6.469  25.079  1.00  0.00     0.011 C 
ENDROOT
BRANCH   1  26
HETATM   26  C6  UNL     1     -14.748   5.003  22.604  1.00  0.00     0.009 C 
BRANCH  26  27
HETATM   27  C5  UNL     1     -14.181   3.578  22.619  1.00  0.00     0.028 C 
BRANCH  27  28
HETATM   28  C4  UNL     1     -14.134   3.036  24.024  1.00  0.00    -0.025 C 
HETATM   29  C2  UNL     1     -13.057   2.583  24.696  1.00  0.00    -0.091 C 
HETATM   30  C1  UNL     1     -13.183   2.116  26.123  1.00  0.00     0.042 C 
HETATM   31  C3  UNL     1     -11.663   2.494  24.137  1.00  0.00     0.042 C 
ENDBRANCH  27  28
ENDBRANCH  26  27
ENDBRANCH   1  26
BRANCH   3  32
HETATM   32  O1  UNL     1     -13.022   8.551  19.741  1.00  0.00    -0.394 OA
HETATM   33  H16 UNL     1     -12.821   7.865  19.081  1.00  0.00     0.210 HD
ENDBRANCH   3  32
TORSDOF 4
ENDMDL
MODEL 9
REMARK minimizedAffinity -7.53279877
REMARK CNNscore 0.502689004
REMARK CNNaffinity 7.03120279
REMARK  4 active torsions:
REMARK  status: ('A' for Active; 'I' for Inactive)
REMARK    1  A    between atoms: C4_4  and  C5_5 
REMARK    2  A    between atoms: C5_5  and  C6_6 
REMARK    3  A    between atoms: C6_6  and  C7_7 
REMARK    4  A    between atoms: C9_9  and  O1_10 
ROOT
HETATM    1  C7  UNL     1      -8.060   6.231  14.329  1.00  0.00    -0.007 C 
HETATM    2  C8  UNL     1      -9.048   6.024  13.179  1.00  0.00     0.038 C 
HETATM    3  C9  UNL     1      -9.978   7.210  12.894  1.00  0.00     0.131 C 
HETATM    4  C10 UNL     1     -10.732   7.752  14.176  1.00  0.00     0.013 C 
HETATM    5  C11 UNL     1     -11.746   6.647  14.610  1.00  0.00     0.023 C 
HETATM    6  C12 UNL     1     -11.595   9.037  13.930  1.00  0.00    -0.067 C 
HETATM    7  C13 UNL     1     -12.153   9.336  12.738  1.00  0.00    -0.022 C 
HETATM    8  C14 UNL     1     -13.044  10.510  12.448  1.00  0.00     0.034 C 
HETATM    9  C15 UNL     1     -13.144  11.530  13.598  1.00  0.00     0.013 C 
HETATM   10  C16 UNL     1     -14.173  12.685  13.329  1.00  0.00     0.018 C 
HETATM   11  C17 UNL     1     -13.638  13.576  12.180  1.00  0.00     0.023 C 
HETATM   12  C18 UNL     1     -15.588  12.241  12.926  1.00  0.00     0.023 C 
HETATM   13  C19 UNL     1     -14.302  13.558  14.584  1.00  0.00     0.135 C 
HETATM   14  O2  UNL     1     -14.405  14.786  14.526  1.00  0.00    -0.297 OA
HETATM   15  C20 UNL     1     -14.425  12.858  15.915  1.00  0.00     0.080 C 
HETATM   16  C21 UNL     1     -13.294  11.863  16.106  1.00  0.00     0.017 C 
HETATM   17  C22 UNL     1     -13.213  10.793  14.986  1.00  0.00    -0.031 C 
HETATM   18  C23 UNL     1     -14.417   9.830  15.119  1.00  0.00     0.016 C 
HETATM   19  C24 UNL     1     -11.851   9.981  15.116  1.00  0.00     0.024 C 
HETATM   20  C25 UNL     1     -11.662   9.290  16.471  1.00  0.00     0.010 C 
HETATM   21  C26 UNL     1     -10.351   8.509  16.618  1.00  0.00     0.011 C 
HETATM   22  C27 UNL     1      -9.644   8.059  15.300  1.00  0.00    -0.027 C 
HETATM   23  C28 UNL     1      -8.678   9.209  14.861  1.00  0.00     0.016 C 
HETATM   24  C29 UNL     1      -8.769   6.769  15.604  1.00  0.00    -0.005 C 
HETATM   25  C30 UNL     1      -7.746   6.973  16.740  1.00  0.00     0.011 C 
ENDROOT
BRANCH   1  26
HETATM   26  C6  UNL     1      -7.206   4.954  14.546  1.00  0.00     0.009 C 
BRANCH  26  27
HETATM   27  C5  UNL     1      -7.227   3.934  13.401  1.00  0.00     0.028 C 
BRANCH  27  28
HETATM   28  C4  UNL     1      -5.957   4.008  12.594  1.00  0.00    -0.025 C 
HETATM   29  C2  UNL     1      -5.482   3.097  11.723  1.00  0.00    -0.091 C 
HETATM   30  C1  UNL     1      -4.208   3.356  10.960  1.00  0.00     0.042 C 
HETATM   31  C3  UNL     1      -6.129   1.774  11.414  1.00  0.00     0.042 C 
ENDBRANCH  27  28
ENDBRANCH  26  27
ENDBRANCH   1  26
BRANCH   3  32
HETATM   32  O1  UNL     1     -10.890   6.730  11.894  1.00  0.00    -0.394 OA
HETATM   33  H16 UNL     1     -10.367   6.519  11.101  1.00  0.00     0.210 HD
ENDBRANCH   3  32
TORSDOF 4
ENDMDL
