MODEL 1
REMARK minimizedAffinity -9.93796635
REMARK CNNscore 0.66559726
REMARK CNNaffinity 7.19707823
REMARK  7 active torsions:
REMARK  status: ('A' for Active; 'I' for Inactive)
REMARK    1  A    between atoms: C4_4  and  C5_5 
REMARK    2  A    between atoms: C5_5  and  O1_6 
REMARK    3  A    between atoms: C5_5  and  C6_7 
REMARK    4  A    between atoms: C6_7  and  C7_8 
REMARK    5  A    between atoms: C7_8  and  C8_10 
REMARK    6  A    between atoms: C8_10  and  C10_12 
REMARK    7  A    between atoms: C18_20  and  O3_21 
ROOT
HETATM    1  C10 UNL     1      -0.442   6.886  13.295  1.00  0.00     0.008 C 
HETATM    2  C11 UNL     1      -1.434   8.027  12.988  1.00  0.00     0.007 C 
HETATM    3  C12 UNL     1      -2.795   7.800  13.648  1.00  0.00     0.006 C 
HETATM    4  C13 UNL     1      -3.428   6.435  13.296  1.00  0.00     0.003 C 
HETATM    5  C14 UNL     1      -4.911   6.231  13.850  1.00  0.00    -0.035 C 
HETATM    6  C15 UNL     1      -4.955   6.262  15.395  1.00  0.00     0.016 C 
HETATM    7  C16 UNL     1      -5.810   7.398  13.335  1.00  0.00     0.012 C 
HETATM    8  C17 UNL     1      -7.308   7.173  13.529  1.00  0.00     0.033 C 
HETATM    9  C18 UNL     1      -7.781   5.861  12.914  1.00  0.00     0.126 C 
HETATM   10  C19 UNL     1      -6.995   4.611  13.409  1.00  0.00    -0.017 C 
HETATM   11  C20 UNL     1      -7.425   3.418  12.509  1.00  0.00     0.018 C 
HETATM   12  C21 UNL     1      -7.389   4.217  14.847  1.00  0.00     0.018 C 
HETATM   13  C22 UNL     1      -5.455   4.891  13.224  1.00  0.00     0.004 C 
HETATM   14  C23 UNL     1      -4.540   3.701  13.565  1.00  0.00     0.007 C 
HETATM   15  C24 UNL     1      -3.112   3.919  13.050  1.00  0.00     0.011 C 
HETATM   16  C25 UNL     1      -2.423   5.227  13.534  1.00  0.00    -0.029 C 
HETATM   17  C26 UNL     1      -2.106   5.048  15.053  1.00  0.00     0.016 C 
HETATM   18  C27 UNL     1      -1.022   5.523  12.726  1.00  0.00     0.002 C 
HETATM   19  C28 UNL     1      -1.254   5.553  11.197  1.00  0.00     0.190 C 
HETATM   20  O4  UNL     1      -1.059   4.228  10.701  1.00  0.00    -0.321 OA
HETATM   21  C29 UNL     1      -0.340   3.508  11.599  1.00  0.00     0.259 C 
HETATM   22  O5  UNL     1       0.030   2.361  11.419  1.00  0.00    -0.265 OA
HETATM   23  C30 UNL     1      -0.032   4.346  12.801  1.00  0.00     0.124 C 
ENDROOT
BRANCH   1  24
HETATM   24  C8  UNL     1       1.031   7.356  13.002  1.00  0.00     0.056 C 
HETATM   25  C9  UNL     1       1.430   8.711  13.567  1.00  0.00     0.018 C 
BRANCH  24  26
HETATM   26  C7  UNL     1       1.410   7.201  11.512  1.00  0.00     0.133 C 
HETATM   27  O2  UNL     1       0.985   7.983  10.657  1.00  0.00    -0.297 OA
BRANCH  26  28
HETATM   28  C6  UNL     1       2.285   6.036  11.078  1.00  0.00     0.114 C 
BRANCH  28  29
HETATM   29  C5  UNL     1       3.229   6.352   9.920  1.00  0.00     0.148 C 
BRANCH  29  30
HETATM   30  C4  UNL     1       2.587   6.303   8.562  1.00  0.00     0.007 C 
HETATM   31  C2  UNL     1       2.468   7.292   7.654  1.00  0.00    -0.089 C 
HETATM   32  C1  UNL     1       2.975   8.699   7.814  1.00  0.00     0.042 C 
HETATM   33  C3  UNL     1       1.768   7.042   6.342  1.00  0.00     0.042 C 
ENDBRANCH  29  30
BRANCH  29  34
HETATM   34  O1  UNL     1       4.320   5.436   9.918  1.00  0.00    -0.391 OA
HETATM   35  H9  UNL     1       4.878   5.675   9.154  1.00  0.00     0.210 HD
ENDBRANCH  29  34
ENDBRANCH  28  29
ENDBRANCH  26  28
ENDBRANCH  24  26
ENDBRANCH   1  24
BRANCH   9  36
HETATM   36  O3  UNL     1      -9.184   5.728  13.139  1.00  0.00    -0.395 OA
HETATM   37  H30 UNL     1      -9.348   5.796  14.094  1.00  0.00     0.210 HD
ENDBRANCH   9  36
TORSDOF 7
ENDMDL
MODEL 2
REMARK minimizedAffinity -8.24154663
REMARK CNNscore 0.631083488
REMARK CNNaffinity 6.71285582
REMARK  7 active torsions:
REMARK  status: ('A' for Active; 'I' for Inactive)
REMARK    1  A    between atoms: C4_4  and  C5_5 
REMARK    2  A    between atoms: C5_5  and  O1_6 
REMARK    3  A    between atoms: C5_5  and  C6_7 
REMARK    4  A    between atoms: C6_7  and  C7_8 
REMARK    5  A    between atoms: C7_8  and  C8_10 
REMARK    6  A    between atoms: C8_10  and  C10_12 
REMARK    7  A    between atoms: C18_20  and  O3_21 
ROOT
HETATM    1  C10 UNL     1      -1.924   8.468  14.670  1.00  0.00     0.008 C 
HETATM    2  C11 UNL     1      -2.419   9.112  13.358  1.00  0.00     0.007 C 
HETATM    3  C12 UNL     1      -1.862   8.402  12.123  1.00  0.00     0.006 C 
HETATM    4  C13 UNL     1      -0.320   8.298  12.117  1.00  0.00     0.003 C 
HETATM    5  C14 UNL     1       0.297   7.695  10.774  1.00  0.00    -0.035 C 
HETATM    6  C15 UNL     1      -0.163   6.238  10.535  1.00  0.00     0.016 C 
HETATM    7  C16 UNL     1      -0.197   8.544   9.561  1.00  0.00     0.012 C 
HETATM    8  C17 UNL     1       0.549   8.276   8.257  1.00  0.00     0.033 C 
HETATM    9  C18 UNL     1       2.057   8.441   8.409  1.00  0.00     0.126 C 
HETATM   10  C19 UNL     1       2.675   7.582   9.552  1.00  0.00    -0.017 C 
HETATM   11  C20 UNL     1       4.146   8.056   9.731  1.00  0.00     0.018 C 
HETATM   12  C21 UNL     1       2.756   6.090   9.171  1.00  0.00     0.018 C 
HETATM   13  C22 UNL     1       1.861   7.860  10.872  1.00  0.00     0.004 C 
HETATM   14  C23 UNL     1       2.420   7.168  12.129  1.00  0.00     0.007 C 
HETATM   15  C24 UNL     1       1.801   7.738  13.412  1.00  0.00     0.011 C 
HETATM   16  C25 UNL     1       0.247   7.699  13.475  1.00  0.00    -0.029 C 
HETATM   17  C26 UNL     1      -0.171   6.204  13.651  1.00  0.00     0.016 C 
HETATM   18  C27 UNL     1      -0.342   8.572  14.738  1.00  0.00     0.002 C 
HETATM   19  C28 UNL     1       0.173  10.030  14.699  1.00  0.00     0.190 C 
HETATM   20  O4  UNL     1       1.386  10.083  15.451  1.00  0.00    -0.321 OA
HETATM   21  C29 UNL     1       1.454   9.010  16.279  1.00  0.00     0.259 C 
HETATM   22  O5  UNL     1       2.350   8.821  17.084  1.00  0.00    -0.265 OA
HETATM   23  C30 UNL     1       0.252   8.137  16.090  1.00  0.00     0.124 C 
ENDROOT
BRANCH   1  24
HETATM   24  C8  UNL     1      -2.844   8.908  15.869  1.00  0.00     0.056 C 
HETATM   25  C9  UNL     1      -4.315   8.535  15.760  1.00  0.00     0.018 C 
BRANCH  24  26
HETATM   26  C7  UNL     1      -2.635  10.390  16.254  1.00  0.00     0.133 C 
HETATM   27  O2  UNL     1      -3.049  11.304  15.535  1.00  0.00    -0.297 OA
BRANCH  26  28
HETATM   28  C6  UNL     1      -1.865  10.734  17.518  1.00  0.00     0.114 C 
BRANCH  28  29
HETATM   29  C5  UNL     1      -2.172  12.117  18.089  1.00  0.00     0.148 C 
BRANCH  29  30
HETATM   30  C4  UNL     1      -3.571  12.277  18.616  1.00  0.00     0.007 C 
HETATM   31  C2  UNL     1      -4.078  13.282  19.357  1.00  0.00    -0.089 C 
HETATM   32  C1  UNL     1      -3.326  14.499  19.823  1.00  0.00     0.042 C 
HETATM   33  C3  UNL     1      -5.518  13.247  19.804  1.00  0.00     0.042 C 
ENDBRANCH  29  30
BRANCH  29  34
HETATM   34  O1  UNL     1      -1.969  13.112  17.090  1.00  0.00    -0.391 OA
HETATM   35  H9  UNL     1      -2.192  13.966  17.504  1.00  0.00     0.210 HD
ENDBRANCH  29  34
ENDBRANCH  28  29
ENDBRANCH  26  28
ENDBRANCH  24  26
ENDBRANCH   1  24
BRANCH   9  36
HETATM   36  O3  UNL     1       2.677   8.172   7.151  1.00  0.00    -0.395 OA
HETATM   37  H30 UNL     1       2.406   7.287   6.860  1.00  0.00     0.210 HD
ENDBRANCH   9  36
TORSDOF 7
ENDMDL
MODEL 3
REMARK minimizedAffinity -8.04173374
REMARK CNNscore 0.507194638
REMARK CNNaffinity 7.18617105
REMARK  7 active torsions:
REMARK  status: ('A' for Active; 'I' for Inactive)
REMARK    1  A    between atoms: C4_4  and  C5_5 
REMARK    2  A    between atoms: C5_5  and  O1_6 
REMARK    3  A    between atoms: C5_5  and  C6_7 
REMARK    4  A    between atoms: C6_7  and  C7_8 
REMARK    5  A    between atoms: C7_8  and  C8_10 
REMARK    6  A    between atoms: C8_10  and  C10_12 
REMARK    7  A    between atoms: C18_20  and  O3_21 
ROOT
HETATM    1  C10 UNL     1      -1.063   6.392  12.468  1.00  0.00     0.008 C 
HETATM    2  C11 UNL     1      -1.806   5.040  12.452  1.00  0.00     0.007 C 
HETATM    3  C12 UNL     1      -3.324   5.218  12.510  1.00  0.00     0.006 C 
HETATM    4  C13 UNL     1      -3.797   6.072  13.709  1.00  0.00     0.003 C 
HETATM    5  C14 UNL     1      -5.381   6.151  13.881  1.00  0.00    -0.035 C 
HETATM    6  C15 UNL     1      -6.056   6.831  12.667  1.00  0.00     0.016 C 
HETATM    7  C16 UNL     1      -5.955   4.704  13.982  1.00  0.00     0.012 C 
HETATM    8  C17 UNL     1      -7.406   4.631  14.452  1.00  0.00     0.033 C 
HETATM    9  C18 UNL     1      -7.622   5.355  15.776  1.00  0.00     0.126 C 
HETATM   10  C19 UNL     1      -7.146   6.838  15.771  1.00  0.00    -0.017 C 
HETATM   11  C20 UNL     1      -7.203   7.337  17.243  1.00  0.00     0.018 C 
HETATM   12  C21 UNL     1      -8.108   7.747  14.980  1.00  0.00     0.018 C 
HETATM   13  C22 UNL     1      -5.660   6.877  15.252  1.00  0.00     0.004 C 
HETATM   14  C23 UNL     1      -5.001   8.268  15.293  1.00  0.00     0.007 C 
HETATM   15  C24 UNL     1      -3.481   8.181  15.102  1.00  0.00     0.011 C 
HETATM   16  C25 UNL     1      -3.014   7.451  13.810  1.00  0.00    -0.029 C 
HETATM   17  C26 UNL     1      -3.355   8.383  12.604  1.00  0.00     0.016 C 
HETATM   18  C27 UNL     1      -1.397   7.155  13.818  1.00  0.00     0.002 C 
HETATM   19  C28 UNL     1      -0.979   6.366  15.082  1.00  0.00     0.190 C 
HETATM   20  O4  UNL     1      -0.636   7.314  16.093  1.00  0.00    -0.321 OA
HETATM   21  C29 UNL     1      -0.371   8.515  15.520  1.00  0.00     0.259 C 
HETATM   22  O5  UNL     1       0.006   9.499  16.132  1.00  0.00    -0.265 OA
HETATM   23  C30 UNL     1      -0.560   8.429  14.037  1.00  0.00     0.124 C 
ENDROOT
BRANCH   1  24
HETATM   24  C8  UNL     1       0.414   6.203  11.957  1.00  0.00     0.056 C 
HETATM   25  C9  UNL     1       0.784   4.810  11.468  1.00  0.00     0.018 C 
BRANCH  24  26
HETATM   26  C7  UNL     1       1.454   6.779  12.944  1.00  0.00     0.133 C 
HETATM   27  O2  UNL     1       1.712   6.211  14.009  1.00  0.00    -0.297 OA
BRANCH  26  28
HETATM   28  C6  UNL     1       2.142   8.096  12.623  1.00  0.00     0.114 C 
BRANCH  28  29
HETATM   29  C5  UNL     1       2.590   8.238  11.169  1.00  0.00     0.148 C 
BRANCH  29  30
HETATM   30  C4  UNL     1       1.476   8.155  10.164  1.00  0.00     0.007 C 
HETATM   31  C2  UNL     1       1.552   8.219   8.819  1.00  0.00    -0.089 C 
HETATM   32  C1  UNL     1       2.813   8.390   8.017  1.00  0.00     0.042 C 
HETATM   33  C3  UNL     1       0.303   8.130   7.980  1.00  0.00     0.042 C 
ENDBRANCH  29  30
BRANCH  29  34
HETATM   34  O1  UNL     1       3.538   7.225  10.851  1.00  0.00    -0.391 OA
HETATM   35  H9  UNL     1       3.776   7.355   9.915  1.00  0.00     0.210 HD
ENDBRANCH  29  34
ENDBRANCH  28  29
ENDBRANCH  26  28
ENDBRANCH  24  26
ENDBRANCH   1  24
BRANCH   9  36
HETATM   36  O3  UNL     1      -8.998   5.241  16.142  1.00  0.00    -0.395 OA
HETATM   37  H30 UNL     1      -9.537   5.587  15.413  1.00  0.00     0.210 HD
ENDBRANCH   9  36
TORSDOF 7
ENDMDL
MODEL 4
REMARK minimizedAffinity -7.2431097
REMARK CNNscore 0.371337503
REMARK CNNaffinity 6.37415171
REMARK  7 active torsions:
REMARK  status: ('A' for Active; 'I' for Inactive)
REMARK    1  A    between atoms: C4_4  and  C5_5 
REMARK    2  A    between atoms: C5_5  and  O1_6 
REMARK    3  A    between atoms: C5_5  and  C6_7 
REMARK    4  A    between atoms: C6_7  and  C7_8 
REMARK    5  A    between atoms: C7_8  and  C8_10 
REMARK    6  A    between atoms: C8_10  and  C10_12 
REMARK    7  A    between atoms: C18_20  and  O3_21 
ROOT
HETATM    1  C10 UNL     1      -4.502 -11.089   4.741  1.00  0.00     0.008 C 
HETATM    2  C11 UNL     1      -5.690 -10.107   4.817  1.00  0.00     0.007 C 
HETATM    3  C12 UNL     1      -6.724 -10.368   3.720  1.00  0.00     0.006 C 
HETATM    4  C13 UNL     1      -6.121 -10.366   2.297  1.00  0.00     0.003 C 
HETATM    5  C14 UNL     1      -7.196 -10.488   1.123  1.00  0.00    -0.035 C 
HETATM    6  C15 UNL     1      -7.966 -11.828   1.188  1.00  0.00     0.016 C 
HETATM    7  C16 UNL     1      -8.245  -9.342   1.274  1.00  0.00     0.012 C 
HETATM    8  C17 UNL     1      -9.148  -9.150   0.058  1.00  0.00     0.033 C 
HETATM    9  C18 UNL     1      -8.354  -8.943  -1.227  1.00  0.00     0.126 C 
HETATM   10  C19 UNL     1      -7.317 -10.069  -1.517  1.00  0.00    -0.017 C 
HETATM   11  C20 UNL     1      -6.436  -9.580  -2.701  1.00  0.00     0.018 C 
HETATM   12  C21 UNL     1      -7.997 -11.364  -2.004  1.00  0.00     0.018 C 
HETATM   13  C22 UNL     1      -6.426 -10.261  -0.232  1.00  0.00     0.004 C 
HETATM   14  C23 UNL     1      -5.271 -11.268  -0.396  1.00  0.00     0.007 C 
HETATM   15  C24 UNL     1      -4.258 -11.158   0.751  1.00  0.00     0.011 C 
HETATM   16  C25 UNL     1      -4.851 -11.315   2.180  1.00  0.00    -0.029 C 
HETATM   17  C26 UNL     1      -5.250 -12.815   2.354  1.00  0.00     0.016 C 
HETATM   18  C27 UNL     1      -3.766 -10.910   3.347  1.00  0.00     0.002 C 
HETATM   19  C28 UNL     1      -3.218  -9.480   3.129  1.00  0.00     0.190 C 
HETATM   20  O4  UNL     1      -2.047  -9.582   2.317  1.00  0.00    -0.321 OA
HETATM   21  C29 UNL     1      -1.567 -10.850   2.370  1.00  0.00     0.259 C 
HETATM   22  O5  UNL     1      -0.542 -11.218   1.822  1.00  0.00    -0.265 OA
HETATM   23  C30 UNL     1      -2.448 -11.698   3.234  1.00  0.00     0.124 C 
ENDROOT
BRANCH   1  24
HETATM   24  C8  UNL     1      -3.719 -11.097   6.106  1.00  0.00     0.056 C 
HETATM   25  C9  UNL     1      -3.563 -12.450   6.785  1.00  0.00     0.018 C 
BRANCH  24  26
HETATM   26  C7  UNL     1      -4.220 -10.002   7.075  1.00  0.00     0.133 C 
HETATM   27  O2  UNL     1      -3.888  -8.822   6.937  1.00  0.00    -0.297 OA
BRANCH  26  28
HETATM   28  C6  UNL     1      -5.101 -10.389   8.252  1.00  0.00     0.114 C 
BRANCH  28  29
HETATM   29  C5  UNL     1      -4.433 -10.245   9.617  1.00  0.00     0.148 C 
BRANCH  29  30
HETATM   30  C4  UNL     1      -5.245  -9.490  10.632  1.00  0.00     0.007 C 
HETATM   31  C2  UNL     1      -6.018  -9.981  11.622  1.00  0.00    -0.089 C 
HETATM   32  C1  UNL     1      -6.233 -11.437  11.929  1.00  0.00     0.042 C 
HETATM   33  C3  UNL     1      -6.772  -9.047  12.534  1.00  0.00     0.042 C 
ENDBRANCH  29  30
BRANCH  29  34
HETATM   34  O1  UNL     1      -3.182  -9.577   9.479  1.00  0.00    -0.391 OA
HETATM   35  H9  UNL     1      -2.810  -9.501  10.377  1.00  0.00     0.210 HD
ENDBRANCH  29  34
ENDBRANCH  28  29
ENDBRANCH  26  28
ENDBRANCH  24  26
ENDBRANCH   1  24
BRANCH   9  36
HETATM   36  O3  UNL     1      -9.268  -8.774  -2.310  1.00  0.00    -0.395 OA
HETATM   37  H30 UNL     1      -9.860  -9.543  -2.333  1.00  0.00     0.210 HD
ENDBRANCH   9  36
TORSDOF 7
ENDMDL
MODEL 5
REMARK minimizedAffinity -7.60765982
REMARK CNNscore 0.338274598
REMARK CNNaffinity 6.49533796
REMARK  7 active torsions:
REMARK  status: ('A' for Active; 'I' for Inactive)
REMARK    1  A    between atoms: C4_4  and  C5_5 
REMARK    2  A    between atoms: C5_5  and  O1_6 
REMARK    3  A    between atoms: C5_5  and  C6_7 
REMARK    4  A    between atoms: C6_7  and  C7_8 
REMARK    5  A    between atoms: C7_8  and  C8_10 
REMARK    6  A    between atoms: C8_10  and  C10_12 
REMARK    7  A    between atoms: C18_20  and  O3_21 
ROOT
HETATM    1  C10 UNL     1      -2.585   9.412  15.497  1.00  0.00     0.008 C 
HETATM    2  C11 UNL     1      -4.023   9.971  15.468  1.00  0.00     0.007 C 
HETATM    3  C12 UNL     1      -5.072   8.869  15.630  1.00  0.00     0.006 C 
HETATM    4  C13 UNL     1      -4.924   7.725  14.602  1.00  0.00     0.003 C 
HETATM    5  C14 UNL     1      -6.090   6.636  14.651  1.00  0.00    -0.035 C 
HETATM    6  C15 UNL     1      -6.128   5.898  16.009  1.00  0.00     0.016 C 
HETATM    7  C16 UNL     1      -7.464   7.355  14.473  1.00  0.00     0.012 C 
HETATM    8  C17 UNL     1      -8.636   6.417  14.195  1.00  0.00     0.033 C 
HETATM    9  C18 UNL     1      -8.380   5.512  12.995  1.00  0.00     0.126 C 
HETATM   10  C19 UNL     1      -7.061   4.689  13.094  1.00  0.00    -0.017 C 
HETATM   11  C20 UNL     1      -6.833   4.030  11.704  1.00  0.00     0.018 C 
HETATM   12  C21 UNL     1      -7.185   3.524  14.097  1.00  0.00     0.018 C 
HETATM   13  C22 UNL     1      -5.882   5.683  13.413  1.00  0.00     0.004 C 
HETATM   14  C23 UNL     1      -4.484   5.037  13.432  1.00  0.00     0.007 C 
HETATM   15  C24 UNL     1      -3.372   6.093  13.410  1.00  0.00     0.011 C 
HETATM   16  C25 UNL     1      -3.441   7.156  14.544  1.00  0.00    -0.029 C 
HETATM   17  C26 UNL     1      -3.061   6.435  15.877  1.00  0.00     0.016 C 
HETATM   18  C27 UNL     1      -2.395   8.399  14.291  1.00  0.00     0.002 C 
HETATM   19  C28 UNL     1      -2.626   9.051  12.907  1.00  0.00     0.190 C 
HETATM   20  O4  UNL     1      -1.788   8.380  11.965  1.00  0.00    -0.321 OA
HETATM   21  C29 UNL     1      -0.793   7.733  12.622  1.00  0.00     0.259 C 
HETATM   22  O5  UNL     1       0.108   7.123  12.073  1.00  0.00    -0.265 OA
HETATM   23  C30 UNL     1      -0.942   7.925  14.100  1.00  0.00     0.124 C 
ENDROOT
BRANCH   1  24
HETATM   24  C8  UNL     1      -1.561  10.572  15.785  1.00  0.00     0.056 C 
HETATM   25  C9  UNL     1      -1.063  10.690  17.218  1.00  0.00     0.018 C 
BRANCH  24  26
HETATM   26  C7  UNL     1      -2.031  11.926  15.207  1.00  0.00     0.133 C 
HETATM   27  O2  UNL     1      -1.226  12.822  14.937  1.00  0.00    -0.297 OA
BRANCH  26  28
HETATM   28  C6  UNL     1      -3.516  12.182  15.011  1.00  0.00     0.114 C 
BRANCH  28  29
HETATM   29  C5  UNL     1      -4.028  13.466  15.661  1.00  0.00     0.148 C 
BRANCH  29  30
HETATM   30  C4  UNL     1      -4.596  13.282  17.040  1.00  0.00     0.007 C 
HETATM   31  C2  UNL     1      -3.969  13.400  18.228  1.00  0.00    -0.089 C 
HETATM   32  C1  UNL     1      -2.521  13.755  18.427  1.00  0.00     0.042 C 
HETATM   33  C3  UNL     1      -4.721  13.158  19.513  1.00  0.00     0.042 C 
ENDBRANCH  29  30
BRANCH  29  34
HETATM   34  O1  UNL     1      -5.040  14.052  14.849  1.00  0.00    -0.391 OA
HETATM   35  H9  UNL     1      -5.338  14.854  15.316  1.00  0.00     0.210 HD
ENDBRANCH  29  34
ENDBRANCH  28  29
ENDBRANCH  26  28
ENDBRANCH  24  26
ENDBRANCH   1  24
BRANCH   9  36
HETATM   36  O3  UNL     1      -9.517   4.670  12.805  1.00  0.00    -0.395 OA
HETATM   37  H30 UNL     1      -9.683   4.189  13.631  1.00  0.00     0.210 HD
ENDBRANCH   9  36
TORSDOF 7
ENDMDL
MODEL 6
REMARK minimizedAffinity -8.16440296
REMARK CNNscore 0.294335157
REMARK CNNaffinity 6.33274841
REMARK  7 active torsions:
REMARK  status: ('A' for Active; 'I' for Inactive)
REMARK    1  A    between atoms: C4_4  and  C5_5 
REMARK    2  A    between atoms: C5_5  and  O1_6 
REMARK    3  A    between atoms: C5_5  and  C6_7 
REMARK    4  A    between atoms: C6_7  and  C7_8 
REMARK    5  A    between atoms: C7_8  and  C8_10 
REMARK    6  A    between atoms: C8_10  and  C10_12 
REMARK    7  A    between atoms: C18_20  and  O3_21 
ROOT
HETATM    1  C10 UNL     1      -2.220   7.283  13.417  1.00  0.00     0.008 C 
HETATM    2  C11 UNL     1      -1.698   8.491  12.612  1.00  0.00     0.007 C 
HETATM    3  C12 UNL     1      -1.265   9.644  13.519  1.00  0.00     0.006 C 
HETATM    4  C13 UNL     1      -2.367  10.096  14.504  1.00  0.00     0.003 C 
HETATM    5  C14 UNL     1      -1.998  11.391  15.361  1.00  0.00    -0.035 C 
HETATM    6  C15 UNL     1      -0.776  11.144  16.275  1.00  0.00     0.016 C 
HETATM    7  C16 UNL     1      -1.624  12.554  14.389  1.00  0.00     0.012 C 
HETATM    8  C17 UNL     1      -1.546  13.928  15.049  1.00  0.00     0.033 C 
HETATM    9  C18 UNL     1      -2.827  14.285  15.795  1.00  0.00     0.126 C 
HETATM   10  C19 UNL     1      -3.263  13.222  16.847  1.00  0.00    -0.017 C 
HETATM   11  C20 UNL     1      -4.692  13.611  17.321  1.00  0.00     0.018 C 
HETATM   12  C21 UNL     1      -2.375  13.263  18.107  1.00  0.00     0.018 C 
HETATM   13  C22 UNL     1      -3.300  11.815  16.139  1.00  0.00     0.004 C 
HETATM   14  C23 UNL     1      -3.824  10.666  17.021  1.00  0.00     0.007 C 
HETATM   15  C24 UNL     1      -4.152   9.418  16.191  1.00  0.00     0.011 C 
HETATM   16  C25 UNL     1      -2.986   8.877  15.315  1.00  0.00    -0.029 C 
HETATM   17  C26 UNL     1      -1.933   8.251  16.283  1.00  0.00     0.016 C 
HETATM   18  C27 UNL     1      -3.492   7.726  14.256  1.00  0.00     0.002 C 
HETATM   19  C28 UNL     1      -4.651   8.247  13.374  1.00  0.00     0.190 C 
HETATM   20  O4  UNL     1      -5.877   7.933  14.035  1.00  0.00    -0.321 OA
HETATM   21  C29 UNL     1      -5.664   6.946  14.942  1.00  0.00     0.259 C 
HETATM   22  O5  UNL     1      -6.541   6.432  15.614  1.00  0.00    -0.265 OA
HETATM   23  C30 UNL     1      -4.217   6.557  14.949  1.00  0.00     0.124 C 
ENDROOT
BRANCH   1  24
HETATM   24  C8  UNL     1      -2.220   5.992  12.516  1.00  0.00     0.056 C 
HETATM   25  C9  UNL     1      -3.281   4.949  12.835  1.00  0.00     0.018 C 
BRANCH  24  26
HETATM   26  C7  UNL     1      -0.809   5.378  12.373  1.00  0.00     0.133 C 
HETATM   27  O2  UNL     1      -0.248   4.831  13.327  1.00  0.00    -0.297 OA
BRANCH  26  28
HETATM   28  C6  UNL     1      -0.075   5.487  11.047  1.00  0.00     0.114 C 
BRANCH  28  29
HETATM   29  C5  UNL     1       1.030   6.541  11.020  1.00  0.00     0.148 C 
BRANCH  29  30
HETATM   30  C4  UNL     1       1.660   6.749   9.672  1.00  0.00     0.007 C 
HETATM   31  C2  UNL     1       1.252   7.551   8.669  1.00  0.00    -0.089 C 
HETATM   32  C1  UNL     1       0.039   8.440   8.693  1.00  0.00     0.042 C 
HETATM   33  C3  UNL     1       2.023   7.607   7.375  1.00  0.00     0.042 C 
ENDBRANCH  29  30
BRANCH  29  34
HETATM   34  O1  UNL     1       2.063   6.185  11.933  1.00  0.00    -0.391 OA
HETATM   35  H9  UNL     1       2.743   6.880  11.864  1.00  0.00     0.210 HD
ENDBRANCH  29  34
ENDBRANCH  28  29
ENDBRANCH  26  28
ENDBRANCH  24  26
ENDBRANCH   1  24
BRANCH   9  36
HETATM   36  O3  UNL     1      -2.672  15.577  16.381  1.00  0.00    -0.395 OA
HETATM   37  H30 UNL     1      -1.880  15.565  16.943  1.00  0.00     0.210 HD
ENDBRANCH   9  36
TORSDOF 7
ENDMDL
MODEL 7
REMARK minimizedAffinity -7.10686255
REMARK CNNscore 0.288287342
REMARK CNNaffinity 5.84592867
REMARK  7 active torsions:
REMARK  status: ('A' for Active; 'I' for Inactive)
REMARK    1  A    between atoms: C4_4  and  C5_5 
REMARK    2  A    between atoms: C5_5  and  O1_6 
REMARK    3  A    between atoms: C5_5  and  C6_7 
REMARK    4  A    between atoms: C6_7  and  C7_8 
REMARK    5  A    between atoms: C7_8  and  C8_10 
REMARK    6  A    between atoms: C8_10  and  C10_12 
REMARK    7  A    between atoms: C18_20  and  O3_21 
ROOT
HETATM    1  C10 UNL     1      -2.524   9.727  14.465  1.00  0.00     0.008 C 
HETATM    2  C11 UNL     1      -3.805   9.753  15.323  1.00  0.00     0.007 C 
HETATM    3  C12 UNL     1      -4.126  11.157  15.836  1.00  0.00     0.006 C 
HETATM    4  C13 UNL     1      -2.957  11.813  16.604  1.00  0.00     0.003 C 
HETATM    5  C14 UNL     1      -3.311  13.217  17.277  1.00  0.00    -0.035 C 
HETATM    6  C15 UNL     1      -3.689  14.280  16.219  1.00  0.00     0.016 C 
HETATM    7  C16 UNL     1      -4.545  13.034  18.214  1.00  0.00     0.012 C 
HETATM    8  C17 UNL     1      -4.806  14.211  19.151  1.00  0.00     0.033 C 
HETATM    9  C18 UNL     1      -3.582  14.565  19.989  1.00  0.00     0.126 C 
HETATM   10  C19 UNL     1      -2.299  14.838  19.149  1.00  0.00    -0.017 C 
HETATM   11  C20 UNL     1      -1.112  14.930  20.151  1.00  0.00     0.018 C 
HETATM   12  C21 UNL     1      -2.357  16.205  18.438  1.00  0.00     0.018 C 
HETATM   13  C22 UNL     1      -2.080  13.620  18.174  1.00  0.00     0.004 C 
HETATM   14  C23 UNL     1      -0.782  13.684  17.348  1.00  0.00     0.007 C 
HETATM   15  C24 UNL     1      -0.465  12.337  16.686  1.00  0.00     0.011 C 
HETATM   16  C25 UNL     1      -1.594  11.756  15.788  1.00  0.00    -0.029 C 
HETATM   17  C26 UNL     1      -1.667  12.643  14.504  1.00  0.00     0.016 C 
HETATM   18  C27 UNL     1      -1.294  10.200  15.348  1.00  0.00     0.002 C 
HETATM   19  C28 UNL     1      -1.055   9.304  16.586  1.00  0.00     0.190 C 
HETATM   20  O4  UNL     1       0.345   9.314  16.867  1.00  0.00    -0.321 OA
HETATM   21  C29 UNL     1       1.027   9.714  15.764  1.00  0.00     0.259 C 
HETATM   22  O5  UNL     1       2.243   9.761  15.689  1.00  0.00    -0.265 OA
HETATM   23  C30 UNL     1       0.071  10.031  14.655  1.00  0.00     0.124 C 
ENDROOT
BRANCH   1  24
HETATM   24  C8  UNL     1      -2.478   8.411  13.602  1.00  0.00     0.056 C 
HETATM   25  C9  UNL     1      -1.598   8.450  12.361  1.00  0.00     0.018 C 
BRANCH  24  26
HETATM   26  C7  UNL     1      -3.888   7.851  13.311  1.00  0.00     0.133 C 
HETATM   27  O2  UNL     1      -4.817   8.594  12.981  1.00  0.00    -0.297 OA
BRANCH  26  28
HETATM   28  C6  UNL     1      -4.153   6.364  13.477  1.00  0.00     0.114 C 
BRANCH  28  29
HETATM   29  C5  UNL     1      -5.232   6.025  14.504  1.00  0.00     0.148 C 
BRANCH  29  30
HETATM   30  C4  UNL     1      -6.633   6.029  13.960  1.00  0.00     0.007 C 
HETATM   31  C2  UNL     1      -7.250   5.083  13.224  1.00  0.00    -0.089 C 
HETATM   32  C1  UNL     1      -6.645   3.780  12.780  1.00  0.00     0.042 C 
HETATM   33  C3  UNL     1      -8.670   5.287  12.758  1.00  0.00     0.042 C 
ENDBRANCH  29  30
BRANCH  29  34
HETATM   34  O1  UNL     1      -5.183   6.950  15.585  1.00  0.00    -0.391 OA
HETATM   35  H9  UNL     1      -5.897   6.695  16.198  1.00  0.00     0.210 HD
ENDBRANCH  29  34
ENDBRANCH  28  29
ENDBRANCH  26  28
ENDBRANCH  24  26
ENDBRANCH   1  24
BRANCH   9  36
HETATM   36  O3  UNL     1      -3.908  15.670  20.832  1.00  0.00    -0.395 OA
HETATM   37  H30 UNL     1      -4.226  16.397  20.273  1.00  0.00     0.210 HD
ENDBRANCH   9  36
TORSDOF 7
ENDMDL
MODEL 8
REMARK minimizedAffinity -8.17539978
REMARK CNNscore 0.27730611
REMARK CNNaffinity 6.55712509
REMARK  7 active torsions:
REMARK  status: ('A' for Active; 'I' for Inactive)
REMARK    1  A    between atoms: C4_4  and  C5_5 
REMARK    2  A    between atoms: C5_5  and  O1_6 
REMARK    3  A    between atoms: C5_5  and  C6_7 
REMARK    4  A    between atoms: C6_7  and  C7_8 
REMARK    5  A    between atoms: C7_8  and  C8_10 
REMARK    6  A    between atoms: C8_10  and  C10_12 
REMARK    7  A    between atoms: C18_20  and  O3_21 
ROOT
HETATM    1  C10 UNL     1      -0.671   8.171  13.520  1.00  0.00     0.008 C 
HETATM    2  C11 UNL     1      -1.903   9.065  13.270  1.00  0.00     0.007 C 
HETATM    3  C12 UNL     1      -3.182   8.458  13.849  1.00  0.00     0.006 C 
HETATM    4  C13 UNL     1      -3.458   7.020  13.355  1.00  0.00     0.003 C 
HETATM    5  C14 UNL     1      -4.858   6.415  13.824  1.00  0.00    -0.035 C 
HETATM    6  C15 UNL     1      -4.941   6.289  15.363  1.00  0.00     0.016 C 
HETATM    7  C16 UNL     1      -6.003   7.376  13.374  1.00  0.00     0.012 C 
HETATM    8  C17 UNL     1      -7.405   6.781  13.484  1.00  0.00     0.033 C 
HETATM    9  C18 UNL     1      -7.532   5.458  12.738  1.00  0.00     0.126 C 
HETATM   10  C19 UNL     1      -6.477   4.392  13.157  1.00  0.00    -0.017 C 
HETATM   11  C20 UNL     1      -6.586   3.221  12.139  1.00  0.00     0.018 C 
HETATM   12  C21 UNL     1      -6.794   3.781  14.537  1.00  0.00     0.018 C 
HETATM   13  C22 UNL     1      -5.048   5.049  13.063  1.00  0.00     0.004 C 
HETATM   14  C23 UNL     1      -3.879   4.086  13.339  1.00  0.00     0.007 C 
HETATM   15  C24 UNL     1      -2.536   4.687  12.906  1.00  0.00     0.011 C 
HETATM   16  C25 UNL     1      -2.195   6.071  13.530  1.00  0.00    -0.029 C 
HETATM   17  C26 UNL     1      -1.875   5.831  15.040  1.00  0.00     0.016 C 
HETATM   18  C27 UNL     1      -0.891   6.769  12.811  1.00  0.00     0.002 C 
HETATM   19  C28 UNL     1      -1.092   6.886  11.282  1.00  0.00     0.190 C 
HETATM   20  O4  UNL     1      -0.571   5.699  10.682  1.00  0.00    -0.321 OA
HETATM   21  C29 UNL     1       0.282   5.091  11.544  1.00  0.00     0.259 C 
HETATM   22  O5  UNL     1       0.923   4.088  11.282  1.00  0.00    -0.265 OA
HETATM   23  C30 UNL     1       0.353   5.862  12.827  1.00  0.00     0.124 C 
ENDROOT
BRANCH   1  24
HETATM   24  C8  UNL     1       0.650   9.006  13.331  1.00  0.00     0.056 C 
HETATM   25  C9  UNL     1       1.620   8.502  12.273  1.00  0.00     0.018 C 
BRANCH  24  26
HETATM   26  C7  UNL     1       1.347   9.311  14.676  1.00  0.00     0.133 C 
HETATM   27  O2  UNL     1       2.432   9.899  14.717  1.00  0.00    -0.297 OA
BRANCH  26  28
HETATM   28  C6  UNL     1       0.712   8.841  15.974  1.00  0.00     0.114 C 
BRANCH  28  29
HETATM   29  C5  UNL     1      -0.185   9.876  16.651  1.00  0.00     0.148 C 
BRANCH  29  30
HETATM   30  C4  UNL     1       0.323  10.368  17.977  1.00  0.00     0.007 C 
HETATM   31  C2  UNL     1      -0.127  11.401  18.717  1.00  0.00    -0.089 C 
HETATM   32  C1  UNL     1      -1.275  12.304  18.360  1.00  0.00     0.042 C 
HETATM   33  C3  UNL     1       0.536  11.746  20.026  1.00  0.00     0.042 C 
ENDBRANCH  29  30
BRANCH  29  34
HETATM   34  O1  UNL     1      -1.484   9.332  16.858  1.00  0.00    -0.391 OA
HETATM   35  H9  UNL     1      -2.005  10.026  17.303  1.00  0.00     0.210 HD
ENDBRANCH  29  34
ENDBRANCH  28  29
ENDBRANCH  26  28
ENDBRANCH  24  26
ENDBRANCH   1  24
BRANCH   9  36
HETATM   36  O3  UNL     1      -8.866   4.972  12.891  1.00  0.00    -0.395 OA
HETATM   37  H30 UNL     1      -9.061   4.909  13.840  1.00  0.00     0.210 HD
ENDBRANCH   9  36
TORSDOF 7
ENDMDL
MODEL 9
REMARK minimizedAffinity -9.4601202
REMARK CNNscore 0.270255625
REMARK CNNaffinity 6.68873405
REMARK  7 active torsions:
REMARK  status: ('A' for Active; 'I' for Inactive)
REMARK    1  A    between atoms: C4_4  and  C5_5 
REMARK    2  A    between atoms: C5_5  and  O1_6 
REMARK    3  A    between atoms: C5_5  and  C6_7 
REMARK    4  A    between atoms: C6_7  and  C7_8 
REMARK    5  A    between atoms: C7_8  and  C8_10 
REMARK    6  A    between atoms: C8_10  and  C10_12 
REMARK    7  A    between atoms: C18_20  and  O3_21 
ROOT
HETATM    1  C10 UNL     1      -2.018   8.402  14.532  1.00  0.00     0.008 C 
HETATM    2  C11 UNL     1      -2.493   9.017  13.199  1.00  0.00     0.007 C 
HETATM    3  C12 UNL     1      -1.865   8.323  11.989  1.00  0.00     0.006 C 
HETATM    4  C13 UNL     1      -0.321   8.283  12.037  1.00  0.00     0.003 C 
HETATM    5  C14 UNL     1       0.367   7.698  10.721  1.00  0.00    -0.035 C 
HETATM    6  C15 UNL     1      -0.024   6.223  10.477  1.00  0.00     0.016 C 
HETATM    7  C16 UNL     1      -0.119   8.519   9.486  1.00  0.00     0.012 C 
HETATM    8  C17 UNL     1       0.683   8.274   8.210  1.00  0.00     0.033 C 
HETATM    9  C18 UNL     1       2.177   8.502   8.413  1.00  0.00     0.126 C 
HETATM   10  C19 UNL     1       2.789   7.677   9.583  1.00  0.00    -0.017 C 
HETATM   11  C20 UNL     1       4.232   8.212   9.809  1.00  0.00     0.018 C 
HETATM   12  C21 UNL     1       2.945   6.187   9.216  1.00  0.00     0.018 C 
HETATM   13  C22 UNL     1       1.919   7.929  10.872  1.00  0.00     0.004 C 
HETATM   14  C23 UNL     1       2.461   7.268  12.153  1.00  0.00     0.007 C 
HETATM   15  C24 UNL     1       1.775   7.820  13.409  1.00  0.00     0.011 C 
HETATM   16  C25 UNL     1       0.223   7.716  13.419  1.00  0.00    -0.029 C 
HETATM   17  C26 UNL     1      -0.139   6.206  13.591  1.00  0.00     0.016 C 
HETATM   18  C27 UNL     1      -0.445   8.571  14.653  1.00  0.00     0.002 C 
HETATM   19  C28 UNL     1       0.011  10.049  14.622  1.00  0.00     0.190 C 
HETATM   20  O4  UNL     1       1.193  10.157  15.415  1.00  0.00    -0.321 OA
HETATM   21  C29 UNL     1       1.277   9.093  16.253  1.00  0.00     0.259 C 
HETATM   22  O5  UNL     1       2.151   8.947  17.090  1.00  0.00    -0.265 OA
HETATM   23  C30 UNL     1       0.119   8.170  16.029  1.00  0.00     0.124 C 
ENDROOT
BRANCH   1  24
HETATM   24  C8  UNL     1      -2.997   8.811  15.695  1.00  0.00     0.056 C 
HETATM   25  C9  UNL     1      -2.465   8.646  17.111  1.00  0.00     0.018 C 
BRANCH  24  26
HETATM   26  C7  UNL     1      -4.405   8.202  15.516  1.00  0.00     0.133 C 
HETATM   27  O2  UNL     1      -5.418   8.908  15.545  1.00  0.00    -0.297 OA
BRANCH  26  28
HETATM   28  C6  UNL     1      -4.557   6.699  15.349  1.00  0.00     0.114 C 
BRANCH  28  29
HETATM   29  C5  UNL     1      -5.976   6.178  15.565  1.00  0.00     0.148 C 
BRANCH  29  30
HETATM   30  C4  UNL     1      -6.881   6.323  14.374  1.00  0.00     0.007 C 
HETATM   31  C2  UNL     1      -7.504   5.355  13.671  1.00  0.00    -0.089 C 
HETATM   32  C1  UNL     1      -7.422   3.879  13.944  1.00  0.00     0.042 C 
HETATM   33  C3  UNL     1      -8.366   5.710  12.486  1.00  0.00     0.042 C 
ENDBRANCH  29  30
BRANCH  29  34
HETATM   34  O1  UNL     1      -6.584   6.861  16.658  1.00  0.00    -0.391 OA
HETATM   35  H9  UNL     1      -7.486   6.500  16.740  1.00  0.00     0.210 HD
ENDBRANCH  29  34
ENDBRANCH  28  29
ENDBRANCH  26  28
ENDBRANCH  24  26
ENDBRANCH   1  24
BRANCH   9  36
HETATM   36  O3  UNL     1       2.851   8.252   7.179  1.00  0.00    -0.395 OA
HETATM   37  H30 UNL     1       2.626   7.355   6.885  1.00  0.00     0.210 HD
ENDBRANCH   9  36
TORSDOF 7
ENDMDL
