MODEL 1
REMARK minimizedAffinity -9.54465389
REMARK  8 active torsions:
REMARK  status: ('A' for Active; 'I' for Inactive)
REMARK    1  A    between atoms: O1_2  and  C2_3 
REMARK    2  A    between atoms: C2_3  and  C5_6 
REMARK    3  A    between atoms: C6_7  and  C7_8 
REMARK    4  A    between atoms: C7_8  and  C8_9 
REMARK    5  A    between atoms: C8_9  and  C10_11 
REMARK    6  A    between atoms: C16_17  and  O2_18 
REMARK    7  A    between atoms: C19_21  and  C21_23 
REMARK    8  A    between atoms: C21_23  and  O3_24 
ROOT
HETATM    1  C10 UNL     1      -4.197  50.317 -25.182  1.00  0.00    -0.002 C 
HETATM    2  C11 UNL     1      -3.760  51.679 -24.675  1.00  0.00     0.006 C 
HETATM    3  C12 UNL     1      -4.596  51.875 -23.418  1.00  0.00     0.011 C 
HETATM    4  C13 UNL     1      -4.932  50.455 -22.825  1.00  0.00    -0.030 C 
HETATM    5  C14 UNL     1      -6.475  50.403 -22.703  1.00  0.00     0.016 C 
HETATM    6  C15 UNL     1      -4.300  50.340 -21.391  1.00  0.00     0.032 C 
HETATM    7  C16 UNL     1      -4.822  49.235 -20.430  1.00  0.00     0.124 C 
HETATM    8  C17 UNL     1      -3.911  48.961 -19.216  1.00  0.00     0.038 C 
HETATM    9  C18 UNL     1      -2.964  50.121 -18.849  1.00  0.00     0.015 C 
HETATM   10  C19 UNL     1      -2.211  49.874 -17.495  1.00  0.00     0.042 C 
HETATM   11  C20 UNL     1      -1.845  48.399 -17.209  1.00  0.00     0.026 C 
HETATM   12  C22 UNL     1      -0.900  50.660 -17.468  1.00  0.00     0.137 C 
HETATM   13  O4  UNL     1      -0.539  51.287 -16.464  1.00  0.00    -0.297 OA
HETATM   14  C23 UNL     1       0.015  50.591 -18.671  1.00  0.00     0.080 C 
HETATM   15  C24 UNL     1      -0.616  49.899 -19.870  1.00  0.00     0.018 C 
HETATM   16  C25 UNL     1      -2.036  50.373 -20.049  1.00  0.00    -0.026 A 
HETATM   17  C26 UNL     1      -2.151  51.642 -20.854  1.00  0.00     0.021 A 
HETATM   18  C27 UNL     1      -2.764  50.369 -21.410  1.00  0.00    -0.025 A 
HETATM   19  C28 UNL     1      -2.098  49.682 -22.582  1.00  0.00     0.011 C 
HETATM   20  C29 UNL     1      -3.033  48.787 -23.386  1.00  0.00     0.011 C 
HETATM   21  C30 UNL     1      -4.348  49.435 -23.891  1.00  0.00    -0.032 C 
HETATM   22  C31 UNL     1      -5.305  48.268 -24.257  1.00  0.00     0.016 C 
ENDROOT
BRANCH   1  23
HETATM   23  C8  UNL     1      -3.372  49.727 -26.365  1.00  0.00    -0.010 C 
HETATM   24  C9  UNL     1      -3.893  48.396 -26.921  1.00  0.00     0.010 C 
BRANCH  23  25
HETATM   25  C7  UNL     1      -1.883  49.520 -25.982  1.00  0.00     0.031 C 
BRANCH  25  26
HETATM   26  C6  UNL     1      -0.955  50.480 -26.671  1.00  0.00    -0.027 C 
HETATM   27  C5  UNL     1       0.128  51.029 -26.088  1.00  0.00     0.006 C 
BRANCH  27  28
HETATM   28  C2  UNL     1       1.087  52.029 -26.708  1.00  0.00     0.070 C 
HETATM   29  C3  UNL     1       2.503  51.440 -26.611  1.00  0.00     0.050 C 
HETATM   30  C4  UNL     1       0.679  52.224 -28.176  1.00  0.00     0.050 C 
BRANCH  28  31
HETATM   31  O1  UNL     1       0.990  53.255 -25.973  1.00  0.00    -0.382 OA
HETATM   32  C1  UNL     1      -0.122  53.410 -25.109  1.00  0.00     0.202 C 
ENDBRANCH  28  31
ENDBRANCH  27  28
ENDBRANCH  25  26
ENDBRANCH  23  25
ENDBRANCH   1  23
BRANCH   7  33
HETATM   33  O2  UNL     1      -5.046  47.991 -21.087  1.00  0.00    -0.395 OA
HETATM   34  H28 UNL     1      -5.489  47.398 -20.455  1.00  0.00     0.210 HD
ENDBRANCH   7  33
BRANCH  10  35
HETATM   35  C21 UNL     1      -3.092  50.335 -16.307  1.00  0.00     0.181 C 
BRANCH  35  36
HETATM   36  O3  UNL     1      -3.314  49.293 -15.367  1.00  0.00    -0.400 OA
HETATM   37  H37 UNL     1      -4.183  48.897 -15.584  1.00  0.00     0.209 HD
ENDBRANCH  35  36
ENDBRANCH  10  35
TORSDOF 8
ENDMDL
MODEL 2
REMARK minimizedAffinity -9.12172318
REMARK  8 active torsions:
REMARK  status: ('A' for Active; 'I' for Inactive)
REMARK    1  A    between atoms: O1_2  and  C2_3 
REMARK    2  A    between atoms: C2_3  and  C5_6 
REMARK    3  A    between atoms: C6_7  and  C7_8 
REMARK    4  A    between atoms: C7_8  and  C8_9 
REMARK    5  A    between atoms: C8_9  and  C10_11 
REMARK    6  A    between atoms: C16_17  and  O2_18 
REMARK    7  A    between atoms: C19_21  and  C21_23 
REMARK    8  A    between atoms: C21_23  and  O3_24 
ROOT
HETATM    1  C10 UNL     1      -3.644  50.420 -23.053  1.00  0.00    -0.002 C 
HETATM    2  C11 UNL     1      -3.771  51.762 -22.356  1.00  0.00     0.006 C 
HETATM    3  C12 UNL     1      -4.421  51.412 -21.025  1.00  0.00     0.011 C 
HETATM    4  C13 UNL     1      -4.022  49.932 -20.658  1.00  0.00    -0.030 C 
HETATM    5  C14 UNL     1      -5.356  49.179 -20.431  1.00  0.00     0.016 C 
HETATM    6  C15 UNL     1      -3.205  49.945 -19.316  1.00  0.00     0.032 C 
HETATM    7  C16 UNL     1      -3.056  48.619 -18.519  1.00  0.00     0.124 C 
HETATM    8  C17 UNL     1      -1.954  48.641 -17.441  1.00  0.00     0.038 C 
HETATM    9  C18 UNL     1      -1.560  50.050 -16.954  1.00  0.00     0.015 C 
HETATM   10  C19 UNL     1      -0.589  50.010 -15.722  1.00  0.00     0.042 C 
HETATM   11  C20 UNL     1       0.415  48.834 -15.718  1.00  0.00     0.026 C 
HETATM   12  C22 UNL     1       0.242  51.291 -15.661  1.00  0.00     0.137 C 
HETATM   13  O4  UNL     1       0.435  51.891 -14.596  1.00  0.00    -0.297 OA
HETATM   14  C23 UNL     1       0.915  51.783 -16.924  1.00  0.00     0.080 C 
HETATM   15  C24 UNL     1       0.482  51.029 -18.172  1.00  0.00     0.018 C 
HETATM   16  C25 UNL     1      -1.013  50.833 -18.161  1.00  0.00    -0.026 A 
HETATM   17  C26 UNL     1      -1.779  52.000 -18.729  1.00  0.00     0.021 A 
HETATM   18  C27 UNL     1      -1.853  50.662 -19.445  1.00  0.00    -0.025 A 
HETATM   19  C28 UNL     1      -1.130  50.492 -20.763  1.00  0.00     0.011 C 
HETATM   20  C29 UNL     1      -1.690  49.375 -21.633  1.00  0.00     0.011 C 
HETATM   21  C30 UNL     1      -3.213  49.418 -21.922  1.00  0.00    -0.032 C 
HETATM   22  C31 UNL     1      -3.613  47.998 -22.407  1.00  0.00     0.016 C 
ENDROOT
BRANCH   1  23
HETATM   23  C8  UNL     1      -2.823  50.407 -24.376  1.00  0.00    -0.010 C 
HETATM   24  C9  UNL     1      -3.087  49.207 -25.295  1.00  0.00     0.010 C 
BRANCH  23  25
HETATM   25  C7  UNL     1      -1.296  50.459 -24.109  1.00  0.00     0.031 C 
BRANCH  25  26
HETATM   26  C6  UNL     1      -0.571  51.434 -24.994  1.00  0.00    -0.027 C 
HETATM   27  C5  UNL     1       0.248  51.071 -25.999  1.00  0.00     0.006 C 
BRANCH  27  28
HETATM   28  C2  UNL     1       1.037  51.995 -26.909  1.00  0.00     0.070 C 
HETATM   29  C3  UNL     1       2.526  51.651 -26.747  1.00  0.00     0.050 C 
HETATM   30  C4  UNL     1       0.575  51.742 -28.351  1.00  0.00     0.050 C 
BRANCH  28  31
HETATM   31  O1  UNL     1       0.777  53.346 -26.508  1.00  0.00    -0.382 OA
HETATM   32  C1  UNL     1      -0.060  54.124 -27.347  1.00  0.00     0.202 C 
ENDBRANCH  28  31
ENDBRANCH  27  28
ENDBRANCH  25  26
ENDBRANCH  23  25
ENDBRANCH   1  23
BRANCH   7  33
HETATM   33  O2  UNL     1      -2.810  47.494 -19.358  1.00  0.00    -0.395 OA
HETATM   34  H28 UNL     1      -2.859  46.695 -18.805  1.00  0.00     0.210 HD
ENDBRANCH   7  33
BRANCH  10  35
HETATM   35  C21 UNL     1      -1.404  49.882 -14.411  1.00  0.00     0.181 C 
BRANCH  35  36
HETATM   36  O3  UNL     1      -2.392  50.895 -14.291  1.00  0.00    -0.400 OA
HETATM   37  H37 UNL     1      -2.005  51.602 -13.733  1.00  0.00     0.209 HD
ENDBRANCH  35  36
ENDBRANCH  10  35
TORSDOF 8
ENDMDL
MODEL 3
REMARK minimizedAffinity -9.07051659
REMARK  8 active torsions:
REMARK  status: ('A' for Active; 'I' for Inactive)
REMARK    1  A    between atoms: O1_2  and  C2_3 
REMARK    2  A    between atoms: C2_3  and  C5_6 
REMARK    3  A    between atoms: C6_7  and  C7_8 
REMARK    4  A    between atoms: C7_8  and  C8_9 
REMARK    5  A    between atoms: C8_9  and  C10_11 
REMARK    6  A    between atoms: C16_17  and  O2_18 
REMARK    7  A    between atoms: C19_21  and  C21_23 
REMARK    8  A    between atoms: C21_23  and  O3_24 
ROOT
HETATM    1  C10 UNL     1      -4.157  48.547 -19.967  1.00  0.00    -0.002 C 
HETATM    2  C11 UNL     1      -5.126  49.452 -20.705  1.00  0.00     0.006 C 
HETATM    3  C12 UNL     1      -4.490  50.829 -20.580  1.00  0.00     0.011 C 
HETATM    4  C13 UNL     1      -2.932  50.641 -20.443  1.00  0.00    -0.030 C 
HETATM    5  C14 UNL     1      -2.531  51.377 -19.141  1.00  0.00     0.016 C 
HETATM    6  C15 UNL     1      -2.228  51.336 -21.664  1.00  0.00     0.032 C 
HETATM    7  C16 UNL     1      -0.712  51.664 -21.564  1.00  0.00     0.124 C 
HETATM    8  C17 UNL     1      -0.039  51.993 -22.912  1.00  0.00     0.038 C 
HETATM    9  C18 UNL     1      -1.008  52.466 -24.015  1.00  0.00     0.015 C 
HETATM   10  C19 UNL     1      -0.256  52.979 -25.293  1.00  0.00     0.042 C 
HETATM   11  C20 UNL     1       1.057  52.233 -25.625  1.00  0.00     0.026 C 
HETATM   12  C22 UNL     1      -1.153  52.846 -26.524  1.00  0.00     0.137 C 
HETATM   13  O4  UNL     1      -1.239  53.749 -27.366  1.00  0.00    -0.297 OA
HETATM   14  C23 UNL     1      -1.883  51.542 -26.755  1.00  0.00     0.080 C 
HETATM   15  C24 UNL     1      -1.791  50.582 -25.578  1.00  0.00     0.018 C 
HETATM   16  C25 UNL     1      -2.008  51.330 -24.287  1.00  0.00    -0.026 A 
HETATM   17  C26 UNL     1      -3.460  51.481 -23.913  1.00  0.00     0.021 A 
HETATM   18  C27 UNL     1      -2.557  50.665 -23.006  1.00  0.00    -0.025 A 
HETATM   19  C28 UNL     1      -2.704  49.159 -22.981  1.00  0.00     0.011 C 
HETATM   20  C29 UNL     1      -2.183  48.510 -21.706  1.00  0.00     0.011 C 
HETATM   21  C30 UNL     1      -2.731  49.069 -20.368  1.00  0.00    -0.032 C 
HETATM   22  C31 UNL     1      -1.754  48.598 -19.257  1.00  0.00     0.016 C 
ENDROOT
BRANCH   1  23
HETATM   23  C8  UNL     1      -4.422  47.016 -20.085  1.00  0.00    -0.010 C 
HETATM   24  C9  UNL     1      -3.323  46.219 -20.802  1.00  0.00     0.010 C 
BRANCH  23  25
HETATM   25  C7  UNL     1      -5.760  46.716 -20.810  1.00  0.00     0.031 C 
BRANCH  25  26
HETATM   26  C6  UNL     1      -5.849  47.340 -22.174  1.00  0.00    -0.027 C 
HETATM   27  C5  UNL     1      -6.851  47.109 -23.043  1.00  0.00     0.006 C 
BRANCH  27  28
HETATM   28  C2  UNL     1      -6.988  47.674 -24.445  1.00  0.00     0.070 C 
HETATM   29  C3  UNL     1      -8.010  48.820 -24.389  1.00  0.00     0.050 C 
HETATM   30  C4  UNL     1      -5.610  48.195 -24.879  1.00  0.00     0.050 C 
BRANCH  28  31
HETATM   31  O1  UNL     1      -7.443  46.624 -25.308  1.00  0.00    -0.382 OA
HETATM   32  C1  UNL     1      -8.489  45.796 -24.829  1.00  0.00     0.202 C 
ENDBRANCH  28  31
ENDBRANCH  27  28
ENDBRANCH  25  26
ENDBRANCH  23  25
ENDBRANCH   1  23
BRANCH   7  33
HETATM   33  O2  UNL     1       0.042  50.621 -20.954  1.00  0.00    -0.395 OA
HETATM   34  H28 UNL     1       0.945  50.952 -20.811  1.00  0.00     0.210 HD
ENDBRANCH   7  33
BRANCH  10  35
HETATM   35  C21 UNL     1       0.131  54.469 -25.117  1.00  0.00     0.181 C 
BRANCH  35  36
HETATM   36  O3  UNL     1       0.365  55.114 -26.361  1.00  0.00    -0.400 OA
HETATM   37  H37 UNL     1       1.333  55.098 -26.509  1.00  0.00     0.209 HD
ENDBRANCH  35  36
ENDBRANCH  10  35
TORSDOF 8
ENDMDL
MODEL 4
REMARK minimizedAffinity -8.96541882
REMARK  8 active torsions:
REMARK  status: ('A' for Active; 'I' for Inactive)
REMARK    1  A    between atoms: O1_2  and  C2_3 
REMARK    2  A    between atoms: C2_3  and  C5_6 
REMARK    3  A    between atoms: C6_7  and  C7_8 
REMARK    4  A    between atoms: C7_8  and  C8_9 
REMARK    5  A    between atoms: C8_9  and  C10_11 
REMARK    6  A    between atoms: C16_17  and  O2_18 
REMARK    7  A    between atoms: C19_21  and  C21_23 
REMARK    8  A    between atoms: C21_23  and  O3_24 
ROOT
HETATM    1  C10 UNL     1      -2.164  51.424 -22.284  1.00  0.00    -0.002 C 
HETATM    2  C11 UNL     1      -2.861  51.365 -20.937  1.00  0.00     0.006 C 
HETATM    3  C12 UNL     1      -4.334  51.517 -21.293  1.00  0.00     0.011 C 
HETATM    4  C13 UNL     1      -4.548  50.959 -22.750  1.00  0.00    -0.030 C 
HETATM    5  C14 UNL     1      -5.209  52.109 -23.550  1.00  0.00     0.016 C 
HETATM    6  C15 UNL     1      -5.538  49.741 -22.687  1.00  0.00     0.032 C 
HETATM    7  C16 UNL     1      -6.240  49.280 -23.995  1.00  0.00     0.124 C 
HETATM    8  C17 UNL     1      -6.888  47.883 -23.916  1.00  0.00     0.038 C 
HETATM    9  C18 UNL     1      -7.212  47.406 -22.486  1.00  0.00     0.015 C 
HETATM   10  C19 UNL     1      -8.048  46.079 -22.472  1.00  0.00     0.042 C 
HETATM   11  C20 UNL     1      -7.717  45.084 -23.609  1.00  0.00     0.026 C 
HETATM   12  C22 UNL     1      -7.826  45.327 -21.160  1.00  0.00     0.137 C 
HETATM   13  O4  UNL     1      -8.765  44.813 -20.538  1.00  0.00    -0.297 OA
HETATM   14  C23 UNL     1      -6.411  45.135 -20.661  1.00  0.00     0.080 C 
HETATM   15  C24 UNL     1      -5.381  45.930 -21.449  1.00  0.00     0.018 C 
HETATM   16  C25 UNL     1      -5.892  47.327 -21.701  1.00  0.00    -0.026 A 
HETATM   17  C26 UNL     1      -5.612  48.285 -20.572  1.00  0.00     0.021 A 
HETATM   18  C27 UNL     1      -4.964  48.540 -21.921  1.00  0.00    -0.025 A 
HETATM   19  C28 UNL     1      -3.480  48.294 -22.084  1.00  0.00     0.011 C 
HETATM   20  C29 UNL     1      -2.848  49.067 -23.234  1.00  0.00     0.011 C 
HETATM   21  C30 UNL     1      -3.086  50.599 -23.252  1.00  0.00    -0.032 C 
HETATM   22  C31 UNL     1      -2.765  51.081 -24.693  1.00  0.00     0.016 C 
ENDROOT
BRANCH   1  23
HETATM   23  C8  UNL     1      -0.642  51.093 -22.284  1.00  0.00    -0.010 C 
HETATM   24  C9  UNL     1      -0.130  50.384 -21.024  1.00  0.00     0.010 C 
BRANCH  23  25
HETATM   25  C7  UNL     1       0.225  52.363 -22.487  1.00  0.00     0.031 C 
BRANCH  25  26
HETATM   26  C6  UNL     1       0.479  52.683 -23.933  1.00  0.00    -0.027 C 
HETATM   27  C5  UNL     1       0.705  51.754 -24.881  1.00  0.00     0.006 C 
BRANCH  27  28
HETATM   28  C2  UNL     1       1.002  52.003 -26.348  1.00  0.00     0.070 C 
HETATM   29  C3  UNL     1       2.461  51.596 -26.605  1.00  0.00     0.050 C 
HETATM   30  C4  UNL     1       0.042  51.137 -27.176  1.00  0.00     0.050 C 
BRANCH  28  31
HETATM   31  O1  UNL     1       0.804  53.398 -26.613  1.00  0.00    -0.382 OA
HETATM   32  C1  UNL     1      -0.208  53.747 -27.541  1.00  0.00     0.202 C 
ENDBRANCH  28  31
ENDBRANCH  27  28
ENDBRANCH  25  26
ENDBRANCH  23  25
ENDBRANCH   1  23
BRANCH   7  33
HETATM   33  O2  UNL     1      -5.369  49.285 -25.123  1.00  0.00    -0.395 OA
HETATM   34  H28 UNL     1      -5.908  49.114 -25.914  1.00  0.00     0.210 HD
ENDBRANCH   7  33
BRANCH  10  35
HETATM   35  C21 UNL     1      -9.557  46.402 -22.612  1.00  0.00     0.181 C 
BRANCH  35  36
HETATM   36  O3  UNL     1      -9.864  47.008 -23.859  1.00  0.00    -0.400 OA
HETATM   37  H37 UNL     1      -9.886  47.975 -23.704  1.00  0.00     0.209 HD
ENDBRANCH  35  36
ENDBRANCH  10  35
TORSDOF 8
ENDMDL
MODEL 5
REMARK minimizedAffinity -8.92467594
REMARK  8 active torsions:
REMARK  status: ('A' for Active; 'I' for Inactive)
REMARK    1  A    between atoms: O1_2  and  C2_3 
REMARK    2  A    between atoms: C2_3  and  C5_6 
REMARK    3  A    between atoms: C6_7  and  C7_8 
REMARK    4  A    between atoms: C7_8  and  C8_9 
REMARK    5  A    between atoms: C8_9  and  C10_11 
REMARK    6  A    between atoms: C16_17  and  O2_18 
REMARK    7  A    between atoms: C19_21  and  C21_23 
REMARK    8  A    between atoms: C21_23  and  O3_24 
ROOT
HETATM    1  C10 UNL     1      -6.038  48.700 -23.148  1.00  0.00    -0.002 C 
HETATM    2  C11 UNL     1      -6.483  50.023 -23.743  1.00  0.00     0.006 C 
HETATM    3  C12 UNL     1      -5.646  51.049 -22.993  1.00  0.00     0.011 C 
HETATM    4  C13 UNL     1      -4.303  50.357 -22.547  1.00  0.00    -0.030 C 
HETATM    5  C14 UNL     1      -4.213  50.560 -21.015  1.00  0.00     0.016 C 
HETATM    6  C15 UNL     1      -3.098  51.094 -23.235  1.00  0.00     0.032 C 
HETATM    7  C16 UNL     1      -1.670  50.895 -22.654  1.00  0.00     0.124 C 
HETATM    8  C17 UNL     1      -0.530  51.343 -23.591  1.00  0.00     0.038 C 
HETATM    9  C18 UNL     1      -0.947  52.367 -24.666  1.00  0.00     0.015 C 
HETATM   10  C19 UNL     1       0.281  52.939 -25.457  1.00  0.00     0.042 C 
HETATM   11  C20 UNL     1       1.436  51.937 -25.688  1.00  0.00     0.026 C 
HETATM   12  C22 UNL     1      -0.158  53.422 -26.839  1.00  0.00     0.137 C 
HETATM   13  O4  UNL     1       0.240  54.495 -27.310  1.00  0.00    -0.297 OA
HETATM   14  C23 UNL     1      -1.031  52.519 -27.682  1.00  0.00     0.080 C 
HETATM   15  C24 UNL     1      -1.548  51.304 -26.928  1.00  0.00     0.018 C 
HETATM   16  C25 UNL     1      -2.019  51.713 -25.554  1.00  0.00    -0.026 A 
HETATM   17  C26 UNL     1      -3.443  52.204 -25.526  1.00  0.00     0.021 A 
HETATM   18  C27 UNL     1      -3.094  50.939 -24.763  1.00  0.00    -0.025 A 
HETATM   19  C28 UNL     1      -3.563  49.603 -25.299  1.00  0.00     0.011 C 
HETATM   20  C29 UNL     1      -3.652  48.511 -24.242  1.00  0.00     0.011 C 
HETATM   21  C30 UNL     1      -4.483  48.839 -22.974  1.00  0.00    -0.032 C 
HETATM   22  C31 UNL     1      -4.060  47.812 -21.889  1.00  0.00     0.016 C 
ENDROOT
BRANCH   1  23
HETATM   23  C8  UNL     1      -6.571  47.416 -23.851  1.00  0.00    -0.010 C 
HETATM   24  C9  UNL     1      -6.756  47.536 -25.370  1.00  0.00     0.010 C 
BRANCH  23  25
HETATM   25  C7  UNL     1      -7.924  46.950 -23.254  1.00  0.00     0.031 C 
BRANCH  25  26
HETATM   26  C6  UNL     1      -8.926  46.546 -24.299  1.00  0.00    -0.027 C 
HETATM   27  C5  UNL     1      -9.986  47.296 -24.654  1.00  0.00     0.006 C 
BRANCH  27  28
HETATM   28  C2  UNL     1     -11.054  46.938 -25.672  1.00  0.00     0.070 C 
HETATM   29  C3  UNL     1     -10.365  46.208 -26.835  1.00  0.00     0.050 C 
HETATM   30  C4  UNL     1     -12.073  46.020 -24.981  1.00  0.00     0.050 C 
BRANCH  28  31
HETATM   31  O1  UNL     1     -11.668  48.153 -26.122  1.00  0.00    -0.382 OA
HETATM   32  C1  UNL     1     -12.322  48.125 -27.378  1.00  0.00     0.202 C 
ENDBRANCH  28  31
ENDBRANCH  27  28
ENDBRANCH  25  26
ENDBRANCH  23  25
ENDBRANCH   1  23
BRANCH   7  33
HETATM   33  O2  UNL     1      -1.409  49.547 -22.276  1.00  0.00    -0.395 OA
HETATM   34  H28 UNL     1      -0.556  49.531 -21.807  1.00  0.00     0.210 HD
ENDBRANCH   7  33
BRANCH  10  35
HETATM   35  C21 UNL     1       0.898  54.133 -24.685  1.00  0.00     0.181 C 
BRANCH  35  36
HETATM   36  O3  UNL     1       0.257  55.362 -24.994  1.00  0.00    -0.400 OA
HETATM   37  H37 UNL     1       0.801  55.798 -25.683  1.00  0.00     0.209 HD
ENDBRANCH  35  36
ENDBRANCH  10  35
TORSDOF 8
ENDMDL
MODEL 6
REMARK minimizedAffinity -8.90718842
REMARK  8 active torsions:
REMARK  status: ('A' for Active; 'I' for Inactive)
REMARK    1  A    between atoms: O1_2  and  C2_3 
REMARK    2  A    between atoms: C2_3  and  C5_6 
REMARK    3  A    between atoms: C6_7  and  C7_8 
REMARK    4  A    between atoms: C7_8  and  C8_9 
REMARK    5  A    between atoms: C8_9  and  C10_11 
REMARK    6  A    between atoms: C16_17  and  O2_18 
REMARK    7  A    between atoms: C19_21  and  C21_23 
REMARK    8  A    between atoms: C21_23  and  O3_24 
ROOT
HETATM    1  C10 UNL     1      -0.406  50.692 -20.328  1.00  0.00    -0.002 C 
HETATM    2  C11 UNL     1      -0.155  49.369 -21.027  1.00  0.00     0.006 C 
HETATM    3  C12 UNL     1      -1.243  48.461 -20.471  1.00  0.00     0.011 C 
HETATM    4  C13 UNL     1      -2.473  49.359 -20.065  1.00  0.00    -0.030 C 
HETATM    5  C14 UNL     1      -2.759  49.035 -18.578  1.00  0.00     0.016 C 
HETATM    6  C15 UNL     1      -3.715  48.940 -20.931  1.00  0.00     0.032 C 
HETATM    7  C16 UNL     1      -5.134  49.360 -20.454  1.00  0.00     0.124 C 
HETATM    8  C17 UNL     1      -6.233  49.235 -21.528  1.00  0.00     0.038 C 
HETATM    9  C18 UNL     1      -5.904  48.254 -22.672  1.00  0.00     0.015 C 
HETATM   10  C19 UNL     1      -7.128  48.010 -23.623  1.00  0.00     0.042 C 
HETATM   11  C20 UNL     1      -8.045  49.236 -23.837  1.00  0.00     0.026 C 
HETATM   12  C22 UNL     1      -6.645  47.582 -25.008  1.00  0.00     0.137 C 
HETATM   13  O4  UNL     1      -7.185  46.657 -25.628  1.00  0.00    -0.297 OA
HETATM   14  C23 UNL     1      -5.536  48.371 -25.668  1.00  0.00     0.080 C 
HETATM   15  C24 UNL     1      -4.883  49.385 -24.741  1.00  0.00     0.018 C 
HETATM   16  C25 UNL     1      -4.643  48.765 -23.388  1.00  0.00    -0.026 A 
HETATM   17  C26 UNL     1      -3.346  48.003 -23.294  1.00  0.00     0.021 A 
HETATM   18  C27 UNL     1      -3.530  49.236 -22.427  1.00  0.00    -0.025 A 
HETATM   19  C28 UNL     1      -2.768  50.497 -22.768  1.00  0.00     0.011 C 
HETATM   20  C29 UNL     1      -2.588  51.447 -21.592  1.00  0.00     0.011 C 
HETATM   21  C30 UNL     1      -1.970  50.845 -20.303  1.00  0.00    -0.032 C 
HETATM   22  C31 UNL     1      -2.304  51.829 -19.149  1.00  0.00     0.016 C 
ENDROOT
BRANCH   1  23
HETATM   23  C8  UNL     1       0.427  51.906 -20.836  1.00  0.00    -0.010 C 
HETATM   24  C9  UNL     1       0.689  52.998 -19.790  1.00  0.00     0.010 C 
BRANCH  23  25
HETATM   25  C7  UNL     1      -0.233  52.587 -22.063  1.00  0.00     0.031 C 
BRANCH  25  26
HETATM   26  C6  UNL     1       0.371  52.164 -23.372  1.00  0.00    -0.027 C 
HETATM   27  C5  UNL     1      -0.012  52.649 -24.569  1.00  0.00     0.006 C 
BRANCH  27  28
HETATM   28  C2  UNL     1       0.526  52.244 -25.929  1.00  0.00     0.070 C 
HETATM   29  C3  UNL     1      -0.010  50.839 -26.245  1.00  0.00     0.050 C 
HETATM   30  C4  UNL     1       0.018  53.264 -26.958  1.00  0.00     0.050 C 
BRANCH  28  31
HETATM   31  O1  UNL     1       1.958  52.242 -25.860  1.00  0.00    -0.382 OA
HETATM   32  C1  UNL     1       2.660  51.635 -26.931  1.00  0.00     0.202 C 
ENDBRANCH  28  31
ENDBRANCH  27  28
ENDBRANCH  25  26
ENDBRANCH  23  25
ENDBRANCH   1  23
BRANCH   7  33
HETATM   33  O2  UNL     1      -5.177  50.692 -19.950  1.00  0.00    -0.395 OA
HETATM   34  H28 UNL     1      -6.056  50.831 -19.556  1.00  0.00     0.210 HD
ENDBRANCH   7  33
BRANCH  10  35
HETATM   35  C21 UNL     1      -8.034  46.894 -23.044  1.00  0.00     0.181 C 
BRANCH  35  36
HETATM   36  O3  UNL     1      -7.314  45.698 -22.785  1.00  0.00    -0.400 OA
HETATM   37  H37 UNL     1      -7.448  45.114 -23.561  1.00  0.00     0.209 HD
ENDBRANCH  35  36
ENDBRANCH  10  35
TORSDOF 8
ENDMDL
MODEL 7
REMARK minimizedAffinity -8.77999401
REMARK  8 active torsions:
REMARK  status: ('A' for Active; 'I' for Inactive)
REMARK    1  A    between atoms: O1_2  and  C2_3 
REMARK    2  A    between atoms: C2_3  and  C5_6 
REMARK    3  A    between atoms: C6_7  and  C7_8 
REMARK    4  A    between atoms: C7_8  and  C8_9 
REMARK    5  A    between atoms: C8_9  and  C10_11 
REMARK    6  A    between atoms: C16_17  and  O2_18 
REMARK    7  A    between atoms: C19_21  and  C21_23 
REMARK    8  A    between atoms: C21_23  and  O3_24 
ROOT
HETATM    1  C10 UNL     1      -5.239  48.533 -21.400  1.00  0.00    -0.002 C 
HETATM    2  C11 UNL     1      -6.002  49.553 -22.224  1.00  0.00     0.006 C 
HETATM    3  C12 UNL     1      -5.317  50.869 -21.884  1.00  0.00     0.011 C 
HETATM    4  C13 UNL     1      -3.823  50.558 -21.492  1.00  0.00    -0.030 C 
HETATM    5  C14 UNL     1      -3.618  51.176 -20.087  1.00  0.00     0.016 C 
HETATM    6  C15 UNL     1      -2.871  51.277 -22.514  1.00  0.00     0.032 C 
HETATM    7  C16 UNL     1      -1.380  51.486 -22.126  1.00  0.00     0.124 C 
HETATM    8  C17 UNL     1      -0.457  51.852 -23.307  1.00  0.00     0.038 C 
HETATM    9  C18 UNL     1      -1.182  52.466 -24.522  1.00  0.00     0.015 C 
HETATM   10  C19 UNL     1      -0.184  53.004 -25.606  1.00  0.00     0.042 C 
HETATM   11  C20 UNL     1       1.120  52.187 -25.760  1.00  0.00     0.026 C 
HETATM   12  C22 UNL     1      -0.852  53.018 -26.981  1.00  0.00     0.137 C 
HETATM   13  O4  UNL     1      -0.730  53.977 -27.753  1.00  0.00    -0.297 OA
HETATM   14  C23 UNL     1      -1.606  51.788 -27.435  1.00  0.00     0.080 C 
HETATM   15  C24 UNL     1      -1.785  50.750 -26.338  1.00  0.00     0.018 C 
HETATM   16  C25 UNL     1      -2.185  51.426 -25.051  1.00  0.00    -0.026 A 
HETATM   17  C26 UNL     1      -3.668  51.659 -24.926  1.00  0.00     0.021 A 
HETATM   18  C27 UNL     1      -2.993  50.721 -23.941  1.00  0.00    -0.025 A 
HETATM   19  C28 UNL     1      -3.234  49.232 -24.058  1.00  0.00     0.011 C 
HETATM   20  C29 UNL     1      -2.990  48.464 -22.766  1.00  0.00     0.011 C 
HETATM   21  C30 UNL     1      -3.735  48.974 -21.505  1.00  0.00    -0.032 C 
HETATM   22  C31 UNL     1      -3.003  48.361 -20.280  1.00  0.00     0.016 C 
ENDROOT
BRANCH   1  23
HETATM   23  C8  UNL     1      -5.571  47.036 -21.681  1.00  0.00    -0.010 C 
HETATM   24  C9  UNL     1      -6.546  46.793 -22.840  1.00  0.00     0.010 C 
BRANCH  23  25
HETATM   25  C7  UNL     1      -6.152  46.330 -20.429  1.00  0.00     0.031 C 
BRANCH  25  26
HETATM   26  C6  UNL     1      -7.061  47.212 -19.619  1.00  0.00    -0.027 C 
HETATM   27  C5  UNL     1      -8.379  46.989 -19.460  1.00  0.00     0.006 C 
BRANCH  27  28
HETATM   28  C2  UNL     1      -9.361  47.853 -18.689  1.00  0.00     0.070 C 
HETATM   29  C3  UNL     1      -9.955  46.992 -17.563  1.00  0.00     0.050 C 
HETATM   30  C4  UNL     1      -8.586  49.045 -18.110  1.00  0.00     0.050 C 
BRANCH  28  31
HETATM   31  O1  UNL     1     -10.383  48.286 -19.596  1.00  0.00    -0.382 OA
HETATM   32  C1  UNL     1     -11.722  47.955 -19.273  1.00  0.00     0.202 C 
ENDBRANCH  28  31
ENDBRANCH  27  28
ENDBRANCH  25  26
ENDBRANCH  23  25
ENDBRANCH   1  23
BRANCH   7  33
HETATM   33  O2  UNL     1      -0.813  50.352 -21.476  1.00  0.00    -0.395 OA
HETATM   34  H28 UNL     1       0.069  50.606 -21.153  1.00  0.00     0.210 HD
ENDBRANCH   7  33
BRANCH  10  35
HETATM   35  C21 UNL     1       0.255  54.447 -25.251  1.00  0.00     0.181 C 
BRANCH  35  36
HETATM   36  O3  UNL     1       0.242  55.306 -26.382  1.00  0.00    -0.400 OA
HETATM   37  H37 UNL     1       1.160  55.336 -26.724  1.00  0.00     0.209 HD
ENDBRANCH  35  36
ENDBRANCH  10  35
TORSDOF 8
ENDMDL
MODEL 8
REMARK minimizedAffinity -8.62409115
REMARK  8 active torsions:
REMARK  status: ('A' for Active; 'I' for Inactive)
REMARK    1  A    between atoms: O1_2  and  C2_3 
REMARK    2  A    between atoms: C2_3  and  C5_6 
REMARK    3  A    between atoms: C6_7  and  C7_8 
REMARK    4  A    between atoms: C7_8  and  C8_9 
REMARK    5  A    between atoms: C8_9  and  C10_11 
REMARK    6  A    between atoms: C16_17  and  O2_18 
REMARK    7  A    between atoms: C19_21  and  C21_23 
REMARK    8  A    between atoms: C21_23  and  O3_24 
ROOT
HETATM    1  C10 UNL     1      -3.364  49.802 -24.776  1.00  0.00    -0.002 C 
HETATM    2  C11 UNL     1      -2.643  48.578 -24.242  1.00  0.00     0.006 C 
HETATM    3  C12 UNL     1      -2.535  48.853 -22.748  1.00  0.00     0.011 C 
HETATM    4  C13 UNL     1      -3.737  49.782 -22.331  1.00  0.00    -0.030 C 
HETATM    5  C14 UNL     1      -3.100  51.015 -21.646  1.00  0.00     0.016 C 
HETATM    6  C15 UNL     1      -4.630  49.018 -21.288  1.00  0.00     0.032 C 
HETATM    7  C16 UNL     1      -5.619  49.836 -20.411  1.00  0.00     0.124 C 
HETATM    8  C17 UNL     1      -6.694  48.988 -19.700  1.00  0.00     0.038 C 
HETATM    9  C18 UNL     1      -6.325  47.502 -19.521  1.00  0.00     0.015 C 
HETATM   10  C19 UNL     1      -7.354  46.733 -18.620  1.00  0.00     0.042 C 
HETATM   11  C20 UNL     1      -8.822  47.200 -18.756  1.00  0.00     0.026 C 
HETATM   12  C22 UNL     1      -7.340  45.242 -18.954  1.00  0.00     0.137 C 
HETATM   13  O4  UNL     1      -7.352  44.377 -18.069  1.00  0.00    -0.297 OA
HETATM   14  C23 UNL     1      -7.401  44.820 -20.405  1.00  0.00     0.080 C 
HETATM   15  C24 UNL     1      -7.246  45.980 -21.378  1.00  0.00     0.018 C 
HETATM   16  C25 UNL     1      -6.134  46.890 -20.920  1.00  0.00    -0.026 A 
HETATM   17  C26 UNL     1      -4.768  46.455 -21.385  1.00  0.00     0.021 A 
HETATM   18  C27 UNL     1      -5.319  47.780 -21.882  1.00  0.00    -0.025 A 
HETATM   19  C28 UNL     1      -5.776  47.895 -23.319  1.00  0.00     0.011 C 
HETATM   20  C29 UNL     1      -5.781  49.322 -23.852  1.00  0.00     0.011 C 
HETATM   21  C30 UNL     1      -4.463  50.124 -23.700  1.00  0.00    -0.032 C 
HETATM   22  C31 UNL     1      -4.833  51.622 -23.874  1.00  0.00     0.016 C 
ENDROOT
BRANCH   1  23
HETATM   23  C8  UNL     1      -3.814  49.739 -26.266  1.00  0.00    -0.010 C 
HETATM   24  C9  UNL     1      -3.756  48.344 -26.904  1.00  0.00     0.010 C 
BRANCH  23  25
HETATM   25  C7  UNL     1      -2.981  50.693 -27.161  1.00  0.00     0.031 C 
BRANCH  25  26
HETATM   26  C6  UNL     1      -1.885  51.401 -26.414  1.00  0.00    -0.027 C 
HETATM   27  C5  UNL     1      -0.645  51.592 -26.902  1.00  0.00     0.006 C 
BRANCH  27  28
HETATM   28  C2  UNL     1       0.518  52.264 -26.194  1.00  0.00     0.070 C 
HETATM   29  C3  UNL     1       0.307  52.091 -24.682  1.00  0.00     0.050 C 
HETATM   30  C4  UNL     1       1.810  51.568 -26.646  1.00  0.00     0.050 C 
BRANCH  28  31
HETATM   31  O1  UNL     1       0.519  53.651 -26.556  1.00  0.00    -0.382 OA
HETATM   32  C1  UNL     1      -0.158  54.012 -27.747  1.00  0.00     0.202 C 
ENDBRANCH  28  31
ENDBRANCH  27  28
ENDBRANCH  25  26
ENDBRANCH  23  25
ENDBRANCH   1  23
BRANCH   7  33
HETATM   33  O2  UNL     1      -6.293  50.857 -21.140  1.00  0.00    -0.395 OA
HETATM   34  H28 UNL     1      -6.787  51.400 -20.502  1.00  0.00     0.210 HD
ENDBRANCH   7  33
BRANCH  10  35
HETATM   35  C21 UNL     1      -6.985  46.912 -17.125  1.00  0.00     0.181 C 
BRANCH  35  36
HETATM   36  O3  UNL     1      -8.039  47.505 -16.379  1.00  0.00    -0.400 OA
HETATM   37  H37 UNL     1      -7.841  48.464 -16.326  1.00  0.00     0.209 HD
ENDBRANCH  35  36
ENDBRANCH  10  35
TORSDOF 8
ENDMDL
MODEL 9
REMARK minimizedAffinity -8.62341595
REMARK  8 active torsions:
REMARK  status: ('A' for Active; 'I' for Inactive)
REMARK    1  A    between atoms: O1_2  and  C2_3 
REMARK    2  A    between atoms: C2_3  and  C5_6 
REMARK    3  A    between atoms: C6_7  and  C7_8 
REMARK    4  A    between atoms: C7_8  and  C8_9 
REMARK    5  A    between atoms: C8_9  and  C10_11 
REMARK    6  A    between atoms: C16_17  and  O2_18 
REMARK    7  A    between atoms: C19_21  and  C21_23 
REMARK    8  A    between atoms: C21_23  and  O3_24 
ROOT
HETATM    1  C10 UNL     1      -5.763  48.773 -23.864  1.00  0.00    -0.002 C 
HETATM    2  C11 UNL     1      -5.908  50.225 -24.280  1.00  0.00     0.006 C 
HETATM    3  C12 UNL     1      -5.649  50.991 -22.990  1.00  0.00     0.011 C 
HETATM    4  C13 UNL     1      -4.701  50.120 -22.083  1.00  0.00    -0.030 C 
HETATM    5  C14 UNL     1      -5.439  49.962 -20.731  1.00  0.00     0.016 C 
HETATM    6  C15 UNL     1      -3.360  50.904 -21.848  1.00  0.00     0.032 C 
HETATM    7  C16 UNL     1      -2.440  50.475 -20.671  1.00  0.00     0.124 C 
HETATM    8  C17 UNL     1      -1.006  51.040 -20.742  1.00  0.00     0.038 C 
HETATM    9  C18 UNL     1      -0.858  52.309 -21.605  1.00  0.00     0.015 C 
HETATM   10  C19 UNL     1       0.567  52.955 -21.481  1.00  0.00     0.042 C 
HETATM   11  C20 UNL     1       1.728  51.950 -21.299  1.00  0.00     0.026 C 
HETATM   12  C22 UNL     1       0.890  53.769 -22.733  1.00  0.00     0.137 C 
HETATM   13  O4  UNL     1       1.412  54.889 -22.664  1.00  0.00    -0.297 OA
HETATM   14  C23 UNL     1       0.643  53.147 -24.090  1.00  0.00     0.080 C 
HETATM   15  C24 UNL     1      -0.121  51.833 -24.021  1.00  0.00     0.018 C 
HETATM   16  C25 UNL     1      -1.264  51.953 -23.045  1.00  0.00    -0.026 A 
HETATM   17  C26 UNL     1      -2.518  52.528 -23.652  1.00  0.00     0.021 A 
HETATM   18  C27 UNL     1      -2.547  51.100 -23.136  1.00  0.00    -0.025 A 
HETATM   19  C28 UNL     1      -2.586  49.959 -24.129  1.00  0.00     0.011 C 
HETATM   20  C29 UNL     1      -3.151  48.664 -23.560  1.00  0.00     0.011 C 
HETATM   21  C30 UNL     1      -4.541  48.756 -22.878  1.00  0.00    -0.032 C 
HETATM   22  C31 UNL     1      -4.690  47.481 -22.004  1.00  0.00     0.016 C 
ENDROOT
BRANCH   1  23
HETATM   23  C8  UNL     1      -5.772  47.724 -25.017  1.00  0.00    -0.010 C 
HETATM   24  C9  UNL     1      -5.094  48.180 -26.316  1.00  0.00     0.010 C 
BRANCH  23  25
HETATM   25  C7  UNL     1      -7.212  47.276 -25.378  1.00  0.00     0.031 C 
BRANCH  25  26
HETATM   26  C6  UNL     1      -7.567  47.525 -26.817  1.00  0.00    -0.027 C 
HETATM   27  C5  UNL     1      -7.435  46.608 -27.794  1.00  0.00     0.006 C 
BRANCH  27  28
HETATM   28  C2  UNL     1      -7.739  46.798 -29.269  1.00  0.00     0.070 C 
HETATM   29  C3  UNL     1      -8.902  45.862 -29.630  1.00  0.00     0.050 C 
HETATM   30  C4  UNL     1      -8.137  48.266 -29.480  1.00  0.00     0.050 C 
BRANCH  28  31
HETATM   31  O1  UNL     1      -6.562  46.465 -30.015  1.00  0.00    -0.382 OA
HETATM   32  C1  UNL     1      -5.546  47.450 -30.100  1.00  0.00     0.202 C 
ENDBRANCH  28  31
ENDBRANCH  27  28
ENDBRANCH  25  26
ENDBRANCH  23  25
ENDBRANCH   1  23
BRANCH   7  33
HETATM   33  O2  UNL     1      -2.337  49.061 -20.535  1.00  0.00    -0.395 OA
HETATM   34  H28 UNL     1      -1.857  48.877 -19.709  1.00  0.00     0.210 HD
ENDBRANCH   7  33
BRANCH  10  35
HETATM   35  C21 UNL     1       0.617  53.894 -20.249  1.00  0.00     0.181 C 
BRANCH  35  36
HETATM   36  O3  UNL     1       1.948  54.191 -19.854  1.00  0.00    -0.400 OA
HETATM   37  H37 UNL     1       2.172  53.573 -19.128  1.00  0.00     0.209 HD
ENDBRANCH  35  36
ENDBRANCH  10  35
TORSDOF 8
ENDMDL
