MODEL 1
REMARK minimizedAffinity -9.7270937
REMARK  13 active torsions:
REMARK  status: ('A' for Active; 'I' for Inactive)
REMARK    1  A    between atoms: C2_2  and  C3_3 
REMARK    2  A    between atoms: C3_3  and  O1_5 
REMARK    3  A    between atoms: C3_3  and  C5_6 
REMARK    4  A    between atoms: C5_6  and  C6_7 
REMARK    5  A    between atoms: C6_7  and  C7_8 
REMARK    6  A    between atoms: C13_14  and  C15_16 
REMARK    7  A    between atoms: C15_16  and  O2_17 
REMARK    8  A    between atoms: O2_17  and  C16_18 
REMARK    9  A    between atoms: C17_20  and  C18_21 
REMARK   10  A    between atoms: C18_21  and  O4_22 
REMARK   11  A    between atoms: C19_23  and  O5_24 
REMARK   12  A    between atoms: C20_25  and  O6_26 
REMARK   13  A    between atoms: C21_27  and  O7_28 
ROOT
HETATM    1  C7  UNL     1       0.124  51.255 -19.636  1.00  0.00     0.022 C 
HETATM    2  C8  UNL     1       0.606  52.567 -20.243  1.00  0.00    -0.084 C 
HETATM    3  C9  UNL     1       0.727  53.743 -19.605  1.00  0.00     0.014 C 
HETATM    4  C10 UNL     1       0.898  52.451 -21.722  1.00  0.00     0.034 C 
HETATM    5  C11 UNL     1      -0.303  51.904 -22.508  1.00  0.00     0.010 C 
HETATM    6  C12 UNL     1      -1.541  51.688 -21.612  1.00  0.00     0.005 C 
HETATM    7  C13 UNL     1      -2.883  51.418 -22.385  1.00  0.00    -0.018 C 
HETATM    8  C14 UNL     1      -3.218  52.651 -23.278  1.00  0.00     0.018 C 
HETATM    9  C22 UNL     1      -4.040  51.319 -21.354  1.00  0.00     0.012 C 
HETATM   10  C23 UNL     1      -3.761  50.382 -20.187  1.00  0.00     0.002 C 
HETATM   11  C24 UNL     1      -2.461  50.740 -19.463  1.00  0.00     0.010 C 
HETATM   12  C25 UNL     1      -1.208  50.744 -20.381  1.00  0.00    -0.032 C 
HETATM   13  C26 UNL     1      -0.903  49.277 -20.781  1.00  0.00     0.016 C 
ENDROOT
BRANCH   7  14
HETATM   14  C15 UNL     1      -2.838  50.189 -23.325  1.00  0.00     0.180 C 
BRANCH  14  15
HETATM   15  O2  UNL     1      -1.688  50.277 -24.178  1.00  0.00    -0.358 OA
BRANCH  15  16
HETATM   16  C16 UNL     1      -1.852  51.231 -25.232  1.00  0.00     0.291 C 
HETATM   17  O3  UNL     1      -0.654  51.972 -25.488  1.00  0.00    -0.348 OA
HETATM   18  C17 UNL     1       0.227  51.317 -26.415  1.00  0.00     0.179 C 
HETATM   19  C19 UNL     1      -0.409  51.251 -27.829  1.00  0.00     0.180 C 
HETATM   20  C20 UNL     1      -1.948  51.210 -27.752  1.00  0.00     0.183 C 
HETATM   21  C21 UNL     1      -2.371  50.472 -26.477  1.00  0.00     0.204 C 
BRANCH  18  22
HETATM   22  C18 UNL     1       1.576  52.040 -26.393  1.00  0.00     0.198 C 
BRANCH  22  23
HETATM   23  O4  UNL     1       2.655  51.149 -26.649  1.00  0.00    -0.398 OA
HETATM   24  H29 UNL     1       2.592  50.938 -27.604  1.00  0.00     0.209 HD
ENDBRANCH  22  23
ENDBRANCH  18  22
BRANCH  19  25
HETATM   25  O5  UNL     1      -0.005  52.361 -28.651  1.00  0.00    -0.390 OA
HETATM   26  H31 UNL     1      -0.821  52.870 -28.850  1.00  0.00     0.210 HD
ENDBRANCH  19  25
BRANCH  20  27
HETATM   27  O6  UNL     1      -2.448  52.565 -27.800  1.00  0.00    -0.390 OA
HETATM   28  H33 UNL     1      -2.133  53.033 -27.004  1.00  0.00     0.210 HD
ENDBRANCH  20  27
BRANCH  21  29
HETATM   29  O7  UNL     1      -3.794  50.299 -26.417  1.00  0.00    -0.388 OA
HETATM   30  H35 UNL     1      -3.985  49.857 -25.570  1.00  0.00     0.210 HD
ENDBRANCH  21  29
ENDBRANCH  15  16
ENDBRANCH  14  15
ENDBRANCH   7  14
BRANCH   1  31
HETATM   31  C6  UNL     1       0.047  51.207 -18.089  1.00  0.00     0.013 C 
BRANCH  31  32
HETATM   32  C5  UNL     1       0.611  52.463 -17.393  1.00  0.00     0.042 C 
BRANCH  32  33
HETATM   33  C3  UNL     1       1.544  52.157 -16.195  1.00  0.00     0.071 C 
HETATM   34  C4  UNL     1       1.493  50.681 -15.768  1.00  0.00     0.050 C 
BRANCH  33  35
HETATM   35  C2  UNL     1       2.935  52.653 -16.521  1.00  0.00    -0.000 C 
HETATM   36  C1  UNL     1       4.099  52.273 -15.977  1.00  0.00     0.010 C 
ENDBRANCH  33  35
BRANCH  33  37
HETATM   37  O1  UNL     1       1.127  52.960 -15.081  1.00  0.00    -0.386 OA
HETATM   38  H7  UNL     1       0.349  52.538 -14.677  1.00  0.00     0.211 HD
ENDBRANCH  33  37
ENDBRANCH  32  33
ENDBRANCH  31  32
ENDBRANCH   1  31
TORSDOF 13
ENDMDL
MODEL 2
REMARK minimizedAffinity -9.30347538
REMARK  13 active torsions:
REMARK  status: ('A' for Active; 'I' for Inactive)
REMARK    1  A    between atoms: C2_2  and  C3_3 
REMARK    2  A    between atoms: C3_3  and  O1_5 
REMARK    3  A    between atoms: C3_3  and  C5_6 
REMARK    4  A    between atoms: C5_6  and  C6_7 
REMARK    5  A    between atoms: C6_7  and  C7_8 
REMARK    6  A    between atoms: C13_14  and  C15_16 
REMARK    7  A    between atoms: C15_16  and  O2_17 
REMARK    8  A    between atoms: O2_17  and  C16_18 
REMARK    9  A    between atoms: C17_20  and  C18_21 
REMARK   10  A    between atoms: C18_21  and  O4_22 
REMARK   11  A    between atoms: C19_23  and  O5_24 
REMARK   12  A    between atoms: C20_25  and  O6_26 
REMARK   13  A    between atoms: C21_27  and  O7_28 
ROOT
HETATM    1  C7  UNL     1       0.061  51.822 -19.480  1.00  0.00     0.022 C 
HETATM    2  C8  UNL     1       0.299  53.259 -19.929  1.00  0.00    -0.084 C 
HETATM    3  C9  UNL     1       0.023  54.370 -19.225  1.00  0.00     0.014 C 
HETATM    4  C10 UNL     1       0.845  53.345 -21.336  1.00  0.00     0.034 C 
HETATM    5  C11 UNL     1      -0.043  52.605 -22.348  1.00  0.00     0.010 C 
HETATM    6  C12 UNL     1      -1.319  52.028 -21.698  1.00  0.00     0.005 C 
HETATM    7  C13 UNL     1      -2.411  51.522 -22.708  1.00  0.00    -0.018 C 
HETATM    8  C14 UNL     1      -2.889  52.717 -23.588  1.00  0.00     0.018 C 
HETATM    9  C22 UNL     1      -3.659  51.065 -21.905  1.00  0.00     0.012 C 
HETATM   10  C23 UNL     1      -3.351  50.120 -20.753  1.00  0.00     0.002 C 
HETATM   11  C24 UNL     1      -2.312  50.706 -19.794  1.00  0.00     0.010 C 
HETATM   12  C25 UNL     1      -0.967  51.083 -20.473  1.00  0.00    -0.032 C 
HETATM   13  C26 UNL     1      -0.252  49.769 -20.880  1.00  0.00     0.016 C 
ENDROOT
BRANCH   7  14
HETATM   14  C15 UNL     1      -1.915  50.426 -23.682  1.00  0.00     0.180 C 
BRANCH  14  15
HETATM   15  O2  UNL     1      -0.640  50.801 -24.222  1.00  0.00    -0.358 OA
BRANCH  15  16
HETATM   16  C16 UNL     1      -0.628  50.819 -25.652  1.00  0.00     0.291 C 
HETATM   17  O3  UNL     1      -1.485  49.821 -26.217  1.00  0.00    -0.348 OA
HETATM   18  C17 UNL     1      -2.844  50.264 -26.367  1.00  0.00     0.179 C 
HETATM   19  C19 UNL     1      -2.942  51.396 -27.425  1.00  0.00     0.180 C 
HETATM   20  C20 UNL     1      -1.636  52.212 -27.497  1.00  0.00     0.183 C 
HETATM   21  C21 UNL     1      -0.988  52.253 -26.109  1.00  0.00     0.204 C 
BRANCH  18  22
HETATM   22  C18 UNL     1      -3.715  49.050 -26.700  1.00  0.00     0.198 C 
BRANCH  22  23
HETATM   23  O4  UNL     1      -3.875  48.193 -25.577  1.00  0.00    -0.398 OA
HETATM   24  H29 UNL     1      -4.479  48.673 -24.972  1.00  0.00     0.209 HD
ENDBRANCH  22  23
ENDBRANCH  18  22
BRANCH  19  25
HETATM   25  O5  UNL     1      -3.252  50.882 -28.733  1.00  0.00    -0.390 OA
HETATM   26  H31 UNL     1      -2.481  51.093 -29.304  1.00  0.00     0.210 HD
ENDBRANCH  19  25
BRANCH  20  27
HETATM   27  O6  UNL     1      -0.775  51.618 -28.493  1.00  0.00    -0.390 OA
HETATM   28  H33 UNL     1      -0.536  50.721 -28.192  1.00  0.00     0.210 HD
ENDBRANCH  20  27
BRANCH  21  29
HETATM   29  O7  UNL     1       0.168  53.102 -26.092  1.00  0.00    -0.388 OA
HETATM   30  H35 UNL     1       0.540  53.050 -25.193  1.00  0.00     0.210 HD
ENDBRANCH  21  29
ENDBRANCH  15  16
ENDBRANCH  14  15
ENDBRANCH   7  14
BRANCH   1  31
HETATM   31  C6  UNL     1      -0.250  51.621 -17.975  1.00  0.00     0.013 C 
BRANCH  31  32
HETATM   32  C5  UNL     1       0.922  51.032 -17.164  1.00  0.00     0.042 C 
BRANCH  32  33
HETATM   33  C3  UNL     1       1.446  51.961 -16.041  1.00  0.00     0.071 C 
HETATM   34  C4  UNL     1       0.688  51.772 -14.717  1.00  0.00     0.050 C 
BRANCH  33  35
HETATM   35  C2  UNL     1       2.943  51.785 -15.920  1.00  0.00    -0.000 C 
HETATM   36  C1  UNL     1       3.898  52.720 -16.014  1.00  0.00     0.010 C 
ENDBRANCH  33  35
BRANCH  33  37
HETATM   37  O1  UNL     1       1.276  53.322 -16.464  1.00  0.00    -0.386 OA
HETATM   38  H7  UNL     1       0.344  53.566 -16.333  1.00  0.00     0.211 HD
ENDBRANCH  33  37
ENDBRANCH  32  33
ENDBRANCH  31  32
ENDBRANCH   1  31
TORSDOF 13
ENDMDL
MODEL 3
REMARK minimizedAffinity -9.27656841
REMARK  13 active torsions:
REMARK  status: ('A' for Active; 'I' for Inactive)
REMARK    1  A    between atoms: C2_2  and  C3_3 
REMARK    2  A    between atoms: C3_3  and  O1_5 
REMARK    3  A    between atoms: C3_3  and  C5_6 
REMARK    4  A    between atoms: C5_6  and  C6_7 
REMARK    5  A    between atoms: C6_7  and  C7_8 
REMARK    6  A    between atoms: C13_14  and  C15_16 
REMARK    7  A    between atoms: C15_16  and  O2_17 
REMARK    8  A    between atoms: O2_17  and  C16_18 
REMARK    9  A    between atoms: C17_20  and  C18_21 
REMARK   10  A    between atoms: C18_21  and  O4_22 
REMARK   11  A    between atoms: C19_23  and  O5_24 
REMARK   12  A    between atoms: C20_25  and  O6_26 
REMARK   13  A    between atoms: C21_27  and  O7_28 
ROOT
HETATM    1  C7  UNL     1       0.214  51.810 -19.678  1.00  0.00     0.022 C 
HETATM    2  C8  UNL     1       0.699  52.875 -20.654  1.00  0.00    -0.084 C 
HETATM    3  C9  UNL     1       0.931  54.168 -20.371  1.00  0.00     0.014 C 
HETATM    4  C10 UNL     1       0.851  52.348 -22.062  1.00  0.00     0.034 C 
HETATM    5  C11 UNL     1      -0.440  51.694 -22.578  1.00  0.00     0.010 C 
HETATM    6  C12 UNL     1      -1.601  51.812 -21.567  1.00  0.00     0.005 C 
HETATM    7  C13 UNL     1      -3.018  51.438 -22.135  1.00  0.00    -0.018 C 
HETATM    8  C14 UNL     1      -3.375  52.406 -23.303  1.00  0.00     0.018 C 
HETATM    9  C22 UNL     1      -4.081  51.698 -21.033  1.00  0.00     0.012 C 
HETATM   10  C23 UNL     1      -3.741  51.091 -19.679  1.00  0.00     0.002 C 
HETATM   11  C24 UNL     1      -2.366  51.539 -19.179  1.00  0.00     0.010 C 
HETATM   12  C25 UNL     1      -1.202  51.212 -20.154  1.00  0.00    -0.032 C 
HETATM   13  C26 UNL     1      -1.002  49.674 -20.160  1.00  0.00     0.016 C 
ENDROOT
BRANCH   7  14
HETATM   14  C15 UNL     1      -3.115  50.002 -22.706  1.00  0.00     0.180 C 
BRANCH  14  15
HETATM   15  O2  UNL     1      -4.361  49.410 -22.313  1.00  0.00    -0.358 OA
BRANCH  15  16
HETATM   16  C16 UNL     1      -5.420  49.688 -23.234  1.00  0.00     0.291 C 
HETATM   17  O3  UNL     1      -4.978  49.668 -24.595  1.00  0.00    -0.348 OA
HETATM   18  C17 UNL     1      -5.009  48.356 -25.179  1.00  0.00     0.179 C 
HETATM   19  C19 UNL     1      -6.469  47.848 -25.317  1.00  0.00     0.180 C 
HETATM   20  C20 UNL     1      -7.380  48.454 -24.231  1.00  0.00     0.183 C 
HETATM   21  C21 UNL     1      -6.563  48.682 -22.955  1.00  0.00     0.204 C 
BRANCH  18  22
HETATM   22  C18 UNL     1      -4.258  48.401 -26.512  1.00  0.00     0.198 C 
BRANCH  22  23
HETATM   23  O4  UNL     1      -2.850  48.339 -26.326  1.00  0.00    -0.398 OA
HETATM   24  H29 UNL     1      -2.667  47.413 -26.061  1.00  0.00     0.209 HD
ENDBRANCH  22  23
ENDBRANCH  18  22
BRANCH  19  25
HETATM   25  O5  UNL     1      -7.019  48.141 -26.614  1.00  0.00    -0.390 OA
HETATM   26  H31 UNL     1      -7.772  48.754 -26.464  1.00  0.00     0.210 HD
ENDBRANCH  19  25
BRANCH  20  27
HETATM   27  O6  UNL     1      -7.959  49.674 -24.743  1.00  0.00    -0.390 OA
HETATM   28  H33 UNL     1      -7.237  50.311 -24.900  1.00  0.00     0.210 HD
ENDBRANCH  20  27
BRANCH  21  29
HETATM   29  O7  UNL     1      -7.390  49.132 -21.873  1.00  0.00    -0.388 OA
HETATM   30  H35 UNL     1      -6.798  49.285 -21.115  1.00  0.00     0.210 HD
ENDBRANCH  21  29
ENDBRANCH  15  16
ENDBRANCH  14  15
ENDBRANCH   7  14
BRANCH   1  31
HETATM   31  C6  UNL     1       0.275  52.184 -18.175  1.00  0.00     0.013 C 
BRANCH  31  32
HETATM   32  C5  UNL     1       1.707  52.292 -17.612  1.00  0.00     0.042 C 
BRANCH  32  33
HETATM   33  C3  UNL     1       1.812  52.015 -16.092  1.00  0.00     0.071 C 
HETATM   34  C4  UNL     1       1.258  50.635 -15.703  1.00  0.00     0.050 C 
BRANCH  33  35
HETATM   35  C2  UNL     1       3.240  52.248 -15.651  1.00  0.00    -0.000 C 
HETATM   36  C1  UNL     1       4.347  52.269 -16.405  1.00  0.00     0.010 C 
ENDBRANCH  33  35
BRANCH  33  37
HETATM   37  O1  UNL     1       1.053  53.015 -15.397  1.00  0.00    -0.386 OA
HETATM   38  H7  UNL     1       0.113  52.773 -15.450  1.00  0.00     0.211 HD
ENDBRANCH  33  37
ENDBRANCH  32  33
ENDBRANCH  31  32
ENDBRANCH   1  31
TORSDOF 13
ENDMDL
MODEL 4
REMARK minimizedAffinity -8.85865116
REMARK  13 active torsions:
REMARK  status: ('A' for Active; 'I' for Inactive)
REMARK    1  A    between atoms: C2_2  and  C3_3 
REMARK    2  A    between atoms: C3_3  and  O1_5 
REMARK    3  A    between atoms: C3_3  and  C5_6 
REMARK    4  A    between atoms: C5_6  and  C6_7 
REMARK    5  A    between atoms: C6_7  and  C7_8 
REMARK    6  A    between atoms: C13_14  and  C15_16 
REMARK    7  A    between atoms: C15_16  and  O2_17 
REMARK    8  A    between atoms: O2_17  and  C16_18 
REMARK    9  A    between atoms: C17_20  and  C18_21 
REMARK   10  A    between atoms: C18_21  and  O4_22 
REMARK   11  A    between atoms: C19_23  and  O5_24 
REMARK   12  A    between atoms: C20_25  and  O6_26 
REMARK   13  A    between atoms: C21_27  and  O7_28 
ROOT
HETATM    1  C7  UNL     1       0.165  51.761 -19.589  1.00  0.00     0.022 C 
HETATM    2  C8  UNL     1       0.702  52.786 -20.581  1.00  0.00    -0.084 C 
HETATM    3  C9  UNL     1       0.952  54.082 -20.331  1.00  0.00     0.014 C 
HETATM    4  C10 UNL     1       0.886  52.212 -21.968  1.00  0.00     0.034 C 
HETATM    5  C11 UNL     1      -0.403  51.568 -22.504  1.00  0.00     0.010 C 
HETATM    6  C12 UNL     1      -1.592  51.741 -21.534  1.00  0.00     0.005 C 
HETATM    7  C13 UNL     1      -2.998  51.379 -22.134  1.00  0.00    -0.018 C 
HETATM    8  C14 UNL     1      -3.298  52.317 -23.341  1.00  0.00     0.018 C 
HETATM    9  C22 UNL     1      -4.088  51.694 -21.074  1.00  0.00     0.012 C 
HETATM   10  C23 UNL     1      -3.803  51.123 -19.693  1.00  0.00     0.002 C 
HETATM   11  C24 UNL     1      -2.434  51.558 -19.164  1.00  0.00     0.010 C 
HETATM   12  C25 UNL     1      -1.249  51.177 -20.091  1.00  0.00    -0.032 C 
HETATM   13  C26 UNL     1      -1.081  49.636 -20.044  1.00  0.00     0.016 C 
ENDROOT
BRANCH   7  14
HETATM   14  C15 UNL     1      -3.107  49.928 -22.664  1.00  0.00     0.180 C 
BRANCH  14  15
HETATM   15  O2  UNL     1      -4.348  49.350 -22.234  1.00  0.00    -0.358 OA
BRANCH  15  16
HETATM   16  C16 UNL     1      -5.149  48.886 -23.325  1.00  0.00     0.291 C 
HETATM   17  O3  UNL     1      -5.459  47.492 -23.220  1.00  0.00    -0.348 OA
HETATM   18  C17 UNL     1      -6.636  47.235 -22.436  1.00  0.00     0.179 C 
HETATM   19  C19 UNL     1      -7.903  47.785 -23.144  1.00  0.00     0.180 C 
HETATM   20  C20 UNL     1      -7.567  49.003 -24.029  1.00  0.00     0.183 C 
HETATM   21  C21 UNL     1      -6.408  49.782 -23.399  1.00  0.00     0.204 C 
BRANCH  18  22
HETATM   22  C18 UNL     1      -6.709  45.733 -22.151  1.00  0.00     0.198 C 
BRANCH  22  23
HETATM   23  O4  UNL     1      -5.574  45.278 -21.426  1.00  0.00    -0.398 OA
HETATM   24  H29 UNL     1      -5.693  45.628 -20.518  1.00  0.00     0.209 HD
ENDBRANCH  22  23
ENDBRANCH  18  22
BRANCH  19  25
HETATM   25  O5  UNL     1      -8.548  46.780 -23.946  1.00  0.00    -0.390 OA
HETATM   26  H31 UNL     1      -8.498  47.092 -24.876  1.00  0.00     0.210 HD
ENDBRANCH  19  25
BRANCH  20  27
HETATM   27  O6  UNL     1      -7.260  48.533 -25.361  1.00  0.00    -0.390 OA
HETATM   28  H33 UNL     1      -6.456  47.984 -25.311  1.00  0.00     0.210 HD
ENDBRANCH  20  27
BRANCH  21  29
HETATM   29  O7  UNL     1      -6.136  50.993 -24.119  1.00  0.00    -0.388 OA
HETATM   30  H35 UNL     1      -5.372  51.411 -23.681  1.00  0.00     0.210 HD
ENDBRANCH  21  29
ENDBRANCH  15  16
ENDBRANCH  14  15
ENDBRANCH   7  14
BRANCH   1  31
HETATM   31  C6  UNL     1       0.187  52.180 -18.097  1.00  0.00     0.013 C 
BRANCH  31  32
HETATM   32  C5  UNL     1       1.074  51.285 -17.207  1.00  0.00     0.042 C 
BRANCH  32  33
HETATM   33  C3  UNL     1       1.818  52.049 -16.084  1.00  0.00     0.071 C 
HETATM   34  C4  UNL     1       1.938  51.228 -14.790  1.00  0.00     0.050 C 
BRANCH  33  35
HETATM   35  C2  UNL     1       3.143  52.541 -16.622  1.00  0.00    -0.000 C 
HETATM   36  C1  UNL     1       4.373  52.278 -16.163  1.00  0.00     0.010 C 
ENDBRANCH  33  35
BRANCH  33  37
HETATM   37  O1  UNL     1       1.084  53.246 -15.787  1.00  0.00    -0.386 OA
HETATM   38  H7  UNL     1       0.327  53.006 -15.225  1.00  0.00     0.211 HD
ENDBRANCH  33  37
ENDBRANCH  32  33
ENDBRANCH  31  32
ENDBRANCH   1  31
TORSDOF 13
ENDMDL
MODEL 5
REMARK minimizedAffinity -8.74339294
REMARK  13 active torsions:
REMARK  status: ('A' for Active; 'I' for Inactive)
REMARK    1  A    between atoms: C2_2  and  C3_3 
REMARK    2  A    between atoms: C3_3  and  O1_5 
REMARK    3  A    between atoms: C3_3  and  C5_6 
REMARK    4  A    between atoms: C5_6  and  C6_7 
REMARK    5  A    between atoms: C6_7  and  C7_8 
REMARK    6  A    between atoms: C13_14  and  C15_16 
REMARK    7  A    between atoms: C15_16  and  O2_17 
REMARK    8  A    between atoms: O2_17  and  C16_18 
REMARK    9  A    between atoms: C17_20  and  C18_21 
REMARK   10  A    between atoms: C18_21  and  O4_22 
REMARK   11  A    between atoms: C19_23  and  O5_24 
REMARK   12  A    between atoms: C20_25  and  O6_26 
REMARK   13  A    between atoms: C21_27  and  O7_28 
ROOT
HETATM    1  C7  UNL     1      -0.456  51.123 -19.367  1.00  0.00     0.022 C 
HETATM    2  C8  UNL     1       0.228  52.409 -19.817  1.00  0.00    -0.084 C 
HETATM    3  C9  UNL     1       0.277  53.565 -19.134  1.00  0.00     0.014 C 
HETATM    4  C10 UNL     1       0.832  52.294 -21.198  1.00  0.00     0.034 C 
HETATM    5  C11 UNL     1      -0.198  51.838 -22.244  1.00  0.00     0.010 C 
HETATM    6  C12 UNL     1      -1.615  51.693 -21.647  1.00  0.00     0.005 C 
HETATM    7  C13 UNL     1      -2.767  51.524 -22.702  1.00  0.00    -0.018 C 
HETATM    8  C14 UNL     1      -2.820  52.788 -23.612  1.00  0.00     0.018 C 
HETATM    9  C22 UNL     1      -4.127  51.487 -21.953  1.00  0.00     0.012 C 
HETATM   10  C23 UNL     1      -4.170  50.518 -20.780  1.00  0.00     0.002 C 
HETATM   11  C24 UNL     1      -3.042  50.778 -19.779  1.00  0.00     0.010 C 
HETATM   12  C25 UNL     1      -1.620  50.712 -20.400  1.00  0.00    -0.032 C 
HETATM   13  C26 UNL     1      -1.325  49.234 -20.764  1.00  0.00     0.016 C 
ENDROOT
BRANCH   7  14
HETATM   14  C15 UNL     1      -2.591  50.308 -23.644  1.00  0.00     0.180 C 
BRANCH  14  15
HETATM   15  O2  UNL     1      -1.320  50.389 -24.304  1.00  0.00    -0.358 OA
BRANCH  15  16
HETATM   16  C16 UNL     1      -1.299  51.369 -25.345  1.00  0.00     0.291 C 
HETATM   17  O3  UNL     1      -0.014  51.983 -25.490  1.00  0.00    -0.348 OA
HETATM   18  C17 UNL     1       0.865  51.251 -26.360  1.00  0.00     0.179 C 
HETATM   19  C19 UNL     1       0.341  51.274 -27.821  1.00  0.00     0.180 C 
HETATM   20  C20 UNL     1      -1.195  51.396 -27.865  1.00  0.00     0.183 C 
HETATM   21  C21 UNL     1      -1.794  50.689 -26.644  1.00  0.00     0.204 C 
BRANCH  18  22
HETATM   22  C18 UNL     1       2.277  51.826 -26.217  1.00  0.00     0.198 C 
BRANCH  22  23
HETATM   23  O4  UNL     1       3.145  51.350 -27.237  1.00  0.00    -0.398 OA
HETATM   24  H29 UNL     1       2.858  51.809 -28.054  1.00  0.00     0.209 HD
ENDBRANCH  22  23
ENDBRANCH  18  22
BRANCH  19  25
HETATM   25  O5  UNL     1       0.924  52.347 -28.583  1.00  0.00    -0.390 OA
HETATM   26  H31 UNL     1       0.184  52.943 -28.833  1.00  0.00     0.210 HD
ENDBRANCH  19  25
BRANCH  20  27
HETATM   27  O6  UNL     1      -1.545  52.797 -27.920  1.00  0.00    -0.390 OA
HETATM   28  H33 UNL     1      -1.247  53.217 -27.092  1.00  0.00     0.210 HD
ENDBRANCH  20  27
BRANCH  21  29
HETATM   29  O7  UNL     1      -3.227  50.667 -26.698  1.00  0.00    -0.388 OA
HETATM   30  H35 UNL     1      -3.530  50.235 -25.880  1.00  0.00     0.210 HD
ENDBRANCH  21  29
ENDBRANCH  15  16
ENDBRANCH  14  15
ENDBRANCH   7  14
BRANCH   1  31
HETATM   31  C6  UNL     1      -0.875  51.059 -17.877  1.00  0.00     0.013 C 
BRANCH  31  32
HETATM   32  C5  UNL     1       0.165  50.381 -16.960  1.00  0.00     0.042 C 
BRANCH  32  33
HETATM   33  C3  UNL     1      -0.362  49.121 -16.229  1.00  0.00     0.071 C 
HETATM   34  C4  UNL     1       0.760  48.319 -15.551  1.00  0.00     0.050 C 
BRANCH  33  35
HETATM   35  C2  UNL     1      -1.474  49.532 -15.289  1.00  0.00    -0.000 C 
HETATM   36  C1  UNL     1      -1.449  50.473 -14.337  1.00  0.00     0.010 C 
ENDBRANCH  33  35
BRANCH  33  37
HETATM   37  O1  UNL     1      -1.000  48.272 -17.193  1.00  0.00    -0.386 OA
HETATM   38  H7  UNL     1      -0.308  47.791 -17.678  1.00  0.00     0.211 HD
ENDBRANCH  33  37
ENDBRANCH  32  33
ENDBRANCH  31  32
ENDBRANCH   1  31
TORSDOF 13
ENDMDL
MODEL 6
REMARK minimizedAffinity -8.74214458
REMARK  13 active torsions:
REMARK  status: ('A' for Active; 'I' for Inactive)
REMARK    1  A    between atoms: C2_2  and  C3_3 
REMARK    2  A    between atoms: C3_3  and  O1_5 
REMARK    3  A    between atoms: C3_3  and  C5_6 
REMARK    4  A    between atoms: C5_6  and  C6_7 
REMARK    5  A    between atoms: C6_7  and  C7_8 
REMARK    6  A    between atoms: C13_14  and  C15_16 
REMARK    7  A    between atoms: C15_16  and  O2_17 
REMARK    8  A    between atoms: O2_17  and  C16_18 
REMARK    9  A    between atoms: C17_20  and  C18_21 
REMARK   10  A    between atoms: C18_21  and  O4_22 
REMARK   11  A    between atoms: C19_23  and  O5_24 
REMARK   12  A    between atoms: C20_25  and  O6_26 
REMARK   13  A    between atoms: C21_27  and  O7_28 
ROOT
HETATM    1  C7  UNL     1      -2.011  49.950 -26.048  1.00  0.00     0.022 C 
HETATM    2  C8  UNL     1      -3.186  49.356 -26.817  1.00  0.00    -0.084 C 
HETATM    3  C9  UNL     1      -3.669  49.791 -27.993  1.00  0.00     0.014 C 
HETATM    4  C10 UNL     1      -3.842  48.210 -26.082  1.00  0.00     0.034 C 
HETATM    5  C11 UNL     1      -4.273  48.604 -24.661  1.00  0.00     0.010 C 
HETATM    6  C12 UNL     1      -4.010  50.096 -24.361  1.00  0.00     0.005 C 
HETATM    7  C13 UNL     1      -4.690  50.641 -23.054  1.00  0.00    -0.018 C 
HETATM    8  C14 UNL     1      -6.237  50.503 -23.182  1.00  0.00     0.018 C 
HETATM    9  C22 UNL     1      -4.412  52.165 -22.946  1.00  0.00     0.012 C 
HETATM   10  C23 UNL     1      -2.951  52.550 -23.130  1.00  0.00     0.002 C 
HETATM   11  C24 UNL     1      -2.379  52.017 -24.446  1.00  0.00     0.010 C 
HETATM   12  C25 UNL     1      -2.490  50.476 -24.605  1.00  0.00    -0.032 C 
HETATM   13  C26 UNL     1      -1.511  49.820 -23.597  1.00  0.00     0.016 C 
ENDROOT
BRANCH   7  14
HETATM   14  C15 UNL     1      -4.283  49.886 -21.765  1.00  0.00     0.180 C 
BRANCH  14  15
HETATM   15  O2  UNL     1      -3.640  50.792 -20.857  1.00  0.00    -0.358 OA
BRANCH  15  16
HETATM   16  C16 UNL     1      -2.580  50.176 -20.120  1.00  0.00     0.291 C 
HETATM   17  O3  UNL     1      -1.330  50.852 -20.295  1.00  0.00    -0.348 OA
HETATM   18  C17 UNL     1      -1.144  51.940 -19.375  1.00  0.00     0.179 C 
HETATM   19  C19 UNL     1      -1.015  51.416 -17.920  1.00  0.00     0.180 C 
HETATM   20  C20 UNL     1      -1.790  50.097 -17.727  1.00  0.00     0.183 C 
HETATM   21  C21 UNL     1      -3.021  50.095 -18.639  1.00  0.00     0.204 C 
BRANCH  18  22
HETATM   22  C18 UNL     1       0.067  52.758 -19.831  1.00  0.00     0.198 C 
BRANCH  22  23
HETATM   23  O4  UNL     1       0.094  54.042 -19.221  1.00  0.00    -0.398 OA
HETATM   24  H29 UNL     1       0.344  53.878 -18.288  1.00  0.00     0.209 HD
ENDBRANCH  22  23
ENDBRANCH  18  22
BRANCH  19  25
HETATM   25  O5  UNL     1       0.359  51.218 -17.540  1.00  0.00    -0.390 OA
HETATM   26  H31 UNL     1       0.464  50.257 -17.369  1.00  0.00     0.210 HD
ENDBRANCH  19  25
BRANCH  20  27
HETATM   27  O6  UNL     1      -0.897  48.994 -17.999  1.00  0.00    -0.390 OA
HETATM   28  H33 UNL     1      -0.636  49.039 -18.938  1.00  0.00     0.210 HD
ENDBRANCH  20  27
BRANCH  21  29
HETATM   29  O7  UNL     1      -3.844  48.943 -18.410  1.00  0.00    -0.388 OA
HETATM   30  H35 UNL     1      -4.581  48.997 -19.044  1.00  0.00     0.210 HD
ENDBRANCH  21  29
ENDBRANCH  15  16
ENDBRANCH  14  15
ENDBRANCH   7  14
BRANCH   1  31
HETATM   31  C6  UNL     1      -1.122  50.951 -26.829  1.00  0.00     0.013 C 
BRANCH  31  32
HETATM   32  C5  UNL     1       0.383  50.835 -26.508  1.00  0.00     0.042 C 
BRANCH  32  33
HETATM   33  C3  UNL     1       1.205  52.099 -26.864  1.00  0.00     0.071 C 
HETATM   34  C4  UNL     1       2.624  51.763 -27.351  1.00  0.00     0.050 C 
BRANCH  33  35
HETATM   35  C2  UNL     1       0.408  52.943 -27.833  1.00  0.00    -0.000 C 
HETATM   36  C1  UNL     1      -0.106  54.164 -27.640  1.00  0.00     0.010 C 
ENDBRANCH  33  35
BRANCH  33  37
HETATM   37  O1  UNL     1       1.317  52.912 -25.687  1.00  0.00    -0.386 OA
HETATM   38  H7  UNL     1       2.009  52.531 -25.120  1.00  0.00     0.211 HD
ENDBRANCH  33  37
ENDBRANCH  32  33
ENDBRANCH  31  32
ENDBRANCH   1  31
TORSDOF 13
ENDMDL
MODEL 7
REMARK minimizedAffinity -8.58290386
REMARK  13 active torsions:
REMARK  status: ('A' for Active; 'I' for Inactive)
REMARK    1  A    between atoms: C2_2  and  C3_3 
REMARK    2  A    between atoms: C3_3  and  O1_5 
REMARK    3  A    between atoms: C3_3  and  C5_6 
REMARK    4  A    between atoms: C5_6  and  C6_7 
REMARK    5  A    between atoms: C6_7  and  C7_8 
REMARK    6  A    between atoms: C13_14  and  C15_16 
REMARK    7  A    between atoms: C15_16  and  O2_17 
REMARK    8  A    between atoms: O2_17  and  C16_18 
REMARK    9  A    between atoms: C17_20  and  C18_21 
REMARK   10  A    between atoms: C18_21  and  O4_22 
REMARK   11  A    between atoms: C19_23  and  O5_24 
REMARK   12  A    between atoms: C20_25  and  O6_26 
REMARK   13  A    between atoms: C21_27  and  O7_28 
ROOT
HETATM    1  C7  UNL     1      -1.148  52.305 -22.686  1.00  0.00     0.022 C 
HETATM    2  C8  UNL     1      -0.064  52.205 -21.619  1.00  0.00    -0.084 C 
HETATM    3  C9  UNL     1       1.261  52.144 -21.834  1.00  0.00     0.014 C 
HETATM    4  C10 UNL     1      -0.632  52.113 -20.221  1.00  0.00     0.034 C 
HETATM    5  C11 UNL     1      -1.635  50.959 -20.078  1.00  0.00     0.010 C 
HETATM    6  C12 UNL     1      -1.755  50.122 -21.370  1.00  0.00     0.005 C 
HETATM    7  C13 UNL     1      -2.525  48.761 -21.213  1.00  0.00    -0.018 C 
HETATM    8  C14 UNL     1      -1.769  47.858 -20.193  1.00  0.00     0.018 C 
HETATM    9  C22 UNL     1      -2.475  48.001 -22.566  1.00  0.00     0.012 C 
HETATM   10  C23 UNL     1      -2.876  48.841 -23.771  1.00  0.00     0.002 C 
HETATM   11  C24 UNL     1      -2.049  50.125 -23.875  1.00  0.00     0.010 C 
HETATM   12  C25 UNL     1      -2.129  51.030 -22.616  1.00  0.00    -0.032 C 
HETATM   13  C26 UNL     1      -3.557  51.630 -22.548  1.00  0.00     0.016 C 
ENDROOT
BRANCH   7  14
HETATM   14  C15 UNL     1      -3.973  48.909 -20.684  1.00  0.00     0.180 C 
BRANCH  14  15
HETATM   15  O2  UNL     1      -4.018  48.551 -19.296  1.00  0.00    -0.358 OA
BRANCH  15  16
HETATM   16  C16 UNL     1      -5.288  48.821 -18.696  1.00  0.00     0.291 C 
HETATM   17  O3  UNL     1      -6.224  49.374 -19.628  1.00  0.00    -0.348 OA
HETATM   18  C17 UNL     1      -6.947  48.373 -20.362  1.00  0.00     0.179 C 
HETATM   19  C19 UNL     1      -7.881  47.565 -19.422  1.00  0.00     0.180 C 
HETATM   20  C20 UNL     1      -7.320  47.507 -17.987  1.00  0.00     0.183 C 
HETATM   21  C21 UNL     1      -5.789  47.511 -18.042  1.00  0.00     0.204 C 
BRANCH  18  22
HETATM   22  C18 UNL     1      -7.693  49.058 -21.510  1.00  0.00     0.198 C 
BRANCH  22  23
HETATM   23  O4  UNL     1      -7.060  50.270 -21.900  1.00  0.00    -0.398 OA
HETATM   24  H29 UNL     1      -6.245  49.995 -22.369  1.00  0.00     0.209 HD
ENDBRANCH  22  23
ENDBRANCH  18  22
BRANCH  19  25
HETATM   25  O5  UNL     1      -9.212  48.111 -19.389  1.00  0.00    -0.390 OA
HETATM   26  H31 UNL     1      -9.365  48.413 -18.467  1.00  0.00     0.210 HD
ENDBRANCH  19  25
BRANCH  20  27
HETATM   27  O6  UNL     1      -7.851  48.624 -17.240  1.00  0.00    -0.390 OA
HETATM   28  H33 UNL     1      -7.518  49.446 -17.645  1.00  0.00     0.210 HD
ENDBRANCH  20  27
BRANCH  21  29
HETATM   29  O7  UNL     1      -5.215  47.336 -16.739  1.00  0.00    -0.388 OA
HETATM   30  H35 UNL     1      -4.249  47.383 -16.851  1.00  0.00     0.210 HD
ENDBRANCH  21  29
ENDBRANCH  15  16
ENDBRANCH  14  15
ENDBRANCH   7  14
BRANCH   1  31
HETATM   31  C6  UNL     1      -0.667  52.660 -24.116  1.00  0.00     0.013 C 
BRANCH  31  32
HETATM   32  C5  UNL     1       0.712  52.071 -24.479  1.00  0.00     0.042 C 
BRANCH  32  33
HETATM   33  C3  UNL     1       0.948  51.902 -26.000  1.00  0.00     0.071 C 
HETATM   34  C4  UNL     1       2.351  51.361 -26.323  1.00  0.00     0.050 C 
BRANCH  33  35
HETATM   35  C2  UNL     1      -0.176  51.073 -26.579  1.00  0.00    -0.000 C 
HETATM   36  C1  UNL     1      -0.984  51.373 -27.604  1.00  0.00     0.010 C 
ENDBRANCH  33  35
BRANCH  33  37
HETATM   37  O1  UNL     1       0.808  53.185 -26.625  1.00  0.00    -0.386 OA
HETATM   38  H7  UNL     1       1.630  53.685 -26.479  1.00  0.00     0.211 HD
ENDBRANCH  33  37
ENDBRANCH  32  33
ENDBRANCH  31  32
ENDBRANCH   1  31
TORSDOF 13
ENDMDL
MODEL 8
REMARK minimizedAffinity -8.51420403
REMARK  13 active torsions:
REMARK  status: ('A' for Active; 'I' for Inactive)
REMARK    1  A    between atoms: C2_2  and  C3_3 
REMARK    2  A    between atoms: C3_3  and  O1_5 
REMARK    3  A    between atoms: C3_3  and  C5_6 
REMARK    4  A    between atoms: C5_6  and  C6_7 
REMARK    5  A    between atoms: C6_7  and  C7_8 
REMARK    6  A    between atoms: C13_14  and  C15_16 
REMARK    7  A    between atoms: C15_16  and  O2_17 
REMARK    8  A    between atoms: O2_17  and  C16_18 
REMARK    9  A    between atoms: C17_20  and  C18_21 
REMARK   10  A    between atoms: C18_21  and  O4_22 
REMARK   11  A    between atoms: C19_23  and  O5_24 
REMARK   12  A    between atoms: C20_25  and  O6_26 
REMARK   13  A    between atoms: C21_27  and  O7_28 
ROOT
HETATM    1  C7  UNL     1      -1.550  52.329 -23.576  1.00  0.00     0.022 C 
HETATM    2  C8  UNL     1      -0.212  52.430 -22.852  1.00  0.00    -0.084 C 
HETATM    3  C9  UNL     1       1.004  52.428 -23.423  1.00  0.00     0.014 C 
HETATM    4  C10 UNL     1      -0.367  52.473 -21.349  1.00  0.00     0.034 C 
HETATM    5  C11 UNL     1      -1.179  51.283 -20.815  1.00  0.00     0.010 C 
HETATM    6  C12 UNL     1      -1.565  50.289 -21.932  1.00  0.00     0.005 C 
HETATM    7  C13 UNL     1      -2.130  48.911 -21.430  1.00  0.00    -0.018 C 
HETATM    8  C14 UNL     1      -1.043  48.189 -20.580  1.00  0.00     0.018 C 
HETATM    9  C22 UNL     1      -2.379  47.997 -22.661  1.00  0.00     0.012 C 
HETATM   10  C23 UNL     1      -3.169  48.656 -23.782  1.00  0.00     0.002 C 
HETATM   11  C24 UNL     1      -2.528  49.968 -24.241  1.00  0.00     0.010 C 
HETATM   12  C25 UNL     1      -2.348  51.013 -23.106  1.00  0.00    -0.032 C 
HETATM   13  C26 UNL     1      -3.755  51.524 -22.700  1.00  0.00     0.016 C 
ENDROOT
BRANCH   7  14
HETATM   14  C15 UNL     1      -3.387  49.030 -20.534  1.00  0.00     0.180 C 
BRANCH  14  15
HETATM   15  O2  UNL     1      -4.232  50.081 -21.023  1.00  0.00    -0.358 OA
BRANCH  15  16
HETATM   16  C16 UNL     1      -5.559  50.015 -20.495  1.00  0.00     0.291 C 
HETATM   17  O3  UNL     1      -6.557  50.073 -21.520  1.00  0.00    -0.348 OA
HETATM   18  C17 UNL     1      -6.870  48.785 -22.075  1.00  0.00     0.179 C 
HETATM   19  C19 UNL     1      -7.558  47.880 -21.018  1.00  0.00     0.180 C 
HETATM   20  C20 UNL     1      -7.107  48.243 -19.589  1.00  0.00     0.183 C 
HETATM   21  C21 UNL     1      -5.658  48.739 -19.626  1.00  0.00     0.204 C 
BRANCH  18  22
HETATM   22  C18 UNL     1      -7.716  48.992 -23.334  1.00  0.00     0.198 C 
BRANCH  22  23
HETATM   23  O4  UNL     1      -7.108  49.912 -24.231  1.00  0.00    -0.398 OA
HETATM   24  H29 UNL     1      -6.347  49.429 -24.617  1.00  0.00     0.209 HD
ENDBRANCH  22  23
ENDBRANCH  18  22
BRANCH  19  25
HETATM   25  O5  UNL     1      -8.993  47.959 -21.097  1.00  0.00    -0.390 OA
HETATM   26  H31 UNL     1      -9.297  48.340 -20.243  1.00  0.00     0.210 HD
ENDBRANCH  19  25
BRANCH  20  27
HETATM   27  O6  UNL     1      -8.017  49.231 -19.056  1.00  0.00    -0.390 OA
HETATM   28  H33 UNL     1      -7.938  50.039 -19.595  1.00  0.00     0.210 HD
ENDBRANCH  20  27
BRANCH  21  29
HETATM   29  O7  UNL     1      -5.149  48.976 -18.306  1.00  0.00    -0.388 OA
HETATM   30  H35 UNL     1      -4.243  49.317 -18.414  1.00  0.00     0.210 HD
ENDBRANCH  21  29
ENDBRANCH  15  16
ENDBRANCH  14  15
ENDBRANCH   7  14
BRANCH   1  31
HETATM   31  C6  UNL     1      -1.511  52.537 -25.111  1.00  0.00     0.013 C 
BRANCH  31  32
HETATM   32  C5  UNL     1      -0.450  51.682 -25.834  1.00  0.00     0.042 C 
BRANCH  32  33
HETATM   33  C3  UNL     1       0.054  52.292 -27.166  1.00  0.00     0.071 C 
HETATM   34  C4  UNL     1      -0.166  53.811 -27.241  1.00  0.00     0.050 C 
BRANCH  33  35
HETATM   35  C2  UNL     1       1.489  51.869 -27.385  1.00  0.00    -0.000 C 
HETATM   36  C1  UNL     1       2.311  51.252 -26.526  1.00  0.00     0.010 C 
ENDBRANCH  33  35
BRANCH  33  37
HETATM   37  O1  UNL     1      -0.670  51.681 -28.245  1.00  0.00    -0.386 OA
HETATM   38  H7  UNL     1      -1.546  52.101 -28.298  1.00  0.00     0.211 HD
ENDBRANCH  33  37
ENDBRANCH  32  33
ENDBRANCH  31  32
ENDBRANCH   1  31
TORSDOF 13
ENDMDL
MODEL 9
REMARK minimizedAffinity -8.45929813
REMARK  13 active torsions:
REMARK  status: ('A' for Active; 'I' for Inactive)
REMARK    1  A    between atoms: C2_2  and  C3_3 
REMARK    2  A    between atoms: C3_3  and  O1_5 
REMARK    3  A    between atoms: C3_3  and  C5_6 
REMARK    4  A    between atoms: C5_6  and  C6_7 
REMARK    5  A    between atoms: C6_7  and  C7_8 
REMARK    6  A    between atoms: C13_14  and  C15_16 
REMARK    7  A    between atoms: C15_16  and  O2_17 
REMARK    8  A    between atoms: O2_17  and  C16_18 
REMARK    9  A    between atoms: C17_20  and  C18_21 
REMARK   10  A    between atoms: C18_21  and  O4_22 
REMARK   11  A    between atoms: C19_23  and  O5_24 
REMARK   12  A    between atoms: C20_25  and  O6_26 
REMARK   13  A    between atoms: C21_27  and  O7_28 
ROOT
HETATM    1  C7  UNL     1      -2.080  49.901 -25.937  1.00  0.00     0.022 C 
HETATM    2  C8  UNL     1      -3.259  49.264 -26.663  1.00  0.00    -0.084 C 
HETATM    3  C9  UNL     1      -3.754  49.635 -27.856  1.00  0.00     0.014 C 
HETATM    4  C10 UNL     1      -3.903  48.154 -25.864  1.00  0.00     0.034 C 
HETATM    5  C11 UNL     1      -4.324  48.620 -24.462  1.00  0.00     0.010 C 
HETATM    6  C12 UNL     1      -4.066  50.126 -24.242  1.00  0.00     0.005 C 
HETATM    7  C13 UNL     1      -4.736  50.736 -22.958  1.00  0.00    -0.018 C 
HETATM    8  C14 UNL     1      -6.283  50.585 -23.066  1.00  0.00     0.018 C 
HETATM    9  C22 UNL     1      -4.464  52.264 -22.932  1.00  0.00     0.012 C 
HETATM   10  C23 UNL     1      -3.006  52.645 -23.149  1.00  0.00     0.002 C 
HETATM   11  C24 UNL     1      -2.444  52.047 -24.441  1.00  0.00     0.010 C 
HETATM   12  C25 UNL     1      -2.549  50.500 -24.518  1.00  0.00    -0.032 C 
HETATM   13  C26 UNL     1      -1.558  49.901 -23.487  1.00  0.00     0.016 C 
ENDROOT
BRANCH   7  14
HETATM   14  C15 UNL     1      -4.315  50.050 -21.636  1.00  0.00     0.180 C 
BRANCH  14  15
HETATM   15  O2  UNL     1      -3.274  50.811 -21.007  1.00  0.00    -0.358 OA
BRANCH  15  16
HETATM   16  C16 UNL     1      -3.488  50.986 -19.604  1.00  0.00     0.291 C 
HETATM   17  O3  UNL     1      -4.426  50.044 -19.073  1.00  0.00    -0.348 OA
HETATM   18  C17 UNL     1      -3.818  48.803 -18.679  1.00  0.00     0.179 C 
HETATM   19  C19 UNL     1      -2.869  49.013 -17.470  1.00  0.00     0.180 C 
HETATM   20  C20 UNL     1      -2.275  50.436 -17.462  1.00  0.00     0.183 C 
HETATM   21  C21 UNL     1      -2.108  50.922 -18.906  1.00  0.00     0.204 C 
BRANCH  18  22
HETATM   22  C18 UNL     1      -4.929  47.786 -18.404  1.00  0.00     0.198 C 
BRANCH  22  23
HETATM   23  O4  UNL     1      -5.993  48.357 -17.654  1.00  0.00    -0.398 OA
HETATM   24  H29 UNL     1      -6.459  48.950 -18.280  1.00  0.00     0.209 HD
ENDBRANCH  22  23
ENDBRANCH  18  22
BRANCH  19  25
HETATM   25  O5  UNL     1      -3.534  48.771 -16.217  1.00  0.00    -0.390 OA
HETATM   26  H31 UNL     1      -3.533  49.626 -15.732  1.00  0.00     0.210 HD
ENDBRANCH  19  25
BRANCH  20  27
HETATM   27  O6  UNL     1      -3.142  51.293 -16.686  1.00  0.00    -0.390 OA
HETATM   28  H33 UNL     1      -4.003  51.344 -17.139  1.00  0.00     0.210 HD
ENDBRANCH  20  27
BRANCH  21  29
HETATM   29  O7  UNL     1      -1.446  52.194 -18.960  1.00  0.00    -0.388 OA
HETATM   30  H35 UNL     1      -1.408  52.448 -19.899  1.00  0.00     0.210 HD
ENDBRANCH  21  29
ENDBRANCH  15  16
ENDBRANCH  14  15
ENDBRANCH   7  14
BRANCH   1  31
HETATM   31  C6  UNL     1      -1.202  50.864 -26.776  1.00  0.00     0.013 C 
BRANCH  31  32
HETATM   32  C5  UNL     1       0.303  50.792 -26.443  1.00  0.00     0.042 C 
BRANCH  32  33
HETATM   33  C3  UNL     1       1.114  52.026 -26.909  1.00  0.00     0.071 C 
HETATM   34  C4  UNL     1       1.704  51.848 -28.317  1.00  0.00     0.050 C 
BRANCH  33  35
HETATM   35  C2  UNL     1       0.254  53.261 -26.756  1.00  0.00    -0.000 C 
HETATM   36  C1  UNL     1      -0.236  54.053 -27.719  1.00  0.00     0.010 C 
ENDBRANCH  33  35
BRANCH  33  37
HETATM   37  O1  UNL     1       2.199  52.227 -25.991  1.00  0.00    -0.386 OA
HETATM   38  H7  UNL     1       2.902  51.591 -26.208  1.00  0.00     0.211 HD
ENDBRANCH  33  37
ENDBRANCH  32  33
ENDBRANCH  31  32
ENDBRANCH   1  31
TORSDOF 13
ENDMDL
