MODEL 1
REMARK minimizedAffinity -9.93297195
REMARK  4 active torsions:
REMARK  status: ('A' for Active; 'I' for Inactive)
REMARK    1  A    between atoms: C13_15  and  C14_16 
REMARK    2  A    between atoms: C14_16  and  C16_18 
REMARK    3  A    between atoms: C16_18  and  C17_19 
REMARK    4  A    between atoms: C17_19  and  C18_20 
ROOT
HETATM    1  C1  UNL     1      -3.975  48.842 -27.007  1.00  0.00     0.047 C 
HETATM    2  C2  UNL     1      -3.332  49.721 -26.226  1.00  0.00     0.052 C 
HETATM    3  O1  UNL     1      -3.448  51.101 -26.552  1.00  0.00    -0.284 OA
HETATM    4  C3  UNL     1      -2.348  51.868 -26.827  1.00  0.00     0.263 C 
HETATM    5  O2  UNL     1      -2.448  53.059 -27.110  1.00  0.00    -0.265 OA
HETATM    6  C4  UNL     1      -1.013  51.175 -26.746  1.00  0.00     0.112 C 
HETATM    7  C5  UNL     1      -0.581  51.003 -25.297  1.00  0.00     0.021 C 
HETATM    8  C6  UNL     1      -1.696  50.494 -24.381  1.00  0.00    -0.022 A 
HETATM    9  C7  UNL     1      -2.421  51.534 -23.562  1.00  0.00     0.022 A 
HETATM   10  C8  UNL     1      -1.501  50.563 -22.838  1.00  0.00    -0.027 A 
HETATM   11  C9  UNL     1      -0.173  51.133 -22.319  1.00  0.00     0.011 C 
HETATM   12  C10 UNL     1       0.009  51.281 -20.798  1.00  0.00     0.011 C 
HETATM   13  C11 UNL     1      -1.099  50.643 -19.952  1.00  0.00    -0.032 C 
HETATM   14  C12 UNL     1      -2.276  51.652 -19.882  1.00  0.00     0.016 C 
HETATM   15  C13 UNL     1      -0.685  50.201 -18.509  1.00  0.00    -0.002 C 
HETATM   16  C22 UNL     1      -1.637  49.014 -18.191  1.00  0.00     0.006 C 
HETATM   17  C23 UNL     1      -2.340  48.634 -19.506  1.00  0.00     0.011 C 
HETATM   18  C24 UNL     1      -1.473  49.265 -20.612  1.00  0.00    -0.032 C 
HETATM   19  C25 UNL     1      -0.265  48.301 -20.840  1.00  0.00     0.016 C 
HETATM   20  C26 UNL     1      -2.219  49.517 -21.949  1.00  0.00     0.004 C 
HETATM   21  C27 UNL     1      -2.540  48.239 -22.735  1.00  0.00     0.007 C 
HETATM   22  C28 UNL     1      -3.354  48.574 -23.979  1.00  0.00     0.012 C 
HETATM   23  C29 UNL     1      -2.498  49.335 -25.005  1.00  0.00     0.051 C 
ENDROOT
BRANCH  15  24
HETATM   24  C14 UNL     1      -0.515  51.208 -17.329  1.00  0.00    -0.014 C 
HETATM   25  C15 UNL     1       0.605  52.246 -17.476  1.00  0.00     0.010 C 
BRANCH  24  26
HETATM   26  C16 UNL     1      -0.447  50.469 -15.970  1.00  0.00     0.008 C 
BRANCH  26  27
HETATM   27  C17 UNL     1       0.956  50.356 -15.352  1.00  0.00     0.028 C 
BRANCH  27  28
HETATM   28  C18 UNL     1       1.918  51.408 -15.831  1.00  0.00    -0.025 C 
HETATM   29  C19 UNL     1       3.166  51.663 -15.389  1.00  0.00    -0.091 C 
HETATM   30  C20 UNL     1       3.986  52.763 -16.011  1.00  0.00     0.042 C 
HETATM   31  C21 UNL     1       3.867  50.930 -14.278  1.00  0.00     0.042 C 
ENDBRANCH  27  28
ENDBRANCH  26  27
ENDBRANCH  24  26
ENDBRANCH  15  24
TORSDOF 4
ENDMDL
MODEL 2
REMARK minimizedAffinity -9.47535419
REMARK  4 active torsions:
REMARK  status: ('A' for Active; 'I' for Inactive)
REMARK    1  A    between atoms: C13_15  and  C14_16 
REMARK    2  A    between atoms: C14_16  and  C16_18 
REMARK    3  A    between atoms: C16_18  and  C17_19 
REMARK    4  A    between atoms: C17_19  and  C18_20 
ROOT
HETATM    1  C1  UNL     1      -3.868  48.855 -27.400  1.00  0.00     0.047 C 
HETATM    2  C2  UNL     1      -3.314  49.714 -26.532  1.00  0.00     0.052 C 
HETATM    3  O1  UNL     1      -3.407  51.102 -26.828  1.00  0.00    -0.284 OA
HETATM    4  C3  UNL     1      -2.291  51.882 -26.966  1.00  0.00     0.263 C 
HETATM    5  O2  UNL     1      -2.371  53.081 -27.223  1.00  0.00    -0.265 OA
HETATM    6  C4  UNL     1      -0.966  51.193 -26.771  1.00  0.00     0.112 C 
HETATM    7  C5  UNL     1      -0.682  50.980 -25.290  1.00  0.00     0.021 C 
HETATM    8  C6  UNL     1      -1.880  50.438 -24.508  1.00  0.00    -0.022 A 
HETATM    9  C7  UNL     1      -2.693  51.450 -23.738  1.00  0.00     0.022 A 
HETATM   10  C8  UNL     1      -1.844  50.462 -22.952  1.00  0.00    -0.027 A 
HETATM   11  C9  UNL     1      -0.580  51.022 -22.285  1.00  0.00     0.011 C 
HETATM   12  C10 UNL     1      -0.554  51.126 -20.749  1.00  0.00     0.011 C 
HETATM   13  C11 UNL     1      -1.737  50.457 -20.039  1.00  0.00    -0.032 C 
HETATM   14  C12 UNL     1      -2.923  51.458 -20.060  1.00  0.00     0.016 C 
HETATM   15  C13 UNL     1      -1.468  49.974 -18.575  1.00  0.00    -0.002 C 
HETATM   16  C22 UNL     1      -2.439  48.773 -18.390  1.00  0.00     0.006 C 
HETATM   17  C23 UNL     1      -3.002  48.430 -19.780  1.00  0.00     0.011 C 
HETATM   18  C24 UNL     1      -2.032  49.098 -20.774  1.00  0.00    -0.032 C 
HETATM   19  C25 UNL     1      -0.800  48.147 -20.906  1.00  0.00     0.016 C 
HETATM   20  C26 UNL     1      -2.640  49.386 -22.172  1.00  0.00     0.004 C 
HETATM   21  C27 UNL     1      -2.870  48.131 -23.023  1.00  0.00     0.007 C 
HETATM   22  C28 UNL     1      -3.555  48.500 -24.333  1.00  0.00     0.012 C 
HETATM   23  C29 UNL     1      -2.606  49.295 -25.245  1.00  0.00     0.051 C 
ENDROOT
BRANCH  15  24
HETATM   24  C14 UNL     1      -1.427  50.946 -17.355  1.00  0.00    -0.014 C 
HETATM   25  C15 UNL     1      -0.074  51.095 -16.649  1.00  0.00     0.010 C 
BRANCH  24  26
HETATM   26  C16 UNL     1      -2.572  50.639 -16.358  1.00  0.00     0.008 C 
BRANCH  26  27
HETATM   27  C17 UNL     1      -2.178  50.679 -14.872  1.00  0.00     0.028 C 
BRANCH  27  28
HETATM   28  C18 UNL     1      -3.088  51.526 -14.025  1.00  0.00    -0.025 C 
HETATM   29  C19 UNL     1      -2.795  52.184 -12.885  1.00  0.00    -0.091 C 
HETATM   30  C20 UNL     1      -3.850  52.997 -12.181  1.00  0.00     0.042 C 
HETATM   31  C21 UNL     1      -1.456  52.193 -12.200  1.00  0.00     0.042 C 
ENDBRANCH  27  28
ENDBRANCH  26  27
ENDBRANCH  24  26
ENDBRANCH  15  24
TORSDOF 4
ENDMDL
MODEL 3
REMARK minimizedAffinity -9.32820797
REMARK  4 active torsions:
REMARK  status: ('A' for Active; 'I' for Inactive)
REMARK    1  A    between atoms: C13_15  and  C14_16 
REMARK    2  A    between atoms: C14_16  and  C16_18 
REMARK    3  A    between atoms: C16_18  and  C17_19 
REMARK    4  A    between atoms: C17_19  and  C18_20 
ROOT
HETATM    1  C1  UNL     1       0.693  51.830 -28.132  1.00  0.00     0.047 C 
HETATM    2  C2  UNL     1       0.009  52.175 -27.033  1.00  0.00     0.052 C 
HETATM    3  O1  UNL     1      -0.161  53.562 -26.771  1.00  0.00    -0.284 OA
HETATM    4  C3  UNL     1       0.286  54.133 -25.609  1.00  0.00     0.263 C 
HETATM    5  O2  UNL     1       0.141  55.331 -25.382  1.00  0.00    -0.265 OA
HETATM    6  C4  UNL     1       0.949  53.207 -24.622  1.00  0.00     0.112 C 
HETATM    7  C5  UNL     1      -0.091  52.390 -23.868  1.00  0.00     0.021 C 
HETATM    8  C6  UNL     1      -1.177  51.799 -24.768  1.00  0.00    -0.022 A 
HETATM    9  C7  UNL     1      -2.483  52.553 -24.829  1.00  0.00     0.022 A 
HETATM   10  C8  UNL     1      -2.463  51.208 -24.118  1.00  0.00    -0.027 A 
HETATM   11  C9  UNL     1      -2.557  51.241 -22.586  1.00  0.00     0.011 C 
HETATM   12  C10 UNL     1      -3.852  50.732 -21.927  1.00  0.00     0.011 C 
HETATM   13  C11 UNL     1      -4.837  50.052 -22.884  1.00  0.00    -0.032 C 
HETATM   14  C12 UNL     1      -5.661  51.168 -23.580  1.00  0.00     0.016 C 
HETATM   15  C13 UNL     1      -5.798  48.999 -22.238  1.00  0.00    -0.002 C 
HETATM   16  C22 UNL     1      -6.101  48.006 -23.395  1.00  0.00     0.006 C 
HETATM   17  C23 UNL     1      -5.123  48.332 -24.537  1.00  0.00     0.011 C 
HETATM   18  C24 UNL     1      -4.004  49.158 -23.875  1.00  0.00    -0.032 C 
HETATM   19  C25 UNL     1      -3.043  48.139 -23.183  1.00  0.00     0.016 C 
HETATM   20  C26 UNL     1      -3.211  50.067 -24.850  1.00  0.00     0.004 C 
HETATM   21  C27 UNL     1      -2.277  49.301 -25.796  1.00  0.00     0.007 C 
HETATM   22  C28 UNL     1      -1.616  50.261 -26.777  1.00  0.00     0.012 C 
HETATM   23  C29 UNL     1      -0.609  51.174 -26.057  1.00  0.00     0.051 C 
ENDROOT
BRANCH  15  24
HETATM   24  C14 UNL     1      -7.054  49.397 -21.402  1.00  0.00    -0.014 C 
HETATM   25  C15 UNL     1      -6.806  49.769 -19.935  1.00  0.00     0.010 C 
BRANCH  24  26
HETATM   26  C16 UNL     1      -8.181  48.345 -21.552  1.00  0.00     0.008 C 
BRANCH  26  27
HETATM   27  C17 UNL     1      -8.645  47.688 -20.243  1.00  0.00     0.028 C 
BRANCH  27  28
HETATM   28  C18 UNL     1     -10.138  47.691 -20.057  1.00  0.00    -0.025 C 
HETATM   29  C19 UNL     1     -10.836  47.774 -18.907  1.00  0.00    -0.091 C 
HETATM   30  C20 UNL     1     -12.343  47.773 -18.927  1.00  0.00     0.042 C 
HETATM   31  C21 UNL     1     -10.243  47.868 -17.528  1.00  0.00     0.042 C 
ENDBRANCH  27  28
ENDBRANCH  26  27
ENDBRANCH  24  26
ENDBRANCH  15  24
TORSDOF 4
ENDMDL
MODEL 4
REMARK minimizedAffinity -9.30144691
REMARK  4 active torsions:
REMARK  status: ('A' for Active; 'I' for Inactive)
REMARK    1  A    between atoms: C13_15  and  C14_16 
REMARK    2  A    between atoms: C14_16  and  C16_18 
REMARK    3  A    between atoms: C16_18  and  C17_19 
REMARK    4  A    between atoms: C17_19  and  C18_20 
ROOT
HETATM    1  C1  UNL     1      -9.157  46.617 -21.999  1.00  0.00     0.047 C 
HETATM    2  C2  UNL     1      -8.372  47.448 -22.697  1.00  0.00     0.052 C 
HETATM    3  O1  UNL     1      -9.006  48.433 -23.504  1.00  0.00    -0.284 OA
HETATM    4  C3  UNL     1      -8.792  48.501 -24.855  1.00  0.00     0.263 C 
HETATM    5  O2  UNL     1      -9.341  49.351 -25.551  1.00  0.00    -0.265 OA
HETATM    6  C4  UNL     1      -7.837  47.489 -25.431  1.00  0.00     0.112 C 
HETATM    7  C5  UNL     1      -6.395  47.882 -25.143  1.00  0.00     0.021 C 
HETATM    8  C6  UNL     1      -6.159  48.331 -23.700  1.00  0.00    -0.022 A 
HETATM    9  C7  UNL     1      -6.132  49.820 -23.455  1.00  0.00     0.022 A 
HETATM   10  C8  UNL     1      -4.826  49.049 -23.337  1.00  0.00    -0.027 A 
HETATM   11  C9  UNL     1      -3.805  49.253 -24.465  1.00  0.00     0.011 C 
HETATM   12  C10 UNL     1      -2.515  50.028 -24.145  1.00  0.00     0.011 C 
HETATM   13  C11 UNL     1      -2.301  50.339 -22.659  1.00  0.00    -0.032 C 
HETATM   14  C12 UNL     1      -3.119  51.615 -22.325  1.00  0.00     0.016 C 
HETATM   15  C13 UNL     1      -0.814  50.520 -22.208  1.00  0.00    -0.002 C 
HETATM   16  C22 UNL     1      -0.818  50.084 -20.715  1.00  0.00     0.006 C 
HETATM   17  C23 UNL     1      -2.177  49.418 -20.443  1.00  0.00     0.011 C 
HETATM   18  C24 UNL     1      -2.731  49.068 -21.837  1.00  0.00    -0.032 C 
HETATM   19  C25 UNL     1      -2.034  47.741 -22.277  1.00  0.00     0.016 C 
HETATM   20  C26 UNL     1      -4.273  48.910 -21.897  1.00  0.00     0.004 C 
HETATM   21  C27 UNL     1      -4.796  47.638 -21.215  1.00  0.00     0.007 C 
HETATM   22  C28 UNL     1      -6.320  47.616 -21.238  1.00  0.00     0.012 C 
HETATM   23  C29 UNL     1      -6.844  47.411 -22.670  1.00  0.00     0.051 C 
ENDROOT
BRANCH  15  24
HETATM   24  C14 UNL     1       0.003  51.821 -22.484  1.00  0.00    -0.014 C 
HETATM   25  C15 UNL     1       0.207  52.763 -21.292  1.00  0.00     0.010 C 
BRANCH  24  26
HETATM   26  C16 UNL     1      -0.539  52.567 -23.729  1.00  0.00     0.008 C 
BRANCH  26  27
HETATM   27  C17 UNL     1       0.528  53.229 -24.616  1.00  0.00     0.028 C 
BRANCH  27  28
HETATM   28  C18 UNL     1       0.424  52.859 -26.070  1.00  0.00    -0.025 C 
HETATM   29  C19 UNL     1       1.186  51.994 -26.768  1.00  0.00    -0.091 C 
HETATM   30  C20 UNL     1       0.916  51.747 -28.230  1.00  0.00     0.042 C 
HETATM   31  C21 UNL     1       2.344  51.207 -26.219  1.00  0.00     0.042 C 
ENDBRANCH  27  28
ENDBRANCH  26  27
ENDBRANCH  24  26
ENDBRANCH  15  24
TORSDOF 4
ENDMDL
MODEL 5
REMARK minimizedAffinity -9.05077839
REMARK  4 active torsions:
REMARK  status: ('A' for Active; 'I' for Inactive)
REMARK    1  A    between atoms: C13_15  and  C14_16 
REMARK    2  A    between atoms: C14_16  and  C16_18 
REMARK    3  A    between atoms: C16_18  and  C17_19 
REMARK    4  A    between atoms: C17_19  and  C18_20 
ROOT
HETATM    1  C1  UNL     1       0.683  52.093 -28.135  1.00  0.00     0.047 C 
HETATM    2  C2  UNL     1       0.001  52.378 -27.017  1.00  0.00     0.052 C 
HETATM    3  O1  UNL     1      -0.177  53.750 -26.685  1.00  0.00    -0.284 OA
HETATM    4  C3  UNL     1       0.271  54.265 -25.499  1.00  0.00     0.263 C 
HETATM    5  O2  UNL     1       0.119  55.450 -25.213  1.00  0.00    -0.265 OA
HETATM    6  C4  UNL     1       0.945  53.297 -24.562  1.00  0.00     0.112 C 
HETATM    7  C5  UNL     1      -0.085  52.435 -23.845  1.00  0.00     0.021 C 
HETATM    8  C6  UNL     1      -1.171  51.882 -24.768  1.00  0.00    -0.022 A 
HETATM    9  C7  UNL     1      -2.483  52.629 -24.786  1.00  0.00     0.022 A 
HETATM   10  C8  UNL     1      -2.450  51.250 -24.142  1.00  0.00    -0.027 A 
HETATM   11  C9  UNL     1      -2.537  51.206 -22.610  1.00  0.00     0.011 C 
HETATM   12  C10 UNL     1      -3.825  50.657 -21.972  1.00  0.00     0.011 C 
HETATM   13  C11 UNL     1      -4.810  50.018 -22.957  1.00  0.00    -0.032 C 
HETATM   14  C12 UNL     1      -5.645  51.161 -23.593  1.00  0.00     0.016 C 
HETATM   15  C13 UNL     1      -5.760  48.927 -22.360  1.00  0.00    -0.002 C 
HETATM   16  C22 UNL     1      -6.061  47.990 -23.563  1.00  0.00     0.006 C 
HETATM   17  C23 UNL     1      -5.092  48.379 -24.692  1.00  0.00     0.011 C 
HETATM   18  C24 UNL     1      -3.976  49.179 -23.994  1.00  0.00    -0.032 C 
HETATM   19  C25 UNL     1      -3.004  48.135 -23.358  1.00  0.00     0.016 C 
HETATM   20  C26 UNL     1      -3.193  50.142 -24.927  1.00  0.00     0.004 C 
HETATM   21  C27 UNL     1      -2.259  49.430 -25.914  1.00  0.00     0.007 C 
HETATM   22  C28 UNL     1      -1.609  50.442 -26.849  1.00  0.00     0.012 C 
HETATM   23  C29 UNL     1      -0.605  51.326 -26.089  1.00  0.00     0.051 C 
ENDROOT
BRANCH  15  24
HETATM   24  C14 UNL     1      -7.015  49.274 -21.500  1.00  0.00    -0.014 C 
HETATM   25  C15 UNL     1      -6.763  50.086 -20.223  1.00  0.00     0.010 C 
BRANCH  24  26
HETATM   26  C16 UNL     1      -7.871  48.012 -21.226  1.00  0.00     0.008 C 
BRANCH  26  27
HETATM   27  C17 UNL     1      -7.479  47.211 -19.974  1.00  0.00     0.028 C 
BRANCH  27  28
HETATM   28  C18 UNL     1      -6.077  46.666 -20.015  1.00  0.00    -0.025 C 
HETATM   29  C19 UNL     1      -5.598  45.649 -20.758  1.00  0.00    -0.091 C 
HETATM   30  C20 UNL     1      -4.145  45.256 -20.666  1.00  0.00     0.042 C 
HETATM   31  C21 UNL     1      -6.398  44.815 -21.720  1.00  0.00     0.042 C 
ENDBRANCH  27  28
ENDBRANCH  26  27
ENDBRANCH  24  26
ENDBRANCH  15  24
TORSDOF 4
ENDMDL
MODEL 6
REMARK minimizedAffinity -8.95842838
REMARK  4 active torsions:
REMARK  status: ('A' for Active; 'I' for Inactive)
REMARK    1  A    between atoms: C13_15  and  C14_16 
REMARK    2  A    between atoms: C14_16  and  C16_18 
REMARK    3  A    between atoms: C16_18  and  C17_19 
REMARK    4  A    between atoms: C17_19  and  C18_20 
ROOT
HETATM    1  C1  UNL     1       2.097  52.536 -16.613  1.00  0.00     0.047 C 
HETATM    2  C2  UNL     1       0.951  51.867 -16.798  1.00  0.00     0.052 C 
HETATM    3  O1  UNL     1       0.127  51.642 -15.660  1.00  0.00    -0.284 OA
HETATM    4  C3  UNL     1      -0.218  50.378 -15.262  1.00  0.00     0.263 C 
HETATM    5  O2  UNL     1      -0.928  50.184 -14.279  1.00  0.00    -0.265 OA
HETATM    6  C4  UNL     1       0.307  49.246 -16.105  1.00  0.00     0.112 C 
HETATM    7  C5  UNL     1      -0.503  49.107 -17.387  1.00  0.00     0.021 C 
HETATM    8  C6  UNL     1      -0.775  50.440 -18.087  1.00  0.00    -0.022 A 
HETATM    9  C7  UNL     1      -2.127  51.063 -17.843  1.00  0.00     0.022 A 
HETATM   10  C8  UNL     1      -1.837  50.495 -19.224  1.00  0.00    -0.027 A 
HETATM   11  C9  UNL     1      -2.548  49.185 -19.590  1.00  0.00     0.011 C 
HETATM   12  C10 UNL     1      -3.656  49.234 -20.657  1.00  0.00     0.011 C 
HETATM   13  C11 UNL     1      -3.786  50.574 -21.391  1.00  0.00    -0.032 C 
HETATM   14  C12 UNL     1      -4.640  51.515 -20.500  1.00  0.00     0.016 C 
HETATM   15  C13 UNL     1      -4.389  50.506 -22.833  1.00  0.00    -0.002 C 
HETATM   16  C22 UNL     1      -3.752  51.720 -23.565  1.00  0.00     0.006 C 
HETATM   17  C23 UNL     1      -2.630  52.256 -22.659  1.00  0.00     0.011 C 
HETATM   18  C24 UNL     1      -2.333  51.106 -21.678  1.00  0.00    -0.032 C 
HETATM   19  C25 UNL     1      -1.407  50.099 -22.432  1.00  0.00     0.016 C 
HETATM   20  C26 UNL     1      -1.672  51.550 -20.346  1.00  0.00     0.004 C 
HETATM   21  C27 UNL     1      -0.209  51.989 -20.493  1.00  0.00     0.007 C 
HETATM   22  C28 UNL     1       0.325  52.498 -19.159  1.00  0.00     0.012 C 
HETATM   23  C29 UNL     1       0.470  51.345 -18.151  1.00  0.00     0.051 C 
ENDROOT
BRANCH  15  24
HETATM   24  C14 UNL     1      -5.916  50.333 -23.106  1.00  0.00    -0.014 C 
HETATM   25  C15 UNL     1      -6.796  50.030 -21.888  1.00  0.00     0.010 C 
BRANCH  24  26
HETATM   26  C16 UNL     1      -6.166  49.337 -24.266  1.00  0.00     0.008 C 
BRANCH  26  27
HETATM   27  C17 UNL     1      -5.171  48.169 -24.355  1.00  0.00     0.028 C 
BRANCH  27  28
HETATM   28  C18 UNL     1      -3.845  48.544 -24.958  1.00  0.00    -0.025 C 
HETATM   29  C19 UNL     1      -3.508  48.605 -26.262  1.00  0.00    -0.091 C 
HETATM   30  C20 UNL     1      -2.117  49.018 -26.671  1.00  0.00     0.042 C 
HETATM   31  C21 UNL     1      -4.417  48.286 -27.417  1.00  0.00     0.042 C 
ENDBRANCH  27  28
ENDBRANCH  26  27
ENDBRANCH  24  26
ENDBRANCH  15  24
TORSDOF 4
ENDMDL
MODEL 7
REMARK minimizedAffinity -8.95297909
REMARK  4 active torsions:
REMARK  status: ('A' for Active; 'I' for Inactive)
REMARK    1  A    between atoms: C13_15  and  C14_16 
REMARK    2  A    between atoms: C14_16  and  C16_18 
REMARK    3  A    between atoms: C16_18  and  C17_19 
REMARK    4  A    between atoms: C17_19  and  C18_20 
ROOT
HETATM    1  C1  UNL     1       1.182  53.634 -20.375  1.00  0.00     0.047 C 
HETATM    2  C2  UNL     1       0.196  52.749 -20.576  1.00  0.00     0.052 C 
HETATM    3  O1  UNL     1      -0.795  52.624 -19.563  1.00  0.00    -0.284 OA
HETATM    4  C3  UNL     1      -1.035  51.429 -18.937  1.00  0.00     0.263 C 
HETATM    5  O2  UNL     1      -1.889  51.321 -18.061  1.00  0.00    -0.265 OA
HETATM    6  C4  UNL     1      -0.206  50.258 -19.395  1.00  0.00     0.112 C 
HETATM    7  C5  UNL     1      -0.724  49.714 -20.719  1.00  0.00     0.021 C 
HETATM    8  C6  UNL     1      -1.035  50.802 -21.748  1.00  0.00    -0.022 A 
HETATM    9  C7  UNL     1      -2.481  51.214 -21.876  1.00  0.00     0.022 A 
HETATM   10  C8  UNL     1      -1.854  50.431 -23.020  1.00  0.00    -0.027 A 
HETATM   11  C9  UNL     1      -2.294  48.969 -23.174  1.00  0.00     0.011 C 
HETATM   12  C10 UNL     1      -3.170  48.598 -24.384  1.00  0.00     0.011 C 
HETATM   13  C11 UNL     1      -3.336  49.711 -25.424  1.00  0.00    -0.032 C 
HETATM   14  C12 UNL     1      -4.468  50.651 -24.928  1.00  0.00     0.016 C 
HETATM   15  C13 UNL     1      -3.633  49.239 -26.886  1.00  0.00    -0.002 C 
HETATM   16  C22 UNL     1      -3.038  50.368 -27.774  1.00  0.00     0.006 C 
HETATM   17  C23 UNL     1      -2.198  51.270 -26.855  1.00  0.00     0.011 C 
HETATM   18  C24 UNL     1      -1.943  50.421 -25.595  1.00  0.00    -0.032 C 
HETATM   19  C25 UNL     1      -0.759  49.460 -25.933  1.00  0.00     0.016 C 
HETATM   20  C26 UNL     1      -1.620  51.242 -24.318  1.00  0.00     0.004 C 
HETATM   21  C27 UNL     1      -0.231  51.893 -24.331  1.00  0.00     0.007 C 
HETATM   22  C28 UNL     1      -0.040  52.754 -23.088  1.00  0.00     0.012 C 
HETATM   23  C29 UNL     1       0.063  51.880 -21.826  1.00  0.00     0.051 C 
ENDROOT
BRANCH  15  24
HETATM   24  C14 UNL     1      -5.040  48.746 -27.349  1.00  0.00    -0.014 C 
HETATM   25  C15 UNL     1      -5.774  47.793 -26.398  1.00  0.00     0.010 C 
BRANCH  24  26
HETATM   26  C16 UNL     1      -4.990  48.199 -28.797  1.00  0.00     0.008 C 
BRANCH  26  27
HETATM   27  C17 UNL     1      -6.307  47.604 -29.321  1.00  0.00     0.028 C 
BRANCH  27  28
HETATM   28  C18 UNL     1      -6.343  47.427 -30.814  1.00  0.00    -0.025 C 
HETATM   29  C19 UNL     1      -7.210  47.961 -31.698  1.00  0.00    -0.091 C 
HETATM   30  C20 UNL     1      -7.073  47.671 -33.171  1.00  0.00     0.042 C 
HETATM   31  C21 UNL     1      -8.365  48.862 -31.356  1.00  0.00     0.042 C 
ENDBRANCH  27  28
ENDBRANCH  26  27
ENDBRANCH  24  26
ENDBRANCH  15  24
TORSDOF 4
ENDMDL
MODEL 8
REMARK minimizedAffinity -8.91274929
REMARK  4 active torsions:
REMARK  status: ('A' for Active; 'I' for Inactive)
REMARK    1  A    between atoms: C13_15  and  C14_16 
REMARK    2  A    between atoms: C14_16  and  C16_18 
REMARK    3  A    between atoms: C16_18  and  C17_19 
REMARK    4  A    between atoms: C17_19  and  C18_20 
ROOT
HETATM    1  C1  UNL     1      -7.573  46.668 -25.650  1.00  0.00     0.047 C 
HETATM    2  C2  UNL     1      -7.079  47.113 -24.487  1.00  0.00     0.052 C 
HETATM    3  O1  UNL     1      -7.251  46.290 -23.339  1.00  0.00    -0.284 OA
HETATM    4  C3  UNL     1      -7.910  46.740 -22.226  1.00  0.00     0.263 C 
HETATM    5  O2  UNL     1      -8.061  46.030 -21.236  1.00  0.00    -0.265 OA
HETATM    6  C4  UNL     1      -8.424  48.155 -22.281  1.00  0.00     0.112 C 
HETATM    7  C5  UNL     1      -7.293  49.149 -22.061  1.00  0.00     0.021 C 
HETATM    8  C6  UNL     1      -6.029  48.826 -22.862  1.00  0.00    -0.022 A 
HETATM    9  C7  UNL     1      -4.929  48.108 -22.120  1.00  0.00     0.022 A 
HETATM   10  C8  UNL     1      -4.701  49.560 -22.512  1.00  0.00    -0.027 A 
HETATM   11  C9  UNL     1      -4.744  50.592 -21.375  1.00  0.00     0.011 C 
HETATM   12  C10 UNL     1      -3.427  51.272 -20.962  1.00  0.00     0.011 C 
HETATM   13  C11 UNL     1      -2.237  50.985 -21.885  1.00  0.00    -0.032 C 
HETATM   14  C12 UNL     1      -1.634  49.619 -21.461  1.00  0.00     0.016 C 
HETATM   15  C13 UNL     1      -1.119  52.079 -21.916  1.00  0.00    -0.002 C 
HETATM   16  C22 UNL     1      -0.503  51.949 -23.338  1.00  0.00     0.006 C 
HETATM   17  C23 UNL     1      -1.431  51.028 -24.149  1.00  0.00     0.011 C 
HETATM   18  C24 UNL     1      -2.760  51.022 -23.368  1.00  0.00    -0.032 C 
HETATM   19  C25 UNL     1      -3.518  52.330 -23.760  1.00  0.00     0.016 C 
HETATM   20  C26 UNL     1      -3.656  49.783 -23.632  1.00  0.00     0.004 C 
HETATM   21  C27 UNL     1      -4.309  49.770 -25.020  1.00  0.00     0.007 C 
HETATM   22  C28 UNL     1      -5.088  48.476 -25.225  1.00  0.00     0.012 C 
HETATM   23  C29 UNL     1      -6.332  48.436 -24.322  1.00  0.00     0.051 C 
ENDROOT
BRANCH  15  24
HETATM   24  C14 UNL     1      -0.059  52.242 -20.782  1.00  0.00    -0.014 C 
HETATM   25  C15 UNL     1       1.390  52.465 -21.230  1.00  0.00     0.010 C 
BRANCH  24  26
HETATM   26  C16 UNL     1      -0.176  51.100 -19.741  1.00  0.00     0.008 C 
BRANCH  26  27
HETATM   27  C17 UNL     1      -0.178  51.548 -18.271  1.00  0.00     0.028 C 
BRANCH  27  28
HETATM   28  C18 UNL     1       1.099  52.213 -17.836  1.00  0.00    -0.025 C 
HETATM   29  C19 UNL     1       1.758  52.074 -16.668  1.00  0.00    -0.091 C 
HETATM   30  C20 UNL     1       3.042  52.824 -16.422  1.00  0.00     0.042 C 
HETATM   31  C21 UNL     1       1.326  51.207 -15.518  1.00  0.00     0.042 C 
ENDBRANCH  27  28
ENDBRANCH  26  27
ENDBRANCH  24  26
ENDBRANCH  15  24
TORSDOF 4
ENDMDL
MODEL 9
REMARK minimizedAffinity -8.90128517
REMARK  4 active torsions:
REMARK  status: ('A' for Active; 'I' for Inactive)
REMARK    1  A    between atoms: C13_15  and  C14_16 
REMARK    2  A    between atoms: C14_16  and  C16_18 
REMARK    3  A    between atoms: C16_18  and  C17_19 
REMARK    4  A    between atoms: C17_19  and  C18_20 
ROOT
HETATM    1  C1  UNL     1      -7.335  46.547 -18.169  1.00  0.00     0.047 C 
HETATM    2  C2  UNL     1      -6.454  46.806 -19.145  1.00  0.00     0.052 C 
HETATM    3  O1  UNL     1      -6.874  46.593 -20.487  1.00  0.00    -0.284 OA
HETATM    4  C3  UNL     1      -6.213  45.727 -21.317  1.00  0.00     0.263 C 
HETATM    5  O2  UNL     1      -6.576  45.541 -22.475  1.00  0.00    -0.265 OA
HETATM    6  C4  UNL     1      -5.010  45.031 -20.735  1.00  0.00     0.112 C 
HETATM    7  C5  UNL     1      -3.812  45.970 -20.693  1.00  0.00     0.021 C 
HETATM    8  C6  UNL     1      -4.145  47.365 -20.162  1.00  0.00    -0.022 A 
HETATM    9  C7  UNL     1      -4.372  48.441 -21.195  1.00  0.00     0.022 A 
HETATM   10  C8  UNL     1      -3.110  48.514 -20.348  1.00  0.00    -0.027 A 
HETATM   11  C9  UNL     1      -1.791  48.168 -21.051  1.00  0.00     0.011 C 
HETATM   12  C10 UNL     1      -0.787  49.305 -21.314  1.00  0.00     0.011 C 
HETATM   13  C11 UNL     1      -1.141  50.641 -20.650  1.00  0.00    -0.032 C 
HETATM   14  C12 UNL     1      -2.161  51.366 -21.568  1.00  0.00     0.016 C 
HETATM   15  C13 UNL     1       0.066  51.587 -20.338  1.00  0.00    -0.002 C 
HETATM   16  C22 UNL     1      -0.407  52.408 -19.105  1.00  0.00     0.006 C 
HETATM   17  C23 UNL     1      -1.693  51.741 -18.586  1.00  0.00     0.011 C 
HETATM   18  C24 UNL     1      -1.684  50.331 -19.207  1.00  0.00    -0.032 C 
HETATM   19  C25 UNL     1      -0.734  49.459 -18.326  1.00  0.00     0.016 C 
HETATM   20  C26 UNL     1      -3.081  49.664 -19.312  1.00  0.00     0.004 C 
HETATM   21  C27 UNL     1      -3.662  49.220 -17.963  1.00  0.00     0.007 C 
HETATM   22  C28 UNL     1      -5.070  48.668 -18.152  1.00  0.00     0.012 C 
HETATM   23  C29 UNL     1      -5.037  47.328 -18.906  1.00  0.00     0.051 C 
ENDROOT
BRANCH  15  24
HETATM   24  C14 UNL     1       0.778  52.444 -21.432  1.00  0.00    -0.014 C 
HETATM   25  C15 UNL     1       1.083  53.900 -21.063  1.00  0.00     0.010 C 
BRANCH  24  26
HETATM   26  C16 UNL     1       0.047  52.329 -22.793  1.00  0.00     0.008 C 
BRANCH  26  27
HETATM   27  C17 UNL     1       0.841  52.831 -24.009  1.00  0.00     0.028 C 
BRANCH  27  28
HETATM   28  C18 UNL     1       0.270  52.395 -25.331  1.00  0.00    -0.025 C 
HETATM   29  C19 UNL     1       0.900  51.781 -26.352  1.00  0.00    -0.091 C 
HETATM   30  C20 UNL     1       0.144  51.410 -27.602  1.00  0.00     0.042 C 
HETATM   31  C21 UNL     1       2.356  51.407 -26.383  1.00  0.00     0.042 C 
ENDBRANCH  27  28
ENDBRANCH  26  27
ENDBRANCH  24  26
ENDBRANCH  15  24
TORSDOF 4
ENDMDL
