MODEL 1
REMARK minimizedAffinity -9.23702335
REMARK CNNscore 0.741011679
REMARK CNNaffinity 7.92163324
REMARK  12 active torsions:
REMARK  status: ('A' for Active; 'I' for Inactive)
REMARK    1  A    between atoms: C2_2  and  C3_3 
REMARK    2  A    between atoms: C4_5  and  C5_6 
REMARK    3  A    between atoms: C5_6  and  C7_8 
REMARK    4  A    between atoms: C7_8  and  C8_9 
REMARK    5  A    between atoms: C9_10  and  C10_11 
REMARK    6  A    between atoms: C17_19  and  C18_20 
REMARK    7  A    between atoms: C18_20  and  C19_21 
REMARK    8  A    between atoms: C28_33  and  C29_34 
REMARK    9  A    between atoms: C29_34  and  C30_36 
REMARK   10  A    between atoms: C30_36  and  C31_37 
REMARK   11  A    between atoms: C31_37  and  C32_38 
REMARK   12  A    between atoms: C32_38  and  O5_39 
ROOT
HETATM    1  C10 UNL     1      -1.067  49.664 -19.200  1.00  0.00     0.066 C 
HETATM    2  C11 UNL     1      -2.037  48.510 -19.367  1.00  0.00     0.166 A 
HETATM    3  O2  UNL     1      -1.528  47.356 -20.042  1.00  0.00    -0.368 OA
HETATM    4  C12 UNL     1      -2.448  48.174 -20.781  1.00  0.00     0.088 A 
HETATM    5  C13 UNL     1      -3.777  47.529 -21.009  1.00  0.00     0.049 C 
HETATM    6  C14 UNL     1      -1.794  49.017 -21.854  1.00  0.00     0.026 C 
HETATM    7  C15 UNL     1      -2.213  48.653 -23.278  1.00  0.00     0.014 C 
HETATM    8  C16 UNL     1      -1.915  50.535 -21.525  1.00  0.00     0.041 C 
HETATM    9  C17 UNL     1      -3.305  51.146 -21.812  1.00  0.00     0.095 C 
HETATM   10  N2  UNL     1      -3.864  51.375 -20.509  1.00  0.00    -0.355 N 
HETATM   11  C27 UNL     1      -2.967  51.302 -19.478  1.00  0.00     0.235 C 
HETATM   12  O3  UNL     1      -3.271  51.563 -18.327  1.00  0.00    -0.272 OA
HETATM   13  C28 UNL     1      -1.605  50.890 -20.008  1.00  0.00     0.116 C 
HETATM   14  H33 UNL     1      -4.828  51.643 -20.331  1.00  0.00     0.162 HD
ENDROOT
BRANCH   9  15
HETATM   15  C18 UNL     1      -3.254  52.460 -22.620  1.00  0.00     0.066 C 
BRANCH  15  16
HETATM   16  C19 UNL     1      -3.006  52.242 -24.078  1.00  0.00    -0.028 A 
HETATM   17  C20 UNL     1      -3.971  52.169 -25.066  1.00  0.00     0.096 A 
HETATM   18  N1  UNL     1      -3.347  51.938 -26.262  1.00  0.00    -0.365 N 
HETATM   19  C21 UNL     1      -1.986  51.857 -26.081  1.00  0.00     0.042 A 
HETATM   20  H28 UNL     1      -3.809  51.836 -27.154  1.00  0.00     0.165 HD
HETATM   21  C22 UNL     1      -0.967  51.623 -27.012  1.00  0.00     0.030 A 
HETATM   22  C26 UNL     1      -1.738  52.058 -24.723  1.00  0.00    -0.002 A 
HETATM   23  C23 UNL     1       0.347  51.590 -26.539  1.00  0.00     0.002 A 
HETATM   24  C24 UNL     1       0.630  51.785 -25.191  1.00  0.00     0.001 A 
HETATM   25  C25 UNL     1      -0.401  52.022 -24.276  1.00  0.00     0.014 A 
ENDBRANCH  15  16
ENDBRANCH   9  15
BRANCH  13  26
HETATM   26  C29 UNL     1      -0.545  51.995 -19.978  1.00  0.00     0.146 C 
HETATM   27  O4  UNL     1      -0.690  52.955 -19.212  1.00  0.00    -0.297 OA
BRANCH  26  28
HETATM   28  C30 UNL     1       0.718  51.872 -20.818  1.00  0.00     0.081 C 
BRANCH  28  29
HETATM   29  C31 UNL     1       1.545  53.163 -20.787  1.00  0.00     0.033 C 
BRANCH  29  30
HETATM   30  C32 UNL     1       1.268  54.065 -21.985  1.00  0.00     0.164 C 
BRANCH  30  31
HETATM   31  O5  UNL     1       2.217  55.120 -22.073  1.00  0.00    -0.401 OA
HETATM   32  H40 UNL     1       2.045  55.757 -21.360  1.00  0.00     0.209 HD
ENDBRANCH  30  31
ENDBRANCH  29  30
ENDBRANCH  28  29
ENDBRANCH  26  28
ENDBRANCH  13  26
BRANCH   1  33
HETATM   33  C9  UNL     1      -0.634  49.987 -17.776  1.00  0.00    -0.022 C 
HETATM   34  C8  UNL     1       0.321  50.849 -17.389  1.00  0.00    -0.029 C 
BRANCH  34  35
HETATM   35  C7  UNL     1       0.685  51.121 -15.955  1.00  0.00     0.035 C 
BRANCH  35  36
HETATM   36  C5  UNL     1       1.823  52.153 -15.792  1.00  0.00     0.008 C 
HETATM   37  C6  UNL     1       2.508  52.492 -17.122  1.00  0.00     0.014 C 
BRANCH  36  38
HETATM   38  C4  UNL     1       2.854  51.605 -14.829  1.00  0.00    -0.013 C 
HETATM   39  C2  UNL     1       2.766  50.505 -14.057  1.00  0.00    -0.028 C 
HETATM   40  C1  UNL     1       1.613  49.556 -13.951  1.00  0.00     0.051 C 
BRANCH  39  41
HETATM   41  C3  UNL     1       3.940  50.163 -13.192  1.00  0.00     0.265 C 
HETATM   42  O1  UNL     1       4.989  49.688 -13.611  1.00  0.00    -0.302 OA
ENDBRANCH  39  41
ENDBRANCH  36  38
ENDBRANCH  35  36
ENDBRANCH  34  35
ENDBRANCH   1  33
TORSDOF 12
ENDMDL
MODEL 2
REMARK minimizedAffinity -8.79116535
REMARK CNNscore 0.607825875
REMARK CNNaffinity 7.41949081
REMARK  12 active torsions:
REMARK  status: ('A' for Active; 'I' for Inactive)
REMARK    1  A    between atoms: C2_2  and  C3_3 
REMARK    2  A    between atoms: C4_5  and  C5_6 
REMARK    3  A    between atoms: C5_6  and  C7_8 
REMARK    4  A    between atoms: C7_8  and  C8_9 
REMARK    5  A    between atoms: C9_10  and  C10_11 
REMARK    6  A    between atoms: C17_19  and  C18_20 
REMARK    7  A    between atoms: C18_20  and  C19_21 
REMARK    8  A    between atoms: C28_33  and  C29_34 
REMARK    9  A    between atoms: C29_34  and  C30_36 
REMARK   10  A    between atoms: C30_36  and  C31_37 
REMARK   11  A    between atoms: C31_37  and  C32_38 
REMARK   12  A    between atoms: C32_38  and  O5_39 
ROOT
HETATM    1  C10 UNL     1      -1.374  49.170 -18.876  1.00  0.00     0.066 C 
HETATM    2  C11 UNL     1      -2.583  48.347 -18.473  1.00  0.00     0.166 A 
HETATM    3  O2  UNL     1      -2.553  46.966 -18.843  1.00  0.00    -0.368 OA
HETATM    4  C12 UNL     1      -3.437  47.809 -19.597  1.00  0.00     0.088 A 
HETATM    5  C13 UNL     1      -4.886  47.546 -19.337  1.00  0.00     0.049 C 
HETATM    6  C14 UNL     1      -2.939  48.131 -20.989  1.00  0.00     0.026 C 
HETATM    7  C15 UNL     1      -3.809  47.568 -22.112  1.00  0.00     0.014 C 
HETATM    8  C16 UNL     1      -2.623  49.651 -21.133  1.00  0.00     0.041 C 
HETATM    9  C17 UNL     1      -3.866  50.552 -21.307  1.00  0.00     0.095 C 
HETATM   10  N2  UNL     1      -3.974  51.248 -20.055  1.00  0.00    -0.355 N 
HETATM   11  C27 UNL     1      -2.864  51.171 -19.258  1.00  0.00     0.235 C 
HETATM   12  O3  UNL     1      -2.768  51.786 -18.209  1.00  0.00    -0.272 OA
HETATM   13  C28 UNL     1      -1.831  50.261 -19.898  1.00  0.00     0.116 C 
HETATM   14  H33 UNL     1      -4.765  51.822 -19.777  1.00  0.00     0.162 HD
ENDROOT
BRANCH   9  15
HETATM   15  C18 UNL     1      -3.753  51.552 -22.476  1.00  0.00     0.066 C 
BRANCH  15  16
HETATM   16  C19 UNL     1      -2.935  51.031 -23.615  1.00  0.00    -0.028 A 
HETATM   17  C20 UNL     1      -1.632  51.385 -23.910  1.00  0.00     0.096 A 
HETATM   18  N1  UNL     1      -1.247  50.711 -25.038  1.00  0.00    -0.365 N 
HETATM   19  C21 UNL     1      -2.275  49.919 -25.493  1.00  0.00     0.042 A 
HETATM   20  H28 UNL     1      -0.344  50.781 -25.483  1.00  0.00     0.165 HD
HETATM   21  C22 UNL     1      -2.335  49.075 -26.608  1.00  0.00     0.030 A 
HETATM   22  C26 UNL     1      -3.345  50.086 -24.613  1.00  0.00    -0.002 A 
HETATM   23  C23 UNL     1      -3.527  48.382 -26.834  1.00  0.00     0.002 A 
HETATM   24  C24 UNL     1      -4.613  48.527 -25.977  1.00  0.00     0.001 A 
HETATM   25  C25 UNL     1      -4.535  49.371 -24.865  1.00  0.00     0.014 A 
ENDBRANCH  15  16
ENDBRANCH   9  15
BRANCH  13  26
HETATM   26  C29 UNL     1      -0.587  50.979 -20.432  1.00  0.00     0.146 C 
HETATM   27  O4  UNL     1       0.322  50.317 -20.947  1.00  0.00    -0.297 OA
BRANCH  26  28
HETATM   28  C30 UNL     1      -0.507  52.499 -20.408  1.00  0.00     0.081 C 
BRANCH  28  29
HETATM   29  C31 UNL     1       0.932  52.991 -20.603  1.00  0.00     0.033 C 
BRANCH  29  30
HETATM   30  C32 UNL     1       1.133  53.699 -21.939  1.00  0.00     0.164 C 
BRANCH  30  31
HETATM   31  O5  UNL     1       1.925  54.870 -21.794  1.00  0.00    -0.401 OA
HETATM   32  H40 UNL     1       1.400  55.550 -21.339  1.00  0.00     0.209 HD
ENDBRANCH  30  31
ENDBRANCH  29  30
ENDBRANCH  28  29
ENDBRANCH  26  28
ENDBRANCH  13  26
BRANCH   1  33
HETATM   33  C9  UNL     1      -0.500  49.692 -17.743  1.00  0.00    -0.022 C 
HETATM   34  C8  UNL     1       0.230  50.820 -17.730  1.00  0.00    -0.029 C 
BRANCH  34  35
HETATM   35  C7  UNL     1       1.064  51.275 -16.562  1.00  0.00     0.035 C 
BRANCH  35  36
HETATM   36  C5  UNL     1       0.633  50.650 -15.216  1.00  0.00     0.008 C 
HETATM   37  C6  UNL     1      -0.150  51.631 -14.334  1.00  0.00     0.014 C 
BRANCH  36  38
HETATM   38  C4  UNL     1       1.866  50.187 -14.470  1.00  0.00    -0.013 C 
HETATM   39  C2  UNL     1       3.043  50.826 -14.333  1.00  0.00    -0.028 C 
HETATM   40  C1  UNL     1       3.429  52.156 -14.902  1.00  0.00     0.051 C 
BRANCH  39  41
HETATM   41  C3  UNL     1       4.111  50.157 -13.525  1.00  0.00     0.265 C 
HETATM   42  O1  UNL     1       4.886  49.317 -13.967  1.00  0.00    -0.302 OA
ENDBRANCH  39  41
ENDBRANCH  36  38
ENDBRANCH  35  36
ENDBRANCH  34  35
ENDBRANCH   1  33
TORSDOF 12
ENDMDL
MODEL 3
REMARK minimizedAffinity -9.76577663
REMARK CNNscore 0.477950692
REMARK CNNaffinity 7.76906061
REMARK  12 active torsions:
REMARK  status: ('A' for Active; 'I' for Inactive)
REMARK    1  A    between atoms: C2_2  and  C3_3 
REMARK    2  A    between atoms: C4_5  and  C5_6 
REMARK    3  A    between atoms: C5_6  and  C7_8 
REMARK    4  A    between atoms: C7_8  and  C8_9 
REMARK    5  A    between atoms: C9_10  and  C10_11 
REMARK    6  A    between atoms: C17_19  and  C18_20 
REMARK    7  A    between atoms: C18_20  and  C19_21 
REMARK    8  A    between atoms: C28_33  and  C29_34 
REMARK    9  A    between atoms: C29_34  and  C30_36 
REMARK   10  A    between atoms: C30_36  and  C31_37 
REMARK   11  A    between atoms: C31_37  and  C32_38 
REMARK   12  A    between atoms: C32_38  and  O5_39 
ROOT
HETATM    1  C10 UNL     1      -2.070  48.963 -20.679  1.00  0.00     0.066 C 
HETATM    2  C11 UNL     1      -3.398  48.290 -20.974  1.00  0.00     0.166 A 
HETATM    3  O2  UNL     1      -3.328  47.054 -21.690  1.00  0.00    -0.368 OA
HETATM    4  C12 UNL     1      -3.796  48.193 -22.428  1.00  0.00     0.088 A 
HETATM    5  C13 UNL     1      -5.249  48.131 -22.772  1.00  0.00     0.049 C 
HETATM    6  C14 UNL     1      -2.784  48.748 -23.406  1.00  0.00     0.026 C 
HETATM    7  C15 UNL     1      -3.199  48.629 -24.872  1.00  0.00     0.014 C 
HETATM    8  C16 UNL     1      -2.328  50.179 -22.990  1.00  0.00     0.041 C 
HETATM    9  C17 UNL     1      -3.343  51.297 -23.317  1.00  0.00     0.095 C 
HETATM   10  N2  UNL     1      -3.869  51.681 -22.037  1.00  0.00    -0.355 N 
HETATM   11  C27 UNL     1      -3.154  51.225 -20.963  1.00  0.00     0.235 C 
HETATM   12  O3  UNL     1      -3.421  51.544 -19.816  1.00  0.00    -0.272 OA
HETATM   13  C28 UNL     1      -2.024  50.330 -21.438  1.00  0.00     0.116 C 
HETATM   14  H33 UNL     1      -4.663  52.300 -21.899  1.00  0.00     0.162 HD
ENDROOT
BRANCH   9  15
HETATM   15  C18 UNL     1      -2.722  52.513 -24.037  1.00  0.00     0.066 C 
BRANCH  15  16
HETATM   16  C19 UNL     1      -2.211  52.187 -25.404  1.00  0.00    -0.028 A 
HETATM   17  C20 UNL     1      -2.983  51.958 -26.527  1.00  0.00     0.096 A 
HETATM   18  N1  UNL     1      -2.147  51.669 -27.573  1.00  0.00    -0.365 N 
HETATM   19  C21 UNL     1      -0.837  51.702 -27.157  1.00  0.00     0.042 A 
HETATM   20  H28 UNL     1      -2.440  51.457 -28.515  1.00  0.00     0.165 HD
HETATM   21  C22 UNL     1       0.341  51.463 -27.875  1.00  0.00     0.030 A 
HETATM   22  C26 UNL     1      -0.841  52.039 -25.803  1.00  0.00    -0.002 A 
HETATM   23  C23 UNL     1       1.552  51.566 -27.186  1.00  0.00     0.002 A 
HETATM   24  C24 UNL     1       1.583  51.898 -25.836  1.00  0.00     0.001 A 
HETATM   25  C25 UNL     1       0.397  52.139 -25.136  1.00  0.00     0.014 A 
ENDBRANCH  15  16
ENDBRANCH   9  15
BRANCH  13  26
HETATM   26  C29 UNL     1      -0.623  50.928 -21.278  1.00  0.00     0.146 C 
HETATM   27  O4  UNL     1       0.362  50.179 -21.284  1.00  0.00    -0.297 OA
BRANCH  26  28
HETATM   28  C30 UNL     1      -0.435  52.436 -21.201  1.00  0.00     0.081 C 
BRANCH  28  29
HETATM   29  C31 UNL     1       1.012  52.841 -21.509  1.00  0.00     0.033 C 
BRANCH  29  30
HETATM   30  C32 UNL     1       1.361  54.224 -20.970  1.00  0.00     0.164 C 
BRANCH  30  31
HETATM   31  O5  UNL     1       1.945  55.042 -21.975  1.00  0.00    -0.401 OA
HETATM   32  H40 UNL     1       2.843  54.720 -22.159  1.00  0.00     0.209 HD
ENDBRANCH  30  31
ENDBRANCH  29  30
ENDBRANCH  28  29
ENDBRANCH  26  28
ENDBRANCH  13  26
BRANCH   1  33
HETATM   33  C9  UNL     1      -1.658  49.040 -19.215  1.00  0.00    -0.022 C 
HETATM   34  C8  UNL     1      -0.578  49.653 -18.703  1.00  0.00    -0.029 C 
BRANCH  34  35
HETATM   35  C7  UNL     1      -0.243  49.692 -17.236  1.00  0.00     0.035 C 
BRANCH  35  36
HETATM   36  C5  UNL     1       0.117  51.105 -16.722  1.00  0.00     0.008 C 
HETATM   37  C6  UNL     1       0.603  52.034 -17.842  1.00  0.00     0.014 C 
BRANCH  36  38
HETATM   38  C4  UNL     1       1.198  50.987 -15.670  1.00  0.00    -0.013 C 
HETATM   39  C2  UNL     1       2.362  51.660 -15.597  1.00  0.00    -0.028 C 
HETATM   40  C1  UNL     1       2.882  52.687 -16.554  1.00  0.00     0.051 C 
BRANCH  39  41
HETATM   41  C3  UNL     1       3.264  51.372 -14.437  1.00  0.00     0.265 C 
HETATM   42  O1  UNL     1       3.045  50.513 -13.591  1.00  0.00    -0.302 OA
ENDBRANCH  39  41
ENDBRANCH  36  38
ENDBRANCH  35  36
ENDBRANCH  34  35
ENDBRANCH   1  33
TORSDOF 12
ENDMDL
MODEL 4
REMARK minimizedAffinity -7.65745878
REMARK CNNscore 0.437264889
REMARK CNNaffinity 7.27894402
REMARK  12 active torsions:
REMARK  status: ('A' for Active; 'I' for Inactive)
REMARK    1  A    between atoms: C2_2  and  C3_3 
REMARK    2  A    between atoms: C4_5  and  C5_6 
REMARK    3  A    between atoms: C5_6  and  C7_8 
REMARK    4  A    between atoms: C7_8  and  C8_9 
REMARK    5  A    between atoms: C9_10  and  C10_11 
REMARK    6  A    between atoms: C17_19  and  C18_20 
REMARK    7  A    between atoms: C18_20  and  C19_21 
REMARK    8  A    between atoms: C28_33  and  C29_34 
REMARK    9  A    between atoms: C29_34  and  C30_36 
REMARK   10  A    between atoms: C30_36  and  C31_37 
REMARK   11  A    between atoms: C31_37  and  C32_38 
REMARK   12  A    between atoms: C32_38  and  O5_39 
ROOT
HETATM    1  C10 UNL     1      -0.676  52.257 -20.129  1.00  0.00     0.066 C 
HETATM    2  C11 UNL     1       0.436  52.322 -21.159  1.00  0.00     0.166 A 
HETATM    3  O2  UNL     1       0.538  53.545 -21.894  1.00  0.00    -0.368 OA
HETATM    4  C12 UNL     1       0.009  52.416 -22.606  1.00  0.00     0.088 A 
HETATM    5  C13 UNL     1       0.926  51.887 -23.661  1.00  0.00     0.049 C 
HETATM    6  C14 UNL     1      -1.486  52.477 -22.829  1.00  0.00     0.026 C 
HETATM    7  C15 UNL     1      -1.897  52.584 -24.297  1.00  0.00     0.014 C 
HETATM    8  C16 UNL     1      -2.216  51.343 -22.047  1.00  0.00     0.041 C 
HETATM    9  C17 UNL     1      -2.117  49.946 -22.700  1.00  0.00     0.095 C 
HETATM   10  N2  UNL     1      -1.224  49.219 -21.843  1.00  0.00    -0.355 N 
HETATM   11  C27 UNL     1      -0.993  49.803 -20.626  1.00  0.00     0.235 C 
HETATM   12  O3  UNL     1      -0.333  49.262 -19.755  1.00  0.00    -0.272 OA
HETATM   13  C28 UNL     1      -1.692  51.149 -20.559  1.00  0.00     0.116 C 
HETATM   14  H33 UNL     1      -0.831  48.307 -22.055  1.00  0.00     0.162 HD
ENDROOT
BRANCH   9  15
HETATM   15  C18 UNL     1      -3.472  49.216 -22.818  1.00  0.00     0.066 C 
BRANCH  15  16
HETATM   16  C19 UNL     1      -3.482  47.885 -22.136  1.00  0.00    -0.028 A 
HETATM   17  C20 UNL     1      -2.379  47.218 -21.637  1.00  0.00     0.096 A 
HETATM   18  N1  UNL     1      -2.798  46.026 -21.111  1.00  0.00    -0.365 N 
HETATM   19  C21 UNL     1      -4.159  45.895 -21.254  1.00  0.00     0.042 A 
HETATM   20  H28 UNL     1      -2.202  45.334 -20.681  1.00  0.00     0.165 HD
HETATM   21  C22 UNL     1      -5.006  44.846 -20.878  1.00  0.00     0.030 A 
HETATM   22  C26 UNL     1      -4.621  47.052 -21.881  1.00  0.00    -0.002 A 
HETATM   23  C23 UNL     1      -6.369  44.983 -21.153  1.00  0.00     0.002 A 
HETATM   24  C24 UNL     1      -6.863  46.123 -21.779  1.00  0.00     0.001 A 
HETATM   25  C25 UNL     1      -6.002  47.163 -22.144  1.00  0.00     0.014 A 
ENDBRANCH  15  16
ENDBRANCH   9  15
BRANCH  13  26
HETATM   26  C29 UNL     1      -2.896  51.200 -19.614  1.00  0.00     0.146 C 
HETATM   27  O4  UNL     1      -2.935  52.059 -18.726  1.00  0.00    -0.297 OA
BRANCH  26  28
HETATM   28  C30 UNL     1      -4.075  50.260 -19.821  1.00  0.00     0.081 C 
BRANCH  28  29
HETATM   29  C31 UNL     1      -5.292  50.997 -20.394  1.00  0.00     0.033 C 
BRANCH  29  30
HETATM   30  C32 UNL     1      -6.498  50.083 -20.576  1.00  0.00     0.164 C 
BRANCH  30  31
HETATM   31  O5  UNL     1      -7.167  50.343 -21.804  1.00  0.00    -0.401 OA
HETATM   32  H40 UNL     1      -7.630  51.194 -21.735  1.00  0.00     0.209 HD
ENDBRANCH  30  31
ENDBRANCH  29  30
ENDBRANCH  28  29
ENDBRANCH  26  28
ENDBRANCH  13  26
BRANCH   1  33
HETATM   33  C9  UNL     1      -0.246  52.187 -18.670  1.00  0.00    -0.022 C 
HETATM   34  C8  UNL     1       0.962  52.484 -18.161  1.00  0.00    -0.029 C 
BRANCH  34  35
HETATM   35  C7  UNL     1       1.309  52.398 -16.699  1.00  0.00     0.035 C 
BRANCH  35  36
HETATM   36  C5  UNL     1       1.004  51.019 -16.072  1.00  0.00     0.008 C 
HETATM   37  C6  UNL     1      -0.386  50.958 -15.426  1.00  0.00     0.014 C 
BRANCH  36  38
HETATM   38  C4  UNL     1       2.053  50.710 -15.026  1.00  0.00    -0.013 C 
HETATM   39  C2  UNL     1       3.306  51.196 -14.936  1.00  0.00    -0.028 C 
HETATM   40  C1  UNL     1       3.978  52.156 -15.866  1.00  0.00     0.051 C 
BRANCH  39  41
HETATM   41  C3  UNL     1       4.150  50.742 -13.786  1.00  0.00     0.265 C 
HETATM   42  O1  UNL     1       4.776  49.689 -13.763  1.00  0.00    -0.302 OA
ENDBRANCH  39  41
ENDBRANCH  36  38
ENDBRANCH  35  36
ENDBRANCH  34  35
ENDBRANCH   1  33
TORSDOF 12
ENDMDL
MODEL 5
REMARK minimizedAffinity -7.39691925
REMARK CNNscore 0.399616122
REMARK CNNaffinity 7.06797028
REMARK  12 active torsions:
REMARK  status: ('A' for Active; 'I' for Inactive)
REMARK    1  A    between atoms: C2_2  and  C3_3 
REMARK    2  A    between atoms: C4_5  and  C5_6 
REMARK    3  A    between atoms: C5_6  and  C7_8 
REMARK    4  A    between atoms: C7_8  and  C8_9 
REMARK    5  A    between atoms: C9_10  and  C10_11 
REMARK    6  A    between atoms: C17_19  and  C18_20 
REMARK    7  A    between atoms: C18_20  and  C19_21 
REMARK    8  A    between atoms: C28_33  and  C29_34 
REMARK    9  A    between atoms: C29_34  and  C30_36 
REMARK   10  A    between atoms: C30_36  and  C31_37 
REMARK   11  A    between atoms: C31_37  and  C32_38 
REMARK   12  A    between atoms: C32_38  and  O5_39 
ROOT
HETATM    1  C10 UNL     1       0.237  49.620 -14.134  1.00  0.00     0.066 C 
HETATM    2  C11 UNL     1       1.646  49.336 -14.620  1.00  0.00     0.166 A 
HETATM    3  O2  UNL     1       2.185  48.060 -14.264  1.00  0.00    -0.368 OA
HETATM    4  C12 UNL     1       2.709  49.194 -13.556  1.00  0.00     0.088 A 
HETATM    5  C13 UNL     1       4.125  49.520 -13.908  1.00  0.00     0.049 C 
HETATM    6  C14 UNL     1       2.210  49.312 -12.133  1.00  0.00     0.026 C 
HETATM    7  C15 UNL     1       3.298  49.153 -11.072  1.00  0.00     0.014 C 
HETATM    8  C16 UNL     1       1.329  50.586 -11.953  1.00  0.00     0.041 C 
HETATM    9  C17 UNL     1       2.124  51.907 -11.845  1.00  0.00     0.095 C 
HETATM   10  N2  UNL     1       1.872  52.571 -13.093  1.00  0.00    -0.355 N 
HETATM   11  C27 UNL     1       0.836  52.052 -13.821  1.00  0.00     0.235 C 
HETATM   12  O3  UNL     1       0.441  52.564 -14.855  1.00  0.00    -0.272 OA
HETATM   13  C28 UNL     1       0.287  50.817 -13.129  1.00  0.00     0.116 C 
HETATM   14  H33 UNL     1       2.353  53.406 -13.412  1.00  0.00     0.162 HD
ENDROOT
BRANCH   9  15
HETATM   15  C18 UNL     1       1.696  52.797 -10.659  1.00  0.00     0.066 C 
BRANCH  15  16
HETATM   16  C19 UNL     1       2.662  53.903 -10.379  1.00  0.00    -0.028 A 
HETATM   17  C20 UNL     1       2.409  55.256 -10.505  1.00  0.00     0.096 A 
HETATM   18  N1  UNL     1       3.549  55.940 -10.179  1.00  0.00    -0.365 N 
HETATM   19  C21 UNL     1       4.551  55.061  -9.841  1.00  0.00     0.042 A 
HETATM   20  H28 UNL     1       3.652  56.944 -10.187  1.00  0.00     0.165 HD
HETATM   21  C22 UNL     1       5.874  55.310  -9.455  1.00  0.00     0.030 A 
HETATM   22  C26 UNL     1       4.022  53.774  -9.941  1.00  0.00    -0.002 A 
HETATM   23  C23 UNL     1       6.683  54.208  -9.167  1.00  0.00     0.002 A 
HETATM   24  C24 UNL     1       6.188  52.911  -9.259  1.00  0.00     0.001 A 
HETATM   25  C25 UNL     1       4.862  52.682  -9.641  1.00  0.00     0.014 A 
ENDBRANCH  15  16
ENDBRANCH   9  15
BRANCH  13  26
HETATM   26  C29 UNL     1      -1.104  50.993 -12.513  1.00  0.00     0.146 C 
HETATM   27  O4  UNL     1      -1.620  50.051 -11.899  1.00  0.00    -0.297 OA
BRANCH  26  28
HETATM   28  C30 UNL     1      -1.809  52.340 -12.577  1.00  0.00     0.081 C 
BRANCH  28  29
HETATM   29  C31 UNL     1      -2.830  52.498 -11.443  1.00  0.00     0.033 C 
BRANCH  29  30
HETATM   30  C32 UNL     1      -3.893  53.546 -11.755  1.00  0.00     0.164 C 
BRANCH  30  31
HETATM   31  O5  UNL     1      -4.131  53.647 -13.153  1.00  0.00    -0.401 OA
HETATM   32  H40 UNL     1      -3.366  54.076 -13.571  1.00  0.00     0.209 HD
ENDBRANCH  30  31
ENDBRANCH  29  30
ENDBRANCH  28  29
ENDBRANCH  26  28
ENDBRANCH  13  26
BRANCH   1  33
HETATM   33  C9  UNL     1      -0.839  49.739 -15.206  1.00  0.00    -0.022 C 
HETATM   34  C8  UNL     1      -0.668  49.723 -16.538  1.00  0.00    -0.029 C 
BRANCH  34  35
HETATM   35  C7  UNL     1      -1.788  49.837 -17.537  1.00  0.00     0.035 C 
BRANCH  35  36
HETATM   36  C5  UNL     1      -1.309  50.181 -18.965  1.00  0.00     0.008 C 
HETATM   37  C6  UNL     1      -0.721  48.968 -19.698  1.00  0.00     0.014 C 
BRANCH  36  38
HETATM   38  C4  UNL     1      -0.262  51.270 -18.887  1.00  0.00    -0.013 C 
HETATM   39  C2  UNL     1       0.072  52.171 -19.831  1.00  0.00    -0.028 C 
HETATM   40  C1  UNL     1      -0.506  52.307 -21.205  1.00  0.00     0.051 C 
BRANCH  39  41
HETATM   41  C3  UNL     1       1.141  53.166 -19.500  1.00  0.00     0.265 C 
HETATM   42  O1  UNL     1       1.478  54.086 -20.236  1.00  0.00    -0.302 OA
ENDBRANCH  39  41
ENDBRANCH  36  38
ENDBRANCH  35  36
ENDBRANCH  34  35
ENDBRANCH   1  33
TORSDOF 12
ENDMDL
MODEL 6
REMARK minimizedAffinity -7.25648975
REMARK CNNscore 0.376819104
REMARK CNNaffinity 6.88508558
REMARK  12 active torsions:
REMARK  status: ('A' for Active; 'I' for Inactive)
REMARK    1  A    between atoms: C2_2  and  C3_3 
REMARK    2  A    between atoms: C4_5  and  C5_6 
REMARK    3  A    between atoms: C5_6  and  C7_8 
REMARK    4  A    between atoms: C7_8  and  C8_9 
REMARK    5  A    between atoms: C9_10  and  C10_11 
REMARK    6  A    between atoms: C17_19  and  C18_20 
REMARK    7  A    between atoms: C18_20  and  C19_21 
REMARK    8  A    between atoms: C28_33  and  C29_34 
REMARK    9  A    between atoms: C29_34  and  C30_36 
REMARK   10  A    between atoms: C30_36  and  C31_37 
REMARK   11  A    between atoms: C31_37  and  C32_38 
REMARK   12  A    between atoms: C32_38  and  O5_39 
ROOT
HETATM    1  C10 UNL     1      -0.411  49.887 -13.509  1.00  0.00     0.066 C 
HETATM    2  C11 UNL     1       1.016  49.522 -13.146  1.00  0.00     0.166 A 
HETATM    3  O2  UNL     1       1.169  48.465 -12.194  1.00  0.00    -0.368 OA
HETATM    4  C12 UNL     1       1.439  49.794 -11.721  1.00  0.00     0.088 A 
HETATM    5  C13 UNL     1       2.884  50.050 -11.437  1.00  0.00     0.049 C 
HETATM    6  C14 UNL     1       0.355  50.359 -10.829  1.00  0.00     0.026 C 
HETATM    7  C15 UNL     1       0.798  50.614  -9.389  1.00  0.00     0.014 C 
HETATM    8  C16 UNL     1      -0.347  51.576 -11.503  1.00  0.00     0.041 C 
HETATM    9  C17 UNL     1       0.461  52.893 -11.451  1.00  0.00     0.095 C 
HETATM   10  N2  UNL     1       0.900  53.089 -12.804  1.00  0.00    -0.355 N 
HETATM   11  C27 UNL     1       0.265  52.309 -13.733  1.00  0.00     0.235 C 
HETATM   12  O3  UNL     1       0.461  52.426 -14.931  1.00  0.00    -0.272 OA
HETATM   13  C28 UNL     1      -0.688  51.352 -13.038  1.00  0.00     0.116 C 
HETATM   14  H33 UNL     1       1.572  53.791 -13.100  1.00  0.00     0.162 HD
ENDROOT
BRANCH   9  15
HETATM   15  C18 UNL     1      -0.356  54.107 -10.963  1.00  0.00     0.066 C 
BRANCH  15  16
HETATM   16  C19 UNL     1       0.225  54.753  -9.746  1.00  0.00    -0.028 A 
HETATM   17  C20 UNL     1      -0.375  54.835  -8.503  1.00  0.00     0.096 A 
HETATM   18  N1  UNL     1       0.463  55.519  -7.664  1.00  0.00    -0.365 N 
HETATM   19  C21 UNL     1       1.605  55.892  -8.333  1.00  0.00     0.042 A 
HETATM   20  H28 UNL     1       0.278  55.730  -6.694  1.00  0.00     0.165 HD
HETATM   21  C22 UNL     1       2.719  56.610  -7.881  1.00  0.00     0.030 A 
HETATM   22  C26 UNL     1       1.494  55.413  -9.639  1.00  0.00    -0.002 A 
HETATM   23  C23 UNL     1       3.750  56.850  -8.793  1.00  0.00     0.002 A 
HETATM   24  C24 UNL     1       3.670  56.388 -10.103  1.00  0.00     0.001 A 
HETATM   25  C25 UNL     1       2.552  55.668 -10.536  1.00  0.00     0.014 A 
ENDBRANCH  15  16
ENDBRANCH   9  15
BRANCH  13  26
HETATM   26  C29 UNL     1      -2.173  51.660 -13.252  1.00  0.00     0.146 C 
HETATM   27  O4  UNL     1      -2.605  51.797 -14.402  1.00  0.00    -0.297 OA
BRANCH  26  28
HETATM   28  C30 UNL     1      -3.126  51.707 -12.066  1.00  0.00     0.081 C 
BRANCH  28  29
HETATM   29  C31 UNL     1      -3.883  53.040 -12.004  1.00  0.00     0.033 C 
BRANCH  29  30
HETATM   30  C32 UNL     1      -3.951  53.609 -10.590  1.00  0.00     0.164 C 
BRANCH  30  31
HETATM   31  O5  UNL     1      -3.246  52.791  -9.666  1.00  0.00    -0.401 OA
HETATM   32  H40 UNL     1      -3.749  51.972  -9.525  1.00  0.00     0.209 HD
ENDBRANCH  30  31
ENDBRANCH  29  30
ENDBRANCH  28  29
ENDBRANCH  26  28
ENDBRANCH  13  26
BRANCH   1  33
HETATM   33  C9  UNL     1      -0.844  49.591 -14.940  1.00  0.00    -0.022 C 
HETATM   34  C8  UNL     1      -0.052  49.333 -15.994  1.00  0.00    -0.029 C 
BRANCH  34  35
HETATM   35  C7  UNL     1      -0.558  49.040 -17.380  1.00  0.00     0.035 C 
BRANCH  35  36
HETATM   36  C5  UNL     1      -1.632  50.037 -17.870  1.00  0.00     0.008 C 
HETATM   37  C6  UNL     1      -2.639  49.394 -18.832  1.00  0.00     0.014 C 
BRANCH  36  38
HETATM   38  C4  UNL     1      -0.951  51.195 -18.565  1.00  0.00    -0.013 C 
HETATM   39  C2  UNL     1      -0.345  51.202 -19.768  1.00  0.00    -0.028 C 
HETATM   40  C1  UNL     1      -0.184  50.052 -20.713  1.00  0.00     0.051 C 
BRANCH  39  41
HETATM   41  C3  UNL     1       0.246  52.492 -20.245  1.00  0.00     0.265 C 
HETATM   42  O1  UNL     1       0.655  52.684 -21.384  1.00  0.00    -0.302 OA
ENDBRANCH  39  41
ENDBRANCH  36  38
ENDBRANCH  35  36
ENDBRANCH  34  35
ENDBRANCH   1  33
TORSDOF 12
ENDMDL
MODEL 7
REMARK minimizedAffinity -9.00122452
REMARK CNNscore 0.328023523
REMARK CNNaffinity 7.53733873
REMARK  12 active torsions:
REMARK  status: ('A' for Active; 'I' for Inactive)
REMARK    1  A    between atoms: C2_2  and  C3_3 
REMARK    2  A    between atoms: C4_5  and  C5_6 
REMARK    3  A    between atoms: C5_6  and  C7_8 
REMARK    4  A    between atoms: C7_8  and  C8_9 
REMARK    5  A    between atoms: C9_10  and  C10_11 
REMARK    6  A    between atoms: C17_19  and  C18_20 
REMARK    7  A    between atoms: C18_20  and  C19_21 
REMARK    8  A    between atoms: C28_33  and  C29_34 
REMARK    9  A    between atoms: C29_34  and  C30_36 
REMARK   10  A    between atoms: C30_36  and  C31_37 
REMARK   11  A    between atoms: C31_37  and  C32_38 
REMARK   12  A    between atoms: C32_38  and  O5_39 
ROOT
HETATM    1  C10 UNL     1      -2.506  48.905 -20.808  1.00  0.00     0.066 C 
HETATM    2  C11 UNL     1      -3.828  48.358 -21.313  1.00  0.00     0.166 A 
HETATM    3  O2  UNL     1      -3.760  47.134 -22.049  1.00  0.00    -0.368 OA
HETATM    4  C12 UNL     1      -4.014  48.324 -22.812  1.00  0.00     0.088 A 
HETATM    5  C13 UNL     1      -5.401  48.398 -23.366  1.00  0.00     0.049 C 
HETATM    6  C14 UNL     1      -2.825  48.803 -23.616  1.00  0.00     0.026 C 
HETATM    7  C15 UNL     1      -3.029  48.748 -25.129  1.00  0.00     0.014 C 
HETATM    8  C16 UNL     1      -2.315  50.180 -23.093  1.00  0.00     0.041 C 
HETATM    9  C17 UNL     1      -3.171  51.390 -23.530  1.00  0.00     0.095 C 
HETATM   10  N2  UNL     1      -3.845  51.796 -22.329  1.00  0.00    -0.355 N 
HETATM   11  C27 UNL     1      -3.338  51.259 -21.177  1.00  0.00     0.235 C 
HETATM   12  O3  UNL     1      -3.742  51.580 -20.072  1.00  0.00    -0.272 OA
HETATM   13  C28 UNL     1      -2.231  50.275 -21.510  1.00  0.00     0.116 C 
HETATM   14  H33 UNL     1      -4.594  52.481 -22.288  1.00  0.00     0.162 HD
ENDROOT
BRANCH   9  15
HETATM   15  C18 UNL     1      -2.348  52.558 -24.114  1.00  0.00     0.066 C 
BRANCH  15  16
HETATM   16  C19 UNL     1      -1.910  52.319 -25.523  1.00  0.00    -0.028 A 
HETATM   17  C20 UNL     1      -2.735  52.233 -26.629  1.00  0.00     0.096 A 
HETATM   18  N1  UNL     1      -1.958  51.985 -27.728  1.00  0.00    -0.365 N 
HETATM   19  C21 UNL     1      -0.634  51.905 -27.367  1.00  0.00     0.042 A 
HETATM   20  H28 UNL     1      -2.298  51.871 -28.672  1.00  0.00     0.165 HD
HETATM   21  C22 UNL     1       0.499  51.657 -28.150  1.00  0.00     0.030 A 
HETATM   22  C26 UNL     1      -0.568  52.126 -25.991  1.00  0.00    -0.002 A 
HETATM   23  C23 UNL     1       1.739  51.630 -27.507  1.00  0.00     0.002 A 
HETATM   24  C24 UNL     1       1.840  51.844 -26.136  1.00  0.00     0.001 A 
HETATM   25  C25 UNL     1       0.698  52.095 -25.369  1.00  0.00     0.014 A 
ENDBRANCH  15  16
ENDBRANCH   9  15
BRANCH  13  26
HETATM   26  C29 UNL     1      -0.823  50.742 -21.130  1.00  0.00     0.146 C 
HETATM   27  O4  UNL     1       0.075  49.905 -20.976  1.00  0.00    -0.297 OA
BRANCH  26  28
HETATM   28  C30 UNL     1      -0.507  52.227 -21.028  1.00  0.00     0.081 C 
BRANCH  28  29
HETATM   29  C31 UNL     1       0.862  52.556 -21.639  1.00  0.00     0.033 C 
BRANCH  29  30
HETATM   30  C32 UNL     1       1.282  54.001 -21.390  1.00  0.00     0.164 C 
BRANCH  30  31
HETATM   31  O5  UNL     1       1.559  54.233 -20.015  1.00  0.00    -0.401 OA
HETATM   32  H40 UNL     1       0.722  54.230 -19.521  1.00  0.00     0.209 HD
ENDBRANCH  30  31
ENDBRANCH  29  30
ENDBRANCH  28  29
ENDBRANCH  26  28
ENDBRANCH  13  26
BRANCH   1  33
HETATM   33  C9  UNL     1      -2.309  48.918 -19.298  1.00  0.00    -0.022 C 
HETATM   34  C8  UNL     1      -3.193  48.543 -18.358  1.00  0.00    -0.029 C 
BRANCH  34  35
HETATM   35  C7  UNL     1      -2.919  48.576 -16.878  1.00  0.00     0.035 C 
BRANCH  35  36
HETATM   36  C5  UNL     1      -1.739  49.495 -16.489  1.00  0.00     0.008 C 
HETATM   37  C6  UNL     1      -0.610  48.736 -15.779  1.00  0.00     0.014 C 
BRANCH  36  38
HETATM   38  C4  UNL     1      -2.247  50.593 -15.581  1.00  0.00    -0.013 C 
HETATM   39  C2  UNL     1      -2.690  50.485 -14.314  1.00  0.00    -0.028 C 
HETATM   40  C1  UNL     1      -2.803  49.239 -13.492  1.00  0.00     0.051 C 
BRANCH  39  41
HETATM   41  C3  UNL     1      -3.128  51.736 -13.618  1.00  0.00     0.265 C 
HETATM   42  O1  UNL     1      -3.703  52.667 -14.170  1.00  0.00    -0.302 OA
ENDBRANCH  39  41
ENDBRANCH  36  38
ENDBRANCH  35  36
ENDBRANCH  34  35
ENDBRANCH   1  33
TORSDOF 12
ENDMDL
MODEL 8
REMARK minimizedAffinity -8.26917839
REMARK CNNscore 0.303047925
REMARK CNNaffinity 7.17444468
REMARK  12 active torsions:
REMARK  status: ('A' for Active; 'I' for Inactive)
REMARK    1  A    between atoms: C2_2  and  C3_3 
REMARK    2  A    between atoms: C4_5  and  C5_6 
REMARK    3  A    between atoms: C5_6  and  C7_8 
REMARK    4  A    between atoms: C7_8  and  C8_9 
REMARK    5  A    between atoms: C9_10  and  C10_11 
REMARK    6  A    between atoms: C17_19  and  C18_20 
REMARK    7  A    between atoms: C18_20  and  C19_21 
REMARK    8  A    between atoms: C28_33  and  C29_34 
REMARK    9  A    between atoms: C29_34  and  C30_36 
REMARK   10  A    between atoms: C30_36  and  C31_37 
REMARK   11  A    between atoms: C31_37  and  C32_38 
REMARK   12  A    between atoms: C32_38  and  O5_39 
ROOT
HETATM    1  C10 UNL     1      -2.286  48.839 -20.933  1.00  0.00     0.066 C 
HETATM    2  C11 UNL     1      -3.640  48.293 -21.348  1.00  0.00     0.166 A 
HETATM    3  O2  UNL     1      -3.619  47.088 -22.118  1.00  0.00    -0.368 OA
HETATM    4  C12 UNL     1      -3.941  48.294 -22.829  1.00  0.00     0.088 A 
HETATM    5  C13 UNL     1      -5.366  48.369 -23.272  1.00  0.00     0.049 C 
HETATM    6  C14 UNL     1      -2.820  48.804 -23.709  1.00  0.00     0.026 C 
HETATM    7  C15 UNL     1      -3.140  48.785 -25.203  1.00  0.00     0.014 C 
HETATM    8  C16 UNL     1      -2.282  50.173 -23.192  1.00  0.00     0.041 C 
HETATM    9  C17 UNL     1      -3.178  51.385 -23.531  1.00  0.00     0.095 C 
HETATM   10  N2  UNL     1      -3.760  51.755 -22.272  1.00  0.00    -0.355 N 
HETATM   11  C27 UNL     1      -3.162  51.194 -21.176  1.00  0.00     0.235 C 
HETATM   12  O3  UNL     1      -3.482  51.484 -20.035  1.00  0.00    -0.272 OA
HETATM   13  C28 UNL     1      -2.077  50.229 -21.618  1.00  0.00     0.116 C 
HETATM   14  H33 UNL     1      -4.509  52.431 -22.156  1.00  0.00     0.162 HD
ENDROOT
BRANCH   9  15
HETATM   15  C18 UNL     1      -2.411  52.575 -24.146  1.00  0.00     0.066 C 
BRANCH  15  16
HETATM   16  C19 UNL     1      -1.948  52.314 -25.544  1.00  0.00    -0.028 A 
HETATM   17  C20 UNL     1      -2.753  52.221 -26.664  1.00  0.00     0.096 A 
HETATM   18  N1  UNL     1      -1.958  51.951 -27.745  1.00  0.00    -0.365 N 
HETATM   19  C21 UNL     1      -0.642  51.864 -27.358  1.00  0.00     0.042 A 
HETATM   20  H28 UNL     1      -2.281  51.828 -28.694  1.00  0.00     0.165 HD
HETATM   21  C22 UNL     1       0.504  51.596 -28.116  1.00  0.00     0.030 A 
HETATM   22  C26 UNL     1      -0.600  52.102 -25.983  1.00  0.00    -0.002 A 
HETATM   23  C23 UNL     1       1.731  51.566 -27.449  1.00  0.00     0.002 A 
HETATM   24  C24 UNL     1       1.808  51.796 -26.079  1.00  0.00     0.001 A 
HETATM   25  C25 UNL     1       0.654  52.067 -25.338  1.00  0.00     0.014 A 
ENDBRANCH  15  16
ENDBRANCH   9  15
BRANCH  13  26
HETATM   26  C29 UNL     1      -0.647  50.700 -21.335  1.00  0.00     0.146 C 
HETATM   27  O4  UNL     1       0.188  49.889 -20.917  1.00  0.00    -0.297 OA
BRANCH  26  28
HETATM   28  C30 UNL     1      -0.232  52.130 -21.650  1.00  0.00     0.081 C 
BRANCH  28  29
HETATM   29  C31 UNL     1       0.038  52.933 -20.371  1.00  0.00     0.033 C 
BRANCH  29  30
HETATM   30  C32 UNL     1       1.470  53.450 -20.296  1.00  0.00     0.164 C 
BRANCH  30  31
HETATM   31  O5  UNL     1       1.627  54.657 -21.032  1.00  0.00    -0.401 OA
HETATM   32  H40 UNL     1       1.589  54.453 -21.981  1.00  0.00     0.209 HD
ENDBRANCH  30  31
ENDBRANCH  29  30
ENDBRANCH  28  29
ENDBRANCH  26  28
ENDBRANCH  13  26
BRANCH   1  33
HETATM   33  C9  UNL     1      -1.974  48.816 -19.442  1.00  0.00    -0.022 C 
HETATM   34  C8  UNL     1      -2.662  48.186 -18.475  1.00  0.00    -0.029 C 
BRANCH  34  35
HETATM   35  C7  UNL     1      -2.282  48.203 -17.019  1.00  0.00     0.035 C 
BRANCH  35  36
HETATM   36  C5  UNL     1      -2.947  47.077 -16.194  1.00  0.00     0.008 C 
HETATM   37  C6  UNL     1      -2.108  46.663 -14.978  1.00  0.00     0.014 C 
BRANCH  36  38
HETATM   38  C4  UNL     1      -3.161  45.873 -17.084  1.00  0.00    -0.013 C 
HETATM   39  C2  UNL     1      -4.309  45.212 -17.326  1.00  0.00    -0.028 C 
HETATM   40  C1  UNL     1      -5.663  45.502 -16.757  1.00  0.00     0.051 C 
BRANCH  39  41
HETATM   41  C3  UNL     1      -4.261  44.049 -18.268  1.00  0.00     0.265 C 
HETATM   42  O1  UNL     1      -3.371  43.208 -18.279  1.00  0.00    -0.302 OA
ENDBRANCH  39  41
ENDBRANCH  36  38
ENDBRANCH  35  36
ENDBRANCH  34  35
ENDBRANCH   1  33
TORSDOF 12
ENDMDL
MODEL 9
REMARK minimizedAffinity -9.25975037
REMARK CNNscore 0.286519647
REMARK CNNaffinity 7.44288588
REMARK  12 active torsions:
REMARK  status: ('A' for Active; 'I' for Inactive)
REMARK    1  A    between atoms: C2_2  and  C3_3 
REMARK    2  A    between atoms: C4_5  and  C5_6 
REMARK    3  A    between atoms: C5_6  and  C7_8 
REMARK    4  A    between atoms: C7_8  and  C8_9 
REMARK    5  A    between atoms: C9_10  and  C10_11 
REMARK    6  A    between atoms: C17_19  and  C18_20 
REMARK    7  A    between atoms: C18_20  and  C19_21 
REMARK    8  A    between atoms: C28_33  and  C29_34 
REMARK    9  A    between atoms: C29_34  and  C30_36 
REMARK   10  A    between atoms: C30_36  and  C31_37 
REMARK   11  A    between atoms: C31_37  and  C32_38 
REMARK   12  A    between atoms: C32_38  and  O5_39 
ROOT
HETATM    1  C10 UNL     1      -1.994  48.904 -20.755  1.00  0.00     0.066 C 
HETATM    2  C11 UNL     1      -3.320  48.220 -21.031  1.00  0.00     0.166 A 
HETATM    3  O2  UNL     1      -3.253  47.005 -21.783  1.00  0.00    -0.368 OA
HETATM    4  C12 UNL     1      -3.758  48.157 -22.476  1.00  0.00     0.088 A 
HETATM    5  C13 UNL     1      -5.219  48.083 -22.782  1.00  0.00     0.049 C 
HETATM    6  C14 UNL     1      -2.781  48.753 -23.466  1.00  0.00     0.026 C 
HETATM    7  C15 UNL     1      -3.236  48.667 -24.923  1.00  0.00     0.014 C 
HETATM    8  C16 UNL     1      -2.334  50.179 -23.023  1.00  0.00     0.041 C 
HETATM    9  C17 UNL     1      -3.373  51.290 -23.292  1.00  0.00     0.095 C 
HETATM   10  N2  UNL     1      -3.868  51.631 -21.988  1.00  0.00    -0.355 N 
HETATM   11  C27 UNL     1      -3.117  51.156 -20.946  1.00  0.00     0.235 C 
HETATM   12  O3  UNL     1      -3.356  51.440 -19.785  1.00  0.00    -0.272 OA
HETATM   13  C28 UNL     1      -1.988  50.291 -21.477  1.00  0.00     0.116 C 
HETATM   14  H33 UNL     1      -4.666  52.234 -21.810  1.00  0.00     0.162 HD
ENDROOT
BRANCH   9  15
HETATM   15  C18 UNL     1      -2.789  52.534 -23.994  1.00  0.00     0.066 C 
BRANCH  15  16
HETATM   16  C19 UNL     1      -2.263  52.241 -25.363  1.00  0.00    -0.028 A 
HETATM   17  C20 UNL     1      -3.022  52.055 -26.503  1.00  0.00     0.096 A 
HETATM   18  N1  UNL     1      -2.176  51.786 -27.545  1.00  0.00    -0.365 N 
HETATM   19  C21 UNL     1      -0.871  51.790 -27.111  1.00  0.00     0.042 A 
HETATM   20  H28 UNL     1      -2.458  51.605 -28.498  1.00  0.00     0.165 HD
HETATM   21  C22 UNL     1       0.314  51.555 -27.820  1.00  0.00     0.030 A 
HETATM   22  C26 UNL     1      -0.890  52.087 -25.748  1.00  0.00    -0.002 A 
HETATM   23  C23 UNL     1       1.516  51.623 -27.112  1.00  0.00     0.002 A 
HETATM   24  C24 UNL     1       1.533  51.915 -25.752  1.00  0.00     0.001 A 
HETATM   25  C25 UNL     1       0.340  52.151 -25.061  1.00  0.00     0.014 A 
ENDBRANCH  15  16
ENDBRANCH   9  15
BRANCH  13  26
HETATM   26  C29 UNL     1      -0.591  50.905 -21.339  1.00  0.00     0.146 C 
HETATM   27  O4  UNL     1       0.402  50.168 -21.375  1.00  0.00    -0.297 OA
BRANCH  26  28
HETATM   28  C30 UNL     1      -0.421  52.414 -21.248  1.00  0.00     0.081 C 
BRANCH  28  29
HETATM   29  C31 UNL     1       1.029  52.836 -21.519  1.00  0.00     0.033 C 
BRANCH  29  30
HETATM   30  C32 UNL     1       1.320  54.261 -21.059  1.00  0.00     0.164 C 
BRANCH  30  31
HETATM   31  O5  UNL     1       2.106  54.964 -22.013  1.00  0.00    -0.401 OA
HETATM   32  H40 UNL     1       3.011  54.611 -21.996  1.00  0.00     0.209 HD
ENDBRANCH  30  31
ENDBRANCH  29  30
ENDBRANCH  28  29
ENDBRANCH  26  28
ENDBRANCH  13  26
BRANCH   1  33
HETATM   33  C9  UNL     1      -1.543  48.947 -19.301  1.00  0.00    -0.022 C 
HETATM   34  C8  UNL     1      -2.213  49.455 -18.254  1.00  0.00    -0.029 C 
BRANCH  34  35
HETATM   35  C7  UNL     1      -1.701  49.451 -16.839  1.00  0.00     0.035 C 
BRANCH  35  36
HETATM   36  C5  UNL     1      -0.202  49.096 -16.725  1.00  0.00     0.008 C 
HETATM   37  C6  UNL     1       0.159  48.487 -15.364  1.00  0.00     0.014 C 
BRANCH  36  38
HETATM   38  C4  UNL     1       0.620  50.347 -16.944  1.00  0.00    -0.013 C 
HETATM   39  C2  UNL     1       0.792  51.385 -16.103  1.00  0.00    -0.028 C 
HETATM   40  C1  UNL     1       0.196  51.563 -14.742  1.00  0.00     0.051 C 
BRANCH  39  41
HETATM   41  C3  UNL     1       1.676  52.508 -16.552  1.00  0.00     0.265 C 
HETATM   42  O1  UNL     1       2.748  52.791 -16.030  1.00  0.00    -0.302 OA
ENDBRANCH  39  41
ENDBRANCH  36  38
ENDBRANCH  35  36
ENDBRANCH  34  35
ENDBRANCH   1  33
TORSDOF 12
ENDMDL
