MODEL 1
REMARK minimizedAffinity -10.5229015
REMARK  4 active torsions:
REMARK  status: ('A' for Active; 'I' for Inactive)
REMARK    1  A    between atoms: C3_4  and  C4_5 
REMARK       I    between atoms: N3_16  and  C13_17 
REMARK    2  A    between atoms: C13_17  and  C14_19 
REMARK    3  A    between atoms: C14_19  and  C15_20 
REMARK    4  A    between atoms: C15_20  and  C16_21 
ROOT
HETATM    1  C4  UNL     1      -0.944   5.300  11.658  1.00  0.00    -0.020 A 
HETATM    2  C5  UNL     1      -1.340   4.145  10.953  1.00  0.00     0.014 A 
HETATM    3  C6  UNL     1      -2.514   3.455  11.286  1.00  0.00     0.027 A 
HETATM    4  C7  UNL     1      -3.288   3.923  12.336  1.00  0.00     0.048 A 
HETATM    5  N2  UNL     1      -4.456   3.277  12.782  1.00  0.00    -0.227 NA
HETATM    6  C8  UNL     1      -5.597   3.328  11.997  1.00  0.00     0.202 C 
HETATM    7  O1  UNL     1      -5.646   3.580  10.798  1.00  0.00    -0.280 OA
HETATM    8  C9  UNL     1      -6.838   3.085  12.816  1.00  0.00     0.102 C 
HETATM    9  C10 UNL     1      -7.599   4.299  13.373  1.00  0.00     0.001 C 
HETATM   10  C11 UNL     1      -8.341   5.141  12.336  1.00  0.00     0.025 C 
HETATM   11  C12 UNL     1      -9.454   5.945  13.026  1.00  0.00     0.126 C 
HETATM   12  N3  UNL     1      -9.045   6.603  14.280  1.00  0.00    -0.352 N 
HETATM   13  C13 UNL     1      -9.747   7.684  14.826  1.00  0.00     0.220 C 
HETATM   14  O2  UNL     1      -9.597   8.036  15.996  1.00  0.00    -0.273 OA
HETATM   15  C22 UNL     1      -8.173   5.842  15.195  1.00  0.00     0.130 C 
HETATM   16  C23 UNL     1      -6.954   5.234  14.439  1.00  0.00     0.010 C 
HETATM   17  C24 UNL     1      -6.101   6.480  14.031  1.00  0.00     0.033 C 
HETATM   18  C25 UNL     1      -4.838   6.335  13.200  1.00  0.00     0.176 C 
HETATM   19  O3  UNL     1      -3.825   5.612  13.923  1.00  0.00    -0.349 OA
HETATM   20  C26 UNL     1      -2.934   5.098  13.005  1.00  0.00     0.091 A 
HETATM   21  C27 UNL     1      -1.761   5.776  12.695  1.00  0.00     0.051 A 
HETATM   22  H7  UNL     1      -4.658   3.519  13.749  1.00  0.00     0.136 HD
ENDROOT
BRANCH  13  23
HETATM   23  C14 UNL     1     -10.693   8.425  13.894  1.00  0.00     0.107 C 
BRANCH  23  24
HETATM   24  C15 UNL     1     -11.400   7.472  12.927  1.00  0.00     0.047 C 
BRANCH  24  25
HETATM   25  C16 UNL     1     -12.812   7.178  13.379  1.00  0.00    -0.058 A 
HETATM   26  C17 UNL     1     -13.888   7.922  12.875  1.00  0.00     0.007 A 
HETATM   27  C18 UNL     1     -15.195   7.636  13.276  1.00  0.00     0.001 A 
HETATM   28  C19 UNL     1     -15.437   6.605  14.183  1.00  0.00     0.000 A 
HETATM   29  C20 UNL     1     -14.374   5.859  14.689  1.00  0.00     0.001 A 
HETATM   30  C21 UNL     1     -13.066   6.141  14.288  1.00  0.00     0.007 A 
ENDBRANCH  24  25
ENDBRANCH  23  24
ENDBRANCH  13  23
BRANCH   1  31
HETATM   31  C3  UNL     1       0.291   5.982  11.300  1.00  0.00     0.008 A 
HETATM   32  C2  UNL     1       1.543   5.403  11.242  1.00  0.00     0.123 A 
HETATM   33  N1  UNL     1       2.410   6.387  10.861  1.00  0.00    -0.307 N 
HETATM   34  C1  UNL     1       3.833   6.261  10.660  1.00  0.00     0.177 C 
HETATM   35  N4  UNL     1       1.816   7.575  10.659  1.00  0.00    -0.310 N 
HETATM   36  C28 UNL     1       0.532   7.329  10.932  1.00  0.00     0.120 A 
ATOM     37  H4  UNL     1       2.243   8.454  10.368  1.00  0.00     0.186 HD
ENDBRANCH   1  31
TORSDOF 4
ENDMDL
MODEL 2
REMARK minimizedAffinity -9.67042351
REMARK  4 active torsions:
REMARK  status: ('A' for Active; 'I' for Inactive)
REMARK    1  A    between atoms: C3_4  and  C4_5 
REMARK       I    between atoms: N3_16  and  C13_17 
REMARK    2  A    between atoms: C13_17  and  C14_19 
REMARK    3  A    between atoms: C14_19  and  C15_20 
REMARK    4  A    between atoms: C15_20  and  C16_21 
ROOT
HETATM    1  C4  UNL     1      -5.347   6.200  13.404  1.00  0.00    -0.020 A 
HETATM    2  C5  UNL     1      -4.599   5.117  12.899  1.00  0.00     0.014 A 
HETATM    3  C6  UNL     1      -3.227   5.236  12.639  1.00  0.00     0.027 A 
HETATM    4  C7  UNL     1      -2.606   6.452  12.878  1.00  0.00     0.048 A 
HETATM    5  N2  UNL     1      -1.247   6.692  12.605  1.00  0.00    -0.227 NA
HETATM    6  C8  UNL     1      -0.283   6.108  13.411  1.00  0.00     0.202 C 
HETATM    7  O1  UNL     1      -0.435   5.135  14.140  1.00  0.00    -0.280 OA
HETATM    8  C9  UNL     1       1.021   6.861  13.341  1.00  0.00     0.102 C 
HETATM    9  C10 UNL     1       1.303   7.941  14.397  1.00  0.00     0.001 C 
HETATM   10  C11 UNL     1       1.576   7.424  15.808  1.00  0.00     0.025 C 
HETATM   11  C12 UNL     1       2.349   8.487  16.606  1.00  0.00     0.126 C 
HETATM   12  N3  UNL     1       1.826   9.857  16.465  1.00  0.00    -0.352 N 
HETATM   13  C13 UNL     1       2.104  10.867  17.393  1.00  0.00     0.220 C 
HETATM   14  O2  UNL     1       1.929  12.058  17.135  1.00  0.00    -0.273 OA
HETATM   15  C22 UNL     1       1.392  10.286  15.121  1.00  0.00     0.130 C 
HETATM   16  C23 UNL     1       0.440   9.237  14.473  1.00  0.00     0.010 C 
HETATM   17  C24 UNL     1      -0.856   9.311  15.345  1.00  0.00     0.033 C 
HETATM   18  C25 UNL     1      -2.032   8.384  15.093  1.00  0.00     0.176 C 
HETATM   19  O3  UNL     1      -2.626   8.641  13.808  1.00  0.00    -0.349 OA
HETATM   20  C26 UNL     1      -3.326   7.515  13.430  1.00  0.00     0.091 A 
HETATM   21  C27 UNL     1      -4.691   7.411  13.671  1.00  0.00     0.051 A 
HETATM   22  H7  UNL     1      -1.073   7.685  12.475  1.00  0.00     0.136 HD
ENDROOT
BRANCH  13  23
HETATM   23  C14 UNL     1       2.612  10.422  18.756  1.00  0.00     0.107 C 
BRANCH  23  24
HETATM   24  C15 UNL     1       1.597  10.714  19.863  1.00  0.00     0.047 C 
BRANCH  24  25
HETATM   25  C16 UNL     1       2.187  10.454  21.231  1.00  0.00    -0.058 A 
HETATM   26  C17 UNL     1       2.213   9.155  21.758  1.00  0.00     0.007 A 
HETATM   27  C18 UNL     1       2.777   8.912  23.012  1.00  0.00     0.001 A 
HETATM   28  C19 UNL     1       3.321   9.964  23.749  1.00  0.00     0.000 A 
HETATM   29  C20 UNL     1       3.302  11.259  23.234  1.00  0.00     0.001 A 
HETATM   30  C21 UNL     1       2.739  11.505  21.978  1.00  0.00     0.007 A 
ENDBRANCH  24  25
ENDBRANCH  23  24
ENDBRANCH  13  23
BRANCH   1  31
HETATM   31  C3  UNL     1      -6.775   6.049  13.645  1.00  0.00     0.008 A 
HETATM   32  C2  UNL     1      -7.563   6.913  14.378  1.00  0.00     0.123 A 
HETATM   33  N1  UNL     1      -8.830   6.405  14.345  1.00  0.00    -0.307 N 
HETATM   34  C1  UNL     1     -10.006   6.964  14.967  1.00  0.00     0.177 C 
HETATM   35  N4  UNL     1      -8.933   5.267  13.637  1.00  0.00    -0.310 N 
HETATM   36  C28 UNL     1      -7.684   5.050  13.218  1.00  0.00     0.120 A 
ATOM     37  H4  UNL     1      -9.766   4.705  13.462  1.00  0.00     0.186 HD
ENDBRANCH   1  31
TORSDOF 4
ENDMDL
MODEL 3
REMARK minimizedAffinity -9.62777615
REMARK  4 active torsions:
REMARK  status: ('A' for Active; 'I' for Inactive)
REMARK    1  A    between atoms: C3_4  and  C4_5 
REMARK       I    between atoms: N3_16  and  C13_17 
REMARK    2  A    between atoms: C13_17  and  C14_19 
REMARK    3  A    between atoms: C14_19  and  C15_20 
REMARK    4  A    between atoms: C15_20  and  C16_21 
ROOT
HETATM    1  C4  UNL     1      -2.166   4.656  11.923  1.00  0.00    -0.020 A 
HETATM    2  C5  UNL     1      -0.870   4.651  11.370  1.00  0.00     0.014 A 
HETATM    3  C6  UNL     1      -0.019   5.759  11.496  1.00  0.00     0.027 A 
HETATM    4  C7  UNL     1      -0.477   6.877  12.174  1.00  0.00     0.048 A 
HETATM    5  N2  UNL     1       0.277   8.057  12.314  1.00  0.00    -0.227 NA
HETATM    6  C8  UNL     1       1.369   8.063  13.166  1.00  0.00     0.202 C 
HETATM    7  O1  UNL     1       1.981   7.081  13.573  1.00  0.00    -0.280 OA
HETATM    8  C9  UNL     1       1.713   9.461  13.610  1.00  0.00     0.102 C 
HETATM    9  C10 UNL     1       1.128   9.976  14.934  1.00  0.00     0.001 C 
HETATM   10  C11 UNL     1       1.705   9.340  16.198  1.00  0.00     0.025 C 
HETATM   11  C12 UNL     1       1.468  10.271  17.398  1.00  0.00     0.126 C 
HETATM   12  N3  UNL     1       0.109  10.838  17.473  1.00  0.00    -0.352 N 
HETATM   13  C13 UNL     1      -0.427  11.350  18.659  1.00  0.00     0.220 C 
HETATM   14  O2  UNL     1      -1.417  12.082  18.666  1.00  0.00    -0.273 OA
HETATM   15  C22 UNL     1      -0.512  11.284  16.211  1.00  0.00     0.130 C 
HETATM   16  C23 UNL     1      -0.406  10.188  15.109  1.00  0.00     0.010 C 
HETATM   17  C24 UNL     1      -1.339   9.043  15.622  1.00  0.00     0.033 C 
HETATM   18  C25 UNL     1      -1.472   7.733  14.866  1.00  0.00     0.176 C 
HETATM   19  O3  UNL     1      -2.078   7.939  13.577  1.00  0.00    -0.349 OA
HETATM   20  C26 UNL     1      -1.740   6.872  12.772  1.00  0.00     0.091 A 
HETATM   21  C27 UNL     1      -2.597   5.786  12.634  1.00  0.00     0.051 A 
HETATM   22  H7  UNL     1      -0.329   8.857  12.480  1.00  0.00     0.136 HD
ENDROOT
BRANCH  13  23
HETATM   23  C14 UNL     1       0.257  10.937  19.953  1.00  0.00     0.107 C 
BRANCH  23  24
HETATM   24  C15 UNL     1       1.570  11.694  20.167  1.00  0.00     0.047 C 
BRANCH  24  25
HETATM   25  C16 UNL     1       2.382  11.079  21.284  1.00  0.00    -0.058 A 
HETATM   26  C17 UNL     1       2.622  11.797  22.465  1.00  0.00     0.007 A 
HETATM   27  C18 UNL     1       3.353  11.222  23.505  1.00  0.00     0.001 A 
HETATM   28  C19 UNL     1       3.851   9.925  23.377  1.00  0.00     0.000 A 
HETATM   29  C20 UNL     1       3.617   9.203  22.208  1.00  0.00     0.001 A 
HETATM   30  C21 UNL     1       2.883   9.775  21.165  1.00  0.00     0.007 A 
ENDBRANCH  24  25
ENDBRANCH  23  24
ENDBRANCH  13  23
BRANCH   1  31
HETATM   31  C3  UNL     1      -3.032   3.497  11.756  1.00  0.00     0.008 A 
HETATM   32  C2  UNL     1      -4.412   3.519  11.745  1.00  0.00     0.123 A 
HETATM   33  N1  UNL     1      -4.820   2.229  11.557  1.00  0.00    -0.307 N 
HETATM   34  C1  UNL     1      -6.178   1.751  11.471  1.00  0.00     0.177 C 
HETATM   35  N4  UNL     1      -3.803   1.358  11.438  1.00  0.00    -0.310 N 
HETATM   36  C28 UNL     1      -2.719   2.128  11.565  1.00  0.00     0.120 A 
ATOM     37  H4  UNL     1      -3.848   0.350  11.287  1.00  0.00     0.186 HD
ENDBRANCH   1  31
TORSDOF 4
ENDMDL
MODEL 4
REMARK minimizedAffinity -9.62743855
REMARK  4 active torsions:
REMARK  status: ('A' for Active; 'I' for Inactive)
REMARK    1  A    between atoms: C3_4  and  C4_5 
REMARK       I    between atoms: N3_16  and  C13_17 
REMARK    2  A    between atoms: C13_17  and  C14_19 
REMARK    3  A    between atoms: C14_19  and  C15_20 
REMARK    4  A    between atoms: C15_20  and  C16_21 
ROOT
HETATM    1  C4  UNL     1      -4.113   5.554  13.456  1.00  0.00    -0.020 A 
HETATM    2  C5  UNL     1      -4.584   6.876  13.594  1.00  0.00     0.014 A 
HETATM    3  C6  UNL     1      -3.760   7.894  14.094  1.00  0.00     0.027 A 
HETATM    4  C7  UNL     1      -2.463   7.580  14.465  1.00  0.00     0.048 A 
HETATM    5  N2  UNL     1      -1.572   8.516  15.024  1.00  0.00    -0.227 NA
HETATM    6  C8  UNL     1      -1.038   9.506  14.215  1.00  0.00     0.202 C 
HETATM    7  O1  UNL     1      -1.488   9.891  13.142  1.00  0.00    -0.280 OA
HETATM    8  C9  UNL     1       0.245  10.050  14.787  1.00  0.00     0.102 C 
HETATM    9  C10 UNL     1       1.576   9.444  14.314  1.00  0.00     0.001 C 
HETATM   10  C11 UNL     1       1.973   9.775  12.877  1.00  0.00     0.025 C 
HETATM   11  C12 UNL     1       3.491   9.595  12.707  1.00  0.00     0.126 C 
HETATM   12  N3  UNL     1       4.030   8.359  13.302  1.00  0.00    -0.352 N 
HETATM   13  C13 UNL     1       5.258   7.812  12.914  1.00  0.00     0.220 C 
HETATM   14  O2  UNL     1       5.844   6.973  13.598  1.00  0.00    -0.273 OA
HETATM   15  C22 UNL     1       3.501   7.949  14.617  1.00  0.00     0.130 C 
HETATM   16  C23 UNL     1       1.943   7.962  14.629  1.00  0.00     0.010 C 
HETATM   17  C24 UNL     1       1.546   6.795  13.667  1.00  0.00     0.033 C 
HETATM   18  C25 UNL     1       0.093   6.504  13.335  1.00  0.00     0.176 C 
HETATM   19  O3  UNL     1      -0.626   6.069  14.503  1.00  0.00    -0.349 OA
HETATM   20  C26 UNL     1      -1.969   6.286  14.281  1.00  0.00     0.091 A 
HETATM   21  C27 UNL     1      -2.785   5.266  13.805  1.00  0.00     0.051 A 
HETATM   22  H7  UNL     1      -0.850   8.049  15.568  1.00  0.00     0.136 HD
ENDROOT
BRANCH  13  23
HETATM   23  C14 UNL     1       5.829   8.286  11.588  1.00  0.00     0.107 C 
BRANCH  23  24
HETATM   24  C15 UNL     1       4.745   8.867  10.677  1.00  0.00     0.047 C 
BRANCH  24  25
HETATM   25  C16 UNL     1       4.070   7.785   9.866  1.00  0.00    -0.058 A 
HETATM   26  C17 UNL     1       4.165   6.441  10.258  1.00  0.00     0.007 A 
HETATM   27  C18 UNL     1       3.524   5.444   9.521  1.00  0.00     0.001 A 
HETATM   28  C19 UNL     1       2.783   5.778   8.388  1.00  0.00     0.000 A 
HETATM   29  C20 UNL     1       2.682   7.111   7.991  1.00  0.00     0.001 A 
HETATM   30  C21 UNL     1       3.320   8.112   8.727  1.00  0.00     0.007 A 
ENDBRANCH  24  25
ENDBRANCH  23  24
ENDBRANCH  13  23
BRANCH   1  31
HETATM   31  C3  UNL     1      -5.000   4.515  12.951  1.00  0.00     0.008 A 
HETATM   32  C2  UNL     1      -4.631   3.474  12.123  1.00  0.00     0.123 A 
HETATM   33  N1  UNL     1      -5.758   2.735  11.902  1.00  0.00    -0.307 N 
HETATM   34  C1  UNL     1      -5.871   1.542  11.099  1.00  0.00     0.177 C 
HETATM   35  N4  UNL     1      -6.845   3.215  12.530  1.00  0.00    -0.310 N 
HETATM   36  C28 UNL     1      -6.384   4.298  13.161  1.00  0.00     0.120 A 
ATOM     37  H4  UNL     1      -7.794   2.842  12.526  1.00  0.00     0.186 HD
ENDBRANCH   1  31
TORSDOF 4
ENDMDL
MODEL 5
REMARK minimizedAffinity -9.60531807
REMARK  4 active torsions:
REMARK  status: ('A' for Active; 'I' for Inactive)
REMARK    1  A    between atoms: C3_4  and  C4_5 
REMARK       I    between atoms: N3_16  and  C13_17 
REMARK    2  A    between atoms: C13_17  and  C14_19 
REMARK    3  A    between atoms: C14_19  and  C15_20 
REMARK    4  A    between atoms: C15_20  and  C16_21 
ROOT
HETATM    1  C4  UNL     1      -9.618   7.461  14.392  1.00  0.00    -0.020 A 
HETATM    2  C5  UNL     1      -9.257   8.607  15.130  1.00  0.00     0.014 A 
HETATM    3  C6  UNL     1      -7.977   8.743  15.686  1.00  0.00     0.027 A 
HETATM    4  C7  UNL     1      -7.060   7.720  15.507  1.00  0.00     0.048 A 
HETATM    5  N2  UNL     1      -5.768   7.734  16.065  1.00  0.00    -0.227 NA
HETATM    6  C8  UNL     1      -4.817   8.596  15.542  1.00  0.00     0.202 C 
HETATM    7  O1  UNL     1      -5.033   9.597  14.869  1.00  0.00    -0.280 OA
HETATM    8  C9  UNL     1      -3.420   8.125  15.852  1.00  0.00     0.102 C 
HETATM    9  C10 UNL     1      -2.689   7.261  14.814  1.00  0.00     0.001 C 
HETATM   10  C11 UNL     1      -2.256   7.988  13.542  1.00  0.00     0.025 C 
HETATM   11  C12 UNL     1      -1.113   7.211  12.867  1.00  0.00     0.126 C 
HETATM   12  N3  UNL     1      -1.328   5.755  12.787  1.00  0.00    -0.352 N 
HETATM   13  C13 UNL     1      -0.643   4.943  11.876  1.00  0.00     0.220 C 
HETATM   14  O2  UNL     1      -0.592   3.720  12.002  1.00  0.00    -0.273 OA
HETATM   15  C22 UNL     1      -1.921   5.089  13.963  1.00  0.00     0.130 C 
HETATM   16  C23 UNL     1      -3.199   5.833  14.451  1.00  0.00     0.010 C 
HETATM   17  C24 UNL     1      -4.236   5.599  13.304  1.00  0.00     0.033 C 
HETATM   18  C25 UNL     1      -5.618   6.227  13.348  1.00  0.00     0.176 C 
HETATM   19  O3  UNL     1      -6.390   5.700  14.443  1.00  0.00    -0.349 OA
HETATM   20  C26 UNL     1      -7.390   6.604  14.732  1.00  0.00     0.091 A 
HETATM   21  C27 UNL     1      -8.663   6.452  14.195  1.00  0.00     0.051 A 
HETATM   22  H7  UNL     1      -5.403   6.789  16.159  1.00  0.00     0.136 HD
ENDROOT
BRANCH  13  23
HETATM   23  C14 UNL     1       0.019   5.644  10.700  1.00  0.00     0.107 C 
BRANCH  23  24
HETATM   24  C15 UNL     1       1.525   5.813  10.915  1.00  0.00     0.047 C 
BRANCH  24  25
HETATM   25  C16 UNL     1       2.119   6.772   9.910  1.00  0.00    -0.058 A 
HETATM   26  C17 UNL     1       1.487   6.991   8.677  1.00  0.00     0.007 A 
HETATM   27  C18 UNL     1       2.024   7.893   7.757  1.00  0.00     0.001 A 
HETATM   28  C19 UNL     1       3.196   8.586   8.060  1.00  0.00     0.000 A 
HETATM   29  C20 UNL     1       3.832   8.377   9.283  1.00  0.00     0.001 A 
HETATM   30  C21 UNL     1       3.296   7.476  10.207  1.00  0.00     0.007 A 
ENDBRANCH  24  25
ENDBRANCH  23  24
ENDBRANCH  13  23
BRANCH   1  31
HETATM   31  C3  UNL     1     -10.961   7.343  13.845  1.00  0.00     0.008 A 
HETATM   32  C2  UNL     1     -11.994   6.613  14.398  1.00  0.00     0.123 A 
HETATM   33  N1  UNL     1     -13.072   6.779  13.576  1.00  0.00    -0.307 N 
HETATM   34  C1  UNL     1     -14.388   6.212  13.743  1.00  0.00     0.177 C 
HETATM   35  N4  UNL     1     -12.823   7.573  12.520  1.00  0.00    -0.310 N 
HETATM   36  C28 UNL     1     -11.540   7.909  12.682  1.00  0.00     0.120 A 
ATOM     37  H4  UNL     1     -13.460   7.851  11.774  1.00  0.00     0.186 HD
ENDBRANCH   1  31
TORSDOF 4
ENDMDL
MODEL 6
REMARK minimizedAffinity -9.53758049
REMARK  4 active torsions:
REMARK  status: ('A' for Active; 'I' for Inactive)
REMARK    1  A    between atoms: C3_4  and  C4_5 
REMARK       I    between atoms: N3_16  and  C13_17 
REMARK    2  A    between atoms: C13_17  and  C14_19 
REMARK    3  A    between atoms: C14_19  and  C15_20 
REMARK    4  A    between atoms: C15_20  and  C16_21 
ROOT
HETATM    1  C4  UNL     1       5.451  10.156  11.794  1.00  0.00    -0.020 A 
HETATM    2  C5  UNL     1       5.764   9.378  10.661  1.00  0.00     0.014 A 
HETATM    3  C6  UNL     1       5.239   8.088  10.494  1.00  0.00     0.027 A 
HETATM    4  C7  UNL     1       4.405   7.577  11.475  1.00  0.00     0.048 A 
HETATM    5  N2  UNL     1       3.866   6.277  11.430  1.00  0.00    -0.227 NA
HETATM    6  C8  UNL     1       2.866   5.993  10.514  1.00  0.00     0.202 C 
HETATM    7  O1  UNL     1       2.605   6.630   9.500  1.00  0.00    -0.280 OA
HETATM    8  C9  UNL     1       2.054   4.797  10.941  1.00  0.00     0.102 C 
HETATM    9  C10 UNL     1       0.763   5.033  11.740  1.00  0.00     0.001 C 
HETATM   10  C11 UNL     1      -0.393   5.647  10.953  1.00  0.00     0.025 C 
HETATM   11  C12 UNL     1      -1.722   5.335  11.662  1.00  0.00     0.126 C 
HETATM   12  N3  UNL     1      -1.699   5.539  13.121  1.00  0.00    -0.352 N 
HETATM   13  C13 UNL     1      -2.865   5.715  13.874  1.00  0.00     0.220 C 
HETATM   14  O2  UNL     1      -2.878   5.586  15.098  1.00  0.00    -0.273 OA
HETATM   15  C22 UNL     1      -0.491   5.105  13.850  1.00  0.00     0.130 C 
HETATM   16  C23 UNL     1       0.804   5.645  13.173  1.00  0.00     0.010 C 
HETATM   17  C24 UNL     1       0.739   7.190  13.408  1.00  0.00     0.033 C 
HETATM   18  C25 UNL     1       1.793   8.121  12.836  1.00  0.00     0.176 C 
HETATM   19  O3  UNL     1       3.080   7.871  13.429  1.00  0.00    -0.349 OA
HETATM   20  C26 UNL     1       4.045   8.361  12.575  1.00  0.00     0.091 A 
HETATM   21  C27 UNL     1       4.577   9.632  12.758  1.00  0.00     0.051 A 
HETATM   22  H7  UNL     1       3.621   5.954  12.362  1.00  0.00     0.136 HD
ENDROOT
BRANCH  13  23
HETATM   23  C14 UNL     1      -4.121   6.101  13.109  1.00  0.00     0.107 C 
BRANCH  23  24
HETATM   24  C15 UNL     1      -5.381   5.530  13.762  1.00  0.00     0.047 C 
BRANCH  24  25
HETATM   25  C16 UNL     1      -5.826   4.256  13.079  1.00  0.00    -0.058 A 
HETATM   26  C17 UNL     1      -5.021   3.659  12.098  1.00  0.00     0.007 A 
HETATM   27  C18 UNL     1      -5.421   2.472  11.482  1.00  0.00     0.001 A 
HETATM   28  C19 UNL     1      -6.627   1.870  11.841  1.00  0.00     0.000 A 
HETATM   29  C20 UNL     1      -7.434   2.455  12.816  1.00  0.00     0.001 A 
HETATM   30  C21 UNL     1      -7.035   3.642  13.435  1.00  0.00     0.007 A 
ENDBRANCH  24  25
ENDBRANCH  23  24
ENDBRANCH  13  23
BRANCH   1  31
HETATM   31  C3  UNL     1       6.029  11.484  11.945  1.00  0.00     0.008 A 
HETATM   32  C2  UNL     1       5.326  12.641  12.216  1.00  0.00     0.123 A 
HETATM   33  N1  UNL     1       6.247  13.648  12.284  1.00  0.00    -0.307 N 
HETATM   34  C1  UNL     1       5.990  15.042  12.550  1.00  0.00     0.177 C 
HETATM   35  N4  UNL     1       7.509  13.234  12.081  1.00  0.00    -0.310 N 
HETATM   36  C28 UNL     1       7.374  11.922  11.870  1.00  0.00     0.120 A 
ATOM     37  H4  UNL     1       8.365  13.789  12.087  1.00  0.00     0.186 HD
ENDBRANCH   1  31
TORSDOF 4
ENDMDL
MODEL 7
REMARK minimizedAffinity -9.52751446
REMARK  4 active torsions:
REMARK  status: ('A' for Active; 'I' for Inactive)
REMARK    1  A    between atoms: C3_4  and  C4_5 
REMARK       I    between atoms: N3_16  and  C13_17 
REMARK    2  A    between atoms: C13_17  and  C14_19 
REMARK    3  A    between atoms: C14_19  and  C15_20 
REMARK    4  A    between atoms: C15_20  and  C16_21 
ROOT
HETATM    1  C4  UNL     1      -3.884   5.368  12.905  1.00  0.00    -0.020 A 
HETATM    2  C5  UNL     1      -2.853   4.648  12.268  1.00  0.00     0.014 A 
HETATM    3  C6  UNL     1      -1.594   5.221  12.042  1.00  0.00     0.027 A 
HETATM    4  C7  UNL     1      -1.374   6.527  12.451  1.00  0.00     0.048 A 
HETATM    5  N2  UNL     1      -0.164   7.212  12.228  1.00  0.00    -0.227 NA
HETATM    6  C8  UNL     1       0.957   6.856  12.960  1.00  0.00     0.202 C 
HETATM    7  O1  UNL     1       1.137   5.797  13.549  1.00  0.00    -0.280 OA
HETATM    8  C9  UNL     1       1.961   7.980  13.007  1.00  0.00     0.102 C 
HETATM    9  C10 UNL     1       1.926   8.945  14.202  1.00  0.00     0.001 C 
HETATM   10  C11 UNL     1       2.389   8.357  15.534  1.00  0.00     0.025 C 
HETATM   11  C12 UNL     1       2.820   9.493  16.477  1.00  0.00     0.126 C 
HETATM   12  N3  UNL     1       1.894  10.638  16.516  1.00  0.00    -0.352 N 
HETATM   13  C13 UNL     1       1.874  11.552  17.576  1.00  0.00     0.220 C 
HETATM   14  O2  UNL     1       1.331  12.653  17.478  1.00  0.00    -0.273 OA
HETATM   15  C22 UNL     1       1.308  11.084  15.238  1.00  0.00     0.130 C 
HETATM   16  C23 UNL     1       0.708   9.886  14.443  1.00  0.00     0.010 C 
HETATM   17  C24 UNL     1      -0.520   9.437  15.302  1.00  0.00     0.033 C 
HETATM   18  C25 UNL     1      -1.358   8.232  14.913  1.00  0.00     0.176 C 
HETATM   19  O3  UNL     1      -2.042   8.459  13.668  1.00  0.00    -0.349 OA
HETATM   20  C26 UNL     1      -2.370   7.231  13.133  1.00  0.00     0.091 A 
HETATM   21  C27 UNL     1      -3.628   6.677  13.342  1.00  0.00     0.051 A 
HETATM   22  H7  UNL     1      -0.311   8.218  12.236  1.00  0.00     0.136 HD
ENDROOT
BRANCH  13  23
HETATM   23  C14 UNL     1       2.537  11.112  18.871  1.00  0.00     0.107 C 
BRANCH  23  24
HETATM   24  C15 UNL     1       1.528  11.003  20.017  1.00  0.00     0.047 C 
BRANCH  24  25
HETATM   25  C16 UNL     1       2.203  10.591  21.305  1.00  0.00    -0.058 A 
HETATM   26  C17 UNL     1       2.823  11.549  22.120  1.00  0.00     0.007 A 
HETATM   27  C18 UNL     1       3.427  11.172  23.321  1.00  0.00     0.001 A 
HETATM   28  C19 UNL     1       3.417   9.835  23.719  1.00  0.00     0.000 A 
HETATM   29  C20 UNL     1       2.802   8.875  22.916  1.00  0.00     0.001 A 
HETATM   30  C21 UNL     1       2.195   9.249  21.715  1.00  0.00     0.007 A 
ENDBRANCH  24  25
ENDBRANCH  23  24
ENDBRANCH  13  23
BRANCH   1  31
HETATM   31  C3  UNL     1      -5.186   4.750  13.107  1.00  0.00     0.008 A 
HETATM   32  C2  UNL     1      -5.594   3.543  12.576  1.00  0.00     0.123 A 
HETATM   33  N1  UNL     1      -6.870   3.335  13.017  1.00  0.00    -0.307 N 
HETATM   34  C1  UNL     1      -7.716   2.203  12.729  1.00  0.00     0.177 C 
HETATM   35  N4  UNL     1      -7.330   4.321  13.806  1.00  0.00    -0.310 N 
HETATM   36  C28 UNL     1      -6.310   5.181  13.855  1.00  0.00     0.120 A 
ATOM     37  H4  UNL     1      -8.241   4.395  14.260  1.00  0.00     0.186 HD
ENDBRANCH   1  31
TORSDOF 4
ENDMDL
MODEL 8
REMARK minimizedAffinity -9.44830799
REMARK  4 active torsions:
REMARK  status: ('A' for Active; 'I' for Inactive)
REMARK    1  A    between atoms: C3_4  and  C4_5 
REMARK       I    between atoms: N3_16  and  C13_17 
REMARK    2  A    between atoms: C13_17  and  C14_19 
REMARK    3  A    between atoms: C14_19  and  C15_20 
REMARK    4  A    between atoms: C15_20  and  C16_21 
ROOT
HETATM    1  C4  UNL     1      -7.292   7.159  14.650  1.00  0.00    -0.020 A 
HETATM    2  C5  UNL     1      -6.937   8.340  15.334  1.00  0.00     0.014 A 
HETATM    3  C6  UNL     1      -5.608   8.601  15.696  1.00  0.00     0.027 A 
HETATM    4  C7  UNL     1      -4.635   7.667  15.378  1.00  0.00     0.048 A 
HETATM    5  N2  UNL     1      -3.282   7.809  15.740  1.00  0.00    -0.227 NA
HETATM    6  C8  UNL     1      -2.505   8.753  15.089  1.00  0.00     0.202 C 
HETATM    7  O1  UNL     1      -2.912   9.723  14.460  1.00  0.00    -0.280 OA
HETATM    8  C9  UNL     1      -1.038   8.419  15.187  1.00  0.00     0.102 C 
HETATM    9  C10 UNL     1      -0.389   7.620  14.047  1.00  0.00     0.001 C 
HETATM   10  C11 UNL     1      -0.219   8.374  12.730  1.00  0.00     0.025 C 
HETATM   11  C12 UNL     1       0.881   7.704  11.889  1.00  0.00     0.126 C 
HETATM   12  N3  UNL     1       0.795   6.234  11.833  1.00  0.00    -0.352 N 
HETATM   13  C13 UNL     1       1.413   5.483  10.827  1.00  0.00     0.220 C 
HETATM   14  O2  UNL     1       1.599   4.271  10.936  1.00  0.00    -0.273 OA
HETATM   15  C22 UNL     1       0.448   5.523  13.079  1.00  0.00     0.130 C 
HETATM   16  C23 UNL     1      -0.809   6.147  13.755  1.00  0.00     0.010 C 
HETATM   17  C24 UNL     1      -1.977   5.806  12.771  1.00  0.00     0.033 C 
HETATM   18  C25 UNL     1      -3.390   6.300  13.022  1.00  0.00     0.176 C 
HETATM   19  O3  UNL     1      -3.939   5.712  14.215  1.00  0.00    -0.349 OA
HETATM   20  C26 UNL     1      -4.967   6.520  14.653  1.00  0.00     0.091 A 
HETATM   21  C27 UNL     1      -6.285   6.243  14.308  1.00  0.00     0.051 A 
HETATM   22  H7  UNL     1      -2.819   6.904  15.774  1.00  0.00     0.136 HD
ENDROOT
BRANCH  13  23
HETATM   23  C14 UNL     1       1.826   6.233   9.570  1.00  0.00     0.107 C 
BRANCH  23  24
HETATM   24  C15 UNL     1       3.294   5.985   9.217  1.00  0.00     0.047 C 
BRANCH  24  25
HETATM   25  C16 UNL     1       4.210   6.901   9.996  1.00  0.00    -0.058 A 
HETATM   26  C17 UNL     1       4.215   8.281   9.744  1.00  0.00     0.007 A 
HETATM   27  C18 UNL     1       5.045   9.130  10.478  1.00  0.00     0.001 A 
HETATM   28  C19 UNL     1       5.875   8.610  11.471  1.00  0.00     0.000 A 
HETATM   29  C20 UNL     1       5.877   7.240  11.730  1.00  0.00     0.001 A 
HETATM   30  C21 UNL     1       5.046   6.388  10.998  1.00  0.00     0.007 A 
ENDBRANCH  24  25
ENDBRANCH  23  24
ENDBRANCH  13  23
BRANCH   1  31
HETATM   31  C3  UNL     1      -8.684   6.909  14.306  1.00  0.00     0.008 A 
HETATM   32  C2  UNL     1      -9.782   7.420  14.969  1.00  0.00     0.123 A 
HETATM   33  N1  UNL     1     -10.885   6.946  14.318  1.00  0.00    -0.307 N 
HETATM   34  C1  UNL     1     -12.265   7.212  14.642  1.00  0.00     0.177 C 
HETATM   35  N4  UNL     1     -10.591   6.160  13.268  1.00  0.00    -0.310 N 
HETATM   36  C28 UNL     1      -9.256   6.134  13.266  1.00  0.00     0.120 A 
ATOM     37  H4  UNL     1     -11.234   5.695  12.627  1.00  0.00     0.186 HD
ENDBRANCH   1  31
TORSDOF 4
ENDMDL
MODEL 9
REMARK minimizedAffinity -9.33916759
REMARK  4 active torsions:
REMARK  status: ('A' for Active; 'I' for Inactive)
REMARK    1  A    between atoms: C3_4  and  C4_5 
REMARK       I    between atoms: N3_16  and  C13_17 
REMARK    2  A    between atoms: C13_17  and  C14_19 
REMARK    3  A    between atoms: C14_19  and  C15_20 
REMARK    4  A    between atoms: C15_20  and  C16_21 
ROOT
HETATM    1  C4  UNL     1       1.394  10.811  19.333  1.00  0.00    -0.020 A 
HETATM    2  C5  UNL     1       0.167  11.447  19.611  1.00  0.00     0.014 A 
HETATM    3  C6  UNL     1      -0.837  11.550  18.638  1.00  0.00     0.027 A 
HETATM    4  C7  UNL     1      -0.603  11.021  17.379  1.00  0.00     0.048 A 
HETATM    5  N2  UNL     1      -1.523  11.115  16.318  1.00  0.00    -0.227 NA
HETATM    6  C8  UNL     1      -2.679  10.353  16.359  1.00  0.00     0.202 C 
HETATM    7  O1  UNL     1      -3.183   9.846  17.354  1.00  0.00    -0.280 OA
HETATM    8  C9  UNL     1      -3.253  10.153  14.979  1.00  0.00     0.102 C 
HETATM    9  C10 UNL     1      -2.869   8.885  14.201  1.00  0.00     0.001 C 
HETATM   10  C11 UNL     1      -3.465   7.583  14.734  1.00  0.00     0.025 C 
HETATM   11  C12 UNL     1      -3.471   6.524  13.618  1.00  0.00     0.126 C 
HETATM   12  N3  UNL     1      -2.218   6.442  12.848  1.00  0.00    -0.352 N 
HETATM   13  C13 UNL     1      -1.868   5.312  12.100  1.00  0.00     0.220 C 
HETATM   14  O2  UNL     1      -0.995   5.347  11.233  1.00  0.00    -0.273 OA
HETATM   15  C22 UNL     1      -1.551   7.710  12.495  1.00  0.00     0.130 C 
HETATM   16  C23 UNL     1      -1.402   8.637  13.738  1.00  0.00     0.010 C 
HETATM   17  C24 UNL     1      -0.370   7.891  14.646  1.00  0.00     0.033 C 
HETATM   18  C25 UNL     1       0.012   8.427  16.014  1.00  0.00     0.176 C 
HETATM   19  O3  UNL     1       0.700   9.686  15.902  1.00  0.00    -0.349 OA
HETATM   20  C26 UNL     1       0.588  10.341  17.110  1.00  0.00     0.091 A 
HETATM   21  C27 UNL     1       1.597  10.252  18.063  1.00  0.00     0.051 A 
HETATM   22  H7  UNL     1      -1.051  11.031  15.421  1.00  0.00     0.136 HD
ENDROOT
BRANCH  13  23
HETATM   23  C14 UNL     1      -2.605   4.022  12.425  1.00  0.00     0.107 C 
BRANCH  23  24
HETATM   24  C15 UNL     1      -3.470   3.551  11.254  1.00  0.00     0.047 C 
BRANCH  24  25
HETATM   25  C16 UNL     1      -4.844   3.130  11.721  1.00  0.00    -0.058 A 
HETATM   26  C17 UNL     1      -5.382   1.897  11.323  1.00  0.00     0.007 A 
HETATM   27  C18 UNL     1      -6.643   1.498  11.771  1.00  0.00     0.001 A 
HETATM   28  C19 UNL     1      -7.376   2.325  12.621  1.00  0.00     0.000 A 
HETATM   29  C20 UNL     1      -6.850   3.552  13.023  1.00  0.00     0.001 A 
HETATM   30  C21 UNL     1      -5.588   3.954  12.578  1.00  0.00     0.007 A 
ENDBRANCH  24  25
ENDBRANCH  23  24
ENDBRANCH  13  23
BRANCH   1  31
HETATM   31  C3  UNL     1       2.424  10.738  20.360  1.00  0.00     0.008 A 
HETATM   32  C2  UNL     1       2.286  10.140  21.597  1.00  0.00     0.123 A 
HETATM   33  N1  UNL     1       3.483  10.290  22.237  1.00  0.00    -0.307 N 
HETATM   34  C1  UNL     1       3.826   9.824  23.558  1.00  0.00     0.177 C 
HETATM   35  N4  UNL     1       4.403  10.943  21.506  1.00  0.00    -0.310 N 
HETATM   36  C28 UNL     1       3.757  11.218  20.370  1.00  0.00     0.120 A 
ATOM     37  H4  UNL     1       5.364  11.172  21.758  1.00  0.00     0.186 HD
ENDBRANCH   1  31
TORSDOF 4
ENDMDL
