MODEL 1
REMARK minimizedAffinity -8.98535252
REMARK  7 active torsions:
REMARK  status: ('A' for Active; 'I' for Inactive)
REMARK    1  A    between atoms: C2_2  and  C4_4 
REMARK    2  A    between atoms: C7_7  and  O1_9 
REMARK    3  A    between atoms: C9_10  and  C10_11 
REMARK    4  A    between atoms: C11_12  and  C12_13 
REMARK    5  A    between atoms: C14_15  and  C15_16 
REMARK    6  A    between atoms: C24_26  and  C26_28 
REMARK    7  A    between atoms: C29_32  and  O4_34 
ROOT
HETATM    1  C15 UNL     1      -0.002   5.754  10.898  1.00  0.00     0.149 C 
HETATM    2  C16 UNL     1       1.287   5.573  11.690  1.00  0.00     0.054 C 
HETATM    3  C17 UNL     1       2.196   6.736  11.236  1.00  0.00     0.050 C 
HETATM    4  C18 UNL     1       1.088   7.807  11.047  1.00  0.00     0.272 C 
HETATM    5  O2  UNL     1       0.640   8.407  12.260  1.00  0.00    -0.360 OA
HETATM    6  C19 UNL     1       1.393   9.538  12.651  1.00  0.00     0.171 C 
HETATM    7  C20 UNL     1       2.501   9.149  13.614  1.00  0.00     0.027 C 
HETATM    8  C21 UNL     1       2.834   7.661  13.645  1.00  0.00     0.012 C 
HETATM    9  C22 UNL     1       3.309   7.032  12.315  1.00  0.00     0.032 C 
HETATM   10  C23 UNL     1       4.548   7.763  11.754  1.00  0.00    -0.066 C 
HETATM   11  C24 UNL     1       5.790   7.711  12.298  1.00  0.00    -0.021 C 
HETATM   12  C25 UNL     1       6.988   8.445  11.761  1.00  0.00     0.052 C 
HETATM   13  C27 UNL     1       4.277   8.531  10.483  1.00  0.00     0.038 C 
HETATM   14  C28 UNL     1       3.736   7.635   9.370  1.00  0.00     0.042 C 
HETATM   15  C29 UNL     1       2.919   6.414   9.858  1.00  0.00     0.067 C 
HETATM   16  C30 UNL     1       3.837   5.171   9.919  1.00  0.00     0.047 C 
HETATM   17  O5  UNL     1      -0.064   7.134  10.512  1.00  0.00    -0.351 OA
ENDROOT
BRANCH   1  18
HETATM   18  C14 UNL     1      -1.229   5.443  11.710  1.00  0.00     0.011 C 
HETATM   19  C12 UNL     1      -1.802   4.241  11.926  1.00  0.00    -0.064 C 
HETATM   20  C13 UNL     1      -1.243   2.945  11.397  1.00  0.00     0.048 C 
BRANCH  19  21
HETATM   21  C11 UNL     1      -3.019   4.187  12.737  1.00  0.00     0.003 C 
HETATM   22  C10 UNL     1      -4.190   4.783  12.458  1.00  0.00    -0.018 C 
BRANCH  22  23
HETATM   23  C9  UNL     1      -5.462   4.739  13.282  1.00  0.00     0.050 C 
HETATM   24  C4  UNL     1      -6.161   6.085  13.658  1.00  0.00     0.024 C 
HETATM   25  C5  UNL     1      -7.614   5.643  13.905  1.00  0.00     0.013 C 
HETATM   26  C6  UNL     1      -7.884   4.672  12.768  1.00  0.00     0.039 C 
HETATM   27  C7  UNL     1      -6.595   3.845  12.664  1.00  0.00     0.062 C 
HETATM   28  C8  UNL     1      -6.389   3.366  11.228  1.00  0.00     0.046 C 
BRANCH  24  29
HETATM   29  C2  UNL     1      -5.511   6.858  14.808  1.00  0.00    -0.088 C 
HETATM   30  C1  UNL     1      -4.394   6.473  15.451  1.00  0.00     0.014 C 
HETATM   31  C3  UNL     1      -6.224   8.106  15.267  1.00  0.00     0.043 C 
ENDBRANCH  24  29
BRANCH  27  32
HETATM   32  O1  UNL     1      -6.744   2.660  13.462  1.00  0.00    -0.390 OA
HETATM   33  H14 UNL     1      -6.920   2.929  14.380  1.00  0.00     0.210 HD
ENDBRANCH  27  32
ENDBRANCH  22  23
ENDBRANCH  19  21
ENDBRANCH   1  18
BRANCH  15  34
HETATM   34  O4  UNL     1       1.973   6.124   8.825  1.00  0.00    -0.389 OA
HETATM   35  H44 UNL     1       2.455   5.918   8.004  1.00  0.00     0.210 HD
ENDBRANCH  15  34
BRANCH  11  36
HETATM   36  C26 UNL     1       6.104   6.899  13.514  1.00  0.00     0.265 C 
HETATM   37  O3  UNL     1       7.055   7.114  14.253  1.00  0.00    -0.302 OA
ENDBRANCH  11  36
TORSDOF 7
ENDMDL
MODEL 2
REMARK minimizedAffinity -8.94366169
REMARK  7 active torsions:
REMARK  status: ('A' for Active; 'I' for Inactive)
REMARK    1  A    between atoms: C2_2  and  C4_4 
REMARK    2  A    between atoms: C7_7  and  O1_9 
REMARK    3  A    between atoms: C9_10  and  C10_11 
REMARK    4  A    between atoms: C11_12  and  C12_13 
REMARK    5  A    between atoms: C14_15  and  C15_16 
REMARK    6  A    between atoms: C24_26  and  C26_28 
REMARK    7  A    between atoms: C29_32  and  O4_34 
ROOT
HETATM    1  C15 UNL     1      -1.731   8.773  14.372  1.00  0.00     0.149 C 
HETATM    2  C16 UNL     1      -1.129   8.771  15.772  1.00  0.00     0.054 C 
HETATM    3  C17 UNL     1      -0.945  10.264  16.125  1.00  0.00     0.050 C 
HETATM    4  C18 UNL     1      -2.208  10.807  15.403  1.00  0.00     0.272 C 
HETATM    5  O2  UNL     1      -3.424  10.612  16.121  1.00  0.00    -0.360 OA
HETATM    6  C19 UNL     1      -3.729  11.658  17.023  1.00  0.00     0.171 C 
HETATM    7  C20 UNL     1      -3.216  11.343  18.417  1.00  0.00     0.027 C 
HETATM    8  C21 UNL     1      -2.172  10.232  18.483  1.00  0.00     0.012 C 
HETATM    9  C22 UNL     1      -0.867  10.463  17.688  1.00  0.00     0.032 C 
HETATM   10  C23 UNL     1      -0.167  11.771  18.118  1.00  0.00    -0.066 C 
HETATM   11  C24 UNL     1       0.449  11.963  19.312  1.00  0.00    -0.021 C 
HETATM   12  C25 UNL     1       1.108  13.247  19.736  1.00  0.00     0.052 C 
HETATM   13  C27 UNL     1      -0.177  12.844  17.057  1.00  0.00     0.038 C 
HETATM   14  C28 UNL     1       0.485  12.381  15.760  1.00  0.00     0.042 C 
HETATM   15  C29 UNL     1       0.380  10.861  15.485  1.00  0.00     0.067 C 
HETATM   16  C30 UNL     1       1.670  10.159  15.969  1.00  0.00     0.047 C 
HETATM   17  O5  UNL     1      -2.360  10.049  14.191  1.00  0.00    -0.351 OA
ENDROOT
BRANCH   1  18
HETATM   18  C14 UNL     1      -2.777   7.709  14.190  1.00  0.00     0.011 C 
HETATM   19  C12 UNL     1      -2.595   6.380  14.033  1.00  0.00    -0.064 C 
HETATM   20  C13 UNL     1      -1.243   5.716  14.068  1.00  0.00     0.048 C 
BRANCH  19  21
HETATM   21  C11 UNL     1      -3.774   5.535  13.844  1.00  0.00     0.003 C 
HETATM   22  C10 UNL     1      -4.883   5.856  13.158  1.00  0.00    -0.018 C 
BRANCH  22  23
HETATM   23  C9  UNL     1      -6.114   4.996  12.948  1.00  0.00     0.050 C 
HETATM   24  C4  UNL     1      -5.954   3.442  12.942  1.00  0.00     0.024 C 
HETATM   25  C5  UNL     1      -7.367   2.964  13.321  1.00  0.00     0.013 C 
HETATM   26  C6  UNL     1      -7.770   3.912  14.438  1.00  0.00     0.039 C 
HETATM   27  C7  UNL     1      -7.277   5.286  13.963  1.00  0.00     0.062 C 
HETATM   28  C8  UNL     1      -6.941   6.171  15.163  1.00  0.00     0.046 C 
BRANCH  24  29
HETATM   29  C2  UNL     1      -5.393   2.850  11.648  1.00  0.00    -0.088 C 
HETATM   30  C1  UNL     1      -5.853   1.733  11.057  1.00  0.00     0.014 C 
HETATM   31  C3  UNL     1      -4.207   3.560  11.042  1.00  0.00     0.043 C 
ENDBRANCH  24  29
BRANCH  27  32
HETATM   32  O1  UNL     1      -8.350   5.945  13.270  1.00  0.00    -0.390 OA
HETATM   33  H14 UNL     1      -8.618   5.386  12.521  1.00  0.00     0.210 HD
ENDBRANCH  27  32
ENDBRANCH  22  23
ENDBRANCH  19  21
ENDBRANCH   1  18
BRANCH  15  34
HETATM   34  O4  UNL     1       0.390  10.709  14.061  1.00  0.00    -0.389 OA
HETATM   35  H44 UNL     1       1.222  11.072  13.710  1.00  0.00     0.210 HD
ENDBRANCH  15  34
BRANCH  11  36
HETATM   36  C26 UNL     1       0.540  10.894  20.354  1.00  0.00     0.265 C 
HETATM   37  O3  UNL     1       1.499  10.146  20.486  1.00  0.00    -0.302 OA
ENDBRANCH  11  36
TORSDOF 7
ENDMDL
MODEL 3
REMARK minimizedAffinity -8.76836491
REMARK  7 active torsions:
REMARK  status: ('A' for Active; 'I' for Inactive)
REMARK    1  A    between atoms: C2_2  and  C4_4 
REMARK    2  A    between atoms: C7_7  and  O1_9 
REMARK    3  A    between atoms: C9_10  and  C10_11 
REMARK    4  A    between atoms: C11_12  and  C12_13 
REMARK    5  A    between atoms: C14_15  and  C15_16 
REMARK    6  A    between atoms: C24_26  and  C26_28 
REMARK    7  A    between atoms: C29_32  and  O4_34 
ROOT
HETATM    1  C15 UNL     1      -0.577   7.299  13.665  1.00  0.00     0.149 C 
HETATM    2  C16 UNL     1      -0.138   7.596  15.095  1.00  0.00     0.054 C 
HETATM    3  C17 UNL     1       0.708   8.884  14.988  1.00  0.00     0.050 C 
HETATM    4  C18 UNL     1      -0.098   9.572  13.852  1.00  0.00     0.272 C 
HETATM    5  O2  UNL     1      -1.304  10.197  14.284  1.00  0.00    -0.360 OA
HETATM    6  C19 UNL     1      -1.135  11.535  14.707  1.00  0.00     0.171 C 
HETATM    7  C20 UNL     1      -0.922  11.610  16.209  1.00  0.00     0.027 C 
HETATM    8  C21 UNL     1      -0.535  10.291  16.870  1.00  0.00     0.012 C 
HETATM    9  C22 UNL     1       0.772   9.629  16.378  1.00  0.00     0.032 C 
HETATM   10  C23 UNL     1       1.979  10.581  16.524  1.00  0.00    -0.066 C 
HETATM   11  C24 UNL     1       2.535  10.952  17.705  1.00  0.00    -0.021 C 
HETATM   12  C25 UNL     1       3.694  11.899  17.843  1.00  0.00     0.052 C 
HETATM   13  C27 UNL     1       2.546  11.051  15.206  1.00  0.00     0.038 C 
HETATM   14  C28 UNL     1       2.989   9.888  14.320  1.00  0.00     0.042 C 
HETATM   15  C29 UNL     1       2.196   8.576  14.525  1.00  0.00     0.067 C 
HETATM   16  C30 UNL     1       2.966   7.654  15.500  1.00  0.00     0.047 C 
HETATM   17  O5  UNL     1      -0.514   8.537  12.945  1.00  0.00    -0.351 OA
ENDROOT
BRANCH   1  18
HETATM   18  C14 UNL     1      -1.988   6.787  13.588  1.00  0.00     0.011 C 
HETATM   19  C12 UNL     1      -2.950   6.850  14.532  1.00  0.00    -0.064 C 
HETATM   20  C13 UNL     1      -2.764   7.526  15.866  1.00  0.00     0.048 C 
BRANCH  19  21
HETATM   21  C11 UNL     1      -4.253   6.253  14.237  1.00  0.00     0.003 C 
HETATM   22  C10 UNL     1      -4.538   5.423  13.220  1.00  0.00    -0.018 C 
BRANCH  22  23
HETATM   23  C9  UNL     1      -5.879   4.793  12.897  1.00  0.00     0.050 C 
HETATM   24  C4  UNL     1      -5.981   3.236  12.830  1.00  0.00     0.024 C 
HETATM   25  C5  UNL     1      -7.476   2.992  13.099  1.00  0.00     0.013 C 
HETATM   26  C6  UNL     1      -7.790   3.956  14.232  1.00  0.00     0.039 C 
HETATM   27  C7  UNL     1      -7.043   5.241  13.851  1.00  0.00     0.062 C 
HETATM   28  C8  UNL     1      -6.645   6.014  15.108  1.00  0.00     0.046 C 
BRANCH  24  29
HETATM   29  C2  UNL     1      -5.440   2.602  11.546  1.00  0.00    -0.088 C 
HETATM   30  C1  UNL     1      -5.914   1.470  10.995  1.00  0.00     0.014 C 
HETATM   31  C3  UNL     1      -4.259   3.286  10.905  1.00  0.00     0.043 C 
ENDBRANCH  24  29
BRANCH  27  32
HETATM   32  O1  UNL     1      -7.941   6.097  13.125  1.00  0.00    -0.390 OA
HETATM   33  H14 UNL     1      -8.247   5.618  12.336  1.00  0.00     0.210 HD
ENDBRANCH  27  32
ENDBRANCH  22  23
ENDBRANCH  19  21
ENDBRANCH   1  18
BRANCH  15  34
HETATM   34  O4  UNL     1       2.222   7.889  13.270  1.00  0.00    -0.389 OA
HETATM   35  H44 UNL     1       3.148   7.705  13.030  1.00  0.00     0.210 HD
ENDBRANCH  15  34
BRANCH  11  36
HETATM   36  C26 UNL     1       2.041  10.444  19.023  1.00  0.00     0.265 C 
HETATM   37  O3  UNL     1       2.675   9.685  19.744  1.00  0.00    -0.302 OA
ENDBRANCH  11  36
TORSDOF 7
ENDMDL
MODEL 4
REMARK minimizedAffinity -8.76040649
REMARK  7 active torsions:
REMARK  status: ('A' for Active; 'I' for Inactive)
REMARK    1  A    between atoms: C2_2  and  C4_4 
REMARK    2  A    between atoms: C7_7  and  O1_9 
REMARK    3  A    between atoms: C9_10  and  C10_11 
REMARK    4  A    between atoms: C11_12  and  C12_13 
REMARK    5  A    between atoms: C14_15  and  C15_16 
REMARK    6  A    between atoms: C24_26  and  C26_28 
REMARK    7  A    between atoms: C29_32  and  O4_34 
ROOT
HETATM    1  C15 UNL     1      -0.756   6.731  13.953  1.00  0.00     0.149 C 
HETATM    2  C16 UNL     1      -0.273   7.192  15.323  1.00  0.00     0.054 C 
HETATM    3  C17 UNL     1       0.548   8.470  15.043  1.00  0.00     0.050 C 
HETATM    4  C18 UNL     1      -0.307   9.015  13.867  1.00  0.00     0.272 C 
HETATM    5  O2  UNL     1      -1.508   9.670  14.269  1.00  0.00    -0.360 OA
HETATM    6  C19 UNL     1      -1.345  11.050  14.532  1.00  0.00     0.171 C 
HETATM    7  C20 UNL     1      -1.082  11.296  16.008  1.00  0.00     0.027 C 
HETATM    8  C21 UNL     1      -0.652  10.065  16.799  1.00  0.00     0.012 C 
HETATM    9  C22 UNL     1       0.647   9.367  16.338  1.00  0.00     0.032 C 
HETATM   10  C23 UNL     1       1.843  10.344  16.332  1.00  0.00    -0.066 C 
HETATM   11  C24 UNL     1       2.434  10.852  17.444  1.00  0.00    -0.021 C 
HETATM   12  C25 UNL     1       3.582  11.822  17.433  1.00  0.00     0.052 C 
HETATM   13  C27 UNL     1       2.357  10.669  14.951  1.00  0.00     0.038 C 
HETATM   14  C28 UNL     1       2.789   9.419  14.185  1.00  0.00     0.042 C 
HETATM   15  C29 UNL     1       2.024   8.129  14.565  1.00  0.00     0.067 C 
HETATM   16  C30 UNL     1       2.841   7.332  15.609  1.00  0.00     0.047 C 
HETATM   17  O5  UNL     1      -0.738   7.880  13.096  1.00  0.00    -0.351 OA
ENDROOT
BRANCH   1  18
HETATM   18  C14 UNL     1      -2.160   6.196  13.984  1.00  0.00     0.011 C 
HETATM   19  C12 UNL     1      -2.681   5.178  13.266  1.00  0.00    -0.064 C 
HETATM   20  C13 UNL     1      -1.876   4.343  12.304  1.00  0.00     0.048 C 
BRANCH  19  21
HETATM   21  C11 UNL     1      -4.095   4.851  13.447  1.00  0.00     0.003 C 
HETATM   22  C10 UNL     1      -5.077   5.710  13.765  1.00  0.00    -0.018 C 
BRANCH  22  23
HETATM   23  C9  UNL     1      -6.548   5.394  13.956  1.00  0.00     0.050 C 
HETATM   24  C4  UNL     1      -7.593   6.541  13.780  1.00  0.00     0.024 C 
HETATM   25  C5  UNL     1      -8.879   5.766  13.443  1.00  0.00     0.013 C 
HETATM   26  C6  UNL     1      -8.402   4.704  12.466  1.00  0.00     0.039 C 
HETATM   27  C7  UNL     1      -7.071   4.218  13.057  1.00  0.00     0.062 C 
HETATM   28  C8  UNL     1      -6.143   3.735  11.944  1.00  0.00     0.046 C 
BRANCH  24  29
HETATM   29  C2  UNL     1      -7.707   7.506  14.962  1.00  0.00    -0.088 C 
HETATM   30  C1  UNL     1      -7.035   8.666  15.068  1.00  0.00     0.014 C 
HETATM   31  C3  UNL     1      -8.603   7.075  16.098  1.00  0.00     0.043 C 
ENDBRANCH  24  29
BRANCH  27  32
HETATM   32  O1  UNL     1      -7.328   3.072  13.886  1.00  0.00    -0.390 OA
HETATM   33  H14 UNL     1      -7.952   3.335  14.585  1.00  0.00     0.210 HD
ENDBRANCH  27  32
ENDBRANCH  22  23
ENDBRANCH  19  21
ENDBRANCH   1  18
BRANCH  15  34
HETATM   34  O4  UNL     1       2.018   7.305  13.394  1.00  0.00    -0.389 OA
HETATM   35  H44 UNL     1       2.938   7.106  13.143  1.00  0.00     0.210 HD
ENDBRANCH  15  34
BRANCH  11  36
HETATM   36  C26 UNL     1       1.994  10.490  18.827  1.00  0.00     0.265 C 
HETATM   37  O3  UNL     1       2.634   9.771  19.582  1.00  0.00    -0.302 OA
ENDBRANCH  11  36
TORSDOF 7
ENDMDL
MODEL 5
REMARK minimizedAffinity -8.76031494
REMARK  7 active torsions:
REMARK  status: ('A' for Active; 'I' for Inactive)
REMARK    1  A    between atoms: C2_2  and  C4_4 
REMARK    2  A    between atoms: C7_7  and  O1_9 
REMARK    3  A    between atoms: C9_10  and  C10_11 
REMARK    4  A    between atoms: C11_12  and  C12_13 
REMARK    5  A    between atoms: C14_15  and  C15_16 
REMARK    6  A    between atoms: C24_26  and  C26_28 
REMARK    7  A    between atoms: C29_32  and  O4_34 
ROOT
HETATM    1  C15 UNL     1      -1.772   9.737  14.222  1.00  0.00     0.149 C 
HETATM    2  C16 UNL     1      -1.042   9.529  15.544  1.00  0.00     0.054 C 
HETATM    3  C17 UNL     1      -1.073  10.910  16.233  1.00  0.00     0.050 C 
HETATM    4  C18 UNL     1      -2.474  11.361  15.737  1.00  0.00     0.272 C 
HETATM    5  O2  UNL     1      -3.563  10.789  16.457  1.00  0.00    -0.360 OA
HETATM    6  C19 UNL     1      -3.946  11.529  17.599  1.00  0.00     0.171 C 
HETATM    7  C20 UNL     1      -3.252  11.007  18.845  1.00  0.00     0.027 C 
HETATM    8  C21 UNL     1      -2.038  10.122  18.582  1.00  0.00     0.012 C 
HETATM    9  C22 UNL     1      -0.874  10.762  17.792  1.00  0.00     0.032 C 
HETATM   10  C23 UNL     1      -0.360  12.045  18.482  1.00  0.00    -0.066 C 
HETATM   11  C24 UNL     1       0.331  12.072  19.650  1.00  0.00    -0.021 C 
HETATM   12  C25 UNL     1       0.808  13.325  20.331  1.00  0.00     0.052 C 
HETATM   13  C27 UNL     1      -0.652  13.309  17.712  1.00  0.00     0.038 C 
HETATM   14  C28 UNL     1      -0.056  13.281  16.306  1.00  0.00     0.042 C 
HETATM   15  C29 UNL     1       0.065  11.871  15.680  1.00  0.00     0.067 C 
HETATM   16  C30 UNL     1       1.495  11.327  15.907  1.00  0.00     0.047 C 
HETATM   17  O5  UNL     1      -2.618  10.882  14.390  1.00  0.00    -0.351 OA
ENDROOT
BRANCH   1  18
HETATM   18  C14 UNL     1      -2.641   8.568  13.850  1.00  0.00     0.011 C 
HETATM   19  C12 UNL     1      -2.301   7.469  13.143  1.00  0.00    -0.064 C 
HETATM   20  C13 UNL     1      -0.908   7.208  12.630  1.00  0.00     0.048 C 
BRANCH  19  21
HETATM   21  C11 UNL     1      -3.332   6.466  12.880  1.00  0.00     0.003 C 
HETATM   22  C10 UNL     1      -3.201   5.135  13.008  1.00  0.00    -0.018 C 
BRANCH  22  23
HETATM   23  C9  UNL     1      -4.255   4.078  12.741  1.00  0.00     0.050 C 
HETATM   24  C4  UNL     1      -5.741   4.527  12.560  1.00  0.00     0.024 C 
HETATM   25  C5  UNL     1      -6.337   3.368  11.742  1.00  0.00     0.013 C 
HETATM   26  C6  UNL     1      -5.260   3.076  10.711  1.00  0.00     0.039 C 
HETATM   27  C7  UNL     1      -3.947   3.165  11.502  1.00  0.00     0.062 C 
HETATM   28  C8  UNL     1      -2.807   3.608  10.585  1.00  0.00     0.046 C 
BRANCH  24  29
HETATM   29  C2  UNL     1      -6.484   4.858  13.856  1.00  0.00    -0.088 C 
HETATM   30  C1  UNL     1      -6.332   5.999  14.554  1.00  0.00     0.014 C 
HETATM   31  C3  UNL     1      -7.405   3.792  14.395  1.00  0.00     0.043 C 
ENDBRANCH  24  29
BRANCH  27  32
HETATM   32  O1  UNL     1      -3.599   1.850  11.964  1.00  0.00    -0.390 OA
HETATM   33  H14 UNL     1      -4.325   1.519  12.519  1.00  0.00     0.210 HD
ENDBRANCH  27  32
ENDBRANCH  22  23
ENDBRANCH  19  21
ENDBRANCH   1  18
BRANCH  15  34
HETATM   34  O4  UNL     1      -0.042  12.048  14.264  1.00  0.00    -0.389 OA
HETATM   35  H44 UNL     1       0.680  12.628  13.962  1.00  0.00     0.210 HD
ENDBRANCH  15  34
BRANCH  11  36
HETATM   36  C26 UNL     1       0.700  10.830  20.397  1.00  0.00     0.265 C 
HETATM   37  O3  UNL     1       1.720  10.186  20.193  1.00  0.00    -0.302 OA
ENDBRANCH  11  36
TORSDOF 7
ENDMDL
MODEL 6
REMARK minimizedAffinity -8.66095161
REMARK  7 active torsions:
REMARK  status: ('A' for Active; 'I' for Inactive)
REMARK    1  A    between atoms: C2_2  and  C4_4 
REMARK    2  A    between atoms: C7_7  and  O1_9 
REMARK    3  A    between atoms: C9_10  and  C10_11 
REMARK    4  A    between atoms: C11_12  and  C12_13 
REMARK    5  A    between atoms: C14_15  and  C15_16 
REMARK    6  A    between atoms: C24_26  and  C26_28 
REMARK    7  A    between atoms: C29_32  and  O4_34 
ROOT
HETATM    1  C15 UNL     1       1.580   6.343  10.750  1.00  0.00     0.149 C 
HETATM    2  C16 UNL     1       2.692   6.258  11.789  1.00  0.00     0.054 C 
HETATM    3  C17 UNL     1       3.335   7.663  11.795  1.00  0.00     0.050 C 
HETATM    4  C18 UNL     1       2.043   8.486  11.539  1.00  0.00     0.272 C 
HETATM    5  O2  UNL     1       1.225   8.669  12.692  1.00  0.00    -0.360 OA
HETATM    6  C19 UNL     1       1.564   9.808  13.458  1.00  0.00     0.171 C 
HETATM    7  C20 UNL     1       2.525   9.447  14.577  1.00  0.00     0.027 C 
HETATM    8  C21 UNL     1       3.224   8.100  14.415  1.00  0.00     0.012 C 
HETATM    9  C22 UNL     1       4.097   7.923  13.152  1.00  0.00     0.032 C 
HETATM   10  C23 UNL     1       5.186   9.015  13.059  1.00  0.00    -0.066 C 
HETATM   11  C24 UNL     1       6.268   9.101  13.874  1.00  0.00    -0.021 C 
HETATM   12  C25 UNL     1       7.312  10.180  13.795  1.00  0.00     0.052 C 
HETATM   13  C27 UNL     1       4.977   9.987  11.924  1.00  0.00     0.038 C 
HETATM   14  C28 UNL     1       4.917   9.289  10.567  1.00  0.00     0.042 C 
HETATM   15  C29 UNL     1       4.371   7.841  10.605  1.00  0.00     0.067 C 
HETATM   16  C30 UNL     1       5.552   6.845  10.662  1.00  0.00     0.047 C 
HETATM   17  O5  UNL     1       1.236   7.729  10.621  1.00  0.00    -0.351 OA
ENDROOT
BRANCH   1  18
HETATM   18  C14 UNL     1       0.344   5.593  11.162  1.00  0.00     0.011 C 
HETATM   19  C12 UNL     1      -0.092   5.328  12.411  1.00  0.00    -0.064 C 
HETATM   20  C13 UNL     1       0.606   5.811  13.656  1.00  0.00     0.048 C 
BRANCH  19  21
HETATM   21  C11 UNL     1      -1.321   4.550  12.568  1.00  0.00     0.003 C 
HETATM   22  C10 UNL     1      -2.577   5.012  12.453  1.00  0.00    -0.018 C 
BRANCH  22  23
HETATM   23  C9  UNL     1      -3.863   4.224  12.611  1.00  0.00     0.050 C 
HETATM   24  C4  UNL     1      -5.204   5.004  12.802  1.00  0.00     0.024 C 
HETATM   25  C5  UNL     1      -6.249   3.984  12.317  1.00  0.00     0.013 C 
HETATM   26  C6  UNL     1      -5.615   3.400  11.065  1.00  0.00     0.039 C 
HETATM   27  C7  UNL     1      -4.139   3.210  11.444  1.00  0.00     0.062 C 
HETATM   28  C8  UNL     1      -3.256   3.330  10.203  1.00  0.00     0.046 C 
BRANCH  24  29
HETATM   29  C2  UNL     1      -5.440   5.558  14.208  1.00  0.00    -0.088 C 
HETATM   30  C1  UNL     1      -4.502   6.163  14.958  1.00  0.00     0.014 C 
HETATM   31  C3  UNL     1      -6.816   5.351  14.790  1.00  0.00     0.043 C 
ENDBRANCH  24  29
BRANCH  27  32
HETATM   32  O1  UNL     1      -3.959   1.872  11.934  1.00  0.00    -0.390 OA
HETATM   33  H14 UNL     1      -4.541   1.747  12.703  1.00  0.00     0.210 HD
ENDBRANCH  27  32
ENDBRANCH  22  23
ENDBRANCH  19  21
ENDBRANCH   1  18
BRANCH  15  34
HETATM   34  O4  UNL     1       3.755   7.610   9.334  1.00  0.00    -0.389 OA
HETATM   35  H44 UNL     1       4.424   7.714   8.634  1.00  0.00     0.210 HD
ENDBRANCH  15  34
BRANCH  11  36
HETATM   36  C26 UNL     1       6.540   8.109  14.960  1.00  0.00     0.265 C 
HETATM   37  O3  UNL     1       6.632   8.399  16.145  1.00  0.00    -0.302 OA
ENDBRANCH  11  36
TORSDOF 7
ENDMDL
MODEL 7
REMARK minimizedAffinity -8.61673069
REMARK  7 active torsions:
REMARK  status: ('A' for Active; 'I' for Inactive)
REMARK    1  A    between atoms: C2_2  and  C4_4 
REMARK    2  A    between atoms: C7_7  and  O1_9 
REMARK    3  A    between atoms: C9_10  and  C10_11 
REMARK    4  A    between atoms: C11_12  and  C12_13 
REMARK    5  A    between atoms: C14_15  and  C15_16 
REMARK    6  A    between atoms: C24_26  and  C26_28 
REMARK    7  A    between atoms: C29_32  and  O4_34 
ROOT
HETATM    1  C15 UNL     1      -0.215   6.108  11.087  1.00  0.00     0.149 C 
HETATM    2  C16 UNL     1       1.070   5.810  11.852  1.00  0.00     0.054 C 
HETATM    3  C17 UNL     1       2.088   6.850  11.333  1.00  0.00     0.050 C 
HETATM    4  C18 UNL     1       1.099   8.031  11.135  1.00  0.00     0.272 C 
HETATM    5  O2  UNL     1       0.755   8.716  12.337  1.00  0.00    -0.360 OA
HETATM    6  C19 UNL     1       1.639   9.769  12.668  1.00  0.00     0.171 C 
HETATM    7  C20 UNL     1       2.725   9.291  13.616  1.00  0.00     0.027 C 
HETATM    8  C21 UNL     1       2.892   7.776  13.692  1.00  0.00     0.012 C 
HETATM    9  C22 UNL     1       3.257   7.056  12.374  1.00  0.00     0.032 C 
HETATM   10  C23 UNL     1       4.552   7.626  11.756  1.00  0.00    -0.066 C 
HETATM   11  C24 UNL     1       5.796   7.454  12.269  1.00  0.00    -0.021 C 
HETATM   12  C25 UNL     1       7.051   8.032  11.677  1.00  0.00     0.052 C 
HETATM   13  C27 UNL     1       4.331   8.378  10.465  1.00  0.00     0.038 C 
HETATM   14  C28 UNL     1       3.662   7.512   9.399  1.00  0.00     0.042 C 
HETATM   15  C29 UNL     1       2.731   6.406   9.951  1.00  0.00     0.067 C 
HETATM   16  C30 UNL     1       3.507   5.071  10.033  1.00  0.00     0.047 C 
HETATM   17  O5  UNL     1      -0.135   7.472  10.653  1.00  0.00    -0.351 OA
ENDROOT
BRANCH   1  18
HETATM   18  C14 UNL     1      -1.444   5.962  11.939  1.00  0.00     0.011 C 
HETATM   19  C12 UNL     1      -2.322   4.938  11.966  1.00  0.00    -0.064 C 
HETATM   20  C13 UNL     1      -2.172   3.690  11.134  1.00  0.00     0.048 C 
BRANCH  19  21
HETATM   21  C11 UNL     1      -3.470   5.030  12.869  1.00  0.00     0.003 C 
HETATM   22  C10 UNL     1      -4.462   5.934  12.807  1.00  0.00    -0.018 C 
BRANCH  22  23
HETATM   23  C9  UNL     1      -5.659   6.047  13.730  1.00  0.00     0.050 C 
HETATM   24  C4  UNL     1      -6.448   4.751  14.101  1.00  0.00     0.024 C 
HETATM   25  C5  UNL     1      -7.115   5.141  15.432  1.00  0.00     0.013 C 
HETATM   26  C6  UNL     1      -6.012   5.874  16.176  1.00  0.00     0.039 C 
HETATM   27  C7  UNL     1      -5.347   6.746  15.101  1.00  0.00     0.062 C 
HETATM   28  C8  UNL     1      -3.874   6.971  15.440  1.00  0.00     0.046 C 
BRANCH  24  29
HETATM   29  C2  UNL     1      -7.403   4.238  13.021  1.00  0.00    -0.088 C 
HETATM   30  C1  UNL     1      -8.175   5.024  12.248  1.00  0.00     0.014 C 
HETATM   31  C3  UNL     1      -7.506   2.740  12.870  1.00  0.00     0.043 C 
ENDBRANCH  24  29
BRANCH  27  32
HETATM   32  O1  UNL     1      -5.962   8.044  15.118  1.00  0.00    -0.390 OA
HETATM   33  H14 UNL     1      -6.913   7.933  14.946  1.00  0.00     0.210 HD
ENDBRANCH  27  32
ENDBRANCH  22  23
ENDBRANCH  19  21
ENDBRANCH   1  18
BRANCH  15  34
HETATM   34  O4  UNL     1       1.729   6.189   8.952  1.00  0.00    -0.389 OA
HETATM   35  H44 UNL     1       2.161   5.903   8.127  1.00  0.00     0.210 HD
ENDBRANCH  15  34
BRANCH  11  36
HETATM   36  C26 UNL     1       6.054   6.652  13.505  1.00  0.00     0.265 C 
HETATM   37  O3  UNL     1       6.345   7.140  14.589  1.00  0.00    -0.302 OA
ENDBRANCH  11  36
TORSDOF 7
ENDMDL
MODEL 8
REMARK minimizedAffinity -8.52662563
REMARK  7 active torsions:
REMARK  status: ('A' for Active; 'I' for Inactive)
REMARK    1  A    between atoms: C2_2  and  C4_4 
REMARK    2  A    between atoms: C7_7  and  O1_9 
REMARK    3  A    between atoms: C9_10  and  C10_11 
REMARK    4  A    between atoms: C11_12  and  C12_13 
REMARK    5  A    between atoms: C14_15  and  C15_16 
REMARK    6  A    between atoms: C24_26  and  C26_28 
REMARK    7  A    between atoms: C29_32  and  O4_34 
ROOT
HETATM    1  C15 UNL     1      -0.500   6.743  14.804  1.00  0.00     0.149 C 
HETATM    2  C16 UNL     1       0.051   8.110  14.414  1.00  0.00     0.054 C 
HETATM    3  C17 UNL     1       1.576   7.901  14.292  1.00  0.00     0.050 C 
HETATM    4  C18 UNL     1       1.545   6.455  13.726  1.00  0.00     0.272 C 
HETATM    5  O2  UNL     1       1.252   6.376  12.334  1.00  0.00    -0.360 OA
HETATM    6  C19 UNL     1       2.393   6.467  11.503  1.00  0.00     0.171 C 
HETATM    7  C20 UNL     1       2.630   7.899  11.057  1.00  0.00     0.027 C 
HETATM    8  C21 UNL     1       1.895   8.958  11.874  1.00  0.00     0.012 C 
HETATM    9  C22 UNL     1       2.223   9.017  13.383  1.00  0.00     0.032 C 
HETATM   10  C23 UNL     1       3.734   9.224  13.625  1.00  0.00    -0.066 C 
HETATM   11  C24 UNL     1       4.410  10.373  13.367  1.00  0.00    -0.021 C 
HETATM   12  C25 UNL     1       5.886  10.561  13.582  1.00  0.00     0.052 C 
HETATM   13  C27 UNL     1       4.422   8.028  14.237  1.00  0.00     0.038 C 
HETATM   14  C28 UNL     1       3.800   7.623  15.572  1.00  0.00     0.042 C 
HETATM   15  C29 UNL     1       2.292   7.944  15.710  1.00  0.00     0.067 C 
HETATM   16  C30 UNL     1       2.117   9.291  16.448  1.00  0.00     0.047 C 
HETATM   17  O5  UNL     1       0.463   5.770  14.379  1.00  0.00    -0.351 OA
ENDROOT
BRANCH   1  18
HETATM   18  C14 UNL     1      -1.806   6.432  14.129  1.00  0.00     0.011 C 
HETATM   19  C12 UNL     1      -3.015   6.987  14.357  1.00  0.00    -0.064 C 
HETATM   20  C13 UNL     1      -3.246   8.102  15.345  1.00  0.00     0.048 C 
BRANCH  19  21
HETATM   21  C11 UNL     1      -4.160   6.499  13.589  1.00  0.00     0.003 C 
HETATM   22  C10 UNL     1      -4.838   5.359  13.805  1.00  0.00    -0.018 C 
BRANCH  22  23
HETATM   23  C9  UNL     1      -6.026   4.835  13.022  1.00  0.00     0.050 C 
HETATM   24  C4  UNL     1      -6.148   3.296  12.781  1.00  0.00     0.024 C 
HETATM   25  C5  UNL     1      -7.658   3.119  12.546  1.00  0.00     0.013 C 
HETATM   26  C6  UNL     1      -8.285   4.005  13.610  1.00  0.00     0.039 C 
HETATM   27  C7  UNL     1      -7.418   5.272  13.603  1.00  0.00     0.062 C 
HETATM   28  C8  UNL     1      -7.415   5.918  14.988  1.00  0.00     0.046 C 
BRANCH  24  29
HETATM   29  C2  UNL     1      -5.249   2.737  11.676  1.00  0.00    -0.088 C 
HETATM   30  C1  UNL     1      -4.229   3.407  11.110  1.00  0.00     0.014 C 
HETATM   31  C3  UNL     1      -5.585   1.356  11.170  1.00  0.00     0.043 C 
ENDBRANCH  24  29
BRANCH  27  32
HETATM   32  O1  UNL     1      -8.015   6.233  12.717  1.00  0.00    -0.390 OA
HETATM   33  H14 UNL     1      -8.071   5.837  11.831  1.00  0.00     0.210 HD
ENDBRANCH  27  32
ENDBRANCH  22  23
ENDBRANCH  19  21
ENDBRANCH   1  18
BRANCH  15  34
HETATM   34  O4  UNL     1       1.751   6.962  16.600  1.00  0.00    -0.389 OA
HETATM   35  H44 UNL     1       2.204   7.031  17.459  1.00  0.00     0.210 HD
ENDBRANCH  15  34
BRANCH  11  36
HETATM   36  C26 UNL     1       3.741  11.598  12.831  1.00  0.00     0.265 C 
HETATM   37  O3  UNL     1       3.665  12.657  13.438  1.00  0.00    -0.302 OA
ENDBRANCH  11  36
TORSDOF 7
ENDMDL
MODEL 9
REMARK minimizedAffinity -8.38508987
REMARK  7 active torsions:
REMARK  status: ('A' for Active; 'I' for Inactive)
REMARK    1  A    between atoms: C2_2  and  C4_4 
REMARK    2  A    between atoms: C7_7  and  O1_9 
REMARK    3  A    between atoms: C9_10  and  C10_11 
REMARK    4  A    between atoms: C11_12  and  C12_13 
REMARK    5  A    between atoms: C14_15  and  C15_16 
REMARK    6  A    between atoms: C24_26  and  C26_28 
REMARK    7  A    between atoms: C29_32  and  O4_34 
ROOT
HETATM    1  C15 UNL     1      -1.374   8.016  14.271  1.00  0.00     0.149 C 
HETATM    2  C16 UNL     1      -0.742   8.467  12.959  1.00  0.00     0.054 C 
HETATM    3  C17 UNL     1       0.651   7.800  12.942  1.00  0.00     0.050 C 
HETATM    4  C18 UNL     1       0.257   6.473  13.647  1.00  0.00     0.272 C 
HETATM    5  O2  UNL     1      -0.394   5.529  12.801  1.00  0.00    -0.360 OA
HETATM    6  C19 UNL     1       0.495   4.671  12.113  1.00  0.00     0.171 C 
HETATM    7  C20 UNL     1       0.823   5.217  10.734  1.00  0.00     0.027 C 
HETATM    8  C21 UNL     1       0.491   6.692  10.531  1.00  0.00     0.012 C 
HETATM    9  C22 UNL     1       1.202   7.695  11.467  1.00  0.00     0.032 C 
HETATM   10  C23 UNL     1       2.738   7.558  11.381  1.00  0.00    -0.066 C 
HETATM   11  C24 UNL     1       3.490   7.924  10.312  1.00  0.00    -0.021 C 
HETATM   12  C25 UNL     1       4.982   7.766  10.223  1.00  0.00     0.052 C 
HETATM   13  C27 UNL     1       3.372   7.011  12.637  1.00  0.00     0.038 C 
HETATM   14  C28 UNL     1       3.060   7.869  13.863  1.00  0.00     0.042 C 
HETATM   15  C29 UNL     1       1.705   8.615  13.806  1.00  0.00     0.067 C 
HETATM   16  C30 UNL     1       1.931  10.059  13.301  1.00  0.00     0.047 C 
HETATM   17  O5  UNL     1      -0.711   6.804  14.657  1.00  0.00    -0.351 OA
ENDROOT
BRANCH   1  18
HETATM   18  C14 UNL     1      -2.841   7.721  14.136  1.00  0.00     0.011 C 
HETATM   19  C12 UNL     1      -3.508   6.612  14.522  1.00  0.00    -0.064 C 
HETATM   20  C13 UNL     1      -2.855   5.454  15.232  1.00  0.00     0.048 C 
BRANCH  19  21
HETATM   21  C11 UNL     1      -4.945   6.539  14.260  1.00  0.00     0.003 C 
HETATM   22  C10 UNL     1      -5.760   5.515  14.566  1.00  0.00    -0.018 C 
BRANCH  22  23
HETATM   23  C9  UNL     1      -7.250   5.419  14.305  1.00  0.00     0.050 C 
HETATM   24  C4  UNL     1      -8.058   6.734  14.061  1.00  0.00     0.024 C 
HETATM   25  C5  UNL     1      -9.276   6.229  13.267  1.00  0.00     0.013 C 
HETATM   26  C6  UNL     1      -8.668   5.244  12.281  1.00  0.00     0.039 C 
HETATM   27  C7  UNL     1      -7.630   4.474  13.109  1.00  0.00     0.062 C 
HETATM   28  C8  UNL     1      -6.486   4.000  12.214  1.00  0.00     0.046 C 
BRANCH  24  29
HETATM   29  C2  UNL     1      -8.391   7.537  15.320  1.00  0.00    -0.088 C 
HETATM   30  C1  UNL     1      -8.172   7.111  16.577  1.00  0.00     0.014 C 
HETATM   31  C3  UNL     1      -9.058   8.873  15.108  1.00  0.00     0.043 C 
ENDBRANCH  24  29
BRANCH  27  32
HETATM   32  O1  UNL     1      -8.248   3.285  13.629  1.00  0.00    -0.390 OA
HETATM   33  H14 UNL     1      -9.009   3.550  14.172  1.00  0.00     0.210 HD
ENDBRANCH  27  32
ENDBRANCH  22  23
ENDBRANCH  19  21
ENDBRANCH   1  18
BRANCH  15  34
HETATM   34  O4  UNL     1       1.270   8.762  15.161  1.00  0.00    -0.389 OA
HETATM   35  H44 UNL     1       1.934   9.279  15.652  1.00  0.00     0.210 HD
ENDBRANCH  15  34
BRANCH  11  36
HETATM   36  C26 UNL     1       2.898   8.537   9.082  1.00  0.00     0.265 C 
HETATM   37  O3  UNL     1       2.702   7.927   8.040  1.00  0.00    -0.302 OA
ENDBRANCH  11  36
TORSDOF 7
ENDMDL
