MODEL 1
REMARK minimizedAffinity -9.17129898
REMARK  8 active torsions:
REMARK  status: ('A' for Active; 'I' for Inactive)
REMARK    1  A    between atoms: C2_2  and  C4_4 
REMARK    2  A    between atoms: C2_2  and  N1_12 
REMARK    3  A    between atoms: C4_4  and  C5_5 
REMARK    4  A    between atoms: C5_5  and  C6_6 
REMARK    5  A    between atoms: N1_12  and  C12_13 
REMARK    6  A    between atoms: C12_13  and  C13_14 
REMARK    7  A    between atoms: C13_14  and  O1_15 
REMARK    8  A    between atoms: C13_14  and  C14_16 
ROOT
HETATM    1  C13 UNL     1       1.192  53.928 -23.906  1.00  0.00     0.179 C 
ENDROOT
BRANCH   1   2
HETATM    2  C12 UNL     1       0.083  53.688 -24.966  1.00  0.00     0.306 C 
BRANCH   2   3
HETATM    3  N1  UNL     1       0.665  53.440 -26.295  1.00  0.00     0.095 N 
HETATM    4  H16 UNL     1       0.175  54.015 -26.985  1.00  0.00     0.317 HD
BRANCH   3   5
HETATM    5  C2  UNL     1       0.718  52.037 -26.738  1.00  0.00     0.151 C 
HETATM    6  C1  UNL     1       0.475  51.891 -28.250  1.00  0.00     0.048 C 
HETATM    7  C3  UNL     1       2.090  51.419 -26.388  1.00  0.00     0.048 C 
BRANCH   5   8
HETATM    8  C4  UNL     1      -0.360  51.247 -25.942  1.00  0.00     0.045 C 
BRANCH   8   9
HETATM    9  C5  UNL     1      -1.814  51.669 -26.210  1.00  0.00     0.041 C 
BRANCH   9  10
HETATM   10  C6  UNL     1      -2.695  50.463 -26.438  1.00  0.00    -0.058 A 
HETATM   11  C7  UNL     1      -3.225  50.199 -27.708  1.00  0.00     0.007 A 
HETATM   12  C8  UNL     1      -4.018  49.070 -27.924  1.00  0.00     0.001 A 
HETATM   13  C9  UNL     1      -4.278  48.191 -26.875  1.00  0.00     0.000 A 
HETATM   14  C10 UNL     1      -3.750  48.441 -25.610  1.00  0.00     0.001 A 
HETATM   15  C11 UNL     1      -2.963  49.573 -25.391  1.00  0.00     0.007 A 
ENDBRANCH   9  10
ENDBRANCH   8   9
ENDBRANCH   5   8
ENDBRANCH   3   5
ENDBRANCH   2   3
ENDBRANCH   1   2
BRANCH   1  16
HETATM   16  O1  UNL     1       1.430  55.341 -23.792  1.00  0.00    -0.389 OA
HETATM   17  H20 UNL     1       0.562  55.767 -23.701  1.00  0.00     0.210 HD
ENDBRANCH   1  16
BRANCH   1  18
HETATM   18  C14 UNL     1       0.927  53.391 -22.510  1.00  0.00    -0.027 A 
HETATM   19  C15 UNL     1       1.212  54.224 -21.410  1.00  0.00     0.012 A 
HETATM   20  C16 UNL     1       1.011  53.788 -20.099  1.00  0.00     0.031 A 
HETATM   21  C17 UNL     1       0.504  52.511 -19.870  1.00  0.00     0.041 A 
HETATM   22  C18 UNL     1       0.224  51.658 -20.939  1.00  0.00    -0.030 A 
HETATM   23  N2  UNL     1       0.293  52.072 -18.559  1.00  0.00    -0.327 N 
HETATM   24  C19 UNL     1       0.446  52.097 -22.253  1.00  0.00     0.019 A 
HETATM   25  C20 UNL     1      -0.204  50.246 -20.654  1.00  0.00     0.050 C 
HETATM   26  C21 UNL     1      -1.014  50.165 -19.371  1.00  0.00     0.108 C 
HETATM   27  C22 UNL     1      -0.362  50.918 -18.233  1.00  0.00     0.222 C 
HETATM   28  O2  UNL     1      -0.490  50.572 -17.062  1.00  0.00    -0.273 OA
HETATM   29  H28 UNL     1       0.609  52.634 -17.780  1.00  0.00     0.169 HD
ENDBRANCH   1  18
TORSDOF 8
ENDMDL
MODEL 2
REMARK minimizedAffinity -9.05476475
REMARK  8 active torsions:
REMARK  status: ('A' for Active; 'I' for Inactive)
REMARK    1  A    between atoms: C2_2  and  C4_4 
REMARK    2  A    between atoms: C2_2  and  N1_12 
REMARK    3  A    between atoms: C4_4  and  C5_5 
REMARK    4  A    between atoms: C5_5  and  C6_6 
REMARK    5  A    between atoms: N1_12  and  C12_13 
REMARK    6  A    between atoms: C12_13  and  C13_14 
REMARK    7  A    between atoms: C13_14  and  O1_15 
REMARK    8  A    between atoms: C13_14  and  C14_16 
ROOT
HETATM    1  C13 UNL     1       1.018  53.475 -23.881  1.00  0.00     0.179 C 
ENDROOT
BRANCH   1   2
HETATM    2  C12 UNL     1       0.132  53.440 -25.156  1.00  0.00     0.306 C 
BRANCH   2   3
HETATM    3  N1  UNL     1       0.950  53.265 -26.366  1.00  0.00     0.095 N 
HETATM    4  H16 UNL     1       0.588  53.875 -27.104  1.00  0.00     0.317 HD
BRANCH   3   5
HETATM    5  C2  UNL     1       1.100  51.888 -26.865  1.00  0.00     0.151 C 
HETATM    6  C1  UNL     1       1.045  51.812 -28.401  1.00  0.00     0.048 C 
HETATM    7  C3  UNL     1       2.440  51.288 -26.381  1.00  0.00     0.048 C 
BRANCH   5   8
HETATM    8  C4  UNL     1      -0.039  51.031 -26.244  1.00  0.00     0.045 C 
BRANCH   8   9
HETATM    9  C5  UNL     1      -1.235  50.760 -27.171  1.00  0.00     0.041 C 
BRANCH   9  10
HETATM   10  C6  UNL     1      -2.299  49.954 -26.461  1.00  0.00    -0.058 A 
HETATM   11  C7  UNL     1      -3.218  49.189 -27.191  1.00  0.00     0.007 A 
HETATM   12  C8  UNL     1      -4.184  48.425 -26.534  1.00  0.00     0.001 A 
HETATM   13  C9  UNL     1      -4.232  48.412 -25.141  1.00  0.00     0.000 A 
HETATM   14  C10 UNL     1      -3.318  49.164 -24.406  1.00  0.00     0.001 A 
HETATM   15  C11 UNL     1      -2.357  49.934 -25.062  1.00  0.00     0.007 A 
ENDBRANCH   9  10
ENDBRANCH   8   9
ENDBRANCH   5   8
ENDBRANCH   3   5
ENDBRANCH   2   3
ENDBRANCH   1   2
BRANCH   1  16
HETATM   16  O1  UNL     1       1.412  54.833 -23.624  1.00  0.00    -0.389 OA
HETATM   17  H20 UNL     1       0.607  55.375 -23.679  1.00  0.00     0.210 HD
ENDBRANCH   1  16
BRANCH   1  18
HETATM   18  C14 UNL     1       0.402  52.924 -22.608  1.00  0.00    -0.027 A 
HETATM   19  C15 UNL     1      -0.782  52.167 -22.712  1.00  0.00     0.012 A 
HETATM   20  C16 UNL     1      -1.413  51.647 -21.580  1.00  0.00     0.031 A 
HETATM   21  C17 UNL     1      -0.855  51.863 -20.323  1.00  0.00     0.041 A 
HETATM   22  C18 UNL     1       0.311  52.619 -20.186  1.00  0.00    -0.030 A 
HETATM   23  N2  UNL     1      -1.478  51.337 -19.187  1.00  0.00    -0.327 N 
HETATM   24  C19 UNL     1       0.928  53.154 -21.326  1.00  0.00     0.019 A 
HETATM   25  C20 UNL     1       0.817  52.937 -18.807  1.00  0.00     0.050 C 
HETATM   26  C21 UNL     1       0.510  51.811 -17.835  1.00  0.00     0.108 C 
HETATM   27  C22 UNL     1      -0.922  51.339 -17.938  1.00  0.00     0.222 C 
HETATM   28  O2  UNL     1      -1.533  50.887 -16.974  1.00  0.00    -0.273 OA
HETATM   29  H28 UNL     1      -2.386  50.898 -19.265  1.00  0.00     0.169 HD
ENDBRANCH   1  18
TORSDOF 8
ENDMDL
MODEL 3
REMARK minimizedAffinity -8.71038723
REMARK  8 active torsions:
REMARK  status: ('A' for Active; 'I' for Inactive)
REMARK    1  A    between atoms: C2_2  and  C4_4 
REMARK    2  A    between atoms: C2_2  and  N1_12 
REMARK    3  A    between atoms: C4_4  and  C5_5 
REMARK    4  A    between atoms: C5_5  and  C6_6 
REMARK    5  A    between atoms: N1_12  and  C12_13 
REMARK    6  A    between atoms: C12_13  and  C13_14 
REMARK    7  A    between atoms: C13_14  and  O1_15 
REMARK    8  A    between atoms: C13_14  and  C14_16 
ROOT
HETATM    1  C13 UNL     1       0.199  52.827 -24.400  1.00  0.00     0.179 C 
ENDROOT
BRANCH   1   2
HETATM    2  C12 UNL     1      -1.287  52.704 -24.831  1.00  0.00     0.306 C 
BRANCH   2   3
HETATM    3  N1  UNL     1      -1.802  51.349 -24.582  1.00  0.00     0.095 N 
HETATM    4  H16 UNL     1      -1.734  50.803 -25.444  1.00  0.00     0.317 HD
BRANCH   3   5
HETATM    5  C2  UNL     1      -3.160  51.254 -24.020  1.00  0.00     0.151 C 
HETATM    6  C1  UNL     1      -3.268  51.915 -22.634  1.00  0.00     0.048 C 
HETATM    7  C3  UNL     1      -4.179  51.919 -24.973  1.00  0.00     0.048 C 
BRANCH   5   8
HETATM    8  C4  UNL     1      -3.532  49.747 -23.926  1.00  0.00     0.045 C 
BRANCH   8   9
HETATM    9  C5  UNL     1      -2.954  48.859 -25.040  1.00  0.00     0.041 C 
BRANCH   9  10
HETATM   10  C6  UNL     1      -4.018  48.498 -26.051  1.00  0.00    -0.058 A 
HETATM   11  C7  UNL     1      -3.714  48.453 -27.418  1.00  0.00     0.007 A 
HETATM   12  C8  UNL     1      -4.691  48.094 -28.349  1.00  0.00     0.001 A 
HETATM   13  C9  UNL     1      -5.975  47.767 -27.920  1.00  0.00     0.000 A 
HETATM   14  C10 UNL     1      -6.285  47.802 -26.561  1.00  0.00     0.001 A 
HETATM   15  C11 UNL     1      -5.312  48.168 -25.631  1.00  0.00     0.007 A 
ENDBRANCH   9  10
ENDBRANCH   8   9
ENDBRANCH   5   8
ENDBRANCH   3   5
ENDBRANCH   2   3
ENDBRANCH   1   2
BRANCH   1  16
HETATM   16  O1  UNL     1       0.762  54.005 -25.000  1.00  0.00    -0.389 OA
HETATM   17  H20 UNL     1       0.140  54.732 -24.832  1.00  0.00     0.210 HD
ENDBRANCH   1  16
BRANCH   1  18
HETATM   18  C14 UNL     1       0.473  52.893 -22.908  1.00  0.00    -0.027 A 
HETATM   19  C15 UNL     1       1.218  53.982 -22.414  1.00  0.00     0.012 A 
HETATM   20  C16 UNL     1       1.523  54.095 -21.056  1.00  0.00     0.031 A 
HETATM   21  C17 UNL     1       1.069  53.124 -20.166  1.00  0.00     0.041 A 
HETATM   22  C18 UNL     1       0.339  52.027 -20.628  1.00  0.00    -0.030 A 
HETATM   23  N2  UNL     1       1.365  53.238 -18.804  1.00  0.00    -0.327 N 
HETATM   24  C19 UNL     1       0.053  51.911 -21.996  1.00  0.00     0.019 A 
HETATM   25  C20 UNL     1      -0.029  50.937 -19.662  1.00  0.00     0.050 C 
HETATM   26  C21 UNL     1      -0.271  51.493 -18.269  1.00  0.00     0.108 C 
HETATM   27  C22 UNL     1       0.821  52.444 -17.833  1.00  0.00     0.222 C 
HETATM   28  O2  UNL     1       1.143  52.575 -16.656  1.00  0.00    -0.273 OA
HETATM   29  H28 UNL     1       1.996  53.958 -18.481  1.00  0.00     0.169 HD
ENDBRANCH   1  18
TORSDOF 8
ENDMDL
MODEL 4
REMARK minimizedAffinity -8.69880867
REMARK  8 active torsions:
REMARK  status: ('A' for Active; 'I' for Inactive)
REMARK    1  A    between atoms: C2_2  and  C4_4 
REMARK    2  A    between atoms: C2_2  and  N1_12 
REMARK    3  A    between atoms: C4_4  and  C5_5 
REMARK    4  A    between atoms: C5_5  and  C6_6 
REMARK    5  A    between atoms: N1_12  and  C12_13 
REMARK    6  A    between atoms: C12_13  and  C13_14 
REMARK    7  A    between atoms: C13_14  and  O1_15 
REMARK    8  A    between atoms: C13_14  and  C14_16 
ROOT
HETATM    1  C13 UNL     1       0.221  52.776 -24.075  1.00  0.00     0.179 C 
ENDROOT
BRANCH   1   2
HETATM    2  C12 UNL     1      -1.250  52.901 -24.557  1.00  0.00     0.306 C 
BRANCH   2   3
HETATM    3  N1  UNL     1      -1.751  51.616 -25.069  1.00  0.00     0.095 N 
HETATM    4  H16 UNL     1      -1.331  50.856 -24.528  1.00  0.00     0.317 HD
BRANCH   3   5
HETATM    5  C2  UNL     1      -1.585  51.373 -26.512  1.00  0.00     0.151 C 
HETATM    6  C1  UNL     1      -1.698  52.666 -27.340  1.00  0.00     0.048 C 
HETATM    7  C3  UNL     1      -0.212  50.720 -26.788  1.00  0.00     0.048 C 
BRANCH   5   8
HETATM    8  C4  UNL     1      -2.676  50.357 -26.952  1.00  0.00     0.045 C 
BRANCH   8   9
HETATM    9  C5  UNL     1      -2.506  48.932 -26.400  1.00  0.00     0.041 C 
BRANCH   9  10
HETATM   10  C6  UNL     1      -3.604  48.598 -25.416  1.00  0.00    -0.058 A 
HETATM   11  C7  UNL     1      -3.337  48.551 -24.041  1.00  0.00     0.007 A 
HETATM   12  C8  UNL     1      -4.357  48.268 -23.131  1.00  0.00     0.001 A 
HETATM   13  C9  UNL     1      -5.654  48.040 -23.587  1.00  0.00     0.000 A 
HETATM   14  C10 UNL     1      -5.931  48.092 -24.952  1.00  0.00     0.001 A 
HETATM   15  C11 UNL     1      -4.911  48.368 -25.863  1.00  0.00     0.007 A 
ENDBRANCH   9  10
ENDBRANCH   8   9
ENDBRANCH   5   8
ENDBRANCH   3   5
ENDBRANCH   2   3
ENDBRANCH   1   2
BRANCH   1  16
HETATM   16  O1  UNL     1       0.992  53.841 -24.655  1.00  0.00    -0.389 OA
HETATM   17  H20 UNL     1       0.495  54.663 -24.509  1.00  0.00     0.210 HD
ENDBRANCH   1  16
BRANCH   1  18
HETATM   18  C14 UNL     1       0.452  52.803 -22.575  1.00  0.00    -0.027 A 
HETATM   19  C15 UNL     1       1.195  53.871 -22.034  1.00  0.00     0.012 A 
HETATM   20  C16 UNL     1       1.462  53.948 -20.665  1.00  0.00     0.031 A 
HETATM   21  C17 UNL     1       0.971  52.962 -19.813  1.00  0.00     0.041 A 
HETATM   22  C18 UNL     1       0.241  51.886 -20.321  1.00  0.00    -0.030 A 
HETATM   23  N2  UNL     1       1.228  53.040 -18.440  1.00  0.00    -0.327 N 
HETATM   24  C19 UNL     1      -0.007  51.806 -21.700  1.00  0.00     0.019 A 
HETATM   25  C20 UNL     1      -0.167  50.777 -19.393  1.00  0.00     0.050 C 
HETATM   26  C21 UNL     1      -0.443  51.304 -17.995  1.00  0.00     0.108 C 
HETATM   27  C22 UNL     1       0.647  52.230 -17.505  1.00  0.00     0.222 C 
HETATM   28  O2  UNL     1       0.936  52.329 -16.316  1.00  0.00    -0.273 OA
HETATM   29  H28 UNL     1       1.859  53.745 -18.082  1.00  0.00     0.169 HD
ENDBRANCH   1  18
TORSDOF 8
ENDMDL
MODEL 5
REMARK minimizedAffinity -8.61867714
REMARK  8 active torsions:
REMARK  status: ('A' for Active; 'I' for Inactive)
REMARK    1  A    between atoms: C2_2  and  C4_4 
REMARK    2  A    between atoms: C2_2  and  N1_12 
REMARK    3  A    between atoms: C4_4  and  C5_5 
REMARK    4  A    between atoms: C5_5  and  C6_6 
REMARK    5  A    between atoms: N1_12  and  C12_13 
REMARK    6  A    between atoms: C12_13  and  C13_14 
REMARK    7  A    between atoms: C13_14  and  O1_15 
REMARK    8  A    between atoms: C13_14  and  C14_16 
ROOT
HETATM    1  C13 UNL     1       0.517  52.681 -26.033  1.00  0.00     0.179 C 
ENDROOT
BRANCH   1   2
HETATM    2  C12 UNL     1       0.082  51.503 -26.947  1.00  0.00     0.306 C 
BRANCH   2   3
HETATM    3  N1  UNL     1      -1.166  51.817 -27.658  1.00  0.00     0.095 N 
HETATM    4  H16 UNL     1      -1.305  52.830 -27.655  1.00  0.00     0.317 HD
BRANCH   3   5
HETATM    5  C2  UNL     1      -2.381  51.130 -27.188  1.00  0.00     0.151 C 
HETATM    6  C1  UNL     1      -3.208  51.997 -26.222  1.00  0.00     0.048 C 
HETATM    7  C3  UNL     1      -3.269  50.734 -28.390  1.00  0.00     0.048 C 
BRANCH   5   8
HETATM    8  C4  UNL     1      -1.942  49.814 -26.486  1.00  0.00     0.045 C 
BRANCH   8   9
HETATM    9  C5  UNL     1      -2.928  48.641 -26.615  1.00  0.00     0.041 C 
BRANCH   9  10
HETATM   10  C6  UNL     1      -3.767  48.500 -25.366  1.00  0.00    -0.058 A 
HETATM   11  C7  UNL     1      -5.148  48.277 -25.458  1.00  0.00     0.007 A 
HETATM   12  C8  UNL     1      -5.918  48.121 -24.305  1.00  0.00     0.001 A 
HETATM   13  C9  UNL     1      -5.313  48.177 -23.050  1.00  0.00     0.000 A 
HETATM   14  C10 UNL     1      -3.940  48.392 -22.949  1.00  0.00     0.001 A 
HETATM   15  C11 UNL     1      -3.170  48.555 -24.101  1.00  0.00     0.007 A 
ENDBRANCH   9  10
ENDBRANCH   8   9
ENDBRANCH   5   8
ENDBRANCH   3   5
ENDBRANCH   2   3
ENDBRANCH   1   2
BRANCH   1  16
HETATM   16  O1  UNL     1      -0.204  53.862 -26.421  1.00  0.00    -0.389 OA
HETATM   17  H20 UNL     1      -1.141  53.612 -26.489  1.00  0.00     0.210 HD
ENDBRANCH   1  16
BRANCH   1  18
HETATM   18  C14 UNL     1       0.322  52.492 -24.539  1.00  0.00    -0.027 A 
HETATM   19  C15 UNL     1      -0.455  51.402 -24.100  1.00  0.00     0.012 A 
HETATM   20  C16 UNL     1      -0.690  51.180 -22.741  1.00  0.00     0.031 A 
HETATM   21  C17 UNL     1      -0.134  52.040 -21.798  1.00  0.00     0.041 A 
HETATM   22  C18 UNL     1       0.631  53.136 -22.203  1.00  0.00    -0.030 A 
HETATM   23  N2  UNL     1      -0.360  51.817 -20.436  1.00  0.00    -0.327 N 
HETATM   24  C19 UNL     1       0.848  53.363 -23.570  1.00  0.00     0.019 A 
HETATM   25  C20 UNL     1       1.113  54.112 -21.168  1.00  0.00     0.050 C 
HETATM   26  C21 UNL     1       1.399  53.418 -19.847  1.00  0.00     0.108 C 
HETATM   27  C22 UNL     1       0.281  52.489 -19.433  1.00  0.00     0.222 C 
HETATM   28  O2  UNL     1       0.017  52.267 -18.255  1.00  0.00    -0.273 OA
HETATM   29  H28 UNL     1      -1.012  51.103 -20.141  1.00  0.00     0.169 HD
ENDBRANCH   1  18
TORSDOF 8
ENDMDL
MODEL 6
REMARK minimizedAffinity -8.5824337
REMARK  8 active torsions:
REMARK  status: ('A' for Active; 'I' for Inactive)
REMARK    1  A    between atoms: C2_2  and  C4_4 
REMARK    2  A    between atoms: C2_2  and  N1_12 
REMARK    3  A    between atoms: C4_4  and  C5_5 
REMARK    4  A    between atoms: C5_5  and  C6_6 
REMARK    5  A    between atoms: N1_12  and  C12_13 
REMARK    6  A    between atoms: C12_13  and  C13_14 
REMARK    7  A    between atoms: C13_14  and  O1_15 
REMARK    8  A    between atoms: C13_14  and  C14_16 
ROOT
HETATM    1  C13 UNL     1      -0.456  51.868 -23.001  1.00  0.00     0.179 C 
ENDROOT
BRANCH   1   2
HETATM    2  C12 UNL     1      -1.923  51.422 -23.247  1.00  0.00     0.306 C 
BRANCH   2   3
HETATM    3  N1  UNL     1      -1.976  50.076 -23.837  1.00  0.00     0.095 N 
HETATM    4  H16 UNL     1      -1.025  49.773 -24.061  1.00  0.00     0.317 HD
BRANCH   3   5
HETATM    5  C2  UNL     1      -2.858  49.904 -25.004  1.00  0.00     0.151 C 
HETATM    6  C1  UNL     1      -3.812  48.706 -24.847  1.00  0.00     0.048 C 
HETATM    7  C3  UNL     1      -3.694  51.184 -25.234  1.00  0.00     0.048 C 
BRANCH   5   8
HETATM    8  C4  UNL     1      -1.957  49.711 -26.257  1.00  0.00     0.045 C 
BRANCH   8   9
HETATM    9  C5  UNL     1      -1.664  50.991 -27.056  1.00  0.00     0.041 C 
BRANCH   9  10
HETATM   10  C6  UNL     1      -0.177  51.251 -27.136  1.00  0.00    -0.058 A 
HETATM   11  C7  UNL     1       0.668  50.881 -26.080  1.00  0.00     0.007 A 
HETATM   12  C8  UNL     1       2.044  51.098 -26.165  1.00  0.00     0.001 A 
HETATM   13  C9  UNL     1       2.588  51.677 -27.310  1.00  0.00     0.000 A 
HETATM   14  C10 UNL     1       1.757  52.044 -28.367  1.00  0.00     0.001 A 
HETATM   15  C11 UNL     1       0.381  51.834 -28.280  1.00  0.00     0.007 A 
ENDBRANCH   9  10
ENDBRANCH   8   9
ENDBRANCH   5   8
ENDBRANCH   3   5
ENDBRANCH   2   3
ENDBRANCH   1   2
BRANCH   1  16
HETATM   16  O1  UNL     1      -0.217  53.095 -23.711  1.00  0.00    -0.389 OA
HETATM   17  H20 UNL     1      -0.954  53.691 -23.500  1.00  0.00     0.210 HD
ENDBRANCH   1  16
BRANCH   1  18
HETATM   18  C14 UNL     1      -0.041  52.082 -21.556  1.00  0.00    -0.027 A 
HETATM   19  C15 UNL     1       0.697  53.240 -21.239  1.00  0.00     0.012 A 
HETATM   20  C16 UNL     1       1.127  53.490 -19.934  1.00  0.00     0.031 A 
HETATM   21  C17 UNL     1       0.809  52.590 -18.921  1.00  0.00     0.041 A 
HETATM   22  C18 UNL     1       0.089  51.428 -19.207  1.00  0.00    -0.030 A 
HETATM   23  N2  UNL     1       1.230  52.840 -17.611  1.00  0.00    -0.327 N 
HETATM   24  C19 UNL     1      -0.324  51.174 -20.523  1.00  0.00     0.019 A 
HETATM   25  C20 UNL     1      -0.131  50.418 -18.116  1.00  0.00     0.050 C 
HETATM   26  C21 UNL     1      -0.262  51.093 -16.760  1.00  0.00     0.108 C 
HETATM   27  C22 UNL     1       0.821  52.120 -16.524  1.00  0.00     0.222 C 
HETATM   28  O2  UNL     1       1.250  52.372 -15.402  1.00  0.00    -0.273 OA
HETATM   29  H28 UNL     1       1.855  53.611 -17.419  1.00  0.00     0.169 HD
ENDBRANCH   1  18
TORSDOF 8
ENDMDL
MODEL 7
REMARK minimizedAffinity -8.49675274
REMARK  8 active torsions:
REMARK  status: ('A' for Active; 'I' for Inactive)
REMARK    1  A    between atoms: C2_2  and  C4_4 
REMARK    2  A    between atoms: C2_2  and  N1_12 
REMARK    3  A    between atoms: C4_4  and  C5_5 
REMARK    4  A    between atoms: C5_5  and  C6_6 
REMARK    5  A    between atoms: N1_12  and  C12_13 
REMARK    6  A    between atoms: C12_13  and  C13_14 
REMARK    7  A    between atoms: C13_14  and  O1_15 
REMARK    8  A    between atoms: C13_14  and  C14_16 
ROOT
HETATM    1  C13 UNL     1      -2.754  51.416 -27.659  1.00  0.00     0.179 C 
ENDROOT
BRANCH   1   2
HETATM    2  C12 UNL     1      -1.217  51.378 -27.876  1.00  0.00     0.306 C 
BRANCH   2   3
HETATM    3  N1  UNL     1      -0.524  50.891 -26.674  1.00  0.00     0.095 N 
HETATM    4  H16 UNL     1      -1.220  50.605 -25.981  1.00  0.00     0.317 HD
BRANCH   3   5
HETATM    5  C2  UNL     1       0.460  51.803 -26.067  1.00  0.00     0.151 C 
HETATM    6  C1  UNL     1       1.910  51.365 -26.338  1.00  0.00     0.048 C 
HETATM    7  C3  UNL     1       0.261  53.238 -26.607  1.00  0.00     0.048 C 
BRANCH   5   8
HETATM    8  C4  UNL     1       0.189  51.844 -24.536  1.00  0.00     0.045 C 
BRANCH   8   9
HETATM    9  C5  UNL     1       0.543  53.170 -23.844  1.00  0.00     0.041 C 
BRANCH   9  10
HETATM   10  C6  UNL     1       0.487  53.027 -22.340  1.00  0.00    -0.058 A 
HETATM   11  C7  UNL     1       1.273  53.846 -21.518  1.00  0.00     0.007 A 
HETATM   12  C8  UNL     1       1.202  53.731 -20.129  1.00  0.00     0.001 A 
HETATM   13  C9  UNL     1       0.338  52.804 -19.550  1.00  0.00     0.000 A 
HETATM   14  C10 UNL     1      -0.453  51.990 -20.359  1.00  0.00     0.001 A 
HETATM   15  C11 UNL     1      -0.377  52.099 -21.748  1.00  0.00     0.007 A 
ENDBRANCH   9  10
ENDBRANCH   8   9
ENDBRANCH   5   8
ENDBRANCH   3   5
ENDBRANCH   2   3
ENDBRANCH   1   2
BRANCH   1  16
HETATM   16  O1  UNL     1      -3.387  50.611 -28.668  1.00  0.00    -0.389 OA
HETATM   17  H20 UNL     1      -2.915  49.762 -28.689  1.00  0.00     0.210 HD
ENDBRANCH   1  16
BRANCH   1  18
HETATM   18  C14 UNL     1      -3.264  50.948 -26.308  1.00  0.00    -0.027 A 
HETATM   19  C15 UNL     1      -3.570  49.582 -26.147  1.00  0.00     0.012 A 
HETATM   20  C16 UNL     1      -4.061  49.087 -24.937  1.00  0.00     0.031 A 
HETATM   21  C17 UNL     1      -4.238  49.953 -23.862  1.00  0.00     0.041 A 
HETATM   22  C18 UNL     1      -3.955  51.314 -23.994  1.00  0.00    -0.030 A 
HETATM   23  N2  UNL     1      -4.722  49.460 -22.646  1.00  0.00    -0.327 N 
HETATM   24  C19 UNL     1      -3.480  51.807 -25.218  1.00  0.00     0.019 A 
HETATM   25  C20 UNL     1      -4.274  52.240 -22.854  1.00  0.00     0.050 C 
HETATM   26  C21 UNL     1      -4.102  51.543 -21.515  1.00  0.00     0.108 C 
HETATM   27  C22 UNL     1      -4.761  50.183 -21.486  1.00  0.00     0.222 C 
HETATM   28  O2  UNL     1      -5.225  49.703 -20.457  1.00  0.00    -0.273 OA
HETATM   29  H28 UNL     1      -5.046  48.504 -22.579  1.00  0.00     0.169 HD
ENDBRANCH   1  18
TORSDOF 8
ENDMDL
MODEL 8
REMARK minimizedAffinity -8.3630743
REMARK  8 active torsions:
REMARK  status: ('A' for Active; 'I' for Inactive)
REMARK    1  A    between atoms: C2_2  and  C4_4 
REMARK    2  A    between atoms: C2_2  and  N1_12 
REMARK    3  A    between atoms: C4_4  and  C5_5 
REMARK    4  A    between atoms: C5_5  and  C6_6 
REMARK    5  A    between atoms: N1_12  and  C12_13 
REMARK    6  A    between atoms: C12_13  and  C13_14 
REMARK    7  A    between atoms: C13_14  and  O1_15 
REMARK    8  A    between atoms: C13_14  and  C14_16 
ROOT
HETATM    1  C13 UNL     1      -4.245  52.265 -23.020  1.00  0.00     0.179 C 
ENDROOT
BRANCH   1   2
HETATM    2  C12 UNL     1      -5.340  51.431 -23.738  1.00  0.00     0.306 C 
BRANCH   2   3
HETATM    3  N1  UNL     1      -6.480  51.172 -22.845  1.00  0.00     0.095 N 
HETATM    4  H16 UNL     1      -6.348  51.695 -21.976  1.00  0.00     0.317 HD
BRANCH   3   5
HETATM    5  C2  UNL     1      -6.780  49.759 -22.554  1.00  0.00     0.151 C 
HETATM    6  C1  UNL     1      -7.139  49.529 -21.076  1.00  0.00     0.048 C 
HETATM    7  C3  UNL     1      -7.950  49.270 -23.437  1.00  0.00     0.048 C 
BRANCH   5   8
HETATM    8  C4  UNL     1      -5.529  48.920 -22.939  1.00  0.00     0.045 C 
BRANCH   8   9
HETATM    9  C5  UNL     1      -5.739  47.918 -24.087  1.00  0.00     0.041 C 
BRANCH   9  10
HETATM   10  C6  UNL     1      -4.795  48.202 -25.233  1.00  0.00    -0.058 A 
HETATM   11  C7  UNL     1      -5.247  48.141 -26.558  1.00  0.00     0.007 A 
HETATM   12  C8  UNL     1      -4.381  48.428 -27.615  1.00  0.00     0.001 A 
HETATM   13  C9  UNL     1      -3.060  48.789 -27.355  1.00  0.00     0.000 A 
HETATM   14  C10 UNL     1      -2.604  48.858 -26.040  1.00  0.00     0.001 A 
HETATM   15  C11 UNL     1      -3.466  48.565 -24.983  1.00  0.00     0.007 A 
ENDBRANCH   9  10
ENDBRANCH   8   9
ENDBRANCH   5   8
ENDBRANCH   3   5
ENDBRANCH   2   3
ENDBRANCH   1   2
BRANCH   1  16
HETATM   16  O1  UNL     1      -4.143  51.823 -21.656  1.00  0.00    -0.389 OA
HETATM   17  H20 UNL     1      -4.089  50.853 -21.676  1.00  0.00     0.210 HD
ENDBRANCH   1  16
BRANCH   1  18
HETATM   18  C14 UNL     1      -2.852  52.225 -23.623  1.00  0.00    -0.027 A 
HETATM   19  C15 UNL     1      -1.749  52.141 -22.750  1.00  0.00     0.012 A 
HETATM   20  C16 UNL     1      -0.440  52.119 -23.236  1.00  0.00     0.031 A 
HETATM   21  C17 UNL     1      -0.216  52.165 -24.609  1.00  0.00     0.041 A 
HETATM   22  C18 UNL     1      -1.288  52.260 -25.499  1.00  0.00    -0.030 A 
HETATM   23  N2  UNL     1       1.093  52.135 -25.101  1.00  0.00    -0.327 N 
HETATM   24  C19 UNL     1      -2.599  52.300 -25.002  1.00  0.00     0.019 A 
HETATM   25  C20 UNL     1      -1.007  52.431 -26.965  1.00  0.00     0.050 C 
HETATM   26  C21 UNL     1       0.268  51.710 -27.369  1.00  0.00     0.108 C 
HETATM   27  C22 UNL     1       1.412  51.994 -26.423  1.00  0.00     0.222 C 
HETATM   28  O2  UNL     1       2.582  52.004 -26.795  1.00  0.00    -0.273 OA
HETATM   29  H28 UNL     1       1.875  52.192 -24.462  1.00  0.00     0.169 HD
ENDBRANCH   1  18
TORSDOF 8
ENDMDL
MODEL 9
REMARK minimizedAffinity -8.27121449
REMARK  8 active torsions:
REMARK  status: ('A' for Active; 'I' for Inactive)
REMARK    1  A    between atoms: C2_2  and  C4_4 
REMARK    2  A    between atoms: C2_2  and  N1_12 
REMARK    3  A    between atoms: C4_4  and  C5_5 
REMARK    4  A    between atoms: C5_5  and  C6_6 
REMARK    5  A    between atoms: N1_12  and  C12_13 
REMARK    6  A    between atoms: C12_13  and  C13_14 
REMARK    7  A    between atoms: C13_14  and  O1_15 
REMARK    8  A    between atoms: C13_14  and  C14_16 
ROOT
HETATM    1  C13 UNL     1      -3.742  48.736 -23.243  1.00  0.00     0.179 C 
ENDROOT
BRANCH   1   2
HETATM    2  C12 UNL     1      -2.291  49.177 -22.909  1.00  0.00     0.306 C 
BRANCH   2   3
HETATM    3  N1  UNL     1      -1.862  50.288 -23.772  1.00  0.00     0.095 N 
HETATM    4  H16 UNL     1      -0.986  50.032 -24.233  1.00  0.00     0.317 HD
BRANCH   3   5
HETATM    5  C2  UNL     1      -1.740  51.609 -23.132  1.00  0.00     0.151 C 
HETATM    6  C1  UNL     1      -2.800  52.604 -23.636  1.00  0.00     0.048 C 
HETATM    7  C3  UNL     1      -1.870  51.472 -21.598  1.00  0.00     0.048 C 
BRANCH   5   8
HETATM    8  C4  UNL     1      -0.313  52.150 -23.428  1.00  0.00     0.045 C 
BRANCH   8   9
HETATM    9  C5  UNL     1      -0.234  53.235 -24.513  1.00  0.00     0.041 C 
BRANCH   9  10
HETATM   10  C6  UNL     1       0.389  52.692 -25.778  1.00  0.00    -0.058 A 
HETATM   11  C7  UNL     1      -0.201  52.939 -27.026  1.00  0.00     0.007 A 
HETATM   12  C8  UNL     1       0.389  52.459 -28.196  1.00  0.00     0.001 A 
HETATM   13  C9  UNL     1       1.579  51.736 -28.130  1.00  0.00     0.000 A 
HETATM   14  C10 UNL     1       2.177  51.490 -26.895  1.00  0.00     0.001 A 
HETATM   15  C11 UNL     1       1.584  51.964 -25.724  1.00  0.00     0.007 A 
ENDBRANCH   9  10
ENDBRANCH   8   9
ENDBRANCH   5   8
ENDBRANCH   3   5
ENDBRANCH   2   3
ENDBRANCH   1   2
BRANCH   1  16
HETATM   16  O1  UNL     1      -4.657  49.717 -22.727  1.00  0.00    -0.389 OA
HETATM   17  H20 UNL     1      -4.329  50.586 -23.012  1.00  0.00     0.210 HD
ENDBRANCH   1  16
BRANCH   1  18
HETATM   18  C14 UNL     1      -4.070  48.525 -24.710  1.00  0.00    -0.027 A 
HETATM   19  C15 UNL     1      -3.044  48.714 -25.657  1.00  0.00     0.012 A 
HETATM   20  C16 UNL     1      -3.281  48.556 -27.024  1.00  0.00     0.031 A 
HETATM   21  C17 UNL     1      -4.550  48.188 -27.463  1.00  0.00     0.041 A 
HETATM   22  C18 UNL     1      -5.590  48.004 -26.550  1.00  0.00    -0.030 A 
HETATM   23  N2  UNL     1      -4.790  48.020 -28.831  1.00  0.00    -0.327 N 
HETATM   24  C19 UNL     1      -5.349  48.183 -25.180  1.00  0.00     0.019 A 
HETATM   25  C20 UNL     1      -6.974  47.728 -27.066  1.00  0.00     0.050 C 
HETATM   26  C21 UNL     1      -6.931  46.927 -28.356  1.00  0.00     0.108 C 
HETATM   27  C22 UNL     1      -5.939  47.490 -29.348  1.00  0.00     0.222 C 
HETATM   28  O2  UNL     1      -6.101  47.395 -30.561  1.00  0.00    -0.273 OA
HETATM   29  H28 UNL     1      -4.078  48.271 -29.504  1.00  0.00     0.169 HD
ENDBRANCH   1  18
TORSDOF 8
ENDMDL
