MODEL 1
REMARK minimizedAffinity -8.34123421
REMARK CNNscore 0.310431629
REMARK CNNaffinity 7.14952517
REMARK  11 active torsions:
REMARK  status: ('A' for Active; 'I' for Inactive)
REMARK    1  A    between atoms: C3_3  and  O1_4 
REMARK    2  A    between atoms: N1_14  and  O2_16 
REMARK    3  A    between atoms: O2_16  and  C13_17 
REMARK    4  A    between atoms: C13_17  and  C14_18 
REMARK       I    between atoms: C14_18  and  N2_20 
REMARK    5  A    between atoms: N2_20  and  C15_21 
REMARK    6  A    between atoms: C15_21  and  C16_22 
REMARK    7  A    between atoms: C15_21  and  C17_25 
REMARK    8  A    between atoms: C16_22  and  O5_24 
REMARK    9  A    between atoms: C17_25  and  O6_26 
REMARK   10  A    between atoms: C17_25  and  C18_27 
REMARK   11  A    between atoms: C22_31  and  N3_32 
ROOT
HETATM    1  C1  UNL     1     -14.431  15.278  13.050  1.00  0.00     0.015 C 
HETATM    2  C2  UNL     1     -13.696  14.727  13.823  1.00  0.00    -0.078 C 
HETATM    3  C3  UNL     1     -12.838  14.040  14.803  1.00  0.00     0.128 C 
HETATM    4  C4  UNL     1     -11.344  14.185  14.487  1.00  0.00     0.052 C 
HETATM    5  C5  UNL     1     -10.670  12.943  15.086  1.00  0.00     0.010 C 
HETATM    6  C6  UNL     1     -11.794  12.055  15.656  1.00  0.00     0.002 C 
HETATM    7  C7  UNL     1     -11.526  10.533  15.638  1.00  0.00    -0.004 C 
HETATM    8  C8  UNL     1     -10.192  10.192  16.316  1.00  0.00     0.010 C 
HETATM    9  C9  UNL     1      -9.995   8.684  16.421  1.00  0.00     0.035 C 
HETATM   10  C10 UNL     1     -10.120   7.987  15.087  1.00  0.00    -0.069 C 
HETATM   11  C11 UNL     1      -9.221   7.044  14.750  1.00  0.00     0.030 C 
HETATM   12  C12 UNL     1      -9.402   6.180  13.549  1.00  0.00     0.032 C 
HETATM   13  N1  UNL     1      -8.691   5.134  13.247  1.00  0.00    -0.271 N 
ATOM     14  H1  UNL     1      -8.863   4.550  12.429  1.00  0.00     0.194 HD
HETATM   15  C24 UNL     1     -10.577   6.469  12.639  1.00  0.00     0.060 C 
HETATM   16  C25 UNL     1     -11.062   7.902  12.761  1.00  0.00     0.020 C 
HETATM   17  C26 UNL     1     -11.335   8.347  14.226  1.00  0.00    -0.016 C 
HETATM   18  C27 UNL     1     -12.553   7.571  14.781  1.00  0.00     0.020 C 
HETATM   19  C28 UNL     1     -11.581   9.909  14.222  1.00  0.00     0.002 C 
HETATM   20  C29 UNL     1     -12.889  10.317  13.514  1.00  0.00     0.007 C 
HETATM   21  C30 UNL     1     -13.081  11.832  13.475  1.00  0.00     0.014 C 
HETATM   22  C31 UNL     1     -13.058  12.497  14.877  1.00  0.00     0.003 C 
HETATM   23  C32 UNL     1     -14.342  12.134  15.651  1.00  0.00     0.020 C 
ENDROOT
BRANCH   3  24
HETATM   24  O1  UNL     1     -13.062  14.624  16.089  1.00  0.00    -0.377 OA
HETATM   25  H2  UNL     1     -13.079  15.591  15.967  1.00  0.00     0.211 HD
ENDBRANCH   3  24
BRANCH  13  26
HETATM   26  O2  UNL     1      -7.662   4.897  14.169  1.00  0.00    -0.271 OA
BRANCH  26  27
HETATM   27  C13 UNL     1      -6.762   3.943  13.610  1.00  0.00     0.303 C 
BRANCH  27  28
HETATM   28  C14 UNL     1      -5.549   4.659  13.039  1.00  0.00     0.244 C 
HETATM   29  O3  UNL     1      -5.473   5.881  12.956  1.00  0.00    -0.271 OA
HETATM   30  N2  UNL     1      -4.499   3.820  12.714  1.00  0.00    -0.342 N 
HETATM   31  H16 UNL     1      -4.751   2.850  12.521  1.00  0.00     0.163 HD
BRANCH  30  32
HETATM   32  C15 UNL     1      -3.307   4.325  11.995  1.00  0.00     0.216 C 
BRANCH  32  33
HETATM   33  C16 UNL     1      -2.650   3.176  11.230  1.00  0.00     0.166 C 
HETATM   34  O4  UNL     1      -1.650   3.239  10.535  1.00  0.00    -0.648 OA
BRANCH  33  35
HETATM   35  O5  UNL     1      -3.272   1.983  11.402  1.00  0.00    -0.775 OA
HETATM   36  H18 UNL     1      -2.748   1.358  10.854  1.00  0.00     0.167 HD
ENDBRANCH  33  35
ENDBRANCH  32  33
BRANCH  32  37
HETATM   37  C17 UNL     1      -2.267   4.918  12.977  1.00  0.00     0.184 C 
BRANCH  37  38
HETATM   38  O6  UNL     1      -2.780   4.994  14.317  1.00  0.00    -0.388 OA
HETATM   39  H20 UNL     1      -3.437   4.282  14.401  1.00  0.00     0.210 HD
ENDBRANCH  37  38
BRANCH  37  40
HETATM   40  C18 UNL     1      -1.817   6.317  12.609  1.00  0.00    -0.025 A 
HETATM   41  C19 UNL     1      -2.359   7.440  13.260  1.00  0.00     0.010 A 
HETATM   42  C20 UNL     1      -1.939   8.734  12.936  1.00  0.00     0.003 A 
HETATM   43  C21 UNL     1      -0.967   8.928  11.956  1.00  0.00     0.036 A 
HETATM   44  C22 UNL     1      -0.426   7.819  11.296  1.00  0.00     0.103 A 
HETATM   45  C23 UNL     1      -0.845   6.518  11.617  1.00  0.00     0.045 A 
BRANCH  44  46
HETATM   46  N3  UNL     1       0.599   8.020  10.262  1.00  0.00    -0.116 N 
HETATM   47  O7  UNL     1       1.639   7.352  10.342  1.00  0.00    -0.532 OA
HETATM   48  O8  UNL     1       0.365   8.843   9.365  1.00  0.00    -0.532 OA
ENDBRANCH  44  46
ENDBRANCH  37  40
ENDBRANCH  32  37
ENDBRANCH  30  32
ENDBRANCH  27  28
ENDBRANCH  26  27
ENDBRANCH  13  26
TORSDOF 11
ENDMDL
MODEL 2
REMARK minimizedAffinity -8.85734749
REMARK CNNscore 0.264704883
REMARK CNNaffinity 6.55419922
REMARK  11 active torsions:
REMARK  status: ('A' for Active; 'I' for Inactive)
REMARK    1  A    between atoms: C3_3  and  O1_4 
REMARK    2  A    between atoms: N1_14  and  O2_16 
REMARK    3  A    between atoms: O2_16  and  C13_17 
REMARK    4  A    between atoms: C13_17  and  C14_18 
REMARK       I    between atoms: C14_18  and  N2_20 
REMARK    5  A    between atoms: N2_20  and  C15_21 
REMARK    6  A    between atoms: C15_21  and  C16_22 
REMARK    7  A    between atoms: C15_21  and  C17_25 
REMARK    8  A    between atoms: C16_22  and  O5_24 
REMARK    9  A    between atoms: C17_25  and  O6_26 
REMARK   10  A    between atoms: C17_25  and  C18_27 
REMARK   11  A    between atoms: C22_31  and  N3_32 
ROOT
HETATM    1  C1  UNL     1      -7.591   5.826  13.224  1.00  0.00     0.015 C 
HETATM    2  C2  UNL     1      -6.668   6.486  13.614  1.00  0.00    -0.078 C 
HETATM    3  C3  UNL     1      -5.535   7.267  14.139  1.00  0.00     0.128 C 
HETATM    4  C4  UNL     1      -5.184   8.470  13.254  1.00  0.00     0.052 C 
HETATM    5  C5  UNL     1      -3.689   8.732  13.483  1.00  0.00     0.010 C 
HETATM    6  C6  UNL     1      -3.179   7.621  14.424  1.00  0.00     0.002 C 
HETATM    7  C7  UNL     1      -1.700   7.210  14.241  1.00  0.00    -0.004 C 
HETATM    8  C8  UNL     1      -0.767   8.427  14.310  1.00  0.00     0.010 C 
HETATM    9  C9  UNL     1       0.696   8.005  14.270  1.00  0.00     0.035 C 
HETATM   10  C10 UNL     1       1.020   7.142  13.073  1.00  0.00    -0.069 C 
HETATM   11  C11 UNL     1       2.139   7.387  12.368  1.00  0.00     0.030 C 
HETATM   12  C12 UNL     1       2.619   6.455  11.308  1.00  0.00     0.032 C 
HETATM   13  N1  UNL     1       3.770   6.512  10.706  1.00  0.00    -0.271 N 
ATOM     14  H1  UNL     1       4.076   5.838  10.005  1.00  0.00     0.194 HD
HETATM   15  C24 UNL     1       1.746   5.268  10.959  1.00  0.00     0.060 C 
HETATM   16  C25 UNL     1       0.290   5.497  11.322  1.00  0.00     0.020 C 
HETATM   17  C26 UNL     1       0.077   5.968  12.788  1.00  0.00    -0.016 C 
HETATM   18  C27 UNL     1       0.448   4.819  13.757  1.00  0.00     0.020 C 
HETATM   19  C28 UNL     1      -1.434   6.407  12.944  1.00  0.00     0.002 C 
HETATM   20  C29 UNL     1      -2.424   5.229  12.838  1.00  0.00     0.007 C 
HETATM   21  C30 UNL     1      -3.880   5.682  12.938  1.00  0.00     0.014 C 
HETATM   22  C31 UNL     1      -4.198   6.470  14.236  1.00  0.00     0.003 C 
HETATM   23  C32 UNL     1      -4.182   5.514  15.446  1.00  0.00     0.020 C 
ENDROOT
BRANCH   3  24
HETATM   24  O1  UNL     1      -5.892   7.773  15.428  1.00  0.00    -0.377 OA
HETATM   25  H2  UNL     1      -6.802   8.118  15.360  1.00  0.00     0.211 HD
ENDBRANCH   3  24
BRANCH  13  26
HETATM   26  O2  UNL     1       4.545   7.602  11.127  1.00  0.00    -0.271 OA
BRANCH  26  27
HETATM   27  C13 UNL     1       5.549   7.127  12.020  1.00  0.00     0.303 C 
BRANCH  27  28
HETATM   28  C14 UNL     1       6.223   8.305  12.704  1.00  0.00     0.244 C 
HETATM   29  O3  UNL     1       5.945   9.473  12.450  1.00  0.00    -0.271 OA
HETATM   30  N2  UNL     1       7.106   7.947  13.706  1.00  0.00    -0.342 N 
HETATM   31  H16 UNL     1       7.499   7.007  13.635  1.00  0.00     0.163 HD
BRANCH  30  32
HETATM   32  C15 UNL     1       7.972   8.952  14.362  1.00  0.00     0.216 C 
BRANCH  32  33
HETATM   33  C16 UNL     1       9.311   9.028  13.627  1.00  0.00     0.166 C 
HETATM   34  O4  UNL     1       9.765   9.991  13.032  1.00  0.00    -0.648 OA
BRANCH  33  35
HETATM   35  O5  UNL     1      10.038   7.886  13.704  1.00  0.00    -0.775 OA
HETATM   36  H18 UNL     1      10.851   8.083  13.190  1.00  0.00     0.167 HD
ENDBRANCH  33  35
ENDBRANCH  32  33
BRANCH  32  37
HETATM   37  C17 UNL     1       8.245   8.582  15.841  1.00  0.00     0.184 C 
BRANCH  37  38
HETATM   38  O6  UNL     1       7.159   7.836  16.414  1.00  0.00    -0.388 OA
HETATM   39  H20 UNL     1       6.737   7.358  15.679  1.00  0.00     0.210 HD
ENDBRANCH  37  38
BRANCH  37  40
HETATM   40  C18 UNL     1       8.460   9.785  16.736  1.00  0.00    -0.025 A 
HETATM   41  C19 UNL     1       7.565  10.869  16.708  1.00  0.00     0.010 A 
HETATM   42  C20 UNL     1       7.747  11.977  17.541  1.00  0.00     0.003 A 
HETATM   43  C21 UNL     1       8.829  12.021  18.419  1.00  0.00     0.036 A 
HETATM   44  C22 UNL     1       9.730  10.951  18.450  1.00  0.00     0.103 A 
HETATM   45  C23 UNL     1       9.552   9.836  17.616  1.00  0.00     0.045 A 
BRANCH  44  46
HETATM   46  N3  UNL     1      10.872  10.992  19.375  1.00  0.00    -0.116 N 
HETATM   47  O7  UNL     1      11.975  10.624  18.948  1.00  0.00    -0.532 OA
HETATM   48  O8  UNL     1      10.669  11.397  20.529  1.00  0.00    -0.532 OA
ENDBRANCH  44  46
ENDBRANCH  37  40
ENDBRANCH  32  37
ENDBRANCH  30  32
ENDBRANCH  27  28
ENDBRANCH  26  27
ENDBRANCH  13  26
TORSDOF 11
ENDMDL
MODEL 3
REMARK minimizedAffinity -7.74526262
REMARK CNNscore 0.2389801
REMARK CNNaffinity 6.32028961
REMARK  11 active torsions:
REMARK  status: ('A' for Active; 'I' for Inactive)
REMARK    1  A    between atoms: C3_3  and  O1_4 
REMARK    2  A    between atoms: N1_14  and  O2_16 
REMARK    3  A    between atoms: O2_16  and  C13_17 
REMARK    4  A    between atoms: C13_17  and  C14_18 
REMARK       I    between atoms: C14_18  and  N2_20 
REMARK    5  A    between atoms: N2_20  and  C15_21 
REMARK    6  A    between atoms: C15_21  and  C16_22 
REMARK    7  A    between atoms: C15_21  and  C17_25 
REMARK    8  A    between atoms: C16_22  and  O5_24 
REMARK    9  A    between atoms: C17_25  and  O6_26 
REMARK   10  A    between atoms: C17_25  and  C18_27 
REMARK   11  A    between atoms: C22_31  and  N3_32 
ROOT
HETATM    1  C1  UNL     1      -7.326  17.529  22.732  1.00  0.00     0.015 C 
HETATM    2  C2  UNL     1      -7.288  17.222  21.573  1.00  0.00    -0.078 C 
HETATM    3  C3  UNL     1      -7.202  16.883  20.142  1.00  0.00     0.128 C 
HETATM    4  C4  UNL     1      -8.266  15.865  19.709  1.00  0.00     0.052 C 
HETATM    5  C5  UNL     1      -7.663  15.118  18.511  1.00  0.00     0.010 C 
HETATM    6  C6  UNL     1      -6.227  15.651  18.329  1.00  0.00     0.002 C 
HETATM    7  C7  UNL     1      -5.205  14.647  17.748  1.00  0.00    -0.004 C 
HETATM    8  C8  UNL     1      -5.709  14.031  16.435  1.00  0.00     0.010 C 
HETATM    9  C9  UNL     1      -4.644  13.150  15.794  1.00  0.00     0.035 C 
HETATM   10  C10 UNL     1      -4.130  12.083  16.731  1.00  0.00    -0.069 C 
HETATM   11  C11 UNL     1      -3.976  10.826  16.277  1.00  0.00     0.030 C 
HETATM   12  C12 UNL     1      -3.287   9.778  17.083  1.00  0.00     0.032 C 
HETATM   13  N1  UNL     1      -2.934   8.600  16.661  1.00  0.00    -0.271 N 
ATOM     14  H1  UNL     1      -2.438   7.919  17.236  1.00  0.00     0.194 HD
HETATM   15  C24 UNL     1      -2.860  10.134  18.491  1.00  0.00     0.060 C 
HETATM   16  C25 UNL     1      -3.669  11.282  19.066  1.00  0.00     0.020 C 
HETATM   17  C26 UNL     1      -3.730  12.531  18.141  1.00  0.00    -0.016 C 
HETATM   18  C27 UNL     1      -2.324  13.172  18.051  1.00  0.00     0.020 C 
HETATM   19  C28 UNL     1      -4.798  13.530  18.741  1.00  0.00     0.002 C 
HETATM   20  C29 UNL     1      -4.366  14.148  20.085  1.00  0.00     0.007 C 
HETATM   21  C30 UNL     1      -5.434  15.069  20.673  1.00  0.00     0.014 C 
HETATM   22  C31 UNL     1      -5.855  16.220  19.721  1.00  0.00     0.003 C 
HETATM   23  C32 UNL     1      -4.713  17.252  19.610  1.00  0.00     0.020 C 
ENDROOT
BRANCH   3  24
HETATM   24  O1  UNL     1      -7.415  18.075  19.381  1.00  0.00    -0.377 OA
HETATM   25  H2  UNL     1      -8.171  18.542  19.783  1.00  0.00     0.211 HD
ENDBRANCH   3  24
BRANCH  13  26
HETATM   26  O2  UNL     1      -3.310   8.368  15.331  1.00  0.00    -0.271 OA
BRANCH  26  27
HETATM   27  C13 UNL     1      -3.121   6.986  15.040  1.00  0.00     0.303 C 
BRANCH  27  28
HETATM   28  C14 UNL     1      -2.077   6.832  13.946  1.00  0.00     0.244 C 
HETATM   29  O3  UNL     1      -1.379   7.763  13.554  1.00  0.00    -0.271 OA
HETATM   30  N2  UNL     1      -1.913   5.534  13.499  1.00  0.00    -0.342 N 
HETATM   31  H16 UNL     1      -2.712   4.914  13.638  1.00  0.00     0.163 HD
BRANCH  30  32
HETATM   32  C15 UNL     1      -1.063   5.227  12.327  1.00  0.00     0.216 C 
BRANCH  32  33
HETATM   33  C16 UNL     1      -1.558   3.943  11.661  1.00  0.00     0.166 C 
HETATM   34  O4  UNL     1      -1.011   3.328  10.761  1.00  0.00    -0.648 OA
BRANCH  33  35
HETATM   35  O5  UNL     1      -2.716   3.471  12.186  1.00  0.00    -0.775 OA
HETATM   36  H18 UNL     1      -2.906   2.663  11.661  1.00  0.00     0.167 HD
ENDBRANCH  33  35
ENDBRANCH  32  33
BRANCH  32  37
HETATM   37  C17 UNL     1       0.416   5.026  12.741  1.00  0.00     0.184 C 
BRANCH  37  38
HETATM   38  O6  UNL     1       0.637   5.371  14.118  1.00  0.00    -0.388 OA
HETATM   39  H20 UNL     1      -0.206   5.216  14.578  1.00  0.00     0.210 HD
ENDBRANCH  37  38
BRANCH  37  40
HETATM   40  C18 UNL     1       1.389   5.854  11.928  1.00  0.00    -0.025 A 
HETATM   41  C19 UNL     1       2.103   6.910  12.521  1.00  0.00     0.010 A 
HETATM   42  C20 UNL     1       3.015   7.671  11.782  1.00  0.00     0.003 A 
HETATM   43  C21 UNL     1       3.230   7.387  10.435  1.00  0.00     0.036 A 
HETATM   44  C22 UNL     1       2.521   6.342   9.831  1.00  0.00     0.103 A 
HETATM   45  C23 UNL     1       1.604   5.576  10.569  1.00  0.00     0.045 A 
BRANCH  44  46
HETATM   46  N3  UNL     1       2.746   6.039   8.411  1.00  0.00    -0.116 N 
HETATM   47  O7  UNL     1       3.326   4.981   8.131  1.00  0.00    -0.532 OA
HETATM   48  O8  UNL     1       2.341   6.857   7.572  1.00  0.00    -0.532 OA
ENDBRANCH  44  46
ENDBRANCH  37  40
ENDBRANCH  32  37
ENDBRANCH  30  32
ENDBRANCH  27  28
ENDBRANCH  26  27
ENDBRANCH  13  26
TORSDOF 11
ENDMDL
MODEL 4
REMARK minimizedAffinity -9.45952415
REMARK CNNscore 0.222361147
REMARK CNNaffinity 7.24203062
REMARK  11 active torsions:
REMARK  status: ('A' for Active; 'I' for Inactive)
REMARK    1  A    between atoms: C3_3  and  O1_4 
REMARK    2  A    between atoms: N1_14  and  O2_16 
REMARK    3  A    between atoms: O2_16  and  C13_17 
REMARK    4  A    between atoms: C13_17  and  C14_18 
REMARK       I    between atoms: C14_18  and  N2_20 
REMARK    5  A    between atoms: N2_20  and  C15_21 
REMARK    6  A    between atoms: C15_21  and  C16_22 
REMARK    7  A    between atoms: C15_21  and  C17_25 
REMARK    8  A    between atoms: C16_22  and  O5_24 
REMARK    9  A    between atoms: C17_25  and  O6_26 
REMARK   10  A    between atoms: C17_25  and  C18_27 
REMARK   11  A    between atoms: C22_31  and  N3_32 
ROOT
HETATM    1  C1  UNL     1     -14.094   9.247  12.196  1.00  0.00     0.015 C 
HETATM    2  C2  UNL     1     -13.354   9.146  13.136  1.00  0.00    -0.078 C 
HETATM    3  C3  UNL     1     -12.476   8.979  14.306  1.00  0.00     0.128 C 
HETATM    4  C4  UNL     1     -11.444  10.107  14.438  1.00  0.00     0.052 C 
HETATM    5  C5  UNL     1     -10.248   9.491  15.178  1.00  0.00     0.010 C 
HETATM    6  C6  UNL     1     -10.568   7.996  15.379  1.00  0.00     0.002 C 
HETATM    7  C7  UNL     1      -9.351   7.043  15.405  1.00  0.00    -0.004 C 
HETATM    8  C8  UNL     1      -8.304   7.500  16.431  1.00  0.00     0.010 C 
HETATM    9  C9  UNL     1      -7.173   6.487  16.555  1.00  0.00     0.035 C 
HETATM   10  C10 UNL     1      -6.527   6.171  15.227  1.00  0.00    -0.069 C 
HETATM   11  C11 UNL     1      -5.185   6.117  15.143  1.00  0.00     0.030 C 
HETATM   12  C12 UNL     1      -4.495   5.614  13.921  1.00  0.00     0.032 C 
HETATM   13  N1  UNL     1      -3.225   5.357  13.814  1.00  0.00    -0.271 N 
ATOM     14  H1  UNL     1      -2.792   4.986  12.968  1.00  0.00     0.194 HD
HETATM   15  C24 UNL     1      -5.346   5.269  12.717  1.00  0.00     0.060 C 
HETATM   16  C25 UNL     1      -6.679   5.995  12.726  1.00  0.00     0.020 C 
HETATM   17  C26 UNL     1      -7.465   5.843  14.060  1.00  0.00    -0.016 C 
HETATM   18  C27 UNL     1      -7.923   4.374  14.222  1.00  0.00     0.020 C 
HETATM   19  C28 UNL     1      -8.689   6.844  14.020  1.00  0.00     0.002 C 
HETATM   20  C29 UNL     1      -9.754   6.460  12.974  1.00  0.00     0.007 C 
HETATM   21  C30 UNL     1     -10.901   7.468  12.915  1.00  0.00     0.014 C 
HETATM   22  C31 UNL     1     -11.611   7.681  14.278  1.00  0.00     0.003 C 
HETATM   23  C32 UNL     1     -12.438   6.430  14.640  1.00  0.00     0.020 C 
ENDROOT
BRANCH   3  24
HETATM   24  O1  UNL     1     -13.284   8.998  15.485  1.00  0.00    -0.377 OA
HETATM   25  H2  UNL     1     -13.921   9.730  15.385  1.00  0.00     0.211 HD
ENDBRANCH   3  24
BRANCH  13  26
HETATM   26  O2  UNL     1      -2.515   5.644  14.989  1.00  0.00    -0.271 OA
BRANCH  26  27
HETATM   27  C13 UNL     1      -1.131   5.399  14.754  1.00  0.00     0.303 C 
BRANCH  27  28
HETATM   28  C14 UNL     1      -0.348   6.691  14.920  1.00  0.00     0.244 C 
HETATM   29  O3  UNL     1      -0.882   7.768  15.165  1.00  0.00    -0.271 OA
HETATM   30  N2  UNL     1       1.025   6.530  14.868  1.00  0.00    -0.342 N 
HETATM   31  H16 UNL     1       1.355   5.705  14.366  1.00  0.00     0.163 HD
BRANCH  30  32
HETATM   32  C15 UNL     1       1.934   7.698  14.844  1.00  0.00     0.216 C 
BRANCH  32  33
HETATM   33  C16 UNL     1       1.798   8.476  16.154  1.00  0.00     0.166 C 
HETATM   34  O4  UNL     1       2.688   9.047  16.761  1.00  0.00    -0.648 OA
BRANCH  33  35
HETATM   35  O5  UNL     1       0.527   8.525  16.625  1.00  0.00    -0.775 OA
HETATM   36  H18 UNL     1       0.600   9.042  17.458  1.00  0.00     0.167 HD
ENDBRANCH  33  35
ENDBRANCH  32  33
BRANCH  32  37
HETATM   37  C17 UNL     1       1.597   8.650  13.671  1.00  0.00     0.184 C 
BRANCH  37  38
HETATM   38  O6  UNL     1       0.361   9.349  13.888  1.00  0.00    -0.388 OA
HETATM   39  H20 UNL     1       0.254   9.424  14.852  1.00  0.00     0.210 HD
ENDBRANCH  37  38
BRANCH  37  40
HETATM   40  C18 UNL     1       1.462   7.943  12.338  1.00  0.00    -0.025 A 
HETATM   41  C19 UNL     1       2.008   6.661  12.148  1.00  0.00     0.010 A 
HETATM   42  C20 UNL     1       1.876   5.994  10.926  1.00  0.00     0.003 A 
HETATM   43  C21 UNL     1       1.194   6.597   9.871  1.00  0.00     0.036 A 
HETATM   44  C22 UNL     1       0.652   7.876  10.046  1.00  0.00     0.103 A 
HETATM   45  C23 UNL     1       0.782   8.550  11.271  1.00  0.00     0.045 A 
BRANCH  44  46
HETATM   46  N3  UNL     1      -0.069   8.515   8.936  1.00  0.00    -0.116 N 
HETATM   47  O7  UNL     1      -1.070   9.191   9.211  1.00  0.00    -0.532 OA
HETATM   48  O8  UNL     1       0.366   8.345   7.788  1.00  0.00    -0.532 OA
ENDBRANCH  44  46
ENDBRANCH  37  40
ENDBRANCH  32  37
ENDBRANCH  30  32
ENDBRANCH  27  28
ENDBRANCH  26  27
ENDBRANCH  13  26
TORSDOF 11
ENDMDL
MODEL 5
REMARK minimizedAffinity -10.0559025
REMARK CNNscore 0.208350882
REMARK CNNaffinity 7.23088455
REMARK  11 active torsions:
REMARK  status: ('A' for Active; 'I' for Inactive)
REMARK    1  A    between atoms: C3_3  and  O1_4 
REMARK    2  A    between atoms: N1_14  and  O2_16 
REMARK    3  A    between atoms: O2_16  and  C13_17 
REMARK    4  A    between atoms: C13_17  and  C14_18 
REMARK       I    between atoms: C14_18  and  N2_20 
REMARK    5  A    between atoms: N2_20  and  C15_21 
REMARK    6  A    between atoms: C15_21  and  C16_22 
REMARK    7  A    between atoms: C15_21  and  C17_25 
REMARK    8  A    between atoms: C16_22  and  O5_24 
REMARK    9  A    between atoms: C17_25  and  O6_26 
REMARK   10  A    between atoms: C17_25  and  C18_27 
REMARK   11  A    between atoms: C22_31  and  N3_32 
ROOT
HETATM    1  C1  UNL     1     -14.017   9.512  12.406  1.00  0.00     0.015 C 
HETATM    2  C2  UNL     1     -13.203   9.361  13.275  1.00  0.00    -0.078 C 
HETATM    3  C3  UNL     1     -12.236   9.137  14.363  1.00  0.00     0.128 C 
HETATM    4  C4  UNL     1     -11.091  10.158  14.358  1.00  0.00     0.052 C 
HETATM    5  C5  UNL     1      -9.894   9.445  15.003  1.00  0.00     0.010 C 
HETATM    6  C6  UNL     1     -10.338   7.995  15.286  1.00  0.00     0.002 C 
HETATM    7  C7  UNL     1      -9.223   6.926  15.231  1.00  0.00    -0.004 C 
HETATM    8  C8  UNL     1      -8.042   7.302  16.138  1.00  0.00     0.010 C 
HETATM    9  C9  UNL     1      -7.009   6.183  16.190  1.00  0.00     0.035 C 
HETATM   10  C10 UNL     1      -6.529   5.770  14.819  1.00  0.00    -0.069 C 
HETATM   11  C11 UNL     1      -5.214   5.579  14.611  1.00  0.00     0.030 C 
HETATM   12  C12 UNL     1      -4.697   4.977  13.348  1.00  0.00     0.032 C 
HETATM   13  N1  UNL     1      -3.475   4.591  13.131  1.00  0.00    -0.271 N 
ATOM     14  H1  UNL     1      -3.165   4.156  12.263  1.00  0.00     0.194 HD
HETATM   15  C24 UNL     1      -5.691   4.689  12.243  1.00  0.00     0.060 C 
HETATM   16  C25 UNL     1      -6.939   5.545  12.352  1.00  0.00     0.020 C 
HETATM   17  C26 UNL     1      -7.603   5.507  13.758  1.00  0.00    -0.016 C 
HETATM   18  C27 UNL     1      -8.185   4.097  14.014  1.00  0.00     0.020 C 
HETATM   19  C28 UNL     1      -8.721   6.625  13.798  1.00  0.00     0.002 C 
HETATM   20  C29 UNL     1      -9.916   6.324  12.871  1.00  0.00     0.007 C 
HETATM   21  C30 UNL     1     -10.959   7.440  12.885  1.00  0.00     0.014 C 
HETATM   22  C31 UNL     1     -11.509   7.758  14.300  1.00  0.00     0.003 C 
HETATM   23  C32 UNL     1     -12.415   6.607  14.782  1.00  0.00     0.020 C 
ENDROOT
BRANCH   3  24
HETATM   24  O1  UNL     1     -12.920   9.268  15.612  1.00  0.00    -0.377 OA
HETATM   25  H2  UNL     1     -13.489  10.058  15.547  1.00  0.00     0.211 HD
ENDBRANCH   3  24
BRANCH  13  26
HETATM   26  O2  UNL     1      -2.630   4.835  14.223  1.00  0.00    -0.271 OA
BRANCH  26  27
HETATM   27  C13 UNL     1      -2.000   6.100  14.035  1.00  0.00     0.303 C 
BRANCH  27  28
HETATM   28  C14 UNL     1      -0.910   5.976  12.983  1.00  0.00     0.244 C 
HETATM   29  O3  UNL     1      -0.849   5.040  12.192  1.00  0.00    -0.271 OA
HETATM   30  N2  UNL     1      -0.050   7.058  12.930  1.00  0.00    -0.342 N 
HETATM   31  H16 UNL     1       0.022   7.607  13.787  1.00  0.00     0.163 HD
BRANCH  30  32
HETATM   32  C15 UNL     1       1.164   7.032  12.084  1.00  0.00     0.216 C 
BRANCH  32  33
HETATM   33  C16 UNL     1       2.389   7.352  12.941  1.00  0.00     0.166 C 
HETATM   34  O4  UNL     1       3.327   8.069  12.637  1.00  0.00    -0.648 OA
BRANCH  33  35
HETATM   35  O5  UNL     1       2.360   6.773  14.167  1.00  0.00    -0.775 OA
HETATM   36  H18 UNL     1       3.199   7.060  14.588  1.00  0.00     0.167 HD
ENDBRANCH  33  35
ENDBRANCH  32  33
BRANCH  32  37
HETATM   37  C17 UNL     1       1.077   8.077  10.944  1.00  0.00     0.184 C 
BRANCH  37  38
HETATM   38  O6  UNL     1      -0.259   8.577  10.778  1.00  0.00    -0.388 OA
HETATM   39  H20 UNL     1      -0.686   8.512  11.650  1.00  0.00     0.210 HD
ENDBRANCH  37  38
BRANCH  37  40
HETATM   40  C18 UNL     1       1.504   7.536   9.594  1.00  0.00    -0.025 A 
HETATM   41  C19 UNL     1       1.140   8.197   8.408  1.00  0.00     0.010 A 
HETATM   42  C20 UNL     1       1.542   7.714   7.159  1.00  0.00     0.003 A 
HETATM   43  C21 UNL     1       2.319   6.560   7.074  1.00  0.00     0.036 A 
HETATM   44  C22 UNL     1       2.682   5.889   8.248  1.00  0.00     0.103 A 
HETATM   45  C23 UNL     1       2.280   6.370   9.504  1.00  0.00     0.045 A 
BRANCH  44  46
HETATM   46  N3  UNL     1       3.501   4.671   8.162  1.00  0.00    -0.116 N 
HETATM   47  O7  UNL     1       3.447   4.012   7.115  1.00  0.00    -0.532 OA
HETATM   48  O8  UNL     1       4.202   4.374   9.141  1.00  0.00    -0.532 OA
ENDBRANCH  44  46
ENDBRANCH  37  40
ENDBRANCH  32  37
ENDBRANCH  30  32
ENDBRANCH  27  28
ENDBRANCH  26  27
ENDBRANCH  13  26
TORSDOF 11
ENDMDL
MODEL 6
REMARK minimizedAffinity -8.88939857
REMARK CNNscore 0.174812078
REMARK CNNaffinity 5.60367203
REMARK  11 active torsions:
REMARK  status: ('A' for Active; 'I' for Inactive)
REMARK    1  A    between atoms: C3_3  and  O1_4 
REMARK    2  A    between atoms: N1_14  and  O2_16 
REMARK    3  A    between atoms: O2_16  and  C13_17 
REMARK    4  A    between atoms: C13_17  and  C14_18 
REMARK       I    between atoms: C14_18  and  N2_20 
REMARK    5  A    between atoms: N2_20  and  C15_21 
REMARK    6  A    between atoms: C15_21  and  C16_22 
REMARK    7  A    between atoms: C15_21  and  C17_25 
REMARK    8  A    between atoms: C16_22  and  O5_24 
REMARK    9  A    between atoms: C17_25  and  O6_26 
REMARK   10  A    between atoms: C17_25  and  C18_27 
REMARK   11  A    between atoms: C22_31  and  N3_32 
ROOT
HETATM    1  C1  UNL     1       3.574   4.035   9.423  1.00  0.00     0.015 C 
HETATM    2  C2  UNL     1       3.765   5.142   9.845  1.00  0.00    -0.078 C 
HETATM    3  C3  UNL     1       3.973   6.520  10.321  1.00  0.00     0.128 C 
HETATM    4  C4  UNL     1       4.913   6.594  11.532  1.00  0.00     0.052 C 
HETATM    5  C5  UNL     1       4.498   7.854  12.304  1.00  0.00     0.010 C 
HETATM    6  C6  UNL     1       3.268   8.437  11.580  1.00  0.00     0.002 C 
HETATM    7  C7  UNL     1       2.257   9.194  12.472  1.00  0.00    -0.004 C 
HETATM    8  C8  UNL     1       2.949  10.288  13.297  1.00  0.00     0.010 C 
HETATM    9  C9  UNL     1       1.934  11.123  14.068  1.00  0.00     0.035 C 
HETATM   10  C10 UNL     1       1.027  10.282  14.935  1.00  0.00    -0.069 C 
HETATM   11  C11 UNL     1       0.769  10.675  16.195  1.00  0.00     0.030 C 
HETATM   12  C12 UNL     1      -0.270  10.007  17.030  1.00  0.00     0.032 C 
HETATM   13  N1  UNL     1      -0.712  10.426  18.178  1.00  0.00    -0.271 N 
ATOM     14  H1  UNL     1      -1.446   9.956  18.708  1.00  0.00     0.194 HD
HETATM   15  C24 UNL     1      -0.958   8.784  16.460  1.00  0.00     0.060 C 
HETATM   16  C25 UNL     1      -0.124   8.097  15.394  1.00  0.00     0.020 C 
HETATM   17  C26 UNL     1       0.380   9.057  14.279  1.00  0.00    -0.016 C 
HETATM   18  C27 UNL     1      -0.824   9.550  13.442  1.00  0.00     0.020 C 
HETATM   19  C28 UNL     1       1.430   8.269  13.397  1.00  0.00     0.002 C 
HETATM   20  C29 UNL     1       0.799   7.126  12.576  1.00  0.00     0.007 C 
HETATM   21  C30 UNL     1       1.837   6.345  11.772  1.00  0.00     0.014 C 
HETATM   22  C31 UNL     1       2.674   7.231  10.811  1.00  0.00     0.003 C 
HETATM   23  C32 UNL     1       1.795   7.701   9.634  1.00  0.00     0.020 C 
ENDROOT
BRANCH   3  24
HETATM   24  O1  UNL     1       4.572   7.278   9.268  1.00  0.00    -0.377 OA
HETATM   25  H2  UNL     1       5.278   6.726   8.881  1.00  0.00     0.211 HD
ENDBRANCH   3  24
BRANCH  13  26
HETATM   26  O2  UNL     1      -0.070  11.595  18.609  1.00  0.00    -0.271 OA
BRANCH  26  27
HETATM   27  C13 UNL     1       0.135  11.507  20.017  1.00  0.00     0.303 C 
BRANCH  27  28
HETATM   28  C14 UNL     1       1.440  10.781  20.299  1.00  0.00     0.244 C 
HETATM   29  O3  UNL     1       2.035  10.124  19.450  1.00  0.00    -0.271 OA
HETATM   30  N2  UNL     1       1.950  11.005  21.565  1.00  0.00    -0.342 N 
HETATM   31  H16 UNL     1       1.269  11.282  22.273  1.00  0.00     0.163 HD
BRANCH  30  32
HETATM   32  C15 UNL     1       3.120  10.250  22.066  1.00  0.00     0.216 C 
BRANCH  32  33
HETATM   33  C16 UNL     1       2.640   9.020  22.838  1.00  0.00     0.166 C 
HETATM   34  O4  UNL     1       2.690   8.849  24.044  1.00  0.00    -0.648 OA
BRANCH  33  35
HETATM   35  O5  UNL     1       2.085   8.067  22.049  1.00  0.00    -0.775 OA
HETATM   36  H18 UNL     1       1.836   7.352  22.675  1.00  0.00     0.167 HD
ENDBRANCH  33  35
ENDBRANCH  32  33
BRANCH  32  37
HETATM   37  C17 UNL     1       3.986  11.117  23.013  1.00  0.00     0.184 C 
BRANCH  37  38
HETATM   38  O6  UNL     1       3.261  12.254  23.508  1.00  0.00    -0.388 OA
HETATM   39  H20 UNL     1       2.323  11.999  23.518  1.00  0.00     0.210 HD
ENDBRANCH  37  38
BRANCH  37  40
HETATM   40  C18 UNL     1       5.241  11.657  22.360  1.00  0.00    -0.025 A 
HETATM   41  C19 UNL     1       5.356  11.707  20.959  1.00  0.00     0.010 A 
HETATM   42  C20 UNL     1       6.505  12.217  20.347  1.00  0.00     0.003 A 
HETATM   43  C21 UNL     1       7.561  12.689  21.126  1.00  0.00     0.036 A 
HETATM   44  C22 UNL     1       7.460  12.637  22.521  1.00  0.00     0.103 A 
HETATM   45  C23 UNL     1       6.309  12.125  23.141  1.00  0.00     0.045 A 
BRANCH  44  46
HETATM   46  N3  UNL     1       8.571  13.134  23.346  1.00  0.00    -0.116 N 
HETATM   47  O7  UNL     1       9.530  12.374  23.541  1.00  0.00    -0.532 OA
HETATM   48  O8  UNL     1       8.488  14.285  23.799  1.00  0.00    -0.532 OA
ENDBRANCH  44  46
ENDBRANCH  37  40
ENDBRANCH  32  37
ENDBRANCH  30  32
ENDBRANCH  27  28
ENDBRANCH  26  27
ENDBRANCH  13  26
TORSDOF 11
ENDMDL
MODEL 7
REMARK minimizedAffinity -8.0731945
REMARK CNNscore 0.174762949
REMARK CNNaffinity 5.87725687
REMARK  11 active torsions:
REMARK  status: ('A' for Active; 'I' for Inactive)
REMARK    1  A    between atoms: C3_3  and  O1_4 
REMARK    2  A    between atoms: N1_14  and  O2_16 
REMARK    3  A    between atoms: O2_16  and  C13_17 
REMARK    4  A    between atoms: C13_17  and  C14_18 
REMARK       I    between atoms: C14_18  and  N2_20 
REMARK    5  A    between atoms: N2_20  and  C15_21 
REMARK    6  A    between atoms: C15_21  and  C16_22 
REMARK    7  A    between atoms: C15_21  and  C17_25 
REMARK    8  A    between atoms: C16_22  and  O5_24 
REMARK    9  A    between atoms: C17_25  and  O6_26 
REMARK   10  A    between atoms: C17_25  and  C18_27 
REMARK   11  A    between atoms: C22_31  and  N3_32 
ROOT
HETATM    1  C1  UNL     1       1.813   7.356   6.882  1.00  0.00     0.015 C 
HETATM    2  C2  UNL     1       1.793   7.261   8.079  1.00  0.00    -0.078 C 
HETATM    3  C3  UNL     1       1.789   7.094   9.542  1.00  0.00     0.128 C 
HETATM    4  C4  UNL     1       1.113   8.263  10.270  1.00  0.00     0.052 C 
HETATM    5  C5  UNL     1       1.765   8.322  11.658  1.00  0.00     0.010 C 
HETATM    6  C6  UNL     1       2.872   7.248  11.678  1.00  0.00     0.002 C 
HETATM    7  C7  UNL     1       4.092   7.553  12.576  1.00  0.00    -0.004 C 
HETATM    8  C8  UNL     1       3.661   7.891  14.010  1.00  0.00     0.010 C 
HETATM    9  C9  UNL     1       4.868   8.055  14.925  1.00  0.00     0.035 C 
HETATM   10  C10 UNL     1       5.860   9.068  14.404  1.00  0.00    -0.069 C 
HETATM   11  C11 UNL     1       6.389   9.969  15.253  1.00  0.00     0.030 C 
HETATM   12  C12 UNL     1       7.517  10.857  14.851  1.00  0.00     0.032 C 
HETATM   13  N1  UNL     1       8.206  11.622  15.646  1.00  0.00    -0.271 N 
ATOM     14  H1  UNL     1       8.991  12.195  15.339  1.00  0.00     0.194 HD
HETATM   15  C24 UNL     1       7.984  10.804  13.412  1.00  0.00     0.060 C 
HETATM   16  C25 UNL     1       6.907  10.288  12.475  1.00  0.00     0.020 C 
HETATM   17  C26 UNL     1       6.270   8.945  12.933  1.00  0.00    -0.016 C 
HETATM   18  C27 UNL     1       7.322   7.815  12.829  1.00  0.00     0.020 C 
HETATM   19  C28 UNL     1       5.011   8.668  12.017  1.00  0.00     0.002 C 
HETATM   20  C29 UNL     1       5.379   8.364  10.551  1.00  0.00     0.007 C 
HETATM   21  C30 UNL     1       4.147   8.151   9.673  1.00  0.00     0.014 C 
HETATM   22  C31 UNL     1       3.210   7.025  10.182  1.00  0.00     0.003 C 
HETATM   23  C32 UNL     1       3.874   5.650   9.964  1.00  0.00     0.020 C 
ENDROOT
BRANCH   3  24
HETATM   24  O1  UNL     1       1.055   5.909   9.861  1.00  0.00    -0.377 OA
HETATM   25  H2  UNL     1       0.247   5.915   9.314  1.00  0.00     0.211 HD
ENDBRANCH   3  24
BRANCH  13  26
HETATM   26  O2  UNL     1       7.752  11.570  16.972  1.00  0.00    -0.271 OA
BRANCH  26  27
HETATM   27  C13 UNL     1       8.591  12.400  17.771  1.00  0.00     0.303 C 
BRANCH  27  28
HETATM   28  C14 UNL     1       9.967  11.767  17.895  1.00  0.00     0.244 C 
HETATM   29  O3  UNL     1      10.188  10.591  17.622  1.00  0.00    -0.271 OA
HETATM   30  N2  UNL     1      10.968  12.654  18.248  1.00  0.00    -0.342 N 
HETATM   31  H16 UNL     1      10.661  13.492  18.744  1.00  0.00     0.163 HD
BRANCH  30  32
HETATM   32  C15 UNL     1      12.332  12.182  18.575  1.00  0.00     0.216 C 
BRANCH  32  33
HETATM   33  C16 UNL     1      12.527  12.199  20.092  1.00  0.00     0.166 C 
HETATM   34  O4  UNL     1      13.579  12.071  20.695  1.00  0.00    -0.648 OA
BRANCH  33  35
HETATM   35  O5  UNL     1      11.380  12.411  20.784  1.00  0.00    -0.775 OA
HETATM   36  H18 UNL     1      11.660  12.389  21.725  1.00  0.00     0.167 HD
ENDBRANCH  33  35
ENDBRANCH  32  33
BRANCH  32  37
HETATM   37  C17 UNL     1      13.410  13.088  17.932  1.00  0.00     0.184 C 
BRANCH  37  38
HETATM   38  O6  UNL     1      12.827  14.193  17.225  1.00  0.00    -0.388 OA
HETATM   39  H20 UNL     1      11.980  14.383  17.663  1.00  0.00     0.210 HD
ENDBRANCH  37  38
BRANCH  37  40
HETATM   40  C18 UNL     1      14.296  12.362  16.940  1.00  0.00    -0.025 A 
HETATM   41  C19 UNL     1      13.739  11.690  15.838  1.00  0.00     0.010 A 
HETATM   42  C20 UNL     1      14.549  11.030  14.909  1.00  0.00     0.003 A 
HETATM   43  C21 UNL     1      15.935  11.031  15.066  1.00  0.00     0.036 A 
HETATM   44  C22 UNL     1      16.500  11.690  16.163  1.00  0.00     0.103 A 
HETATM   45  C23 UNL     1      15.691  12.354  17.099  1.00  0.00     0.045 A 
BRANCH  44  46
HETATM   46  N3  UNL     1      17.961  11.694  16.332  1.00  0.00    -0.116 N 
HETATM   47  O7  UNL     1      18.660  11.718  15.309  1.00  0.00    -0.532 OA
HETATM   48  O8  UNL     1      18.412  11.676  17.486  1.00  0.00    -0.532 OA
ENDBRANCH  44  46
ENDBRANCH  37  40
ENDBRANCH  32  37
ENDBRANCH  30  32
ENDBRANCH  27  28
ENDBRANCH  26  27
ENDBRANCH  13  26
TORSDOF 11
ENDMDL
MODEL 8
REMARK minimizedAffinity -8.3698616
REMARK CNNscore 0.164757252
REMARK CNNaffinity 6.9002862
REMARK  11 active torsions:
REMARK  status: ('A' for Active; 'I' for Inactive)
REMARK    1  A    between atoms: C3_3  and  O1_4 
REMARK    2  A    between atoms: N1_14  and  O2_16 
REMARK    3  A    between atoms: O2_16  and  C13_17 
REMARK    4  A    between atoms: C13_17  and  C14_18 
REMARK       I    between atoms: C14_18  and  N2_20 
REMARK    5  A    between atoms: N2_20  and  C15_21 
REMARK    6  A    between atoms: C15_21  and  C16_22 
REMARK    7  A    between atoms: C15_21  and  C17_25 
REMARK    8  A    between atoms: C16_22  and  O5_24 
REMARK    9  A    between atoms: C17_25  and  O6_26 
REMARK   10  A    between atoms: C17_25  and  C18_27 
REMARK   11  A    between atoms: C22_31  and  N3_32 
ROOT
HETATM    1  C1  UNL     1       1.247   6.295  11.921  1.00  0.00     0.015 C 
HETATM    2  C2  UNL     1       0.276   5.590  11.937  1.00  0.00    -0.078 C 
HETATM    3  C3  UNL     1      -0.898   4.704  12.003  1.00  0.00     0.128 C 
HETATM    4  C4  UNL     1      -1.769   4.778  10.742  1.00  0.00     0.052 C 
HETATM    5  C5  UNL     1      -3.190   4.417  11.197  1.00  0.00     0.010 C 
HETATM    6  C6  UNL     1      -3.137   4.230  12.727  1.00  0.00     0.002 C 
HETATM    7  C7  UNL     1      -4.431   4.583  13.495  1.00  0.00    -0.004 C 
HETATM    8  C8  UNL     1      -5.644   3.841  12.916  1.00  0.00     0.010 C 
HETATM    9  C9  UNL     1      -6.891   4.080  13.759  1.00  0.00     0.035 C 
HETATM   10  C10 UNL     1      -7.193   5.548  13.947  1.00  0.00    -0.069 C 
HETATM   11  C11 UNL     1      -8.458   5.985  13.806  1.00  0.00     0.030 C 
HETATM   12  C12 UNL     1      -8.856   7.373  14.175  1.00  0.00     0.032 C 
HETATM   13  N1  UNL     1     -10.073   7.825  14.244  1.00  0.00    -0.271 N 
ATOM     14  H1  UNL     1     -10.308   8.776  14.529  1.00  0.00     0.194 HD
HETATM   15  C24 UNL     1      -7.766   8.331  14.610  1.00  0.00     0.060 C 
HETATM   16  C25 UNL     1      -6.401   7.927  14.084  1.00  0.00     0.020 C 
HETATM   17  C26 UNL     1      -6.029   6.447  14.379  1.00  0.00    -0.016 C 
HETATM   18  C27 UNL     1      -5.829   6.260  15.902  1.00  0.00     0.020 C 
HETATM   19  C28 UNL     1      -4.718   6.103  13.564  1.00  0.00     0.002 C 
HETATM   20  C29 UNL     1      -3.471   6.854  14.072  1.00  0.00     0.007 C 
HETATM   21  C30 UNL     1      -2.227   6.548  13.239  1.00  0.00     0.014 C 
HETATM   22  C31 UNL     1      -1.887   5.036  13.162  1.00  0.00     0.003 C 
HETATM   23  C32 UNL     1      -1.361   4.548  14.528  1.00  0.00     0.020 C 
ENDROOT
BRANCH   3  24
HETATM   24  O1  UNL     1      -0.441   3.355  12.128  1.00  0.00    -0.377 OA
HETATM   25  H2  UNL     1       0.291   3.239  11.493  1.00  0.00     0.211 HD
ENDBRANCH   3  24
BRANCH  13  26
HETATM   26  O2  UNL     1     -11.027   6.862  13.886  1.00  0.00    -0.271 OA
BRANCH  26  27
HETATM   27  C13 UNL     1     -12.056   6.854  14.873  1.00  0.00     0.303 C 
BRANCH  27  28
HETATM   28  C14 UNL     1     -13.339   7.409  14.277  1.00  0.00     0.244 C 
HETATM   29  O3  UNL     1     -13.892   8.418  14.705  1.00  0.00    -0.271 OA
HETATM   30  N2  UNL     1     -13.776   6.737  13.151  1.00  0.00    -0.342 N 
HETATM   31  H16 UNL     1     -13.458   5.771  13.061  1.00  0.00     0.163 HD
BRANCH  30  32
HETATM   32  C15 UNL     1     -15.092   7.035  12.541  1.00  0.00     0.216 C 
BRANCH  32  33
HETATM   33  C16 UNL     1     -15.150   8.513  12.154  1.00  0.00     0.166 C 
HETATM   34  O4  UNL     1     -15.534   8.977  11.094  1.00  0.00    -0.648 OA
BRANCH  33  35
HETATM   35  O5  UNL     1     -14.747   9.349  13.143  1.00  0.00    -0.775 OA
HETATM   36  H18 UNL     1     -14.833  10.246  12.750  1.00  0.00     0.167 HD
ENDBRANCH  33  35
ENDBRANCH  32  33
BRANCH  32  37
HETATM   37  C17 UNL     1     -16.249   6.740  13.527  1.00  0.00     0.184 C 
BRANCH  37  38
HETATM   38  O6  UNL     1     -15.892   7.061  14.881  1.00  0.00    -0.388 OA
HETATM   39  H20 UNL     1     -15.233   7.775  14.829  1.00  0.00     0.210 HD
ENDBRANCH  37  38
BRANCH  37  40
HETATM   40  C18 UNL     1     -16.686   5.290  13.529  1.00  0.00    -0.025 A 
HETATM   41  C19 UNL     1     -17.731   4.854  12.694  1.00  0.00     0.010 A 
HETATM   42  C20 UNL     1     -18.132   3.515  12.678  1.00  0.00     0.003 A 
HETATM   43  C21 UNL     1     -17.493   2.585  13.497  1.00  0.00     0.036 A 
HETATM   44  C22 UNL     1     -16.456   3.008  14.338  1.00  0.00     0.103 A 
HETATM   45  C23 UNL     1     -16.051   4.352  14.357  1.00  0.00     0.045 A 
BRANCH  44  46
HETATM   46  N3  UNL     1     -15.780   2.031  15.203  1.00  0.00    -0.116 N 
HETATM   47  O7  UNL     1     -16.486   1.321  15.932  1.00  0.00    -0.532 OA
HETATM   48  O8  UNL     1     -14.543   1.969  15.152  1.00  0.00    -0.532 OA
ENDBRANCH  44  46
ENDBRANCH  37  40
ENDBRANCH  32  37
ENDBRANCH  30  32
ENDBRANCH  27  28
ENDBRANCH  26  27
ENDBRANCH  13  26
TORSDOF 11
ENDMDL
MODEL 9
REMARK minimizedAffinity -8.65227509
REMARK CNNscore 0.15930526
REMARK CNNaffinity 6.47167778
REMARK  11 active torsions:
REMARK  status: ('A' for Active; 'I' for Inactive)
REMARK    1  A    between atoms: C3_3  and  O1_4 
REMARK    2  A    between atoms: N1_14  and  O2_16 
REMARK    3  A    between atoms: O2_16  and  C13_17 
REMARK    4  A    between atoms: C13_17  and  C14_18 
REMARK       I    between atoms: C14_18  and  N2_20 
REMARK    5  A    between atoms: N2_20  and  C15_21 
REMARK    6  A    between atoms: C15_21  and  C16_22 
REMARK    7  A    between atoms: C15_21  and  C17_25 
REMARK    8  A    between atoms: C16_22  and  O5_24 
REMARK    9  A    between atoms: C17_25  and  O6_26 
REMARK   10  A    between atoms: C17_25  and  C18_27 
REMARK   11  A    between atoms: C22_31  and  N3_32 
ROOT
HETATM    1  C1  UNL     1      -7.319   5.331  13.991  1.00  0.00     0.015 C 
HETATM    2  C2  UNL     1      -6.465   6.153  14.179  1.00  0.00    -0.078 C 
HETATM    3  C3  UNL     1      -5.405   7.138  14.456  1.00  0.00     0.128 C 
HETATM    4  C4  UNL     1      -5.373   8.279  13.431  1.00  0.00     0.052 C 
HETATM    5  C5  UNL     1      -3.920   8.772  13.404  1.00  0.00     0.010 C 
HETATM    6  C6  UNL     1      -3.117   7.850  14.343  1.00  0.00     0.002 C 
HETATM    7  C7  UNL     1      -1.632   7.635  13.970  1.00  0.00    -0.004 C 
HETATM    8  C8  UNL     1      -0.900   8.973  13.794  1.00  0.00     0.010 C 
HETATM    9  C9  UNL     1       0.591   8.761  13.564  1.00  0.00     0.035 C 
HETATM   10  C10 UNL     1       0.874   7.831  12.407  1.00  0.00    -0.069 C 
HETATM   11  C11 UNL     1       1.832   8.157  11.519  1.00  0.00     0.030 C 
HETATM   12  C12 UNL     1       2.299   7.196  10.480  1.00  0.00     0.032 C 
HETATM   13  N1  UNL     1       3.331   7.352   9.705  1.00  0.00    -0.271 N 
ATOM     14  H1  UNL     1       3.637   6.658   9.024  1.00  0.00     0.194 HD
HETATM   15  C24 UNL     1       1.581   5.867  10.370  1.00  0.00     0.060 C 
HETATM   16  C25 UNL     1       0.172   5.924  10.932  1.00  0.00     0.020 C 
HETATM   17  C26 UNL     1       0.096   6.512  12.369  1.00  0.00    -0.016 C 
HETATM   18  C27 UNL     1       0.773   5.536  13.361  1.00  0.00     0.020 C 
HETATM   19  C28 UNL     1      -1.429   6.746  12.718  1.00  0.00     0.002 C 
HETATM   20  C29 UNL     1      -2.228   5.436  12.865  1.00  0.00     0.007 C 
HETATM   21  C30 UNL     1      -3.708   5.685  13.150  1.00  0.00     0.014 C 
HETATM   22  C31 UNL     1      -3.960   6.552  14.411  1.00  0.00     0.003 C 
HETATM   23  C32 UNL     1      -3.627   5.741  15.680  1.00  0.00     0.020 C 
ENDROOT
BRANCH   3  24
HETATM   24  O1  UNL     1      -5.653   7.721  15.738  1.00  0.00    -0.377 OA
HETATM   25  H2  UNL     1      -6.606   7.924  15.782  1.00  0.00     0.211 HD
ENDBRANCH   3  24
BRANCH  13  26
HETATM   26  O2  UNL     1       3.978   8.579   9.909  1.00  0.00    -0.271 OA
BRANCH  26  27
HETATM   27  C13 UNL     1       5.308   8.322  10.352  1.00  0.00     0.303 C 
BRANCH  27  28
HETATM   28  C14 UNL     1       5.662   9.272  11.485  1.00  0.00     0.244 C 
HETATM   29  O3  UNL     1       5.472  10.483  11.424  1.00  0.00    -0.271 OA
HETATM   30  N2  UNL     1       6.124   8.643  12.626  1.00  0.00    -0.342 N 
HETATM   31  H16 UNL     1       6.534   7.719  12.487  1.00  0.00     0.163 HD
BRANCH  30  32
HETATM   32  C15 UNL     1       6.670   9.419  13.763  1.00  0.00     0.216 C 
BRANCH  32  33
HETATM   33  C16 UNL     1       7.903  10.196  13.303  1.00  0.00     0.166 C 
HETATM   34  O4  UNL     1       8.954   9.728  12.900  1.00  0.00    -0.648 OA
BRANCH  33  35
HETATM   35  O5  UNL     1       7.742  11.542  13.342  1.00  0.00    -0.775 OA
HETATM   36  H18 UNL     1       8.603  11.896  13.030  1.00  0.00     0.167 HD
ENDBRANCH  33  35
ENDBRANCH  32  33
BRANCH  32  37
HETATM   37  C17 UNL     1       7.082   8.490  14.931  1.00  0.00     0.184 C 
BRANCH  37  38
HETATM   38  O6  UNL     1       5.967   7.740  15.438  1.00  0.00    -0.388 OA
HETATM   39  H20 UNL     1       5.348   7.633  14.695  1.00  0.00     0.210 HD
ENDBRANCH  37  38
BRANCH  37  40
HETATM   40  C18 UNL     1       7.674   9.232  16.112  1.00  0.00    -0.025 A 
HETATM   41  C19 UNL     1       9.043   9.121  16.416  1.00  0.00     0.010 A 
HETATM   42  C20 UNL     1       9.602   9.813  17.495  1.00  0.00     0.003 A 
HETATM   43  C21 UNL     1       8.800  10.631  18.290  1.00  0.00     0.036 A 
HETATM   44  C22 UNL     1       7.435  10.743  18.002  1.00  0.00     0.103 A 
HETATM   45  C23 UNL     1       6.870  10.049  16.920  1.00  0.00     0.045 A 
BRANCH  44  46
HETATM   46  N3  UNL     1       6.587  11.604  18.838  1.00  0.00    -0.116 N 
HETATM   47  O7  UNL     1       6.720  12.830  18.725  1.00  0.00    -0.532 OA
HETATM   48  O8  UNL     1       5.784  11.056  19.608  1.00  0.00    -0.532 OA
ENDBRANCH  44  46
ENDBRANCH  37  40
ENDBRANCH  32  37
ENDBRANCH  30  32
ENDBRANCH  27  28
ENDBRANCH  26  27
ENDBRANCH  13  26
TORSDOF 11
ENDMDL
