MODEL 1
REMARK minimizedAffinity -9.99936485
REMARK  6 active torsions:
REMARK  status: ('A' for Active; 'I' for Inactive)
REMARK    1  A    between atoms: O1_2  and  C2_3 
REMARK    2  A    between atoms: C7_9  and  C8_10 
REMARK    3  A    between atoms: C8_10  and  C9_11 
REMARK    4  A    between atoms: C9_11  and  N2_12 
REMARK       I    between atoms: N2_12  and  C10_13 
REMARK    5  A    between atoms: C10_13  and  C11_15 
REMARK    6  A    between atoms: C16_21  and  C17_22 
ROOT
HETATM    1  C11 UNL     1      -2.495   4.596  12.301  1.00  0.00     0.034 A 
HETATM    2  C12 UNL     1      -3.352   3.530  11.992  1.00  0.00     0.020 A 
HETATM    3  C13 UNL     1      -4.720   3.628  12.256  1.00  0.00     0.040 A 
HETATM    4  C14 UNL     1      -5.229   4.787  12.840  1.00  0.00     0.103 A 
HETATM    5  O3  UNL     1      -6.576   4.831  13.077  1.00  0.00    -0.303 OA
HETATM    6  C15 UNL     1      -7.116   5.969  13.687  1.00  0.00     0.144 A 
HETATM    7  C16 UNL     1      -8.440   5.959  13.923  1.00  0.00     0.054 C 
HETATM    8  C23 UNL     1      -6.230   7.135  14.045  1.00  0.00     0.280 A 
HETATM    9  O4  UNL     1      -6.621   8.178  14.558  1.00  0.00    -0.265 OA
HETATM   10  N3  UNL     1      -4.901   6.981  13.757  1.00  0.00    -0.319 N 
HETATM   11  C24 UNL     1      -4.377   5.838  13.164  1.00  0.00     0.070 A 
HETATM   12  C25 UNL     1      -3.008   5.753  12.902  1.00  0.00     0.049 A 
HETATM   13  H20 UNL     1      -4.310   7.763  14.009  1.00  0.00     0.169 HD
ENDROOT
BRANCH   1  14
HETATM   14  C10 UNL     1      -1.045   4.444  12.005  1.00  0.00     0.251 C 
HETATM   15  N2  UNL     1      -0.207   5.401  12.537  1.00  0.00    -0.357 N 
HETATM   16  H12 UNL     1      -0.600   6.247  12.925  1.00  0.00     0.162 HD
HETATM   17  O2  UNL     1      -0.659   3.525  11.292  1.00  0.00    -0.268 OA
BRANCH  15  18
HETATM   18  C9  UNL     1       1.217   5.394  12.248  1.00  0.00     0.127 C 
BRANCH  18  19
HETATM   19  C8  UNL     1       1.776   6.802  12.018  1.00  0.00     0.060 C 
BRANCH  19  20
HETATM   20  C7  UNL     1       1.437   7.331  10.661  1.00  0.00    -0.029 A 
HETATM   21  C6  UNL     1       0.647   8.429  10.380  1.00  0.00     0.096 A 
HETATM   22  N1  UNL     1       0.584   8.576   9.019  1.00  0.00    -0.365 N 
HETATM   23  C5  UNL     1       1.324   7.597   8.400  1.00  0.00     0.043 A 
HETATM   24  H6  UNL     1       0.070   9.298   8.534  1.00  0.00     0.165 HD
HETATM   25  C4  UNL     1       1.548   7.357   7.041  1.00  0.00     0.033 A 
HETATM   26  C26 UNL     1       1.869   6.798   9.404  1.00  0.00     0.001 A 
HETATM   27  C3  UNL     1       2.355   6.265   6.694  1.00  0.00     0.039 A 
HETATM   28  C2  UNL     1       2.918   5.443   7.670  1.00  0.00     0.069 A 
HETATM   29  C27 UNL     1       2.676   5.706   9.026  1.00  0.00     0.051 A 
BRANCH  28  30
HETATM   30  O1  UNL     1       3.718   4.357   7.439  1.00  0.00    -0.356 OA
HETATM   31  C1  UNL     1       3.640   3.759   6.152  1.00  0.00     0.210 C 
ENDBRANCH  28  30
ENDBRANCH  19  20
ENDBRANCH  18  19
ENDBRANCH  15  18
ENDBRANCH   1  14
BRANCH   7  32
HETATM   32  C17 UNL     1      -9.250   7.002  14.551  1.00  0.00    -0.032 A 
HETATM   33  C18 UNL     1      -9.061   7.312  15.904  1.00  0.00     0.011 A 
HETATM   34  C19 UNL     1      -9.822   8.315  16.509  1.00  0.00     0.003 A 
HETATM   35  C20 UNL     1     -10.772   9.013  15.764  1.00  0.00     0.024 A 
HETATM   36  C21 UNL     1     -10.959   8.705  14.417  1.00  0.00     0.034 A 
HETATM   37 CL1  UNL     1     -12.130   9.572  13.499  1.00  0.00    -0.084 Cl
HETATM   38  C22 UNL     1     -10.202   7.706  13.806  1.00  0.00     0.035 A 
ENDBRANCH   7  32
TORSDOF 6
ENDMDL
MODEL 2
REMARK minimizedAffinity -9.76883888
REMARK  6 active torsions:
REMARK  status: ('A' for Active; 'I' for Inactive)
REMARK    1  A    between atoms: O1_2  and  C2_3 
REMARK    2  A    between atoms: C7_9  and  C8_10 
REMARK    3  A    between atoms: C8_10  and  C9_11 
REMARK    4  A    between atoms: C9_11  and  N2_12 
REMARK       I    between atoms: N2_12  and  C10_13 
REMARK    5  A    between atoms: C10_13  and  C11_15 
REMARK    6  A    between atoms: C16_21  and  C17_22 
ROOT
HETATM    1  C11 UNL     1      -3.781   4.673  12.762  1.00  0.00     0.034 A 
HETATM    2  C12 UNL     1      -4.791   3.729  12.533  1.00  0.00     0.020 A 
HETATM    3  C13 UNL     1      -6.117   4.025  12.857  1.00  0.00     0.040 A 
HETATM    4  C14 UNL     1      -6.430   5.261  13.420  1.00  0.00     0.103 A 
HETATM    5  O3  UNL     1      -7.745   5.500  13.718  1.00  0.00    -0.303 OA
HETATM    6  C15 UNL     1      -8.090   6.720  14.310  1.00  0.00     0.144 A 
HETATM    7  C16 UNL     1      -9.389   6.902  14.607  1.00  0.00     0.054 C 
HETATM    8  C23 UNL     1      -7.035   7.761  14.582  1.00  0.00     0.280 A 
HETATM    9  O4  UNL     1      -7.251   8.864  15.074  1.00  0.00    -0.265 OA
HETATM   10  N3  UNL     1      -5.756   7.415  14.239  1.00  0.00    -0.319 N 
HETATM   11  C24 UNL     1      -5.426   6.192  13.664  1.00  0.00     0.070 A 
HETATM   12  C25 UNL     1      -4.098   5.909  13.343  1.00  0.00     0.049 A 
HETATM   13  H20 UNL     1      -5.051   8.113  14.434  1.00  0.00     0.169 HD
ENDROOT
BRANCH   1  14
HETATM   14  C10 UNL     1      -2.383   4.311  12.404  1.00  0.00     0.251 C 
HETATM   15  N2  UNL     1      -1.386   5.070  12.982  1.00  0.00    -0.357 N 
HETATM   16  H12 UNL     1      -1.624   5.933  13.450  1.00  0.00     0.162 HD
HETATM   17  O2  UNL     1      -2.170   3.405  11.608  1.00  0.00    -0.268 OA
BRANCH  15  18
HETATM   18  C9  UNL     1       0.011   4.854  12.644  1.00  0.00     0.127 C 
BRANCH  18  19
HETATM   19  C8  UNL     1       0.834   6.144  12.699  1.00  0.00     0.060 C 
BRANCH  19  20
HETATM   20  C7  UNL     1       0.669   6.974  11.465  1.00  0.00    -0.029 A 
HETATM   21  C6  UNL     1      -0.129   8.092  11.325  1.00  0.00     0.096 A 
HETATM   22  N1  UNL     1       0.001   8.556  10.043  1.00  0.00    -0.365 N 
HETATM   23  C5  UNL     1       0.876   7.764   9.337  1.00  0.00     0.043 A 
HETATM   24  H6  UNL     1      -0.474   9.362   9.663  1.00  0.00     0.165 HD
HETATM   25  C4  UNL     1       1.310   7.858   8.011  1.00  0.00     0.033 A 
HETATM   26  C26 UNL     1       1.310   6.761  10.202  1.00  0.00     0.001 A 
HETATM   27  C3  UNL     1       2.219   6.894   7.552  1.00  0.00     0.039 A 
HETATM   28  C2  UNL     1       2.676   5.875   8.387  1.00  0.00     0.069 A 
HETATM   29  C27 UNL     1       2.223   5.804   9.712  1.00  0.00     0.051 A 
BRANCH  28  30
HETATM   30  O1  UNL     1       3.560   4.889   8.039  1.00  0.00    -0.356 OA
HETATM   31  C1  UNL     1       3.927   3.963   9.053  1.00  0.00     0.210 C 
ENDBRANCH  28  30
ENDBRANCH  19  20
ENDBRANCH  18  19
ENDBRANCH  15  18
ENDBRANCH   1  14
BRANCH   7  32
HETATM   32  C17 UNL     1     -10.014   8.068  15.233  1.00  0.00    -0.032 A 
HETATM   33  C18 UNL     1      -9.910   8.256  16.617  1.00  0.00     0.011 A 
HETATM   34  C19 UNL     1     -10.493   9.371  17.221  1.00  0.00     0.003 A 
HETATM   35  C20 UNL     1     -11.181  10.304  16.445  1.00  0.00     0.024 A 
HETATM   36  C21 UNL     1     -11.283  10.117  15.067  1.00  0.00     0.034 A 
HETATM   37 CL1  UNL     1     -12.129  11.272  14.111  1.00  0.00    -0.084 Cl
HETATM   38  C22 UNL     1     -10.702   9.006  14.457  1.00  0.00     0.035 A 
ENDBRANCH   7  32
TORSDOF 6
ENDMDL
MODEL 3
REMARK minimizedAffinity -9.61570168
REMARK  6 active torsions:
REMARK  status: ('A' for Active; 'I' for Inactive)
REMARK    1  A    between atoms: O1_2  and  C2_3 
REMARK    2  A    between atoms: C7_9  and  C8_10 
REMARK    3  A    between atoms: C8_10  and  C9_11 
REMARK    4  A    between atoms: C9_11  and  N2_12 
REMARK       I    between atoms: N2_12  and  C10_13 
REMARK    5  A    between atoms: C10_13  and  C11_15 
REMARK    6  A    between atoms: C16_21  and  C17_22 
ROOT
HETATM    1  C11 UNL     1      -3.971   5.306  13.643  1.00  0.00     0.034 A 
HETATM    2  C12 UNL     1      -4.000   6.028  14.844  1.00  0.00     0.020 A 
HETATM    3  C13 UNL     1      -5.196   6.585  15.303  1.00  0.00     0.040 A 
HETATM    4  C14 UNL     1      -6.361   6.428  14.554  1.00  0.00     0.103 A 
HETATM    5  O3  UNL     1      -7.506   6.993  15.047  1.00  0.00    -0.303 OA
HETATM    6  C15 UNL     1      -8.688   6.878  14.307  1.00  0.00     0.144 A 
HETATM    7  C16 UNL     1      -9.783   7.469  14.819  1.00  0.00     0.054 C 
HETATM    8  C23 UNL     1      -8.701   6.118  13.006  1.00  0.00     0.280 A 
HETATM    9  O4  UNL     1      -9.694   5.948  12.306  1.00  0.00    -0.265 OA
HETATM   10  N3  UNL     1      -7.501   5.592  12.612  1.00  0.00    -0.319 N 
HETATM   11  C24 UNL     1      -6.330   5.727  13.352  1.00  0.00     0.070 A 
HETATM   12  C25 UNL     1      -5.142   5.164  12.885  1.00  0.00     0.049 A 
HETATM   13  H20 UNL     1      -7.514   5.093  11.733  1.00  0.00     0.169 HD
ENDROOT
BRANCH   1  14
HETATM   14  C10 UNL     1      -2.673   4.735  13.194  1.00  0.00     0.251 C 
HETATM   15  N2  UNL     1      -1.540   5.445  13.537  1.00  0.00    -0.357 N 
HETATM   16  H12 UNL     1      -1.630   6.386  13.890  1.00  0.00     0.162 HD
HETATM   17  O2  UNL     1      -2.653   3.708  12.527  1.00  0.00    -0.268 OA
BRANCH  15  18
HETATM   18  C9  UNL     1      -0.226   5.020  13.086  1.00  0.00     0.127 C 
BRANCH  18  19
HETATM   19  C8  UNL     1       0.765   6.184  12.988  1.00  0.00     0.060 C 
BRANCH  19  20
HETATM   20  C7  UNL     1       0.563   6.998  11.749  1.00  0.00    -0.029 A 
HETATM   21  C6  UNL     1      -0.317   8.051  11.590  1.00  0.00     0.096 A 
HETATM   22  N1  UNL     1      -0.197   8.522  10.310  1.00  0.00    -0.365 N 
HETATM   23  C5  UNL     1       0.752   7.801   9.625  1.00  0.00     0.043 A 
HETATM   24  H6  UNL     1      -0.725   9.289   9.918  1.00  0.00     0.165 HD
HETATM   25  C4  UNL     1       1.206   7.926   8.308  1.00  0.00     0.033 A 
HETATM   26  C26 UNL     1       1.245   6.834  10.500  1.00  0.00     0.001 A 
HETATM   27  C3  UNL     1       2.196   7.036   7.869  1.00  0.00     0.039 A 
HETATM   28  C2  UNL     1       2.712   6.056   8.717  1.00  0.00     0.069 A 
HETATM   29  C27 UNL     1       2.239   5.951  10.032  1.00  0.00     0.051 A 
BRANCH  28  30
HETATM   30  O1  UNL     1       3.677   5.141   8.390  1.00  0.00    -0.356 OA
HETATM   31  C1  UNL     1       3.771   3.981   9.205  1.00  0.00     0.210 C 
ENDBRANCH  28  30
ENDBRANCH  19  20
ENDBRANCH  18  19
ENDBRANCH  15  18
ENDBRANCH   1  14
BRANCH   7  32
HETATM   32  C17 UNL     1     -11.130   7.511  14.252  1.00  0.00    -0.032 A 
HETATM   33  C18 UNL     1     -11.490   8.551  13.386  1.00  0.00     0.011 A 
HETATM   34  C19 UNL     1     -12.770   8.594  12.831  1.00  0.00     0.003 A 
HETATM   35  C20 UNL     1     -13.696   7.596  13.136  1.00  0.00     0.024 A 
HETATM   36  C21 UNL     1     -13.337   6.560  13.997  1.00  0.00     0.034 A 
HETATM   37 CL1  UNL     1     -14.479   5.327  14.369  1.00  0.00    -0.084 Cl
HETATM   38  C22 UNL     1     -12.059   6.510  14.554  1.00  0.00     0.035 A 
ENDBRANCH   7  32
TORSDOF 6
ENDMDL
MODEL 4
REMARK minimizedAffinity -9.52055168
REMARK  6 active torsions:
REMARK  status: ('A' for Active; 'I' for Inactive)
REMARK    1  A    between atoms: O1_2  and  C2_3 
REMARK    2  A    between atoms: C7_9  and  C8_10 
REMARK    3  A    between atoms: C8_10  and  C9_11 
REMARK    4  A    between atoms: C9_11  and  N2_12 
REMARK       I    between atoms: N2_12  and  C10_13 
REMARK    5  A    between atoms: C10_13  and  C11_15 
REMARK    6  A    between atoms: C16_21  and  C17_22 
ROOT
HETATM    1  C11 UNL     1      -4.099   3.525  11.996  1.00  0.00     0.034 A 
HETATM    2  C12 UNL     1      -3.370   2.488  11.396  1.00  0.00     0.020 A 
HETATM    3  C13 UNL     1      -2.014   2.656  11.108  1.00  0.00     0.040 A 
HETATM    4  C14 UNL     1      -1.390   3.865  11.411  1.00  0.00     0.103 A 
HETATM    5  O3  UNL     1      -0.059   3.978  11.109  1.00  0.00    -0.303 OA
HETATM    6  C15 UNL     1       0.592   5.187  11.375  1.00  0.00     0.144 A 
HETATM    7  C16 UNL     1       1.893   5.261  11.040  1.00  0.00     0.054 C 
HETATM    8  C23 UNL     1      -0.155   6.332  12.011  1.00  0.00     0.280 A 
HETATM    9  O4  UNL     1       0.341   7.416  12.301  1.00  0.00    -0.265 OA
HETATM   10  N3  UNL     1      -1.478   6.104  12.274  1.00  0.00    -0.319 N 
HETATM   11  C24 UNL     1      -2.116   4.901  11.991  1.00  0.00     0.070 A 
HETATM   12  C25 UNL     1      -3.471   4.744  12.285  1.00  0.00     0.049 A 
HETATM   13  H20 UNL     1      -1.977   6.879  12.691  1.00  0.00     0.169 HD
ENDROOT
BRANCH   1  14
HETATM   14  C10 UNL     1      -5.542   3.299  12.280  1.00  0.00     0.251 C 
HETATM   15  N2  UNL     1      -6.128   4.153  13.192  1.00  0.00    -0.357 N 
HETATM   16  H12 UNL     1      -5.545   4.748  13.763  1.00  0.00     0.162 HD
HETATM   17  O2  UNL     1      -6.135   2.373  11.740  1.00  0.00    -0.268 OA
BRANCH  15  18
HETATM   18  C9  UNL     1      -7.511   3.977  13.601  1.00  0.00     0.127 C 
BRANCH  18  19
HETATM   19  C8  UNL     1      -8.442   5.026  12.987  1.00  0.00     0.060 C 
BRANCH  19  20
HETATM   20  C7  UNL     1      -8.675   6.184  13.905  1.00  0.00    -0.029 A 
HETATM   21  C6  UNL     1      -7.849   6.600  14.932  1.00  0.00     0.096 A 
HETATM   22  N1  UNL     1      -8.422   7.691  15.529  1.00  0.00    -0.365 N 
HETATM   23  C5  UNL     1      -9.608   8.005  14.909  1.00  0.00     0.043 A 
HETATM   24  H6  UNL     1      -8.034   8.198  16.312  1.00  0.00     0.165 HD
HETATM   25  C4  UNL     1     -10.522   9.030  15.174  1.00  0.00     0.033 A 
HETATM   26  C26 UNL     1      -9.796   7.076  13.888  1.00  0.00     0.001 A 
HETATM   27  C3  UNL     1     -11.667   9.109  14.368  1.00  0.00     0.039 A 
HETATM   28  C2  UNL     1     -11.889   8.196  13.337  1.00  0.00     0.069 A 
HETATM   29  C27 UNL     1     -10.956   7.178  13.094  1.00  0.00     0.051 A 
BRANCH  28  30
HETATM   30  O1  UNL     1     -12.969   8.186  12.496  1.00  0.00    -0.356 OA
HETATM   31  C1  UNL     1     -14.095   7.418  12.900  1.00  0.00     0.210 C 
ENDBRANCH  28  30
ENDBRANCH  19  20
ENDBRANCH  18  19
ENDBRANCH  15  18
ENDBRANCH   1  14
BRANCH   7  32
HETATM   32  C17 UNL     1       2.799   6.399  11.197  1.00  0.00    -0.032 A 
HETATM   33  C18 UNL     1       2.299   7.635  11.623  1.00  0.00     0.011 A 
HETATM   34  C19 UNL     1       3.159   8.724  11.785  1.00  0.00     0.003 A 
HETATM   35  C20 UNL     1       4.522   8.580  11.526  1.00  0.00     0.024 A 
HETATM   36  C21 UNL     1       5.019   7.348  11.103  1.00  0.00     0.034 A 
HETATM   37 CL1  UNL     1       6.702   7.171  10.787  1.00  0.00    -0.084 Cl
HETATM   38  C22 UNL     1       4.166   6.257  10.940  1.00  0.00     0.035 A 
ENDBRANCH   7  32
TORSDOF 6
ENDMDL
MODEL 5
REMARK minimizedAffinity -9.50905609
REMARK  6 active torsions:
REMARK  status: ('A' for Active; 'I' for Inactive)
REMARK    1  A    between atoms: O1_2  and  C2_3 
REMARK    2  A    between atoms: C7_9  and  C8_10 
REMARK    3  A    between atoms: C8_10  and  C9_11 
REMARK    4  A    between atoms: C9_11  and  N2_12 
REMARK       I    between atoms: N2_12  and  C10_13 
REMARK    5  A    between atoms: C10_13  and  C11_15 
REMARK    6  A    between atoms: C16_21  and  C17_22 
ROOT
HETATM    1  C11 UNL     1       0.817   7.489  13.456  1.00  0.00     0.034 A 
HETATM    2  C12 UNL     1       0.874   6.111  13.712  1.00  0.00     0.020 A 
HETATM    3  C13 UNL     1      -0.300   5.357  13.772  1.00  0.00     0.040 A 
HETATM    4  C14 UNL     1      -1.531   5.983  13.588  1.00  0.00     0.103 A 
HETATM    5  O3  UNL     1      -2.651   5.198  13.657  1.00  0.00    -0.303 OA
HETATM    6  C15 UNL     1      -3.905   5.799  13.504  1.00  0.00     0.144 A 
HETATM    7  C16 UNL     1      -4.978   4.993  13.603  1.00  0.00     0.054 C 
HETATM    8  C23 UNL     1      -4.015   7.278  13.237  1.00  0.00     0.280 A 
HETATM    9  O4  UNL     1      -5.069   7.882  13.067  1.00  0.00    -0.265 OA
HETATM   10  N3  UNL     1      -2.830   7.961  13.184  1.00  0.00    -0.319 N 
HETATM   11  C24 UNL     1      -1.591   7.353  13.352  1.00  0.00     0.070 A 
HETATM   12  C25 UNL     1      -0.425   8.117  13.287  1.00  0.00     0.049 A 
HETATM   13  H20 UNL     1      -2.911   8.955  13.015  1.00  0.00     0.169 HD
ENDROOT
BRANCH   1  14
HETATM   14  C10 UNL     1       2.094   8.250  13.405  1.00  0.00     0.251 C 
HETATM   15  N2  UNL     1       3.252   7.514  13.548  1.00  0.00    -0.357 N 
HETATM   16  H12 UNL     1       3.199   6.558  13.868  1.00  0.00     0.162 HD
HETATM   17  O2  UNL     1       2.076   9.468  13.277  1.00  0.00    -0.268 OA
BRANCH  15  18
HETATM   18  C9  UNL     1       4.552   8.164  13.589  1.00  0.00     0.127 C 
BRANCH  18  19
HETATM   19  C8  UNL     1       5.127   8.414  12.192  1.00  0.00     0.060 C 
BRANCH  19  20
HETATM   20  C7  UNL     1       4.842   7.286  11.252  1.00  0.00    -0.029 A 
HETATM   21  C6  UNL     1       5.502   6.074  11.196  1.00  0.00     0.096 A 
HETATM   22  N1  UNL     1       4.939   5.324  10.198  1.00  0.00    -0.365 N 
HETATM   23  C5  UNL     1       3.916   6.020   9.599  1.00  0.00     0.043 A 
HETATM   24  H6  UNL     1       5.228   4.392   9.934  1.00  0.00     0.165 HD
HETATM   25  C4  UNL     1       3.067   5.653   8.550  1.00  0.00     0.033 A 
HETATM   26  C26 UNL     1       3.832   7.257  10.236  1.00  0.00     0.001 A 
HETATM   27  C3  UNL     1       2.100   6.581   8.136  1.00  0.00     0.039 A 
HETATM   28  C2  UNL     1       1.987   7.829   8.750  1.00  0.00     0.069 A 
HETATM   29  C27 UNL     1       2.852   8.170   9.800  1.00  0.00     0.051 A 
BRANCH  28  30
HETATM   30  O1  UNL     1       1.081   8.802   8.425  1.00  0.00    -0.356 OA
HETATM   31  C1  UNL     1      -0.286   8.532   8.704  1.00  0.00     0.210 C 
ENDBRANCH  28  30
ENDBRANCH  19  20
ENDBRANCH  18  19
ENDBRANCH  15  18
ENDBRANCH   1  14
BRANCH   7  32
HETATM   32  C17 UNL     1      -6.391   5.359  13.496  1.00  0.00    -0.032 A 
HETATM   33  C18 UNL     1      -7.086   5.113  12.306  1.00  0.00     0.011 A 
HETATM   34  C19 UNL     1      -8.438   5.449  12.199  1.00  0.00     0.003 A 
HETATM   35  C20 UNL     1      -9.099   6.029  13.282  1.00  0.00     0.024 A 
HETATM   36  C21 UNL     1      -8.406   6.272  14.466  1.00  0.00     0.034 A 
HETATM   37 CL1  UNL     1      -9.226   6.985  15.802  1.00  0.00    -0.084 Cl
HETATM   38  C22 UNL     1      -7.057   5.939  14.581  1.00  0.00     0.035 A 
ENDBRANCH   7  32
TORSDOF 6
ENDMDL
MODEL 6
REMARK minimizedAffinity -9.48729038
REMARK  6 active torsions:
REMARK  status: ('A' for Active; 'I' for Inactive)
REMARK    1  A    between atoms: O1_2  and  C2_3 
REMARK    2  A    between atoms: C7_9  and  C8_10 
REMARK    3  A    between atoms: C8_10  and  C9_11 
REMARK    4  A    between atoms: C9_11  and  N2_12 
REMARK       I    between atoms: N2_12  and  C10_13 
REMARK    5  A    between atoms: C10_13  and  C11_15 
REMARK    6  A    between atoms: C16_21  and  C17_22 
ROOT
HETATM    1  C11 UNL     1      -4.710   4.482  12.762  1.00  0.00     0.034 A 
HETATM    2  C12 UNL     1      -5.839   3.667  12.593  1.00  0.00     0.020 A 
HETATM    3  C13 UNL     1      -7.102   4.127  12.970  1.00  0.00     0.040 A 
HETATM    4  C14 UNL     1      -7.235   5.398  13.526  1.00  0.00     0.103 A 
HETATM    5  O3  UNL     1      -8.495   5.801  13.878  1.00  0.00    -0.303 OA
HETATM    6  C15 UNL     1      -8.661   7.060  14.464  1.00  0.00     0.144 A 
HETATM    7  C16 UNL     1      -9.913   7.404  14.816  1.00  0.00     0.054 C 
HETATM    8  C23 UNL     1      -7.475   7.966  14.673  1.00  0.00     0.280 A 
HETATM    9  O4  UNL     1      -7.531   9.093  15.155  1.00  0.00    -0.265 OA
HETATM   10  N3  UNL     1      -6.266   7.462  14.279  1.00  0.00    -0.319 N 
HETATM   11  C24 UNL     1      -6.114   6.201  13.710  1.00  0.00     0.070 A 
HETATM   12  C25 UNL     1      -4.847   5.753  13.335  1.00  0.00     0.049 A 
HETATM   13  H20 UNL     1      -5.472   8.070  14.431  1.00  0.00     0.169 HD
ENDROOT
BRANCH   1  14
HETATM   14  C10 UNL     1      -3.386   3.946  12.348  1.00  0.00     0.251 C 
HETATM   15  N2  UNL     1      -2.306   4.789  12.513  1.00  0.00    -0.357 N 
HETATM   16  H12 UNL     1      -2.462   5.767  12.712  1.00  0.00     0.162 HD
HETATM   17  O2  UNL     1      -3.303   2.827  11.858  1.00  0.00    -0.268 OA
BRANCH  15  18
HETATM   18  C9  UNL     1      -0.977   4.399  12.073  1.00  0.00     0.127 C 
BRANCH  18  19
HETATM   19  C8  UNL     1      -0.439   5.301  10.958  1.00  0.00     0.060 C 
BRANCH  19  20
HETATM   20  C7  UNL     1       0.841   5.974  11.341  1.00  0.00    -0.029 A 
HETATM   21  C6  UNL     1       1.424   5.982  12.593  1.00  0.00     0.096 A 
HETATM   22  N1  UNL     1       2.583   6.708  12.523  1.00  0.00    -0.365 N 
HETATM   23  C5  UNL     1       2.775   7.175  11.245  1.00  0.00     0.043 A 
HETATM   24  H6  UNL     1       3.210   6.881  13.296  1.00  0.00     0.165 HD
HETATM   25  C4  UNL     1       3.810   7.949  10.712  1.00  0.00     0.033 A 
HETATM   26  C26 UNL     1       1.697   6.733  10.480  1.00  0.00     0.001 A 
HETATM   27  C3  UNL     1       3.743   8.284   9.352  1.00  0.00     0.039 A 
HETATM   28  C2  UNL     1       2.680   7.860   8.555  1.00  0.00     0.069 A 
HETATM   29  C27 UNL     1       1.654   7.085   9.115  1.00  0.00     0.051 A 
BRANCH  28  30
HETATM   30  O1  UNL     1       2.520   8.131   7.223  1.00  0.00    -0.356 OA
HETATM   31  C1  UNL     1       1.822   7.166   6.447  1.00  0.00     0.210 C 
ENDBRANCH  28  30
ENDBRANCH  19  20
ENDBRANCH  18  19
ENDBRANCH  15  18
ENDBRANCH   1  14
BRANCH   7  32
HETATM   32  C17 UNL     1     -10.361   8.644  15.450  1.00  0.00    -0.032 A 
HETATM   33  C18 UNL     1     -10.689   9.753  14.660  1.00  0.00     0.011 A 
HETATM   34  C19 UNL     1     -11.128  10.937  15.256  1.00  0.00     0.003 A 
HETATM   35  C20 UNL     1     -11.244  11.016  16.644  1.00  0.00     0.024 A 
HETATM   36  C21 UNL     1     -10.919   9.912  17.430  1.00  0.00     0.034 A 
HETATM   37 CL1  UNL     1     -11.067  10.011  19.142  1.00  0.00    -0.084 Cl
HETATM   38  C22 UNL     1     -10.481   8.726  16.841  1.00  0.00     0.035 A 
ENDBRANCH   7  32
TORSDOF 6
ENDMDL
MODEL 7
REMARK minimizedAffinity -9.39692783
REMARK  6 active torsions:
REMARK  status: ('A' for Active; 'I' for Inactive)
REMARK    1  A    between atoms: O1_2  and  C2_3 
REMARK    2  A    between atoms: C7_9  and  C8_10 
REMARK    3  A    between atoms: C8_10  and  C9_11 
REMARK    4  A    between atoms: C9_11  and  N2_12 
REMARK       I    between atoms: N2_12  and  C10_13 
REMARK    5  A    between atoms: C10_13  and  C11_15 
REMARK    6  A    between atoms: C16_21  and  C17_22 
ROOT
HETATM    1  C11 UNL     1      -1.993   3.493  11.815  1.00  0.00     0.034 A 
HETATM    2  C12 UNL     1      -2.819   2.375  11.629  1.00  0.00     0.020 A 
HETATM    3  C13 UNL     1      -4.183   2.453  11.916  1.00  0.00     0.040 A 
HETATM    4  C14 UNL     1      -4.719   3.645  12.400  1.00  0.00     0.103 A 
HETATM    5  O3  UNL     1      -6.062   3.667  12.666  1.00  0.00    -0.303 OA
HETATM    6  C15 UNL     1      -6.628   4.839  13.179  1.00  0.00     0.144 A 
HETATM    7  C16 UNL     1      -7.946   4.808  13.448  1.00  0.00     0.054 C 
HETATM    8  C23 UNL     1      -5.776   6.062  13.404  1.00  0.00     0.280 A 
HETATM    9  O4  UNL     1      -6.191   7.136  13.827  1.00  0.00    -0.265 OA
HETATM   10  N3  UNL     1      -4.449   5.926  13.099  1.00  0.00    -0.319 N 
HETATM   11  C24 UNL     1      -3.898   4.749  12.603  1.00  0.00     0.070 A 
HETATM   12  C25 UNL     1      -2.533   4.685  12.317  1.00  0.00     0.049 A 
HETATM   13  H20 UNL     1      -3.880   6.746  13.262  1.00  0.00     0.169 HD
ENDROOT
BRANCH   1  14
HETATM   14  C10 UNL     1      -0.545   3.361  11.498  1.00  0.00     0.251 C 
HETATM   15  N2  UNL     1       0.183   4.532  11.459  1.00  0.00    -0.357 N 
HETATM   16  H12 UNL     1      -0.300   5.419  11.449  1.00  0.00     0.162 HD
HETATM   17  O2  UNL     1      -0.070   2.259  11.255  1.00  0.00    -0.268 OA
BRANCH  15  18
HETATM   18  C9  UNL     1       1.587   4.529  11.085  1.00  0.00     0.127 C 
BRANCH  18  19
HETATM   19  C8  UNL     1       2.203   5.931  11.108  1.00  0.00     0.060 C 
BRANCH  19  20
HETATM   20  C7  UNL     1       1.171   7.006  10.982  1.00  0.00    -0.029 A 
HETATM   21  C6  UNL     1       0.833   7.692   9.831  1.00  0.00     0.096 A 
HETATM   22  N1  UNL     1      -0.153   8.591  10.141  1.00  0.00    -0.365 N 
HETATM   23  C5  UNL     1      -0.473   8.505  11.475  1.00  0.00     0.043 A 
HETATM   24  H6  UNL     1      -0.586   9.229   9.489  1.00  0.00     0.165 HD
HETATM   25  C4  UNL     1      -1.413   9.218  12.226  1.00  0.00     0.033 A 
HETATM   26  C26 UNL     1       0.342   7.521  12.031  1.00  0.00     0.001 A 
HETATM   27  C3  UNL     1      -1.524   8.917  13.591  1.00  0.00     0.039 A 
HETATM   28  C2  UNL     1      -0.724   7.939  14.182  1.00  0.00     0.069 A 
HETATM   29  C27 UNL     1       0.210   7.239  13.406  1.00  0.00     0.051 A 
BRANCH  28  30
HETATM   30  O1  UNL     1      -0.754   7.569  15.500  1.00  0.00    -0.356 OA
HETATM   31  C1  UNL     1      -1.819   8.079  16.290  1.00  0.00     0.210 C 
ENDBRANCH  28  30
ENDBRANCH  19  20
ENDBRANCH  18  19
ENDBRANCH  15  18
ENDBRANCH   1  14
BRANCH   7  32
HETATM   32  C17 UNL     1      -8.778   5.880  13.995  1.00  0.00    -0.032 A 
HETATM   33  C18 UNL     1      -8.612   6.280  15.327  1.00  0.00     0.011 A 
HETATM   34  C19 UNL     1      -9.395   7.310  15.854  1.00  0.00     0.003 A 
HETATM   35  C20 UNL     1     -10.343   7.945  15.053  1.00  0.00     0.024 A 
HETATM   36  C21 UNL     1     -10.506   7.547  13.726  1.00  0.00     0.034 A 
HETATM   37 CL1  UNL     1     -11.674   8.336  12.738  1.00  0.00    -0.084 Cl
HETATM   38  C22 UNL     1      -9.727   6.521  13.193  1.00  0.00     0.035 A 
ENDBRANCH   7  32
TORSDOF 6
ENDMDL
MODEL 8
REMARK minimizedAffinity -9.32230186
REMARK  6 active torsions:
REMARK  status: ('A' for Active; 'I' for Inactive)
REMARK    1  A    between atoms: O1_2  and  C2_3 
REMARK    2  A    between atoms: C7_9  and  C8_10 
REMARK    3  A    between atoms: C8_10  and  C9_11 
REMARK    4  A    between atoms: C9_11  and  N2_12 
REMARK       I    between atoms: N2_12  and  C10_13 
REMARK    5  A    between atoms: C10_13  and  C11_15 
REMARK    6  A    between atoms: C16_21  and  C17_22 
ROOT
HETATM    1  C11 UNL     1      -2.940   3.973  11.924  1.00  0.00     0.034 A 
HETATM    2  C12 UNL     1      -3.897   2.963  11.751  1.00  0.00     0.020 A 
HETATM    3  C13 UNL     1      -5.220   3.171  12.147  1.00  0.00     0.040 A 
HETATM    4  C14 UNL     1      -5.583   4.386  12.725  1.00  0.00     0.103 A 
HETATM    5  O3  UNL     1      -6.892   4.538  13.095  1.00  0.00    -0.303 OA
HETATM    6  C15 UNL     1      -7.285   5.735  13.704  1.00  0.00     0.144 A 
HETATM    7  C16 UNL     1      -8.576   5.832  14.072  1.00  0.00     0.054 C 
HETATM    8  C23 UNL     1      -6.289   6.845  13.917  1.00  0.00     0.280 A 
HETATM    9  O4  UNL     1      -6.550   7.933  14.419  1.00  0.00    -0.265 OA
HETATM   10  N3  UNL     1      -5.011   6.584  13.504  1.00  0.00    -0.319 N 
HETATM   11  C24 UNL     1      -4.631   5.383  12.914  1.00  0.00     0.070 A 
HETATM   12  C25 UNL     1      -3.306   5.187  12.520  1.00  0.00     0.049 A 
HETATM   13  H20 UNL     1      -4.344   7.328  13.660  1.00  0.00     0.169 HD
ENDROOT
BRANCH   1  14
HETATM   14  C10 UNL     1      -1.543   3.703  11.490  1.00  0.00     0.251 C 
HETATM   15  N2  UNL     1      -0.599   4.645  11.844  1.00  0.00    -0.357 N 
HETATM   16  H12 UNL     1      -0.898   5.543  12.195  1.00  0.00     0.162 HD
HETATM   17  O2  UNL     1      -1.290   2.706  10.824  1.00  0.00    -0.268 OA
BRANCH  15  18
HETATM   18  C9  UNL     1       0.782   4.521  11.407  1.00  0.00     0.127 C 
BRANCH  18  19
HETATM   19  C8  UNL     1       1.311   5.806  10.764  1.00  0.00     0.060 C 
BRANCH  19  20
HETATM   20  C7  UNL     1       2.803   5.814  10.657  1.00  0.00    -0.029 A 
HETATM   21  C6  UNL     1       3.570   5.061   9.790  1.00  0.00     0.096 A 
HETATM   22  N1  UNL     1       4.888   5.360  10.011  1.00  0.00    -0.365 N 
HETATM   23  C5  UNL     1       5.002   6.301  11.007  1.00  0.00     0.043 A 
HETATM   24  H6  UNL     1       5.670   4.952   9.518  1.00  0.00     0.165 HD
HETATM   25  C4  UNL     1       6.139   6.901  11.558  1.00  0.00     0.033 A 
HETATM   26  C26 UNL     1       3.710   6.604  11.435  1.00  0.00     0.001 A 
HETATM   27  C3  UNL     1       5.951   7.841  12.581  1.00  0.00     0.039 A 
HETATM   28  C2  UNL     1       4.674   8.169  13.036  1.00  0.00     0.069 A 
HETATM   29  C27 UNL     1       3.551   7.553  12.466  1.00  0.00     0.051 A 
BRANCH  28  30
HETATM   30  O1  UNL     1       4.383   9.070  14.024  1.00  0.00    -0.356 OA
HETATM   31  C1  UNL     1       5.481   9.717  14.653  1.00  0.00     0.210 C 
ENDBRANCH  28  30
ENDBRANCH  19  20
ENDBRANCH  18  19
ENDBRANCH  15  18
ENDBRANCH   1  14
BRANCH   7  32
HETATM   32  C17 UNL     1      -9.241   6.956  14.731  1.00  0.00    -0.032 A 
HETATM   33  C18 UNL     1      -9.045   7.177  16.099  1.00  0.00     0.011 A 
HETATM   34  C19 UNL     1      -9.668   8.254  16.734  1.00  0.00     0.003 A 
HETATM   35  C20 UNL     1     -10.487   9.115  16.003  1.00  0.00     0.024 A 
HETATM   36  C21 UNL     1     -10.680   8.895  14.640  1.00  0.00     0.034 A 
HETATM   37 CL1  UNL     1     -11.687   9.961  13.739  1.00  0.00    -0.084 Cl
HETATM   38  C22 UNL     1     -10.061   7.822  14.000  1.00  0.00     0.035 A 
ENDBRANCH   7  32
TORSDOF 6
ENDMDL
MODEL 9
REMARK minimizedAffinity -9.29101658
REMARK  6 active torsions:
REMARK  status: ('A' for Active; 'I' for Inactive)
REMARK    1  A    between atoms: O1_2  and  C2_3 
REMARK    2  A    between atoms: C7_9  and  C8_10 
REMARK    3  A    between atoms: C8_10  and  C9_11 
REMARK    4  A    between atoms: C9_11  and  N2_12 
REMARK       I    between atoms: N2_12  and  C10_13 
REMARK    5  A    between atoms: C10_13  and  C11_15 
REMARK    6  A    between atoms: C16_21  and  C17_22 
ROOT
HETATM    1  C11 UNL     1      -4.161   5.785  14.207  1.00  0.00     0.034 A 
HETATM    2  C12 UNL     1      -4.324   6.489  15.408  1.00  0.00     0.020 A 
HETATM    3  C13 UNL     1      -5.584   6.961  15.782  1.00  0.00     0.040 A 
HETATM    4  C14 UNL     1      -6.679   6.738  14.949  1.00  0.00     0.103 A 
HETATM    5  O3  UNL     1      -7.891   7.221  15.362  1.00  0.00    -0.303 OA
HETATM    6  C15 UNL     1      -9.006   7.038  14.537  1.00  0.00     0.144 A 
HETATM    7  C16 UNL     1     -10.172   7.550  14.972  1.00  0.00     0.054 C 
HETATM    8  C23 UNL     1      -8.875   6.295  13.232  1.00  0.00     0.280 A 
HETATM    9  O4  UNL     1      -9.801   6.069  12.461  1.00  0.00    -0.265 OA
HETATM   10  N3  UNL     1      -7.617   5.853  12.924  1.00  0.00    -0.319 N 
HETATM   11  C24 UNL     1      -6.515   6.055  13.748  1.00  0.00     0.070 A 
HETATM   12  C25 UNL     1      -5.261   5.577  13.365  1.00  0.00     0.049 A 
HETATM   13  H20 UNL     1      -7.534   5.365  12.042  1.00  0.00     0.169 HD
ENDROOT
BRANCH   1  14
HETATM   14  C10 UNL     1      -2.798   5.306  13.850  1.00  0.00     0.251 C 
HETATM   15  N2  UNL     1      -2.575   5.034  12.516  1.00  0.00    -0.357 N 
HETATM   16  H12 UNL     1      -3.358   4.979  11.880  1.00  0.00     0.162 HD
HETATM   17  O2  UNL     1      -1.958   5.139  14.726  1.00  0.00    -0.268 OA
BRANCH  15  18
HETATM   18  C9  UNL     1      -1.305   4.488  12.065  1.00  0.00     0.127 C 
BRANCH  18  19
HETATM   19  C8  UNL     1      -0.656   5.340  10.971  1.00  0.00     0.060 C 
BRANCH  19  20
HETATM   20  C7  UNL     1       0.638   5.944  11.415  1.00  0.00    -0.029 A 
HETATM   21  C6  UNL     1       1.151   5.940  12.698  1.00  0.00     0.096 A 
HETATM   22  N1  UNL     1       2.352   6.597  12.683  1.00  0.00    -0.365 N 
HETATM   23  C5  UNL     1       2.642   7.029  11.411  1.00  0.00     0.043 A 
HETATM   24  H6  UNL     1       2.946   6.746  13.487  1.00  0.00     0.165 HD
HETATM   25  C4  UNL     1       3.749   7.734  10.926  1.00  0.00     0.033 A 
HETATM   26  C26 UNL     1       1.584   6.638  10.593  1.00  0.00     0.001 A 
HETATM   27  C3  UNL     1       3.777   8.049   9.560  1.00  0.00     0.039 A 
HETATM   28  C2  UNL     1       2.735   7.674   8.711  1.00  0.00     0.069 A 
HETATM   29  C27 UNL     1       1.637   6.969   9.224  1.00  0.00     0.051 A 
BRANCH  28  30
HETATM   30  O1  UNL     1       2.665   7.930   7.368  1.00  0.00    -0.356 OA
HETATM   31  C1  UNL     1       1.719   7.184   6.616  1.00  0.00     0.210 C 
ENDBRANCH  28  30
ENDBRANCH  19  20
ENDBRANCH  18  19
ENDBRANCH  15  18
ENDBRANCH   1  14
BRANCH   7  32
HETATM   32  C17 UNL     1     -11.475   7.512  14.308  1.00  0.00    -0.032 A 
HETATM   33  C18 UNL     1     -11.799   8.483  13.353  1.00  0.00     0.011 A 
HETATM   34  C19 UNL     1     -13.037   8.448  12.707  1.00  0.00     0.003 A 
HETATM   35  C20 UNL     1     -13.952   7.440  13.009  1.00  0.00     0.024 A 
HETATM   36  C21 UNL     1     -13.627   6.472  13.959  1.00  0.00     0.034 A 
HETATM   37 CL1  UNL     1     -14.758   5.227  14.327  1.00  0.00    -0.084 Cl
HETATM   38  C22 UNL     1     -12.394   6.501  14.608  1.00  0.00     0.035 A 
ENDBRANCH   7  32
TORSDOF 6
ENDMDL
