MODEL 1
REMARK minimizedAffinity -8.51993942
REMARK CNNscore 0.613571227
REMARK CNNaffinity 6.80323458
REMARK  12 active torsions:
REMARK  status: ('A' for Active; 'I' for Inactive)
REMARK    1  A    between atoms: O1_2  and  C2_3 
REMARK    2  A    between atoms: C2_3  and  C3_4 
REMARK    3  A    between atoms: C3_4  and  C4_5 
REMARK    4  A    between atoms: C4_5  and  O2_6 
REMARK    5  A    between atoms: O2_6  and  C5_7 
REMARK    6  A    between atoms: C20_23  and  C21_24 
REMARK    7  A    between atoms: C21_24  and  O4_26 
REMARK    8  A    between atoms: C21_24  and  C23_27 
REMARK    9  A    between atoms: C23_27  and  O5_28 
REMARK   10  A    between atoms: C23_27  and  C24_29 
REMARK   11  A    between atoms: C32_38  and  O7_39 
REMARK   12  A    between atoms: C36_44  and  O8_45 
ROOT
HETATM    1  C5  UNL     1       4.245  11.603  22.537  1.00  0.00     0.122 C 
HETATM    2  C6  UNL     1       3.659  13.012  22.578  1.00  0.00     0.033 C 
HETATM    3  C7  UNL     1       2.469  13.181  21.635  1.00  0.00     0.013 C 
HETATM    4  C8  UNL     1       2.764  12.744  20.165  1.00  0.00    -0.026 C 
HETATM    5  C9  UNL     1       3.814  13.723  19.577  1.00  0.00     0.016 C 
HETATM    6  C10 UNL     1       3.327  11.299  20.173  1.00  0.00     0.071 C 
HETATM    7  C11 UNL     1       4.545  11.153  21.103  1.00  0.00     0.045 C 
HETATM    8  C12 UNL     1       2.261  10.278  20.570  1.00  0.00     0.154 C 
HETATM    9  O3  UNL     1       2.513   9.247  21.190  1.00  0.00    -0.293 OA
HETATM   10  C13 UNL     1       0.869  10.493  20.124  1.00  0.00     0.057 C 
HETATM   11  C14 UNL     1       0.497  11.632  19.524  1.00  0.00    -0.037 C 
HETATM   12  C15 UNL     1       1.429  12.833  19.334  1.00  0.00     0.026 C 
HETATM   13  C16 UNL     1       1.592  13.101  17.816  1.00  0.00     0.011 C 
HETATM   14  C17 UNL     1       0.238  13.246  17.087  1.00  0.00     0.014 C 
HETATM   15  C18 UNL     1      -0.685  12.033  17.333  1.00  0.00    -0.002 C 
HETATM   16  C19 UNL     1      -0.059  10.789  16.648  1.00  0.00     0.019 C 
HETATM   17  C20 UNL     1      -2.183  12.238  16.934  1.00  0.00     0.034 C 
HETATM   18  C34 UNL     1      -2.929  11.178  17.790  1.00  0.00     0.012 C 
HETATM   19  C35 UNL     1      -1.974  10.783  18.940  1.00  0.00     0.044 C 
HETATM   20  C36 UNL     1      -0.854  11.830  18.879  1.00  0.00     0.089 C 
ENDROOT
BRANCH  17  21
HETATM   21  C21 UNL     1      -2.646  12.370  15.447  1.00  0.00     0.087 C 
HETATM   22  C22 UNL     1      -1.502  12.544  14.435  1.00  0.00     0.049 C 
BRANCH  21  23
HETATM   23  O4  UNL     1      -3.440  13.566  15.375  1.00  0.00    -0.387 OA
HETATM   24  H34 UNL     1      -3.671  13.706  14.436  1.00  0.00     0.210 HD
ENDBRANCH  21  23
BRANCH  21  25
HETATM   25  C23 UNL     1      -3.553  11.116  15.094  1.00  0.00     0.181 C 
BRANCH  25  26
HETATM   26  O5  UNL     1      -4.865  11.250  15.659  1.00  0.00    -0.390 OA
HETATM   27  H36 UNL     1      -4.772  11.234  16.625  1.00  0.00     0.210 HD
ENDBRANCH  25  26
BRANCH  25  28
HETATM   28  C24 UNL     1      -2.918   9.741  15.439  1.00  0.00     0.158 C 
HETATM   29  O6  UNL     1      -3.910   8.823  15.947  1.00  0.00    -0.372 OA
HETATM   30  C25 UNL     1      -4.316   7.952  14.871  1.00  0.00     0.197 C 
HETATM   31  C26 UNL     1      -3.277   8.063  13.737  1.00  0.00     0.035 C 
HETATM   32  C32 UNL     1      -4.478   6.449  15.285  1.00  0.00     0.301 C 
HETATM   33  C27 UNL     1      -2.205   8.981  14.314  1.00  0.00     0.020 C 
HETATM   34  C29 UNL     1      -2.818   6.625  13.351  1.00  0.00     0.043 C 
HETATM   35  C28 UNL     1      -1.488   9.819  13.268  1.00  0.00     0.013 C 
HETATM   36  C30 UNL     1      -4.080   5.842  12.996  1.00  0.00    -0.019 C 
HETATM   37  C33 UNL     1      -2.237   5.888  14.598  1.00  0.00     0.283 C 
HETATM   38  C31 UNL     1      -4.923   5.712  14.039  1.00  0.00     0.042 C 
HETATM   39  N1  UNL     1      -3.193   5.910  15.736  1.00  0.00     0.126 N 
HETATM   40  H48 UNL     1      -3.367   4.953  16.037  1.00  0.00     0.320 HD
BRANCH  32  41
HETATM   41  O7  UNL     1      -5.417   6.294  16.312  1.00  0.00    -0.358 OA
HETATM   42  H47 UNL     1      -4.990   6.752  17.058  1.00  0.00     0.213 HD
ENDBRANCH  32  41
ENDBRANCH  25  28
ENDBRANCH  21  25
ENDBRANCH  17  21
BRANCH  20  43
HETATM   43  O8  UNL     1      -1.396  13.012  19.495  1.00  0.00    -0.384 OA
HETATM   44  H55 UNL     1      -1.536  12.806  20.434  1.00  0.00     0.211 HD
ENDBRANCH  20  43
BRANCH   1  45
HETATM   45  O2  UNL     1       5.478  11.624  23.267  1.00  0.00    -0.386 OA
BRANCH  45  46
HETATM   46  C4  UNL     1       6.593  12.087  22.504  1.00  0.00     0.170 C 
BRANCH  46  47
HETATM   47  C3  UNL     1       7.313  13.227  23.215  1.00  0.00     0.052 C 
BRANCH  47  48
HETATM   48  C2  UNL     1       8.500  13.740  22.410  1.00  0.00     0.169 C 
BRANCH  48  49
HETATM   49  O1  UNL     1       9.138  14.780  23.153  1.00  0.00    -0.396 OA
HETATM   50  C1  UNL     1       8.192  15.564  23.870  1.00  0.00     0.201 C 
ENDBRANCH  48  49
ENDBRANCH  47  48
ENDBRANCH  46  47
ENDBRANCH  45  46
ENDBRANCH   1  45
TORSDOF 12
ENDMDL
MODEL 2
REMARK minimizedAffinity -7.71475792
REMARK CNNscore 0.572597504
REMARK CNNaffinity 6.81670618
REMARK  12 active torsions:
REMARK  status: ('A' for Active; 'I' for Inactive)
REMARK    1  A    between atoms: O1_2  and  C2_3 
REMARK    2  A    between atoms: C2_3  and  C3_4 
REMARK    3  A    between atoms: C3_4  and  C4_5 
REMARK    4  A    between atoms: C4_5  and  O2_6 
REMARK    5  A    between atoms: O2_6  and  C5_7 
REMARK    6  A    between atoms: C20_23  and  C21_24 
REMARK    7  A    between atoms: C21_24  and  O4_26 
REMARK    8  A    between atoms: C21_24  and  C23_27 
REMARK    9  A    between atoms: C23_27  and  O5_28 
REMARK   10  A    between atoms: C23_27  and  C24_29 
REMARK   11  A    between atoms: C32_38  and  O7_39 
REMARK   12  A    between atoms: C36_44  and  O8_45 
ROOT
HETATM    1  C5  UNL     1       3.773   5.769  10.803  1.00  0.00     0.122 C 
HETATM    2  C6  UNL     1       4.051   6.912  11.777  1.00  0.00     0.033 C 
HETATM    3  C7  UNL     1       2.823   7.292  12.602  1.00  0.00     0.013 C 
HETATM    4  C8  UNL     1       1.554   7.591  11.741  1.00  0.00    -0.026 C 
HETATM    5  C9  UNL     1       1.828   8.875  10.915  1.00  0.00     0.016 C 
HETATM    6  C10 UNL     1       1.296   6.390  10.793  1.00  0.00     0.071 C 
HETATM    7  C11 UNL     1       2.533   6.040   9.946  1.00  0.00     0.045 C 
HETATM    8  C12 UNL     1       0.840   5.150  11.561  1.00  0.00     0.154 C 
HETATM    9  O3  UNL     1       1.112   4.004  11.211  1.00  0.00    -0.293 OA
HETATM   10  C13 UNL     1      -0.037   5.324  12.737  1.00  0.00     0.057 C 
HETATM   11  C14 UNL     1      -0.304   6.539  13.234  1.00  0.00    -0.037 C 
HETATM   12  C15 UNL     1       0.333   7.829  12.707  1.00  0.00     0.026 C 
HETATM   13  C16 UNL     1      -0.788   8.753  12.167  1.00  0.00     0.011 C 
HETATM   14  C17 UNL     1      -1.912   8.994  13.199  1.00  0.00     0.014 C 
HETATM   15  C18 UNL     1      -2.502   7.671  13.732  1.00  0.00    -0.002 C 
HETATM   16  C19 UNL     1      -3.249   6.961  12.572  1.00  0.00     0.019 C 
HETATM   17  C20 UNL     1      -3.386   7.800  15.016  1.00  0.00     0.034 C 
HETATM   18  C34 UNL     1      -3.336   6.372  15.628  1.00  0.00     0.012 C 
HETATM   19  C35 UNL     1      -2.108   5.666  15.009  1.00  0.00     0.044 C 
HETATM   20  C36 UNL     1      -1.338   6.791  14.307  1.00  0.00     0.089 C 
ENDROOT
BRANCH  17  21
HETATM   21  C21 UNL     1      -4.786   8.494  15.006  1.00  0.00     0.087 C 
HETATM   22  C22 UNL     1      -5.964   7.559  15.321  1.00  0.00     0.049 C 
BRANCH  21  23
HETATM   23  O4  UNL     1      -4.991   8.971  13.665  1.00  0.00    -0.387 OA
HETATM   24  H34 UNL     1      -5.896   9.337  13.622  1.00  0.00     0.210 HD
ENDBRANCH  21  23
BRANCH  21  25
HETATM   25  C23 UNL     1      -4.737   9.730  16.000  1.00  0.00     0.181 C 
BRANCH  25  26
HETATM   26  O5  UNL     1      -5.776  10.673  15.707  1.00  0.00    -0.390 OA
HETATM   27  H36 UNL     1      -5.597  11.046  14.829  1.00  0.00     0.210 HD
ENDBRANCH  25  26
BRANCH  25  28
HETATM   28  C24 UNL     1      -3.349  10.420  16.106  1.00  0.00     0.158 C 
HETATM   29  O6  UNL     1      -3.176  11.402  15.061  1.00  0.00    -0.372 OA
HETATM   30  C25 UNL     1      -3.457  12.706  15.613  1.00  0.00     0.197 C 
HETATM   31  C26 UNL     1      -3.436  12.598  17.151  1.00  0.00     0.035 C 
HETATM   32  C32 UNL     1      -2.462  13.827  15.155  1.00  0.00     0.301 C 
HETATM   33  C27 UNL     1      -3.014  11.155  17.409  1.00  0.00     0.020 C 
HETATM   34  C29 UNL     1      -2.489  13.703  17.707  1.00  0.00     0.043 C 
HETATM   35  C28 UNL     1      -3.583  10.571  18.692  1.00  0.00     0.013 C 
HETATM   36  C30 UNL     1      -3.000  15.034  17.160  1.00  0.00    -0.019 C 
HETATM   37  C33 UNL     1      -1.061  13.550  17.097  1.00  0.00     0.283 C 
HETATM   38  C31 UNL     1      -2.932  15.106  15.816  1.00  0.00     0.042 C 
HETATM   39  N1  UNL     1      -1.106  13.513  15.611  1.00  0.00     0.126 N 
HETATM   40  H48 UNL     1      -0.498  14.244  15.246  1.00  0.00     0.320 HD
BRANCH  32  41
HETATM   41  O7  UNL     1      -2.447  13.967  13.762  1.00  0.00    -0.358 OA
HETATM   42  H47 UNL     1      -2.075  13.117  13.469  1.00  0.00     0.213 HD
ENDBRANCH  32  41
ENDBRANCH  25  28
ENDBRANCH  21  25
ENDBRANCH  17  21
BRANCH  20  43
HETATM   43  O8  UNL     1      -0.634   7.488  15.350  1.00  0.00    -0.384 OA
HETATM   44  H55 UNL     1       0.029   6.875  15.707  1.00  0.00     0.211 HD
ENDBRANCH  20  43
BRANCH   1  45
HETATM   45  O2  UNL     1       4.905   5.656   9.931  1.00  0.00    -0.386 OA
BRANCH  45  46
HETATM   46  C4  UNL     1       6.135   5.407  10.611  1.00  0.00     0.170 C 
BRANCH  46  47
HETATM   47  C3  UNL     1       6.904   6.701  10.852  1.00  0.00     0.052 C 
BRANCH  47  48
HETATM   48  C2  UNL     1       7.131   6.959  12.337  1.00  0.00     0.169 C 
BRANCH  48  49
HETATM   49  O1  UNL     1       8.035   8.058  12.474  1.00  0.00    -0.396 OA
HETATM   50  C1  UNL     1       8.922   7.871  13.569  1.00  0.00     0.201 C 
ENDBRANCH  48  49
ENDBRANCH  47  48
ENDBRANCH  46  47
ENDBRANCH  45  46
ENDBRANCH   1  45
TORSDOF 12
ENDMDL
MODEL 3
REMARK minimizedAffinity -9.57553959
REMARK CNNscore 0.542587161
REMARK CNNaffinity 6.93811464
REMARK  12 active torsions:
REMARK  status: ('A' for Active; 'I' for Inactive)
REMARK    1  A    between atoms: O1_2  and  C2_3 
REMARK    2  A    between atoms: C2_3  and  C3_4 
REMARK    3  A    between atoms: C3_4  and  C4_5 
REMARK    4  A    between atoms: C4_5  and  O2_6 
REMARK    5  A    between atoms: O2_6  and  C5_7 
REMARK    6  A    between atoms: C20_23  and  C21_24 
REMARK    7  A    between atoms: C21_24  and  O4_26 
REMARK    8  A    between atoms: C21_24  and  C23_27 
REMARK    9  A    between atoms: C23_27  and  O5_28 
REMARK   10  A    between atoms: C23_27  and  C24_29 
REMARK   11  A    between atoms: C32_38  and  O7_39 
REMARK   12  A    between atoms: C36_44  and  O8_45 
ROOT
HETATM    1  C5  UNL     1      -6.731   7.473  15.339  1.00  0.00     0.122 C 
HETATM    2  C6  UNL     1      -6.117   6.114  15.670  1.00  0.00     0.033 C 
HETATM    3  C7  UNL     1      -4.593   6.116  15.565  1.00  0.00     0.013 C 
HETATM    4  C8  UNL     1      -4.058   6.649  14.198  1.00  0.00    -0.026 C 
HETATM    5  C9  UNL     1      -4.481   5.645  13.094  1.00  0.00     0.016 C 
HETATM    6  C10 UNL     1      -4.685   8.042  13.921  1.00  0.00     0.071 C 
HETATM    7  C11 UNL     1      -6.221   8.016  14.000  1.00  0.00     0.045 C 
HETATM    8  C12 UNL     1      -4.145   9.105  14.878  1.00  0.00     0.154 C 
HETATM    9  O3  UNL     1      -4.814  10.058  15.271  1.00  0.00    -0.293 OA
HETATM   10  C13 UNL     1      -2.730   9.036  15.294  1.00  0.00     0.057 C 
HETATM   11  C14 UNL     1      -1.962   7.983  14.983  1.00  0.00    -0.037 C 
HETATM   12  C15 UNL     1      -2.487   6.734  14.268  1.00  0.00     0.026 C 
HETATM   13  C16 UNL     1      -1.739   6.580  12.919  1.00  0.00     0.011 C 
HETATM   14  C17 UNL     1      -0.203   6.601  13.083  1.00  0.00     0.014 C 
HETATM   15  C18 UNL     1       0.282   7.857  13.840  1.00  0.00    -0.002 C 
HETATM   16  C19 UNL     1       0.015   9.102  12.952  1.00  0.00     0.019 C 
HETATM   17  C20 UNL     1       1.757   7.801  14.355  1.00  0.00     0.034 C 
HETATM   18  C34 UNL     1       1.772   8.841  15.510  1.00  0.00     0.012 C 
HETATM   19  C35 UNL     1       0.298   9.064  15.924  1.00  0.00     0.044 C 
HETATM   20  C36 UNL     1      -0.470   7.943  15.213  1.00  0.00     0.089 C 
ENDROOT
BRANCH  17  21
HETATM   21  C21 UNL     1       2.987   7.830  13.390  1.00  0.00     0.087 C 
HETATM   22  C22 UNL     1       3.103   9.107  12.543  1.00  0.00     0.049 C 
BRANCH  21  23
HETATM   23  O4  UNL     1       2.801   6.743  12.467  1.00  0.00    -0.387 OA
HETATM   24  H34 UNL     1       3.520   6.796  11.808  1.00  0.00     0.210 HD
ENDBRANCH  21  23
BRANCH  21  25
HETATM   25  C23 UNL     1       4.298   7.573  14.246  1.00  0.00     0.181 C 
BRANCH  25  26
HETATM   26  O5  UNL     1       3.973   7.158  15.580  1.00  0.00    -0.390 OA
HETATM   27  H36 UNL     1       3.524   7.898  16.018  1.00  0.00     0.210 HD
ENDBRANCH  25  26
BRANCH  25  28
HETATM   28  C24 UNL     1       5.313   8.749  14.242  1.00  0.00     0.158 C 
HETATM   29  O6  UNL     1       5.754   9.060  15.582  1.00  0.00    -0.372 OA
HETATM   30  C25 UNL     1       7.037   8.435  15.794  1.00  0.00     0.197 C 
HETATM   31  C26 UNL     1       7.614   8.033  14.422  1.00  0.00     0.035 C 
HETATM   32  C32 UNL     1       8.074   9.335  16.552  1.00  0.00     0.301 C 
HETATM   33  C27 UNL     1       6.599   8.580  13.425  1.00  0.00     0.020 C 
HETATM   34  C29 UNL     1       9.061   8.599  14.313  1.00  0.00     0.043 C 
HETATM   35  C28 UNL     1       6.496   7.766  12.145  1.00  0.00     0.013 C 
HETATM   36  C30 UNL     1       9.832   8.067  15.519  1.00  0.00    -0.019 C 
HETATM   37  C33 UNL     1       9.053  10.148  14.505  1.00  0.00     0.283 C 
HETATM   38  C31 UNL     1       9.332   8.504  16.691  1.00  0.00     0.042 C 
HETATM   39  N1  UNL     1       8.368  10.536  15.766  1.00  0.00     0.126 N 
HETATM   40  H48 UNL     1       9.003  11.103  16.324  1.00  0.00     0.320 HD
BRANCH  32  41
HETATM   41  O7  UNL     1       7.597   9.725  17.809  1.00  0.00    -0.358 OA
HETATM   42  H47 UNL     1       6.839  10.292  17.580  1.00  0.00     0.213 HD
ENDBRANCH  32  41
ENDBRANCH  25  28
ENDBRANCH  21  25
ENDBRANCH  17  21
BRANCH  20  43
HETATM   43  O8  UNL     1      -0.241   6.759  15.999  1.00  0.00    -0.384 OA
HETATM   44  H55 UNL     1      -0.676   6.897  16.856  1.00  0.00     0.211 HD
ENDBRANCH  20  43
BRANCH   1  45
HETATM   45  O2  UNL     1      -8.149   7.296  15.240  1.00  0.00    -0.386 OA
BRANCH  45  46
HETATM   46  C4  UNL     1      -8.540   5.995  14.802  1.00  0.00     0.170 C 
BRANCH  46  47
HETATM   47  C3  UNL     1      -8.939   6.005  13.330  1.00  0.00     0.052 C 
BRANCH  47  48
HETATM   48  C2  UNL     1      -8.239   4.904  12.544  1.00  0.00     0.169 C 
BRANCH  48  49
HETATM   49  O1  UNL     1      -8.556   3.646  13.144  1.00  0.00    -0.396 OA
HETATM   50  C1  UNL     1      -7.527   2.690  12.925  1.00  0.00     0.201 C 
ENDBRANCH  48  49
ENDBRANCH  47  48
ENDBRANCH  46  47
ENDBRANCH  45  46
ENDBRANCH   1  45
TORSDOF 12
ENDMDL
MODEL 4
REMARK minimizedAffinity -9.51525593
REMARK CNNscore 0.513437748
REMARK CNNaffinity 7.30499506
REMARK  12 active torsions:
REMARK  status: ('A' for Active; 'I' for Inactive)
REMARK    1  A    between atoms: O1_2  and  C2_3 
REMARK    2  A    between atoms: C2_3  and  C3_4 
REMARK    3  A    between atoms: C3_4  and  C4_5 
REMARK    4  A    between atoms: C4_5  and  O2_6 
REMARK    5  A    between atoms: O2_6  and  C5_7 
REMARK    6  A    between atoms: C20_23  and  C21_24 
REMARK    7  A    between atoms: C21_24  and  O4_26 
REMARK    8  A    between atoms: C21_24  and  C23_27 
REMARK    9  A    between atoms: C23_27  and  O5_28 
REMARK   10  A    between atoms: C23_27  and  C24_29 
REMARK   11  A    between atoms: C32_38  and  O7_39 
REMARK   12  A    between atoms: C36_44  and  O8_45 
ROOT
HETATM    1  C5  UNL     1      -8.710   6.578  15.094  1.00  0.00     0.122 C 
HETATM    2  C6  UNL     1      -7.897   5.411  15.650  1.00  0.00     0.033 C 
HETATM    3  C7  UNL     1      -6.420   5.757  15.828  1.00  0.00     0.013 C 
HETATM    4  C8  UNL     1      -5.750   6.338  14.542  1.00  0.00    -0.026 C 
HETATM    5  C9  UNL     1      -5.718   5.216  13.471  1.00  0.00     0.016 C 
HETATM    6  C10 UNL     1      -6.594   7.537  14.034  1.00  0.00     0.071 C 
HETATM    7  C11 UNL     1      -8.073   7.164  13.830  1.00  0.00     0.045 C 
HETATM    8  C12 UNL     1      -6.498   8.736  14.977  1.00  0.00     0.154 C 
HETATM    9  O3  UNL     1      -7.421   9.527  15.155  1.00  0.00    -0.293 OA
HETATM   10  C13 UNL     1      -5.213   9.010  15.652  1.00  0.00     0.057 C 
HETATM   11  C14 UNL     1      -4.190   8.148  15.582  1.00  0.00    -0.037 C 
HETATM   12  C15 UNL     1      -4.280   6.782  14.894  1.00  0.00     0.026 C 
HETATM   13  C16 UNL     1      -3.263   6.744  13.725  1.00  0.00     0.011 C 
HETATM   14  C17 UNL     1      -1.832   7.123  14.167  1.00  0.00     0.014 C 
HETATM   15  C18 UNL     1      -1.791   8.488  14.888  1.00  0.00    -0.002 C 
HETATM   16  C19 UNL     1      -2.136   9.599  13.861  1.00  0.00     0.019 C 
HETATM   17  C20 UNL     1      -0.471   8.793  15.670  1.00  0.00     0.034 C 
HETATM   18  C34 UNL     1      -0.912   9.858  16.712  1.00  0.00     0.012 C 
HETATM   19  C35 UNL     1      -2.451   9.757  16.826  1.00  0.00     0.044 C 
HETATM   20  C36 UNL     1      -2.801   8.460  16.086  1.00  0.00     0.089 C 
ENDROOT
BRANCH  17  21
HETATM   21  C21 UNL     1       0.891   9.059  14.950  1.00  0.00     0.087 C 
HETATM   22  C22 UNL     1       2.102   9.157  15.891  1.00  0.00     0.049 C 
BRANCH  21  23
HETATM   23  O4  UNL     1       0.766  10.341  14.310  1.00  0.00    -0.387 OA
HETATM   24  H34 UNL     1       1.636  10.558  13.923  1.00  0.00     0.210 HD
ENDBRANCH  21  23
BRANCH  21  25
HETATM   25  C23 UNL     1       1.097   7.939  13.844  1.00  0.00     0.181 C 
BRANCH  25  26
HETATM   26  O5  UNL     1       1.565   6.715  14.428  1.00  0.00    -0.390 OA
HETATM   27  H36 UNL     1       2.450   6.881  14.791  1.00  0.00     0.210 HD
ENDBRANCH  25  26
BRANCH  25  28
HETATM   28  C24 UNL     1       1.977   8.373  12.640  1.00  0.00     0.158 C 
HETATM   29  O6  UNL     1       3.188   7.589  12.571  1.00  0.00    -0.372 OA
HETATM   30  C25 UNL     1       3.000   6.550  11.588  1.00  0.00     0.197 C 
HETATM   31  C26 UNL     1       1.774   6.912  10.726  1.00  0.00     0.035 C 
HETATM   32  C32 UNL     1       4.240   6.311  10.658  1.00  0.00     0.301 C 
HETATM   33  C27 UNL     1       1.362   8.288  11.238  1.00  0.00     0.020 C 
HETATM   34  C29 UNL     1       2.189   6.832   9.226  1.00  0.00     0.043 C 
HETATM   35  C28 UNL     1      -0.128   8.563  11.126  1.00  0.00     0.013 C 
HETATM   36  C30 UNL     1       2.745   5.428   9.000  1.00  0.00    -0.019 C 
HETATM   37  C33 UNL     1       3.395   7.781   8.945  1.00  0.00     0.283 C 
HETATM   38  C31 UNL     1       3.856   5.184   9.722  1.00  0.00     0.042 C 
HETATM   39  N1  UNL     1       4.523   7.518   9.877  1.00  0.00     0.126 N 
HETATM   40  H48 UNL     1       5.361   7.324   9.333  1.00  0.00     0.320 HD
BRANCH  32  41
HETATM   41  O7  UNL     1       5.381   5.974  11.395  1.00  0.00    -0.358 OA
HETATM   42  H47 UNL     1       5.554   6.789  11.900  1.00  0.00     0.213 HD
ENDBRANCH  32  41
ENDBRANCH  25  28
ENDBRANCH  21  25
ENDBRANCH  17  21
BRANCH  20  43
HETATM   43  O8  UNL     1      -2.485   7.395  17.001  1.00  0.00    -0.384 OA
HETATM   44  H55 UNL     1      -3.101   7.467  17.748  1.00  0.00     0.211 HD
ENDBRANCH  20  43
BRANCH   1  45
HETATM   45  O2  UNL     1     -10.008   6.078  14.751  1.00  0.00    -0.386 OA
BRANCH  45  46
HETATM   46  C4  UNL     1     -10.967   7.101  14.478  1.00  0.00     0.170 C 
BRANCH  46  47
HETATM   47  C3  UNL     1     -12.357   6.512  14.266  1.00  0.00     0.052 C 
BRANCH  47  48
HETATM   48  C2  UNL     1     -13.212   7.385  13.356  1.00  0.00     0.169 C 
BRANCH  48  49
HETATM   49  O1  UNL     1     -12.466   8.556  13.019  1.00  0.00    -0.396 OA
HETATM   50  C1  UNL     1     -13.318   9.616  12.605  1.00  0.00     0.201 C 
ENDBRANCH  48  49
ENDBRANCH  47  48
ENDBRANCH  46  47
ENDBRANCH  45  46
ENDBRANCH   1  45
TORSDOF 12
ENDMDL
MODEL 5
REMARK minimizedAffinity -8.24275589
REMARK CNNscore 0.458400249
REMARK CNNaffinity 6.64509201
REMARK  12 active torsions:
REMARK  status: ('A' for Active; 'I' for Inactive)
REMARK    1  A    between atoms: O1_2  and  C2_3 
REMARK    2  A    between atoms: C2_3  and  C3_4 
REMARK    3  A    between atoms: C3_4  and  C4_5 
REMARK    4  A    between atoms: C4_5  and  O2_6 
REMARK    5  A    between atoms: O2_6  and  C5_7 
REMARK    6  A    between atoms: C20_23  and  C21_24 
REMARK    7  A    between atoms: C21_24  and  O4_26 
REMARK    8  A    between atoms: C21_24  and  C23_27 
REMARK    9  A    between atoms: C23_27  and  O5_28 
REMARK   10  A    between atoms: C23_27  and  C24_29 
REMARK   11  A    between atoms: C32_38  and  O7_39 
REMARK   12  A    between atoms: C36_44  and  O8_45 
ROOT
HETATM    1  C5  UNL     1      13.165  13.596  18.781  1.00  0.00     0.122 C 
HETATM    2  C6  UNL     1      12.665  14.439  17.610  1.00  0.00     0.033 C 
HETATM    3  C7  UNL     1      11.567  13.741  16.810  1.00  0.00     0.013 C 
HETATM    4  C8  UNL     1      11.952  12.304  16.336  1.00  0.00    -0.026 C 
HETATM    5  C9  UNL     1      13.104  12.432  15.305  1.00  0.00     0.016 C 
HETATM    6  C10 UNL     1      12.422  11.479  17.563  1.00  0.00     0.071 C 
HETATM    7  C11 UNL     1      13.550  12.181  18.340  1.00  0.00     0.045 C 
HETATM    8  C12 UNL     1      11.266  11.170  18.514  1.00  0.00     0.154 C 
HETATM    9  O3  UNL     1      11.404  11.075  19.732  1.00  0.00    -0.293 OA
HETATM   10  C13 UNL     1       9.931  10.895  17.947  1.00  0.00     0.057 C 
HETATM   11  C14 UNL     1       9.678  11.067  16.642  1.00  0.00    -0.037 C 
HETATM   12  C15 UNL     1      10.695  11.644  15.652  1.00  0.00     0.026 C 
HETATM   13  C16 UNL     1      10.995  10.578  14.568  1.00  0.00     0.011 C 
HETATM   14  C17 UNL     1       9.716  10.034  13.896  1.00  0.00     0.014 C 
HETATM   15  C18 UNL     1       8.703   9.495  14.929  1.00  0.00    -0.002 C 
HETATM   16  C19 UNL     1       9.304   8.229  15.596  1.00  0.00     0.019 C 
HETATM   17  C20 UNL     1       7.257   9.250  14.386  1.00  0.00     0.034 C 
HETATM   18  C34 UNL     1       6.380   9.299  15.668  1.00  0.00     0.012 C 
HETATM   19  C35 UNL     1       7.215  10.026  16.748  1.00  0.00     0.044 C 
HETATM   20  C36 UNL     1       8.398  10.622  15.976  1.00  0.00     0.089 C 
ENDROOT
BRANCH  17  21
HETATM   21  C21 UNL     1       6.923   8.110  13.369  1.00  0.00     0.087 C 
HETATM   22  C22 UNL     1       6.682   6.734  14.011  1.00  0.00     0.049 C 
BRANCH  21  23
HETATM   23  O4  UNL     1       8.079   7.969  12.525  1.00  0.00    -0.387 OA
HETATM   24  H34 UNL     1       7.918   7.207  11.937  1.00  0.00     0.210 HD
ENDBRANCH  21  23
BRANCH  21  25
HETATM   25  C23 UNL     1       5.685   8.572  12.491  1.00  0.00     0.181 C 
BRANCH  25  26
HETATM   26  O5  UNL     1       5.302   9.918  12.803  1.00  0.00    -0.390 OA
HETATM   27  H36 UNL     1       4.982   9.929  13.720  1.00  0.00     0.210 HD
ENDBRANCH  25  26
BRANCH  25  28
HETATM   28  C24 UNL     1       4.469   7.606  12.529  1.00  0.00     0.158 C 
HETATM   29  O6  UNL     1       3.227   8.337  12.623  1.00  0.00    -0.372 OA
HETATM   30  C25 UNL     1       2.650   8.424  11.304  1.00  0.00     0.197 C 
HETATM   31  C26 UNL     1       3.348   7.389  10.399  1.00  0.00     0.035 C 
HETATM   32  C32 UNL     1       1.100   8.193  11.263  1.00  0.00     0.301 C 
HETATM   33  C27 UNL     1       4.282   6.646  11.349  1.00  0.00     0.020 C 
HETATM   34  C29 UNL     1       2.251   6.531   9.701  1.00  0.00     0.043 C 
HETATM   35  C28 UNL     1       5.545   6.124  10.683  1.00  0.00     0.013 C 
HETATM   36  C30 UNL     1       1.329   7.506   8.973  1.00  0.00    -0.019 C 
HETATM   37  C33 UNL     1       1.337   5.846  10.765  1.00  0.00     0.283 C 
HETATM   38  C31 UNL     1       0.688   8.343   9.813  1.00  0.00     0.042 C 
HETATM   39  N1  UNL     1       0.781   6.839  11.721  1.00  0.00     0.126 N 
HETATM   40  H48 UNL     1      -0.235   6.762  11.721  1.00  0.00     0.320 HD
BRANCH  32  41
HETATM   41  O7  UNL     1       0.418   9.113  12.067  1.00  0.00    -0.358 OA
HETATM   42  H47 UNL     1       0.720   8.874  12.962  1.00  0.00     0.213 HD
ENDBRANCH  32  41
ENDBRANCH  25  28
ENDBRANCH  21  25
ENDBRANCH  17  21
BRANCH  20  43
HETATM   43  O8  UNL     1       7.883  11.799  15.328  1.00  0.00    -0.384 OA
HETATM   44  H55 UNL     1       7.656  12.434  16.027  1.00  0.00     0.211 HD
ENDBRANCH  20  43
BRANCH   1  45
HETATM   45  O2  UNL     1      14.335  14.235  19.308  1.00  0.00    -0.386 OA
BRANCH  45  46
HETATM   46  C4  UNL     1      15.560  13.646  18.872  1.00  0.00     0.170 C 
BRANCH  46  47
HETATM   47  C3  UNL     1      16.619  13.702  19.967  1.00  0.00     0.052 C 
BRANCH  47  48
HETATM   48  C2  UNL     1      16.112  13.115  21.279  1.00  0.00     0.169 C 
BRANCH  48  49
HETATM   49  O1  UNL     1      16.074  14.156  22.257  1.00  0.00    -0.396 OA
HETATM   50  C1  UNL     1      16.549  15.387  21.728  1.00  0.00     0.201 C 
ENDBRANCH  48  49
ENDBRANCH  47  48
ENDBRANCH  46  47
ENDBRANCH  45  46
ENDBRANCH   1  45
TORSDOF 12
ENDMDL
MODEL 6
REMARK minimizedAffinity -8.33819389
REMARK CNNscore 0.448397219
REMARK CNNaffinity 6.58068514
REMARK  12 active torsions:
REMARK  status: ('A' for Active; 'I' for Inactive)
REMARK    1  A    between atoms: O1_2  and  C2_3 
REMARK    2  A    between atoms: C2_3  and  C3_4 
REMARK    3  A    between atoms: C3_4  and  C4_5 
REMARK    4  A    between atoms: C4_5  and  O2_6 
REMARK    5  A    between atoms: O2_6  and  C5_7 
REMARK    6  A    between atoms: C20_23  and  C21_24 
REMARK    7  A    between atoms: C21_24  and  O4_26 
REMARK    8  A    between atoms: C21_24  and  C23_27 
REMARK    9  A    between atoms: C23_27  and  O5_28 
REMARK   10  A    between atoms: C23_27  and  C24_29 
REMARK   11  A    between atoms: C32_38  and  O7_39 
REMARK   12  A    between atoms: C36_44  and  O8_45 
ROOT
HETATM    1  C5  UNL     1      -5.218   6.504  14.313  1.00  0.00     0.122 C 
HETATM    2  C6  UNL     1      -4.127   5.436  14.362  1.00  0.00     0.033 C 
HETATM    3  C7  UNL     1      -2.760   6.010  14.728  1.00  0.00     0.013 C 
HETATM    4  C8  UNL     1      -2.321   7.211  13.832  1.00  0.00    -0.026 C 
HETATM    5  C9  UNL     1      -2.100   6.678  12.392  1.00  0.00     0.016 C 
HETATM    6  C10 UNL     1      -3.445   8.280  13.839  1.00  0.00     0.071 C 
HETATM    7  C11 UNL     1      -4.810   7.694  13.437  1.00  0.00     0.045 C 
HETATM    8  C12 UNL     1      -3.567   8.964  15.200  1.00  0.00     0.154 C 
HETATM    9  O3  UNL     1      -4.634   9.371  15.656  1.00  0.00    -0.293 OA
HETATM   10  C13 UNL     1      -2.340   9.223  15.980  1.00  0.00     0.057 C 
HETATM   11  C14 UNL     1      -1.153   8.732  15.597  1.00  0.00    -0.037 C 
HETATM   12  C15 UNL     1      -0.972   7.796  14.397  1.00  0.00     0.026 C 
HETATM   13  C16 UNL     1      -0.047   8.487  13.362  1.00  0.00     0.011 C 
HETATM   14  C17 UNL     1       1.284   8.968  13.980  1.00  0.00     0.014 C 
HETATM   15  C18 UNL     1       1.058   9.878  15.206  1.00  0.00    -0.002 C 
HETATM   16  C19 UNL     1       0.406  11.202  14.726  1.00  0.00     0.019 C 
HETATM   17  C20 UNL     1       2.319  10.128  16.097  1.00  0.00     0.034 C 
HETATM   18  C34 UNL     1       1.712  10.528  17.471  1.00  0.00     0.012 C 
HETATM   19  C35 UNL     1       0.247  10.034  17.470  1.00  0.00     0.044 C 
HETATM   20  C36 UNL     1       0.156   9.120  16.241  1.00  0.00     0.089 C 
ENDROOT
BRANCH  17  21
HETATM   21  C21 UNL     1       3.537  10.978  15.611  1.00  0.00     0.087 C 
HETATM   22  C22 UNL     1       3.983  12.074  16.592  1.00  0.00     0.049 C 
BRANCH  21  23
HETATM   23  O4  UNL     1       3.109  11.651  14.415  1.00  0.00    -0.387 OA
HETATM   24  H34 UNL     1       3.832  12.249  14.143  1.00  0.00     0.210 HD
ENDBRANCH  21  23
BRANCH  21  25
HETATM   25  C23 UNL     1       4.727   9.989  15.259  1.00  0.00     0.181 C 
BRANCH  25  26
HETATM   26  O5  UNL     1       4.385   8.633  15.577  1.00  0.00    -0.390 OA
HETATM   27  H36 UNL     1       4.281   8.573  16.540  1.00  0.00     0.210 HD
ENDBRANCH  25  26
BRANCH  25  28
HETATM   28  C24 UNL     1       6.101  10.390  15.861  1.00  0.00     0.158 C 
HETATM   29  O6  UNL     1       6.776   9.244  16.425  1.00  0.00    -0.372 OA
HETATM   30  C25 UNL     1       7.747   8.772  15.467  1.00  0.00     0.197 C 
HETATM   31  C26 UNL     1       7.970   9.877  14.416  1.00  0.00     0.035 C 
HETATM   32  C32 UNL     1       9.124   8.362  16.095  1.00  0.00     0.301 C 
HETATM   33  C27 UNL     1       7.128  11.041  14.926  1.00  0.00     0.020 C 
HETATM   34  C29 UNL     1       9.501  10.135  14.294  1.00  0.00     0.043 C 
HETATM   35  C28 UNL     1       6.582  11.933  13.823  1.00  0.00     0.013 C 
HETATM   36  C30 UNL     1      10.148   8.792  13.965  1.00  0.00    -0.019 C 
HETATM   37  C33 UNL     1      10.097  10.528  15.681  1.00  0.00     0.283 C 
HETATM   38  C31 UNL     1       9.986   7.882  14.946  1.00  0.00     0.042 C 
HETATM   39  N1  UNL     1       9.756   9.525  16.723  1.00  0.00     0.126 N 
HETATM   40  H48 UNL     1      10.616   9.192  17.154  1.00  0.00     0.320 HD
BRANCH  32  41
HETATM   41  O7  UNL     1       8.975   7.356  17.056  1.00  0.00    -0.358 OA
HETATM   42  H47 UNL     1       8.465   7.804  17.753  1.00  0.00     0.213 HD
ENDBRANCH  32  41
ENDBRANCH  25  28
ENDBRANCH  21  25
ENDBRANCH  17  21
BRANCH  20  43
HETATM   43  O8  UNL     1       0.763   7.877  16.638  1.00  0.00    -0.384 OA
HETATM   44  H55 UNL     1       0.194   7.486  17.321  1.00  0.00     0.211 HD
ENDBRANCH  20  43
BRANCH   1  45
HETATM   45  O2  UNL     1      -6.387   5.906  13.740  1.00  0.00    -0.386 OA
BRANCH  45  46
HETATM   46  C4  UNL     1      -7.208   5.221  14.686  1.00  0.00     0.170 C 
BRANCH  46  47
HETATM   47  C3  UNL     1      -7.448   6.074  15.927  1.00  0.00     0.052 C 
BRANCH  47  48
HETATM   48  C2  UNL     1      -8.841   6.691  15.931  1.00  0.00     0.169 C 
BRANCH  48  49
HETATM   49  O1  UNL     1      -8.927   7.624  14.851  1.00  0.00    -0.396 OA
HETATM   50  C1  UNL     1      -9.056   8.959  15.324  1.00  0.00     0.201 C 
ENDBRANCH  48  49
ENDBRANCH  47  48
ENDBRANCH  46  47
ENDBRANCH  45  46
ENDBRANCH   1  45
TORSDOF 12
ENDMDL
MODEL 7
REMARK minimizedAffinity -7.56762218
REMARK CNNscore 0.424392164
REMARK CNNaffinity 6.83442163
REMARK  12 active torsions:
REMARK  status: ('A' for Active; 'I' for Inactive)
REMARK    1  A    between atoms: O1_2  and  C2_3 
REMARK    2  A    between atoms: C2_3  and  C3_4 
REMARK    3  A    between atoms: C3_4  and  C4_5 
REMARK    4  A    between atoms: C4_5  and  O2_6 
REMARK    5  A    between atoms: O2_6  and  C5_7 
REMARK    6  A    between atoms: C20_23  and  C21_24 
REMARK    7  A    between atoms: C21_24  and  O4_26 
REMARK    8  A    between atoms: C21_24  and  C23_27 
REMARK    9  A    between atoms: C23_27  and  O5_28 
REMARK   10  A    between atoms: C23_27  and  C24_29 
REMARK   11  A    between atoms: C32_38  and  O7_39 
REMARK   12  A    between atoms: C36_44  and  O8_45 
ROOT
HETATM    1  C5  UNL     1      -2.563  15.069  18.498  1.00  0.00     0.122 C 
HETATM    2  C6  UNL     1      -2.227  13.992  19.527  1.00  0.00     0.033 C 
HETATM    3  C7  UNL     1      -1.706  12.708  18.885  1.00  0.00     0.013 C 
HETATM    4  C8  UNL     1      -2.639  12.138  17.770  1.00  0.00    -0.026 C 
HETATM    5  C9  UNL     1      -3.960  11.679  18.440  1.00  0.00     0.016 C 
HETATM    6  C10 UNL     1      -2.925  13.258  16.734  1.00  0.00     0.071 C 
HETATM    7  C11 UNL     1      -3.480  14.533  17.393  1.00  0.00     0.045 C 
HETATM    8  C12 UNL     1      -1.680  13.607  15.920  1.00  0.00     0.154 C 
HETATM    9  O3  UNL     1      -1.448  14.738  15.496  1.00  0.00    -0.293 OA
HETATM   10  C13 UNL     1      -0.743  12.527  15.552  1.00  0.00     0.057 C 
HETATM   11  C14 UNL     1      -0.875  11.289  16.049  1.00  0.00    -0.037 C 
HETATM   12  C15 UNL     1      -1.926  10.905  17.096  1.00  0.00     0.026 C 
HETATM   13  C16 UNL     1      -2.863   9.829  16.490  1.00  0.00     0.011 C 
HETATM   14  C17 UNL     1      -2.091   8.622  15.915  1.00  0.00     0.014 C 
HETATM   15  C18 UNL     1      -1.018   9.054  14.892  1.00  0.00    -0.002 C 
HETATM   16  C19 UNL     1      -1.733   9.630  13.641  1.00  0.00     0.019 C 
HETATM   17  C20 UNL     1       0.035   7.958  14.522  1.00  0.00     0.034 C 
HETATM   18  C34 UNL     1       1.242   8.785  14.000  1.00  0.00     0.012 C 
HETATM   19  C35 UNL     1       1.055  10.227  14.530  1.00  0.00     0.044 C 
HETATM   20  C36 UNL     1      -0.071  10.107  15.565  1.00  0.00     0.089 C 
ENDROOT
BRANCH  17  21
HETATM   21  C21 UNL     1      -0.334   6.684  13.694  1.00  0.00     0.087 C 
HETATM   22  C22 UNL     1       0.577   5.473  13.949  1.00  0.00     0.049 C 
BRANCH  21  23
HETATM   23  O4  UNL     1      -0.164   7.038  12.311  1.00  0.00    -0.387 OA
HETATM   24  H34 UNL     1      -0.312   6.229  11.784  1.00  0.00     0.210 HD
ENDBRANCH  21  23
BRANCH  21  25
HETATM   25  C23 UNL     1      -1.858   6.338  13.964  1.00  0.00     0.181 C 
BRANCH  25  26
HETATM   26  O5  UNL     1      -1.990   5.324  14.970  1.00  0.00    -0.390 OA
HETATM   27  H36 UNL     1      -1.601   4.507  14.617  1.00  0.00     0.210 HD
ENDBRANCH  25  26
BRANCH  25  28
HETATM   28  C24 UNL     1      -2.678   5.991  12.690  1.00  0.00     0.158 C 
HETATM   29  O6  UNL     1      -1.998   5.002  11.887  1.00  0.00    -0.372 OA
HETATM   30  C25 UNL     1      -2.580   3.712  12.167  1.00  0.00     0.197 C 
HETATM   31  C26 UNL     1      -3.928   3.932  12.883  1.00  0.00     0.035 C 
HETATM   32  C32 UNL     1      -2.803   2.817  10.899  1.00  0.00     0.301 C 
HETATM   33  C27 UNL     1      -4.099   5.447  12.881  1.00  0.00     0.020 C 
HETATM   34  C29 UNL     1      -5.021   3.114  12.132  1.00  0.00     0.043 C 
HETATM   35  C28 UNL     1      -4.882   5.977  14.072  1.00  0.00     0.013 C 
HETATM   36  C30 UNL     1      -4.538   1.666  12.096  1.00  0.00    -0.019 C 
HETATM   37  C33 UNL     1      -5.086   3.544  10.633  1.00  0.00     0.283 C 
HETATM   38  C31 UNL     1      -3.395   1.516  11.399  1.00  0.00     0.042 C 
HETATM   39  N1  UNL     1      -3.749   3.464   9.987  1.00  0.00     0.126 N 
HETATM   40  H48 UNL     1      -3.817   2.867   9.165  1.00  0.00     0.320 HD
BRANCH  32  41
HETATM   41  O7  UNL     1      -1.604   2.584  10.214  1.00  0.00    -0.358 OA
HETATM   42  H47 UNL     1      -1.366   3.474   9.899  1.00  0.00     0.213 HD
ENDBRANCH  32  41
ENDBRANCH  25  28
ENDBRANCH  21  25
ENDBRANCH  17  21
BRANCH  20  43
HETATM   43  O8  UNL     1       0.546   9.562  16.745  1.00  0.00    -0.384 OA
HETATM   44  H55 UNL     1       1.164  10.232  17.080  1.00  0.00     0.211 HD
ENDBRANCH  20  43
BRANCH   1  45
HETATM   45  O2  UNL     1      -3.253  16.122  19.181  1.00  0.00    -0.386 OA
BRANCH  45  46
HETATM   46  C4  UNL     1      -4.675  15.992  19.156  1.00  0.00     0.170 C 
BRANCH  46  47
HETATM   47  C3  UNL     1      -5.235  15.791  20.560  1.00  0.00     0.052 C 
BRANCH  47  48
HETATM   48  C2  UNL     1      -5.978  14.468  20.692  1.00  0.00     0.169 C 
BRANCH  48  49
HETATM   49  O1  UNL     1      -5.341  13.688  21.705  1.00  0.00    -0.396 OA
HETATM   50  C1  UNL     1      -6.292  13.047  22.546  1.00  0.00     0.201 C 
ENDBRANCH  48  49
ENDBRANCH  47  48
ENDBRANCH  46  47
ENDBRANCH  45  46
ENDBRANCH   1  45
TORSDOF 12
ENDMDL
MODEL 8
REMARK minimizedAffinity -9.75157547
REMARK CNNscore 0.41343978
REMARK CNNaffinity 6.66974115
REMARK  12 active torsions:
REMARK  status: ('A' for Active; 'I' for Inactive)
REMARK    1  A    between atoms: O1_2  and  C2_3 
REMARK    2  A    between atoms: C2_3  and  C3_4 
REMARK    3  A    between atoms: C3_4  and  C4_5 
REMARK    4  A    between atoms: C4_5  and  O2_6 
REMARK    5  A    between atoms: O2_6  and  C5_7 
REMARK    6  A    between atoms: C20_23  and  C21_24 
REMARK    7  A    between atoms: C21_24  and  O4_26 
REMARK    8  A    between atoms: C21_24  and  C23_27 
REMARK    9  A    between atoms: C23_27  and  O5_28 
REMARK   10  A    between atoms: C23_27  and  C24_29 
REMARK   11  A    between atoms: C32_38  and  O7_39 
REMARK   12  A    between atoms: C36_44  and  O8_45 
ROOT
HETATM    1  C5  UNL     1      -5.666   6.899  14.345  1.00  0.00     0.122 C 
HETATM    2  C6  UNL     1      -5.477   8.259  13.677  1.00  0.00     0.033 C 
HETATM    3  C7  UNL     1      -4.098   8.413  13.039  1.00  0.00     0.013 C 
HETATM    4  C8  UNL     1      -2.916   8.103  14.012  1.00  0.00    -0.026 C 
HETATM    5  C9  UNL     1      -2.910   9.189  15.119  1.00  0.00     0.016 C 
HETATM    6  C10 UNL     1      -3.137   6.701  14.640  1.00  0.00     0.071 C 
HETATM    7  C11 UNL     1      -4.518   6.573  15.306  1.00  0.00     0.045 C 
HETATM    8  C12 UNL     1      -2.964   5.585  13.610  1.00  0.00     0.154 C 
HETATM    9  O3  UNL     1      -3.598   4.533  13.645  1.00  0.00    -0.293 OA
HETATM   10  C13 UNL     1      -1.934   5.737  12.562  1.00  0.00     0.057 C 
HETATM   11  C14 UNL     1      -1.267   6.888  12.401  1.00  0.00    -0.037 C 
HETATM   12  C15 UNL     1      -1.566   8.159  13.202  1.00  0.00     0.026 C 
HETATM   13  C16 UNL     1      -0.304   8.545  14.014  1.00  0.00     0.011 C 
HETATM   14  C17 UNL     1       0.962   8.649  13.136  1.00  0.00     0.014 C 
HETATM   15  C18 UNL     1       1.208   7.362  12.319  1.00  0.00    -0.002 C 
HETATM   16  C19 UNL     1       1.566   6.215  13.301  1.00  0.00     0.019 C 
HETATM   17  C20 UNL     1       2.246   7.494  11.157  1.00  0.00     0.034 C 
HETATM   18  C34 UNL     1       1.865   6.327  10.204  1.00  0.00     0.012 C 
HETATM   19  C35 UNL     1       0.417   5.917  10.561  1.00  0.00     0.044 C 
HETATM   20  C36 UNL     1      -0.078   7.039  11.482  1.00  0.00     0.089 C 
ENDROOT
BRANCH  17  21
HETATM   21  C21 UNL     1       3.775   7.698  11.414  1.00  0.00     0.087 C 
HETATM   22  C22 UNL     1       4.558   8.236  10.206  1.00  0.00     0.049 C 
BRANCH  21  23
HETATM   23  O4  UNL     1       4.314   6.398  11.704  1.00  0.00    -0.387 OA
HETATM   24  H34 UNL     1       5.282   6.496  11.788  1.00  0.00     0.210 HD
ENDBRANCH  21  23
BRANCH  21  25
HETATM   25  C23 UNL     1       3.945   8.632  12.686  1.00  0.00     0.181 C 
BRANCH  25  26
HETATM   26  O5  UNL     1       4.333   9.960  12.305  1.00  0.00    -0.390 OA
HETATM   27  H36 UNL     1       5.217   9.907  11.908  1.00  0.00     0.210 HD
ENDBRANCH  25  26
BRANCH  25  28
HETATM   28  C24 UNL     1       4.874   8.058  13.790  1.00  0.00     0.158 C 
HETATM   29  O6  UNL     1       6.197   7.794  13.271  1.00  0.00    -0.372 OA
HETATM   30  C25 UNL     1       7.055   8.895  13.635  1.00  0.00     0.197 C 
HETATM   31  C26 UNL     1       6.360   9.706  14.748  1.00  0.00     0.035 C 
HETATM   32  C32 UNL     1       8.484   8.465  14.118  1.00  0.00     0.301 C 
HETATM   33  C27 UNL     1       5.098   8.906  15.048  1.00  0.00     0.020 C 
HETATM   34  C29 UNL     1       7.363   9.879  15.927  1.00  0.00     0.043 C 
HETATM   35  C28 UNL     1       3.929   9.757  15.517  1.00  0.00     0.013 C 
HETATM   36  C30 UNL     1       8.618  10.525  15.345  1.00  0.00    -0.019 C 
HETATM   37  C33 UNL     1       7.842   8.485  16.441  1.00  0.00     0.283 C 
HETATM   38  C31 UNL     1       9.228   9.748  14.429  1.00  0.00     0.042 C 
HETATM   39  N1  UNL     1       8.382   7.654  15.333  1.00  0.00     0.126 N 
HETATM   40  H48 UNL     1       9.328   7.364  15.571  1.00  0.00     0.320 HD
BRANCH  32  41
HETATM   41  O7  UNL     1       9.159   7.728  13.139  1.00  0.00    -0.358 OA
HETATM   42  H47 UNL     1       8.622   6.918  13.077  1.00  0.00     0.213 HD
ENDBRANCH  32  41
ENDBRANCH  25  28
ENDBRANCH  21  25
ENDBRANCH  17  21
BRANCH  20  43
HETATM   43  O8  UNL     1      -0.413   8.135  10.612  1.00  0.00    -0.384 OA
HETATM   44  H55 UNL     1      -1.174   7.854  10.078  1.00  0.00     0.211 HD
ENDBRANCH  20  43
BRANCH   1  45
HETATM   45  O2  UNL     1      -6.882   6.951  15.100  1.00  0.00    -0.386 OA
BRANCH  45  46
HETATM   46  C4  UNL     1      -7.973   6.263  14.487  1.00  0.00     0.170 C 
BRANCH  46  47
HETATM   47  C3  UNL     1      -7.567   4.857  14.058  1.00  0.00     0.052 C 
BRANCH  47  48
HETATM   48  C2  UNL     1      -8.322   4.402  12.815  1.00  0.00     0.169 C 
BRANCH  48  49
HETATM   49  O1  UNL     1      -8.466   2.982  12.866  1.00  0.00    -0.396 OA
HETATM   50  C1  UNL     1      -7.252   2.321  12.534  1.00  0.00     0.201 C 
ENDBRANCH  48  49
ENDBRANCH  47  48
ENDBRANCH  46  47
ENDBRANCH  45  46
ENDBRANCH   1  45
TORSDOF 12
ENDMDL
MODEL 9
REMARK minimizedAffinity -8.09032536
REMARK CNNscore 0.398762912
REMARK CNNaffinity 6.25077963
REMARK  12 active torsions:
REMARK  status: ('A' for Active; 'I' for Inactive)
REMARK    1  A    between atoms: O1_2  and  C2_3 
REMARK    2  A    between atoms: C2_3  and  C3_4 
REMARK    3  A    between atoms: C3_4  and  C4_5 
REMARK    4  A    between atoms: C4_5  and  O2_6 
REMARK    5  A    between atoms: O2_6  and  C5_7 
REMARK    6  A    between atoms: C20_23  and  C21_24 
REMARK    7  A    between atoms: C21_24  and  O4_26 
REMARK    8  A    between atoms: C21_24  and  C23_27 
REMARK    9  A    between atoms: C23_27  and  O5_28 
REMARK   10  A    between atoms: C23_27  and  C24_29 
REMARK   11  A    between atoms: C32_38  and  O7_39 
REMARK   12  A    between atoms: C36_44  and  O8_45 
ROOT
HETATM    1  C5  UNL     1      -7.563  -9.771  -3.132  1.00  0.00     0.122 C 
HETATM    2  C6  UNL     1      -8.277  -8.848  -2.146  1.00  0.00     0.033 C 
HETATM    3  C7  UNL     1      -7.708  -8.946  -0.732  1.00  0.00     0.013 C 
HETATM    4  C8  UNL     1      -7.642 -10.406  -0.180  1.00  0.00    -0.026 C 
HETATM    5  C9  UNL     1      -9.097 -10.917  -0.005  1.00  0.00     0.016 C 
HETATM    6  C10 UNL     1      -6.883 -11.295  -1.200  1.00  0.00     0.071 C 
HETATM    7  C11 UNL     1      -7.487 -11.210  -2.612  1.00  0.00     0.045 C 
HETATM    8  C12 UNL     1      -5.397 -10.942  -1.261  1.00  0.00     0.154 C 
HETATM    9  O3  UNL     1      -4.725 -11.035  -2.287  1.00  0.00    -0.293 OA
HETATM   10  C13 UNL     1      -4.707 -10.544  -0.017  1.00  0.00     0.057 C 
HETATM   11  C14 UNL     1      -5.385 -10.333   1.119  1.00  0.00    -0.037 C 
HETATM   12  C15 UNL     1      -6.913 -10.386   1.216  1.00  0.00     0.026 C 
HETATM   13  C16 UNL     1      -7.311 -11.511   2.205  1.00  0.00     0.011 C 
HETATM   14  C17 UNL     1      -6.607 -11.380   3.573  1.00  0.00     0.014 C 
HETATM   15  C18 UNL     1      -5.072 -11.293   3.429  1.00  0.00    -0.002 C 
HETATM   16  C19 UNL     1      -4.548 -12.656   2.905  1.00  0.00     0.019 C 
HETATM   17  C20 UNL     1      -4.305 -10.814   4.705  1.00  0.00     0.034 C 
HETATM   18  C34 UNL     1      -2.965 -10.274   4.134  1.00  0.00     0.012 C 
HETATM   19  C35 UNL     1      -3.199 -10.006   2.629  1.00  0.00     0.044 C 
HETATM   20  C36 UNL     1      -4.719 -10.114   2.457  1.00  0.00     0.089 C 
ENDROOT
BRANCH  17  21
HETATM   21  C21 UNL     1      -4.199 -11.685   5.999  1.00  0.00     0.087 C 
HETATM   22  C22 UNL     1      -2.918 -12.528   6.097  1.00  0.00     0.049 C 
BRANCH  21  23
HETATM   23  O4  UNL     1      -5.296 -12.613   5.953  1.00  0.00    -0.387 OA
HETATM   24  H34 UNL     1      -5.197 -13.218   6.713  1.00  0.00     0.210 HD
ENDBRANCH  21  23
BRANCH  21  25
HETATM   25  C23 UNL     1      -4.371 -10.732   7.257  1.00  0.00     0.181 C 
BRANCH  25  26
HETATM   26  O5  UNL     1      -3.257 -10.852   8.153  1.00  0.00    -0.390 OA
HETATM   27  H36 UNL     1      -3.264 -11.753   8.513  1.00  0.00     0.210 HD
ENDBRANCH  25  26
BRANCH  25  28
HETATM   28  C24 UNL     1      -5.725 -10.883   8.002  1.00  0.00     0.158 C 
HETATM   29  O6  UNL     1      -5.520 -11.209   9.394  1.00  0.00    -0.372 OA
HETATM   30  C25 UNL     1      -5.648  -9.999  10.167  1.00  0.00     0.197 C 
HETATM   31  C26 UNL     1      -6.334  -8.932   9.291  1.00  0.00     0.035 C 
HETATM   32  C32 UNL     1      -6.449 -10.171  11.504  1.00  0.00     0.301 C 
HETATM   33  C27 UNL     1      -6.675  -9.679   8.007  1.00  0.00     0.020 C 
HETATM   34  C29 UNL     1      -7.538  -8.345  10.087  1.00  0.00     0.043 C 
HETATM   35  C28 UNL     1      -6.674  -8.800   6.767  1.00  0.00     0.013 C 
HETATM   36  C30 UNL     1      -6.980  -7.830  11.412  1.00  0.00    -0.019 C 
HETATM   37  C33 UNL     1      -8.526  -9.482  10.494  1.00  0.00     0.283 C 
HETATM   38  C31 UNL     1      -6.454  -8.811  12.172  1.00  0.00     0.042 C 
HETATM   39  N1  UNL     1      -7.827 -10.577  11.216  1.00  0.00     0.126 N 
HETATM   40  H48 UNL     1      -8.283 -10.721  12.115  1.00  0.00     0.320 HD
BRANCH  32  41
HETATM   41  O7  UNL     1      -5.862 -11.128  12.339  1.00  0.00    -0.358 OA
HETATM   42  H47 UNL     1      -5.976 -11.950  11.829  1.00  0.00     0.213 HD
ENDBRANCH  32  41
ENDBRANCH  25  28
ENDBRANCH  21  25
ENDBRANCH  17  21
BRANCH  20  43
HETATM   43  O8  UNL     1      -5.253  -8.870   2.944  1.00  0.00    -0.384 OA
HETATM   44  H55 UNL     1      -4.951  -8.173   2.338  1.00  0.00     0.211 HD
ENDBRANCH  20  43
BRANCH   1  45
HETATM   45  O2  UNL     1      -8.318  -9.773  -4.350  1.00  0.00    -0.386 OA
BRANCH  45  46
HETATM   46  C4  UNL     1      -9.261  -8.705  -4.446  1.00  0.00     0.170 C 
BRANCH  46  47
HETATM   47  C3  UNL     1      -8.601  -7.432  -4.966  1.00  0.00     0.052 C 
BRANCH  47  48
HETATM   48  C2  UNL     1      -8.926  -7.183  -6.434  1.00  0.00     0.169 C 
BRANCH  48  49
HETATM   49  O1  UNL     1      -9.276  -5.807  -6.594  1.00  0.00    -0.396 OA
HETATM   50  C1  UNL     1     -10.290  -5.416  -5.678  1.00  0.00     0.201 C 
ENDBRANCH  48  49
ENDBRANCH  47  48
ENDBRANCH  46  47
ENDBRANCH  45  46
ENDBRANCH   1  45
TORSDOF 12
ENDMDL
