MODEL 1
REMARK minimizedAffinity -9.08862972
REMARK CNNscore 0.554273307
REMARK CNNaffinity 7.25757647
REMARK  5 active torsions:
REMARK  status: ('A' for Active; 'I' for Inactive)
REMARK    1  A    between atoms: C11_11  and  O1_12 
REMARK    2  A    between atoms: C14_15  and  C15_16 
REMARK    3  A    between atoms: C17_18  and  C18_19 
REMARK    4  A    between atoms: C26_31  and  O6_32 
REMARK    5  A    between atoms: C36_44  and  O9_45 
ROOT
HETATM    1  C1  UNL     1      -4.005   1.366  11.324  1.00  0.00     0.043 C 
HETATM    2  C2  UNL     1      -3.895   2.855  11.147  1.00  0.00    -0.087 C 
HETATM    3  C3  UNL     1      -2.741   3.509  10.898  1.00  0.00    -0.022 C 
HETATM    4  C4  UNL     1      -1.345   2.947  10.833  1.00  0.00     0.059 C 
HETATM    5  C5  UNL     1      -0.326   3.721  11.693  1.00  0.00     0.131 C 
HETATM    6  C6  UNL     1      -0.687   3.764  13.183  1.00  0.00     0.065 C 
HETATM    7  C7  UNL     1      -0.033   4.950  13.900  1.00  0.00     0.139 C 
HETATM    8  C8  UNL     1       1.243   5.375  13.174  1.00  0.00     0.101 C 
HETATM    9  C9  UNL     1       0.976   5.724  11.690  1.00  0.00     0.170 C 
HETATM   10  C10 UNL     1       0.750   7.237  11.501  1.00  0.00     0.100 C 
HETATM   11  C11 UNL     1       2.053   7.918  11.112  1.00  0.00     0.129 C 
HETATM   12  C12 UNL     1       2.581   7.363   9.770  1.00  0.00     0.044 C 
HETATM   13  C13 UNL     1       2.090   8.154   8.551  1.00  0.00     0.015 C 
HETATM   14  C14 UNL     1       2.195   5.865   9.639  1.00  0.00     0.159 C 
HETATM   15  O2  UNL     1       2.139   5.300  10.956  1.00  0.00    -0.345 OA
HETATM   16  O3  UNL     1      -0.186   5.051  11.190  1.00  0.00    -0.349 OA
HETATM   17  O4  UNL     1      -0.968   6.051  13.940  1.00  0.00    -0.315 OA
HETATM   18  C21 UNL     1      -0.798   6.944  14.961  1.00  0.00     0.270 C 
HETATM   19  O5  UNL     1      -0.002   6.793  15.881  1.00  0.00    -0.264 OA
HETATM   20  C22 UNL     1      -1.659   8.189  14.727  1.00  0.00     0.150 C 
HETATM   21  C23 UNL     1      -0.932   9.383  15.317  1.00  0.00    -0.004 C 
HETATM   22  C24 UNL     1      -1.500  10.312  16.105  1.00  0.00    -0.056 C 
HETATM   23  C25 UNL     1      -0.690  11.416  16.729  1.00  0.00     0.046 C 
HETATM   24  C26 UNL     1      -2.959  10.256  16.457  1.00  0.00     0.179 C 
HETATM   25  C27 UNL     1      -3.798   9.318  15.578  1.00  0.00     0.205 C 
HETATM   26  O7  UNL     1      -4.119   9.915  14.309  1.00  0.00    -0.306 OA
HETATM   27  C28 UNL     1      -4.428   8.904  13.447  1.00  0.00     0.293 C 
HETATM   28  O8  UNL     1      -4.915   9.036  12.342  1.00  0.00    -0.259 OA
HETATM   29  C29 UNL     1      -4.030   7.622  14.094  1.00  0.00     0.055 C 
HETATM   30  C30 UNL     1      -4.545   6.469  13.641  1.00  0.00     0.016 C 
HETATM   31  C31 UNL     1      -4.271   5.155  14.172  1.00  0.00    -0.003 C 
HETATM   32  C32 UNL     1      -4.812   4.004  13.741  1.00  0.00    -0.022 C 
HETATM   33  C33 UNL     1      -5.833   3.797  12.642  1.00  0.00     0.008 C 
HETATM   34  C34 UNL     1      -6.759   2.623  12.990  1.00  0.00     0.014 C 
HETATM   35  C35 UNL     1      -5.196   3.641  11.235  1.00  0.00     0.041 C 
HETATM   36  C36 UNL     1      -3.120   7.994  15.231  1.00  0.00     0.136 C 
ENDROOT
BRANCH  11  37
HETATM   37  O1  UNL     1       1.858   9.326  11.076  1.00  0.00    -0.395 OA
HETATM   38  H16 UNL     1       2.725   9.742  10.927  1.00  0.00     0.210 HD
ENDBRANCH  11  37
BRANCH  14  39
HETATM   39  C15 UNL     1       3.077   4.947   8.789  1.00  0.00    -0.058 C 
HETATM   40  C16 UNL     1       3.890   3.989   9.631  1.00  0.00     0.046 C 
HETATM   41  C17 UNL     1       3.107   4.948   7.438  1.00  0.00    -0.018 C 
BRANCH  41  42
HETATM   42  C18 UNL     1       3.940   4.080   6.521  1.00  0.00     0.000 C 
HETATM   43  C19 UNL     1       4.775   3.102   7.348  1.00  0.00     0.013 C 
HETATM   44  C20 UNL     1       3.035   3.318   5.551  1.00  0.00     0.013 C 
ENDBRANCH  41  42
ENDBRANCH  14  39
BRANCH  36  45
HETATM   45  O9  UNL     1      -3.208   7.114  16.346  1.00  0.00    -0.381 OA
HETATM   46  H50 UNL     1      -4.138   6.843  16.459  1.00  0.00     0.211 HD
ENDBRANCH  36  45
BRANCH  24  47
HETATM   47  O6  UNL     1      -3.514  11.569  16.386  1.00  0.00    -0.388 OA
HETATM   48  H39 UNL     1      -3.605  11.775  15.435  1.00  0.00     0.210 HD
ENDBRANCH  24  47
TORSDOF 5
ENDMDL
MODEL 2
REMARK minimizedAffinity -7.90757895
REMARK CNNscore 0.372856706
REMARK CNNaffinity 6.25703001
REMARK  5 active torsions:
REMARK  status: ('A' for Active; 'I' for Inactive)
REMARK    1  A    between atoms: C11_11  and  O1_12 
REMARK    2  A    between atoms: C14_15  and  C15_16 
REMARK    3  A    between atoms: C17_18  and  C18_19 
REMARK    4  A    between atoms: C26_31  and  O6_32 
REMARK    5  A    between atoms: C36_44  and  O9_45 
ROOT
HETATM    1  C1  UNL     1       1.779  16.386  13.620  1.00  0.00     0.043 C 
HETATM    2  C2  UNL     1       2.257  15.056  13.108  1.00  0.00    -0.087 C 
HETATM    3  C3  UNL     1       1.896  13.864  13.629  1.00  0.00    -0.022 C 
HETATM    4  C4  UNL     1       1.047  13.596  14.844  1.00  0.00     0.059 C 
HETATM    5  C5  UNL     1       1.685  12.606  15.840  1.00  0.00     0.131 C 
HETATM    6  C6  UNL     1       3.046  13.068  16.378  1.00  0.00     0.065 C 
HETATM    7  C7  UNL     1       3.895  11.895  16.878  1.00  0.00     0.139 C 
HETATM    8  C8  UNL     1       3.001  10.732  17.304  1.00  0.00     0.101 C 
HETATM    9  C9  UNL     1       2.067  10.269  16.160  1.00  0.00     0.170 C 
HETATM   10  C10 UNL     1       2.678   9.091  15.377  1.00  0.00     0.100 C 
HETATM   11  C11 UNL     1       2.158   7.771  15.925  1.00  0.00     0.129 C 
HETATM   12  C12 UNL     1       0.624   7.679  15.768  1.00  0.00     0.044 C 
HETATM   13  C13 UNL     1       0.187   7.021  14.453  1.00  0.00     0.015 C 
HETATM   14  C14 UNL     1       0.002   9.095  15.901  1.00  0.00     0.159 C 
HETATM   15  O2  UNL     1       0.831   9.868  16.780  1.00  0.00    -0.345 OA
HETATM   16  O3  UNL     1       1.819  11.325  15.222  1.00  0.00    -0.349 OA
HETATM   17  O4  UNL     1       4.785  11.473  15.820  1.00  0.00    -0.315 OA
HETATM   18  C21 UNL     1       5.938  10.856  16.218  1.00  0.00     0.270 C 
HETATM   19  O5  UNL     1       6.300  10.763  17.386  1.00  0.00    -0.264 OA
HETATM   20  C22 UNL     1       6.642  10.218  15.017  1.00  0.00     0.150 C 
HETATM   21  C23 UNL     1       7.365   8.975  15.499  1.00  0.00    -0.004 C 
HETATM   22  C24 UNL     1       8.636   8.661  15.193  1.00  0.00    -0.056 C 
HETATM   23  C25 UNL     1       9.313   7.457  15.788  1.00  0.00     0.046 C 
HETATM   24  C26 UNL     1       9.465   9.535  14.297  1.00  0.00     0.179 C 
HETATM   25  C27 UNL     1       8.667  10.564  13.483  1.00  0.00     0.205 C 
HETATM   26  O7  UNL     1       8.038   9.969  12.335  1.00  0.00    -0.306 OA
HETATM   27  C28 UNL     1       7.015  10.788  11.958  1.00  0.00     0.293 C 
HETATM   28  O8  UNL     1       6.375  10.699  10.929  1.00  0.00    -0.259 OA
HETATM   29  C29 UNL     1       6.808  11.782  13.049  1.00  0.00     0.055 C 
HETATM   30  C30 UNL     1       6.130  12.911  12.790  1.00  0.00     0.016 C 
HETATM   31  C31 UNL     1       5.865  13.972  13.733  1.00  0.00    -0.003 C 
HETATM   32  C32 UNL     1       5.216  15.117  13.466  1.00  0.00    -0.022 C 
HETATM   33  C33 UNL     1       4.639  15.587  12.147  1.00  0.00     0.008 C 
HETATM   34  C34 UNL     1       4.759  17.113  12.028  1.00  0.00     0.014 C 
HETATM   35  C35 UNL     1       3.188  15.093  11.903  1.00  0.00     0.041 C 
HETATM   36  C36 UNL     1       7.532  11.240  14.249  1.00  0.00     0.136 C 
ENDROOT
BRANCH  11  37
HETATM   37  O1  UNL     1       2.833   6.695  15.287  1.00  0.00    -0.395 OA
HETATM   38  H16 UNL     1       2.560   5.871  15.725  1.00  0.00     0.210 HD
ENDBRANCH  11  37
BRANCH  14  39
HETATM   39  C15 UNL     1      -1.437   9.225  16.408  1.00  0.00    -0.058 C 
HETATM   40  C16 UNL     1      -2.129   7.885  16.527  1.00  0.00     0.046 C 
HETATM   41  C17 UNL     1      -2.026  10.391  16.756  1.00  0.00    -0.018 C 
BRANCH  41  42
HETATM   42  C18 UNL     1      -3.432  10.612  17.266  1.00  0.00     0.000 C 
HETATM   43  C19 UNL     1      -3.412  10.794  18.784  1.00  0.00     0.013 C 
HETATM   44  C20 UNL     1      -4.051  11.839  16.593  1.00  0.00     0.013 C 
ENDBRANCH  41  42
ENDBRANCH  14  39
BRANCH  36  45
HETATM   45  O9  UNL     1       8.072  12.249  15.095  1.00  0.00    -0.381 OA
HETATM   46  H50 UNL     1       8.407  12.979  14.540  1.00  0.00     0.211 HD
ENDBRANCH  36  45
BRANCH  24  47
HETATM   47  O6  UNL     1      10.211   8.717  13.396  1.00  0.00    -0.388 OA
HETATM   48  H39 UNL     1       9.573   8.394  12.730  1.00  0.00     0.210 HD
ENDBRANCH  24  47
TORSDOF 5
ENDMDL
MODEL 3
REMARK minimizedAffinity -7.47872877
REMARK CNNscore 0.28505975
REMARK CNNaffinity 6.45456362
REMARK  5 active torsions:
REMARK  status: ('A' for Active; 'I' for Inactive)
REMARK    1  A    between atoms: C11_11  and  O1_12 
REMARK    2  A    between atoms: C14_15  and  C15_16 
REMARK    3  A    between atoms: C17_18  and  C18_19 
REMARK    4  A    between atoms: C26_31  and  O6_32 
REMARK    5  A    between atoms: C36_44  and  O9_45 
ROOT
HETATM    1  C1  UNL     1      -0.368  17.506   8.892  1.00  0.00     0.043 C 
HETATM    2  C2  UNL     1      -0.016  17.947   7.498  1.00  0.00    -0.087 C 
HETATM    3  C3  UNL     1      -0.750  17.663   6.402  1.00  0.00    -0.022 C 
HETATM    4  C4  UNL     1      -1.982  16.803   6.300  1.00  0.00     0.059 C 
HETATM    5  C5  UNL     1      -1.905  15.740   5.185  1.00  0.00     0.131 C 
HETATM    6  C6  UNL     1      -0.731  14.766   5.345  1.00  0.00     0.065 C 
HETATM    7  C7  UNL     1      -0.333  14.121   4.014  1.00  0.00     0.139 C 
HETATM    8  C8  UNL     1      -1.524  14.093   3.057  1.00  0.00     0.101 C 
HETATM    9  C9  UNL     1      -2.108  15.506   2.816  1.00  0.00     0.170 C 
HETATM   10  C10 UNL     1      -1.516  16.149   1.546  1.00  0.00     0.100 C 
HETATM   11  C11 UNL     1      -2.430  15.900   0.357  1.00  0.00     0.129 C 
HETATM   12  C12 UNL     1      -3.818  16.538   0.590  1.00  0.00     0.044 C 
HETATM   13  C13 UNL     1      -3.923  17.973   0.057  1.00  0.00     0.015 C 
HETATM   14  C14 UNL     1      -4.163  16.494   2.103  1.00  0.00     0.159 C 
HETATM   15  O2  UNL     1      -3.530  15.340   2.673  1.00  0.00    -0.345 OA
HETATM   16  O3  UNL     1      -1.829  16.385   3.913  1.00  0.00    -0.349 OA
HETATM   17  O4  UNL     1       0.752  14.875   3.429  1.00  0.00    -0.315 OA
HETATM   18  C21 UNL     1       1.572  14.187   2.580  1.00  0.00     0.270 C 
HETATM   19  O5  UNL     1       1.510  12.976   2.397  1.00  0.00    -0.264 OA
HETATM   20  C22 UNL     1       2.490  15.153   1.826  1.00  0.00     0.150 C 
HETATM   21  C23 UNL     1       2.762  14.569   0.452  1.00  0.00    -0.004 C 
HETATM   22  C24 UNL     1       3.977  14.484  -0.116  1.00  0.00    -0.056 C 
HETATM   23  C25 UNL     1       4.179  13.806  -1.444  1.00  0.00     0.046 C 
HETATM   24  C26 UNL     1       5.205  15.002   0.577  1.00  0.00     0.179 C 
HETATM   25  C27 UNL     1       4.929  15.939   1.761  1.00  0.00     0.205 C 
HETATM   26  O7  UNL     1       4.604  17.271   1.326  1.00  0.00    -0.306 OA
HETATM   27  C28 UNL     1       3.936  17.883   2.347  1.00  0.00     0.293 C 
HETATM   28  O8  UNL     1       3.661  19.064   2.408  1.00  0.00    -0.259 OA
HETATM   29  C29 UNL     1       3.584  16.836   3.347  1.00  0.00     0.055 C 
HETATM   30  C30 UNL     1       3.259  17.203   4.595  1.00  0.00     0.016 C 
HETATM   31  C31 UNL     1       2.912  16.310   5.676  1.00  0.00    -0.003 C 
HETATM   32  C32 UNL     1       2.619  16.673   6.935  1.00  0.00    -0.022 C 
HETATM   33  C33 UNL     1       2.603  18.064   7.533  1.00  0.00     0.008 C 
HETATM   34  C34 UNL     1       3.048  18.017   9.002  1.00  0.00     0.014 C 
HETATM   35  C35 UNL     1       1.243  18.791   7.357  1.00  0.00     0.041 C 
HETATM   36  C36 UNL     1       3.761  15.517   2.649  1.00  0.00     0.136 C 
ENDROOT
BRANCH  11  37
HETATM   37  O1  UNL     1      -1.806  16.378  -0.828  1.00  0.00    -0.395 OA
HETATM   38  H16 UNL     1      -2.361  16.116  -1.582  1.00  0.00     0.210 HD
ENDBRANCH  11  37
BRANCH  14  39
HETATM   39  C15 UNL     1      -5.635  16.456   2.523  1.00  0.00    -0.058 C 
HETATM   40  C16 UNL     1      -5.863  17.086   3.879  1.00  0.00     0.046 C 
HETATM   41  C17 UNL     1      -6.637  15.959   1.764  1.00  0.00    -0.018 C 
BRANCH  41  42
HETATM   42  C18 UNL     1      -8.111  15.884   2.094  1.00  0.00     0.000 C 
HETATM   43  C19 UNL     1      -8.654  14.501   1.734  1.00  0.00     0.013 C 
HETATM   44  C20 UNL     1      -8.334  16.172   3.580  1.00  0.00     0.013 C 
ENDBRANCH  41  42
ENDBRANCH  14  39
BRANCH  36  45
HETATM   45  O9  UNL     1       4.182  14.466   3.511  1.00  0.00    -0.381 OA
HETATM   46  H50 UNL     1       4.812  14.826   4.162  1.00  0.00     0.211 HD
ENDBRANCH  36  45
BRANCH  24  47
HETATM   47  O6  UNL     1       6.029  15.685  -0.367  1.00  0.00    -0.388 OA
HETATM   48  H39 UNL     1       5.592  16.542  -0.539  1.00  0.00     0.210 HD
ENDBRANCH  24  47
TORSDOF 5
ENDMDL
MODEL 4
REMARK minimizedAffinity -6.58226395
REMARK CNNscore 0.284633487
REMARK CNNaffinity 6.12182856
REMARK  5 active torsions:
REMARK  status: ('A' for Active; 'I' for Inactive)
REMARK    1  A    between atoms: C11_11  and  O1_12 
REMARK    2  A    between atoms: C14_15  and  C15_16 
REMARK    3  A    between atoms: C17_18  and  C18_19 
REMARK    4  A    between atoms: C26_31  and  O6_32 
REMARK    5  A    between atoms: C36_44  and  O9_45 
ROOT
HETATM    1  C1  UNL     1     -20.258   9.064  22.942  1.00  0.00     0.043 C 
HETATM    2  C2  UNL     1     -19.091   8.785  23.847  1.00  0.00    -0.087 C 
HETATM    3  C3  UNL     1     -17.804   9.035  23.529  1.00  0.00    -0.022 C 
HETATM    4  C4  UNL     1     -17.246   9.540  22.224  1.00  0.00     0.059 C 
HETATM    5  C5  UNL     1     -16.075   8.695  21.682  1.00  0.00     0.131 C 
HETATM    6  C6  UNL     1     -16.441   7.225  21.436  1.00  0.00     0.065 C 
HETATM    7  C7  UNL     1     -15.210   6.314  21.457  1.00  0.00     0.139 C 
HETATM    8  C8  UNL     1     -13.956   7.103  21.080  1.00  0.00     0.101 C 
HETATM    9  C9  UNL     1     -13.738   8.322  22.007  1.00  0.00     0.170 C 
HETATM   10  C10 UNL     1     -12.782   7.981  23.167  1.00  0.00     0.100 C 
HETATM   11  C11 UNL     1     -11.359   8.382  22.811  1.00  0.00     0.129 C 
HETATM   12  C12 UNL     1     -11.263   9.905  22.571  1.00  0.00     0.044 C 
HETATM   13  C13 UNL     1     -10.907  10.698  23.834  1.00  0.00     0.015 C 
HETATM   14  C14 UNL     1     -12.596  10.420  21.962  1.00  0.00     0.159 C 
HETATM   15  O2  UNL     1     -13.173   9.361  21.186  1.00  0.00    -0.345 OA
HETATM   16  O3  UNL     1     -14.970   8.773  22.584  1.00  0.00    -0.349 OA
HETATM   17  O4  UNL     1     -15.060   5.752  22.779  1.00  0.00    -0.315 OA
HETATM   18  C21 UNL     1     -14.402   4.557  22.852  1.00  0.00     0.270 C 
HETATM   19  O5  UNL     1     -14.058   3.901  21.874  1.00  0.00    -0.264 OA
HETATM   20  C22 UNL     1     -14.070   4.219  24.308  1.00  0.00     0.150 C 
HETATM   21  C23 UNL     1     -12.770   3.437  24.327  1.00  0.00    -0.004 C 
HETATM   22  C24 UNL     1     -12.568   2.305  25.022  1.00  0.00    -0.056 C 
HETATM   23  C25 UNL     1     -11.280   1.536  24.915  1.00  0.00     0.046 C 
HETATM   24  C26 UNL     1     -13.644   1.714  25.888  1.00  0.00     0.179 C 
HETATM   25  C27 UNL     1     -14.807   2.663  26.208  1.00  0.00     0.205 C 
HETATM   26  O7  UNL     1     -14.468   3.594  27.250  1.00  0.00    -0.306 OA
HETATM   27  C28 UNL     1     -15.323   4.652  27.147  1.00  0.00     0.293 C 
HETATM   28  O8  UNL     1     -15.451   5.545  27.962  1.00  0.00    -0.259 OA
HETATM   29  C29 UNL     1     -16.041   4.528  25.847  1.00  0.00     0.055 C 
HETATM   30  C30 UNL     1     -17.179   5.211  25.656  1.00  0.00     0.016 C 
HETATM   31  C31 UNL     1     -17.994   5.180  24.464  1.00  0.00    -0.003 C 
HETATM   32  C32 UNL     1     -19.151   5.837  24.285  1.00  0.00    -0.022 C 
HETATM   33  C33 UNL     1     -19.889   6.727  25.263  1.00  0.00     0.008 C 
HETATM   34  C34 UNL     1     -21.406   6.591  25.064  1.00  0.00     0.014 C 
HETATM   35  C35 UNL     1     -19.424   8.207  25.215  1.00  0.00     0.041 C 
HETATM   36  C36 UNL     1     -15.262   3.530  25.036  1.00  0.00     0.136 C 
ENDROOT
BRANCH  11  37
HETATM   37  O1  UNL     1     -10.473   7.938  23.830  1.00  0.00    -0.395 OA
HETATM   38  H16 UNL     1      -9.565   8.113  23.531  1.00  0.00     0.210 HD
ENDBRANCH  11  37
BRANCH  14  39
HETATM   39  C15 UNL     1     -12.568  11.668  21.075  1.00  0.00    -0.058 C 
HETATM   40  C16 UNL     1     -13.887  12.408  21.081  1.00  0.00     0.046 C 
HETATM   41  C17 UNL     1     -11.485  12.098  20.391  1.00  0.00    -0.018 C 
BRANCH  41  42
HETATM   42  C18 UNL     1     -11.366  13.314  19.497  1.00  0.00     0.000 C 
HETATM   43  C19 UNL     1     -10.863  14.508  20.309  1.00  0.00     0.013 C 
HETATM   44  C20 UNL     1     -10.414  13.023  18.336  1.00  0.00     0.013 C 
ENDBRANCH  41  42
ENDBRANCH  14  39
BRANCH  36  45
HETATM   45  O9  UNL     1     -16.070   2.751  24.161  1.00  0.00    -0.381 OA
HETATM   46  H50 UNL     1     -16.914   2.550  24.606  1.00  0.00     0.211 HD
ENDBRANCH  36  45
BRANCH  24  47
HETATM   47  O6  UNL     1     -13.070   1.262  27.114  1.00  0.00    -0.388 OA
HETATM   48  H39 UNL     1     -12.888   2.065  27.641  1.00  0.00     0.210 HD
ENDBRANCH  24  47
TORSDOF 5
ENDMDL
MODEL 5
REMARK minimizedAffinity -7.11761665
REMARK CNNscore 0.223707899
REMARK CNNaffinity 5.45743752
REMARK  5 active torsions:
REMARK  status: ('A' for Active; 'I' for Inactive)
REMARK    1  A    between atoms: C11_11  and  O1_12 
REMARK    2  A    between atoms: C14_15  and  C15_16 
REMARK    3  A    between atoms: C17_18  and  C18_19 
REMARK    4  A    between atoms: C26_31  and  O6_32 
REMARK    5  A    between atoms: C36_44  and  O9_45 
ROOT
HETATM    1  C1  UNL     1       3.341  12.147  23.369  1.00  0.00     0.043 C 
HETATM    2  C2  UNL     1       3.542  12.863  22.063  1.00  0.00    -0.087 C 
HETATM    3  C3  UNL     1       2.630  12.905  21.069  1.00  0.00    -0.022 C 
HETATM    4  C4  UNL     1       1.299  12.204  20.994  1.00  0.00     0.059 C 
HETATM    5  C5  UNL     1       1.083  11.423  19.681  1.00  0.00     0.131 C 
HETATM    6  C6  UNL     1       2.139  10.339  19.431  1.00  0.00     0.065 C 
HETATM    7  C7  UNL     1       2.260   9.984  17.946  1.00  0.00     0.139 C 
HETATM    8  C8  UNL     1       0.949  10.282  17.218  1.00  0.00     0.101 C 
HETATM    9  C9  UNL     1       0.516  11.758  17.384  1.00  0.00     0.170 C 
HETATM   10  C10 UNL     1       0.996  12.621  16.200  1.00  0.00     0.100 C 
HETATM   11  C11 UNL     1      -0.103  12.734  15.155  1.00  0.00     0.129 C 
HETATM   12  C12 UNL     1      -1.353  13.423  15.747  1.00  0.00     0.044 C 
HETATM   13  C13 UNL     1      -1.356  14.945  15.557  1.00  0.00     0.015 C 
HETATM   14  C14 UNL     1      -1.482  13.062  17.252  1.00  0.00     0.159 C 
HETATM   15  O2  UNL     1      -0.921  11.757  17.449  1.00  0.00    -0.345 OA
HETATM   16  O3  UNL     1       1.056  12.334  18.581  1.00  0.00    -0.349 OA
HETATM   17  O4  UNL     1       3.334  10.753  17.363  1.00  0.00    -0.315 OA
HETATM   18  C21 UNL     1       3.933  10.208  16.261  1.00  0.00     0.270 C 
HETATM   19  O5  UNL     1       3.696   9.082  15.838  1.00  0.00    -0.264 OA
HETATM   20  C22 UNL     1       4.846  11.237  15.588  1.00  0.00     0.150 C 
HETATM   21  C23 UNL     1       4.844  10.962  14.096  1.00  0.00    -0.004 C 
HETATM   22  C24 UNL     1       5.946  10.903  13.328  1.00  0.00    -0.056 C 
HETATM   23  C25 UNL     1       5.870  10.533  11.871  1.00  0.00     0.046 C 
HETATM   24  C26 UNL     1       7.315  11.136  13.900  1.00  0.00     0.179 C 
HETATM   25  C27 UNL     1       7.329  11.797  15.286  1.00  0.00     0.205 C 
HETATM   26  O7  UNL     1       7.112  13.217  15.205  1.00  0.00    -0.306 OA
HETATM   27  C28 UNL     1       6.679  13.634  16.429  1.00  0.00     0.293 C 
HETATM   28  O8  UNL     1       6.563  14.790  16.786  1.00  0.00    -0.259 OA
HETATM   29  C29 UNL     1       6.346  12.421  17.228  1.00  0.00     0.055 C 
HETATM   30  C30 UNL     1       6.250  12.518  18.563  1.00  0.00     0.016 C 
HETATM   31  C31 UNL     1       5.954  11.435  19.470  1.00  0.00    -0.003 C 
HETATM   32  C32 UNL     1       5.892  11.524  20.808  1.00  0.00    -0.022 C 
HETATM   33  C33 UNL     1       6.134  12.736  21.683  1.00  0.00     0.008 C 
HETATM   34  C34 UNL     1       6.774  12.313  23.013  1.00  0.00     0.014 C 
HETATM   35  C35 UNL     1       4.863  13.602  21.896  1.00  0.00     0.041 C 
HETATM   36  C36 UNL     1       6.256  11.287  16.245  1.00  0.00     0.136 C 
ENDROOT
BRANCH  11  37
HETATM   37  O1  UNL     1       0.400  13.415  14.012  1.00  0.00    -0.395 OA
HETATM   38  H16 UNL     1      -0.285  13.383  13.323  1.00  0.00     0.210 HD
ENDBRANCH  11  37
BRANCH  14  39
HETATM   39  C15 UNL     1      -2.871  13.060  17.894  1.00  0.00    -0.058 C 
HETATM   40  C16 UNL     1      -3.608  11.759  17.669  1.00  0.00     0.046 C 
HETATM   41  C17 UNL     1      -3.382  14.079  18.621  1.00  0.00    -0.018 C 
BRANCH  41  42
HETATM   42  C18 UNL     1      -4.735  14.163  19.291  1.00  0.00     0.000 C 
HETATM   43  C19 UNL     1      -5.838  14.209  18.233  1.00  0.00     0.013 C 
HETATM   44  C20 UNL     1      -4.940  12.964  20.219  1.00  0.00     0.013 C 
ENDBRANCH  41  42
ENDBRANCH  14  39
BRANCH  36  45
HETATM   45  O9  UNL     1       6.663  10.033  16.781  1.00  0.00    -0.381 OA
HETATM   46  H50 UNL     1       7.420  10.177  17.380  1.00  0.00     0.211 HD
ENDBRANCH  36  45
BRANCH  24  47
HETATM   47  O6  UNL     1       8.074  11.942  13.000  1.00  0.00    -0.388 OA
HETATM   48  H39 UNL     1       7.726  12.851  13.089  1.00  0.00     0.210 HD
ENDBRANCH  24  47
TORSDOF 5
ENDMDL
MODEL 6
REMARK minimizedAffinity -6.91507387
REMARK CNNscore 0.223601118
REMARK CNNaffinity 6.15891504
REMARK  5 active torsions:
REMARK  status: ('A' for Active; 'I' for Inactive)
REMARK    1  A    between atoms: C11_11  and  O1_12 
REMARK    2  A    between atoms: C14_15  and  C15_16 
REMARK    3  A    between atoms: C17_18  and  C18_19 
REMARK    4  A    between atoms: C26_31  and  O6_32 
REMARK    5  A    between atoms: C36_44  and  O9_45 
ROOT
HETATM    1  C1  UNL     1     -20.324   6.477  20.617  1.00  0.00     0.043 C 
HETATM    2  C2  UNL     1     -19.558   6.671  21.896  1.00  0.00    -0.087 C 
HETATM    3  C3  UNL     1     -18.282   7.104  21.961  1.00  0.00    -0.022 C 
HETATM    4  C4  UNL     1     -17.335   7.392  20.826  1.00  0.00     0.059 C 
HETATM    5  C5  UNL     1     -15.961   6.708  20.976  1.00  0.00     0.131 C 
HETATM    6  C6  UNL     1     -16.043   5.179  21.071  1.00  0.00     0.065 C 
HETATM    7  C7  UNL     1     -14.817   4.577  21.765  1.00  0.00     0.139 C 
HETATM    8  C8  UNL     1     -13.608   5.500  21.607  1.00  0.00     0.101 C 
HETATM    9  C9  UNL     1     -13.890   6.922  22.148  1.00  0.00     0.170 C 
HETATM   10  C10 UNL     1     -13.408   7.073  23.605  1.00  0.00     0.100 C 
HETATM   11  C11 UNL     1     -12.009   7.668  23.635  1.00  0.00     0.129 C 
HETATM   12  C12 UNL     1     -11.998   9.076  23.000  1.00  0.00     0.044 C 
HETATM   13  C13 UNL     1     -12.231  10.202  24.016  1.00  0.00     0.015 C 
HETATM   14  C14 UNL     1     -13.053   9.142  21.863  1.00  0.00     0.159 C 
HETATM   15  O2  UNL     1     -13.178   7.832  21.291  1.00  0.00    -0.345 OA
HETATM   16  O3  UNL     1     -15.290   7.227  22.126  1.00  0.00    -0.349 OA
HETATM   17  O4  UNL     1     -15.113   4.388  23.166  1.00  0.00    -0.315 OA
HETATM   18  C21 UNL     1     -14.402   3.410  23.802  1.00  0.00     0.270 C 
HETATM   19  O5  UNL     1     -13.647   2.629  23.233  1.00  0.00    -0.264 OA
HETATM   20  C22 UNL     1     -14.606   3.503  25.317  1.00  0.00     0.150 C 
HETATM   21  C23 UNL     1     -13.330   3.039  25.994  1.00  0.00    -0.004 C 
HETATM   22  C24 UNL     1     -13.279   2.171  27.019  1.00  0.00    -0.056 C 
HETATM   23  C25 UNL     1     -11.968   1.687  27.576  1.00  0.00     0.046 C 
HETATM   24  C26 UNL     1     -14.529   1.589  27.616  1.00  0.00     0.179 C 
HETATM   25  C27 UNL     1     -15.824   2.321  27.238  1.00  0.00     0.205 C 
HETATM   26  O7  UNL     1     -16.006   3.522  28.009  1.00  0.00    -0.306 OA
HETATM   27  C28 UNL     1     -16.871   4.322  27.321  1.00  0.00     0.293 C 
HETATM   28  O8  UNL     1     -17.392   5.334  27.745  1.00  0.00    -0.259 OA
HETATM   29  C29 UNL     1     -17.030   3.746  25.956  1.00  0.00     0.055 C 
HETATM   30  C30 UNL     1     -18.082   4.109  25.207  1.00  0.00     0.016 C 
HETATM   31  C31 UNL     1     -18.382   3.628  23.879  1.00  0.00    -0.003 C 
HETATM   32  C32 UNL     1     -19.452   3.965  23.143  1.00  0.00    -0.022 C 
HETATM   33  C33 UNL     1     -20.597   4.886  23.512  1.00  0.00     0.008 C 
HETATM   34  C34 UNL     1     -21.903   4.391  22.875  1.00  0.00     0.014 C 
HETATM   35  C35 UNL     1     -20.314   6.376  23.185  1.00  0.00     0.041 C 
HETATM   36  C36 UNL     1     -15.900   2.771  25.781  1.00  0.00     0.136 C 
ENDROOT
BRANCH  11  37
HETATM   37  O1  UNL     1     -11.526   7.674  24.973  1.00  0.00    -0.395 OA
HETATM   38  H16 UNL     1     -10.597   7.960  24.952  1.00  0.00     0.210 HD
ENDBRANCH  11  37
BRANCH  14  39
HETATM   39  C15 UNL     1     -12.833  10.121  20.707  1.00  0.00    -0.058 C 
HETATM   40  C16 UNL     1     -14.128  10.523  20.038  1.00  0.00     0.046 C 
HETATM   41  C17 UNL     1     -11.630  10.615  20.340  1.00  0.00    -0.018 C 
BRANCH  41  42
HETATM   42  C18 UNL     1     -11.320  11.584  19.219  1.00  0.00     0.000 C 
HETATM   43  C19 UNL     1     -10.191  12.524  19.643  1.00  0.00     0.013 C 
HETATM   44  C20 UNL     1     -10.927  10.819  17.955  1.00  0.00     0.013 C 
ENDBRANCH  41  42
ENDBRANCH  14  39
BRANCH  36  45
HETATM   45  O9  UNL     1     -16.229   1.655  24.961  1.00  0.00    -0.381 OA
HETATM   46  H50 UNL     1     -17.151   1.393  25.142  1.00  0.00     0.211 HD
ENDBRANCH  36  45
BRANCH  24  47
HETATM   47  O6  UNL     1     -14.410   1.571  29.038  1.00  0.00    -0.388 OA
HETATM   48  H39 UNL     1     -14.529   2.495  29.333  1.00  0.00     0.210 HD
ENDBRANCH  24  47
TORSDOF 5
ENDMDL
MODEL 7
REMARK minimizedAffinity -7.79349613
REMARK CNNscore 0.221773461
REMARK CNNaffinity 5.46832228
REMARK  5 active torsions:
REMARK  status: ('A' for Active; 'I' for Inactive)
REMARK    1  A    between atoms: C11_11  and  O1_12 
REMARK    2  A    between atoms: C14_15  and  C15_16 
REMARK    3  A    between atoms: C17_18  and  C18_19 
REMARK    4  A    between atoms: C26_31  and  O6_32 
REMARK    5  A    between atoms: C36_44  and  O9_45 
ROOT
HETATM    1  C1  UNL     1       0.953  18.534  17.976  1.00  0.00     0.043 C 
HETATM    2  C2  UNL     1       0.352  17.254  18.486  1.00  0.00    -0.087 C 
HETATM    3  C3  UNL     1       1.057  16.258  19.062  1.00  0.00    -0.022 C 
HETATM    4  C4  UNL     1       2.549  16.152  19.238  1.00  0.00     0.059 C 
HETATM    5  C5  UNL     1       3.137  14.813  18.750  1.00  0.00     0.131 C 
HETATM    6  C6  UNL     1       2.874  14.531  17.265  1.00  0.00     0.065 C 
HETATM    7  C7  UNL     1       2.940  13.035  16.942  1.00  0.00     0.139 C 
HETATM    8  C8  UNL     1       3.835  12.311  17.948  1.00  0.00     0.101 C 
HETATM    9  C9  UNL     1       3.362  12.526  19.405  1.00  0.00     0.170 C 
HETATM   10  C10 UNL     1       2.451  11.374  19.875  1.00  0.00     0.100 C 
HETATM   11  C11 UNL     1       3.269  10.328  20.617  1.00  0.00     0.129 C 
HETATM   12  C12 UNL     1       3.925  10.937  21.876  1.00  0.00     0.044 C 
HETATM   13  C13 UNL     1       3.063  10.799  23.137  1.00  0.00     0.015 C 
HETATM   14  C14 UNL     1       4.270  12.428  21.613  1.00  0.00     0.159 C 
HETATM   15  O2  UNL     1       4.550  12.584  20.215  1.00  0.00    -0.345 OA
HETATM   16  O3  UNL     1       2.619  13.744  19.544  1.00  0.00    -0.349 OA
HETATM   17  O4  UNL     1       1.605  12.484  16.984  1.00  0.00    -0.315 OA
HETATM   18  C21 UNL     1       1.394  11.367  16.224  1.00  0.00     0.270 C 
HETATM   19  O5  UNL     1       2.215  10.904  15.440  1.00  0.00    -0.264 OA
HETATM   20  C22 UNL     1       0.044  10.734  16.573  1.00  0.00     0.150 C 
HETATM   21  C23 UNL     1       0.165   9.233  16.385  1.00  0.00    -0.004 C 
HETATM   22  C24 UNL     1      -0.728   8.469  15.733  1.00  0.00    -0.056 C 
HETATM   23  C25 UNL     1      -0.491   7.001  15.508  1.00  0.00     0.046 C 
HETATM   24  C26 UNL     1      -1.976   9.056  15.137  1.00  0.00     0.179 C 
HETATM   25  C27 UNL     1      -2.328  10.463  15.638  1.00  0.00     0.205 C 
HETATM   26  O7  UNL     1      -2.953  10.431  16.933  1.00  0.00    -0.306 OA
HETATM   27  C28 UNL     1      -2.803  11.666  17.491  1.00  0.00     0.293 C 
HETATM   28  O8  UNL     1      -3.352  12.061  18.500  1.00  0.00    -0.259 OA
HETATM   29  C29 UNL     1      -1.824  12.421  16.660  1.00  0.00     0.055 C 
HETATM   30  C30 UNL     1      -1.769  13.758  16.759  1.00  0.00     0.016 C 
HETATM   31  C31 UNL     1      -0.892  14.626  16.011  1.00  0.00    -0.003 C 
HETATM   32  C32 UNL     1      -0.859  15.966  16.085  1.00  0.00    -0.022 C 
HETATM   33  C33 UNL     1      -1.723  16.883  16.926  1.00  0.00     0.008 C 
HETATM   34  C34 UNL     1      -1.981  18.201  16.181  1.00  0.00     0.014 C 
HETATM   35  C35 UNL     1      -1.159  17.119  18.352  1.00  0.00     0.041 C 
HETATM   36  C36 UNL     1      -1.133  11.400  15.800  1.00  0.00     0.136 C 
ENDROOT
BRANCH  11  37
HETATM   37  O1  UNL     1       2.443   9.212  20.923  1.00  0.00    -0.395 OA
HETATM   38  H16 UNL     1       3.010   8.518  21.301  1.00  0.00     0.210 HD
ENDBRANCH  11  37
BRANCH  14  39
HETATM   39  C15 UNL     1       5.433  13.063  22.380  1.00  0.00    -0.058 C 
HETATM   40  C16 UNL     1       5.010  14.293  23.152  1.00  0.00     0.046 C 
HETATM   41  C17 UNL     1       6.691  12.571  22.411  1.00  0.00    -0.018 C 
BRANCH  41  42
HETATM   42  C18 UNL     1       7.895  13.126  23.140  1.00  0.00     0.000 C 
HETATM   43  C19 UNL     1       8.970  12.046  23.266  1.00  0.00     0.013 C 
HETATM   44  C20 UNL     1       8.448  14.342  22.395  1.00  0.00     0.013 C 
ENDBRANCH  41  42
ENDBRANCH  14  39
BRANCH  36  45
HETATM   45  O9  UNL     1      -0.747  11.895  14.523  1.00  0.00    -0.381 OA
HETATM   46  H50 UNL     1      -1.439  12.501  14.198  1.00  0.00     0.211 HD
ENDBRANCH  36  45
BRANCH  24  47
HETATM   47  O6  UNL     1      -3.078   8.187  15.395  1.00  0.00    -0.388 OA
HETATM   48  H39 UNL     1      -3.302   8.306  16.338  1.00  0.00     0.210 HD
ENDBRANCH  24  47
TORSDOF 5
ENDMDL
MODEL 8
REMARK minimizedAffinity -7.0546279
REMARK CNNscore 0.221540123
REMARK CNNaffinity 5.73060942
REMARK  5 active torsions:
REMARK  status: ('A' for Active; 'I' for Inactive)
REMARK    1  A    between atoms: C11_11  and  O1_12 
REMARK    2  A    between atoms: C14_15  and  C15_16 
REMARK    3  A    between atoms: C17_18  and  C18_19 
REMARK    4  A    between atoms: C26_31  and  O6_32 
REMARK    5  A    between atoms: C36_44  and  O9_45 
ROOT
HETATM    1  C1  UNL     1     -17.368 -12.152  12.278  1.00  0.00     0.043 C 
HETATM    2  C2  UNL     1     -17.038 -11.267  13.447  1.00  0.00    -0.087 C 
HETATM    3  C3  UNL     1     -16.360 -10.103  13.355  1.00  0.00    -0.022 C 
HETATM    4  C4  UNL     1     -15.723  -9.489  12.136  1.00  0.00     0.059 C 
HETATM    5  C5  UNL     1     -14.256  -9.065  12.352  1.00  0.00     0.131 C 
HETATM    6  C6  UNL     1     -13.336 -10.221  12.763  1.00  0.00     0.065 C 
HETATM    7  C7  UNL     1     -12.086  -9.729  13.500  1.00  0.00     0.139 C 
HETATM    8  C8  UNL     1     -11.757  -8.293  13.092  1.00  0.00     0.101 C 
HETATM    9  C9  UNL     1     -12.943  -7.332  13.344  1.00  0.00     0.170 C 
HETATM   10  C10 UNL     1     -12.816  -6.630  14.710  1.00  0.00     0.100 C 
HETATM   11  C11 UNL     1     -12.148  -5.274  14.544  1.00  0.00     0.129 C 
HETATM   12  C12 UNL     1     -12.993  -4.356  13.633  1.00  0.00     0.044 C 
HETATM   13  C13 UNL     1     -13.996  -3.490  14.406  1.00  0.00     0.015 C 
HETATM   14  C14 UNL     1     -13.723  -5.213  12.564  1.00  0.00     0.159 C 
HETATM   15  O2  UNL     1     -12.913  -6.362  12.281  1.00  0.00    -0.345 OA
HETATM   16  O3  UNL     1     -14.196  -8.027  13.332  1.00  0.00    -0.349 OA
HETATM   17  O4  UNL     1     -12.322  -9.795  14.924  1.00  0.00    -0.315 OA
HETATM   18  C21 UNL     1     -11.211  -9.928  15.710  1.00  0.00     0.270 C 
HETATM   19  O5  UNL     1     -10.080 -10.115  15.275  1.00  0.00    -0.264 OA
HETATM   20  C22 UNL     1     -11.571  -9.705  17.181  1.00  0.00     0.150 C 
HETATM   21  C23 UNL     1     -10.370  -9.083  17.871  1.00  0.00    -0.004 C 
HETATM   22  C24 UNL     1      -9.868  -9.492  19.049  1.00  0.00    -0.056 C 
HETATM   23  C25 UNL     1      -8.617  -8.885  19.623  1.00  0.00     0.046 C 
HETATM   24  C26 UNL     1     -10.492 -10.622  19.818  1.00  0.00     0.179 C 
HETATM   25  C27 UNL     1     -11.908 -11.003  19.366  1.00  0.00     0.205 C 
HETATM   26  O7  UNL     1     -12.899 -10.096  19.881  1.00  0.00    -0.306 OA
HETATM   27  C28 UNL     1     -14.004 -10.205  19.090  1.00  0.00     0.293 C 
HETATM   28  O8  UNL     1     -15.095  -9.723  19.324  1.00  0.00    -0.259 OA
HETATM   29  C29 UNL     1     -13.621 -10.990  17.883  1.00  0.00     0.055 C 
HETATM   30  C30 UNL     1     -14.579 -11.552  17.133  1.00  0.00     0.016 C 
HETATM   31  C31 UNL     1     -14.366 -12.353  15.950  1.00  0.00    -0.003 C 
HETATM   32  C32 UNL     1     -15.322 -12.945  15.217  1.00  0.00    -0.022 C 
HETATM   33  C33 UNL     1     -16.819 -12.947  15.449  1.00  0.00     0.008 C 
HETATM   34  C34 UNL     1     -17.424 -14.284  14.996  1.00  0.00     0.014 C 
HETATM   35  C35 UNL     1     -17.540 -11.732  14.807  1.00  0.00     0.041 C 
HETATM   36  C36 UNL     1     -12.118 -10.999  17.854  1.00  0.00     0.136 C 
ENDROOT
BRANCH  11  37
HETATM   37  O1  UNL     1     -11.915  -4.701  15.824  1.00  0.00    -0.395 OA
HETATM   38  H16 UNL     1     -11.397  -3.888  15.696  1.00  0.00     0.210 HD
ENDBRANCH  11  37
BRANCH  14  39
HETATM   39  C15 UNL     1     -14.081  -4.570  11.221  1.00  0.00    -0.058 C 
HETATM   40  C16 UNL     1     -13.711  -3.105  11.167  1.00  0.00     0.046 C 
HETATM   41  C17 UNL     1     -14.627  -5.231  10.176  1.00  0.00    -0.018 C 
BRANCH  41  42
HETATM   42  C18 UNL     1     -15.009  -4.682   8.819  1.00  0.00     0.000 C 
HETATM   43  C19 UNL     1     -13.785  -4.661   7.904  1.00  0.00     0.013 C 
HETATM   44  C20 UNL     1     -16.120  -5.532   8.201  1.00  0.00     0.013 C 
ENDBRANCH  41  42
ENDBRANCH  14  39
BRANCH  36  45
HETATM   45  O9  UNL     1     -11.564 -12.187  17.299  1.00  0.00    -0.381 OA
HETATM   46  H50 UNL     1     -12.108 -12.947  17.578  1.00  0.00     0.211 HD
ENDBRANCH  36  45
BRANCH  24  47
HETATM   47  O6  UNL     1     -10.527 -10.288  21.205  1.00  0.00    -0.388 OA
HETATM   48  H39 UNL     1     -11.244  -9.633  21.309  1.00  0.00     0.210 HD
ENDBRANCH  24  47
TORSDOF 5
ENDMDL
MODEL 9
REMARK minimizedAffinity -6.79549932
REMARK CNNscore 0.22098504
REMARK CNNaffinity 6.0521884
REMARK  5 active torsions:
REMARK  status: ('A' for Active; 'I' for Inactive)
REMARK    1  A    between atoms: C11_11  and  O1_12 
REMARK    2  A    between atoms: C14_15  and  C15_16 
REMARK    3  A    between atoms: C17_18  and  C18_19 
REMARK    4  A    between atoms: C26_31  and  O6_32 
REMARK    5  A    between atoms: C36_44  and  O9_45 
ROOT
HETATM    1  C1  UNL     1     -21.788  -2.544  10.478  1.00  0.00     0.043 C 
HETATM    2  C2  UNL     1     -21.128  -2.635  11.826  1.00  0.00    -0.087 C 
HETATM    3  C3  UNL     1     -20.256  -1.726  12.310  1.00  0.00    -0.022 C 
HETATM    4  C4  UNL     1     -19.690  -0.514  11.618  1.00  0.00     0.059 C 
HETATM    5  C5  UNL     1     -18.153  -0.416  11.697  1.00  0.00     0.131 C 
HETATM    6  C6  UNL     1     -17.429  -1.620  11.083  1.00  0.00     0.065 C 
HETATM    7  C7  UNL     1     -16.015  -1.792  11.648  1.00  0.00     0.139 C 
HETATM    8  C8  UNL     1     -15.472  -0.451  12.143  1.00  0.00     0.101 C 
HETATM    9  C9  UNL     1     -16.399   0.195  13.200  1.00  0.00     0.170 C 
HETATM   10  C10 UNL     1     -15.945  -0.150  14.631  1.00  0.00     0.100 C 
HETATM   11  C11 UNL     1     -15.055   0.954  15.180  1.00  0.00     0.129 C 
HETATM   12  C12 UNL     1     -15.824   2.291  15.254  1.00  0.00     0.044 C 
HETATM   13  C13 UNL     1     -16.518   2.519  16.603  1.00  0.00     0.015 C 
HETATM   14  C14 UNL     1     -16.852   2.364  14.093  1.00  0.00     0.159 C 
HETATM   15  O2  UNL     1     -16.332   1.617  12.985  1.00  0.00    -0.345 OA
HETATM   16  O3  UNL     1     -17.753  -0.254  13.059  1.00  0.00    -0.349 OA
HETATM   17  O4  UNL     1     -16.054  -2.740  12.737  1.00  0.00    -0.315 OA
HETATM   18  C21 UNL     1     -14.891  -3.412  12.988  1.00  0.00     0.270 C 
HETATM   19  O5  UNL     1     -13.892  -3.345  12.280  1.00  0.00    -0.264 OA
HETATM   20  C22 UNL     1     -14.986  -4.163  14.320  1.00  0.00     0.150 C 
HETATM   21  C23 UNL     1     -13.602  -4.201  14.940  1.00  0.00    -0.004 C 
HETATM   22  C24 UNL     1     -13.027  -5.299  15.460  1.00  0.00    -0.056 C 
HETATM   23  C25 UNL     1     -11.613  -5.278  15.973  1.00  0.00     0.046 C 
HETATM   24  C26 UNL     1     -13.744  -6.619  15.494  1.00  0.00     0.179 C 
HETATM   25  C27 UNL     1     -15.257  -6.536  15.251  1.00  0.00     0.205 C 
HETATM   26  O7  UNL     1     -15.967  -6.111  16.429  1.00  0.00    -0.306 OA
HETATM   27  C28 UNL     1     -17.174  -5.621  16.024  1.00  0.00     0.293 C 
HETATM   28  O8  UNL     1     -18.105  -5.336  16.751  1.00  0.00    -0.259 OA
HETATM   29  C29 UNL     1     -17.127  -5.472  14.542  1.00  0.00     0.055 C 
HETATM   30  C30 UNL     1     -18.274  -5.363  13.855  1.00  0.00     0.016 C 
HETATM   31  C31 UNL     1     -18.392  -5.231  12.422  1.00  0.00    -0.003 C 
HETATM   32  C32 UNL     1     -19.540  -5.157  11.730  1.00  0.00    -0.022 C 
HETATM   33  C33 UNL     1     -20.960  -5.217  12.254  1.00  0.00     0.008 C 
HETATM   34  C34 UNL     1     -21.873  -5.914  11.235  1.00  0.00     0.014 C 
HETATM   35  C35 UNL     1     -21.513  -3.832  12.684  1.00  0.00     0.041 C 
HETATM   36  C36 UNL     1     -15.675  -5.551  14.162  1.00  0.00     0.136 C 
ENDROOT
BRANCH  11  37
HETATM   37  O1  UNL     1     -14.535   0.558  16.443  1.00  0.00    -0.395 OA
HETATM   38  H16 UNL     1     -13.891   1.231  16.724  1.00  0.00     0.210 HD
ENDBRANCH  11  37
BRANCH  14  39
HETATM   39  C15 UNL     1     -17.265   3.738  13.558  1.00  0.00    -0.058 C 
HETATM   40  C16 UNL     1     -18.364   3.647  12.524  1.00  0.00     0.046 C 
HETATM   41  C17 UNL     1     -16.747   4.913  13.981  1.00  0.00    -0.018 C 
BRANCH  41  42
HETATM   42  C18 UNL     1     -17.095   6.310  13.514  1.00  0.00     0.000 C 
HETATM   43  C19 UNL     1     -16.979   7.291  14.681  1.00  0.00     0.013 C 
HETATM   44  C20 UNL     1     -16.167   6.730  12.373  1.00  0.00     0.013 C 
ENDBRANCH  41  42
ENDBRANCH  14  39
BRANCH  36  45
HETATM   45  O9  UNL     1     -15.449  -6.139  12.886  1.00  0.00    -0.381 OA
HETATM   46  H50 UNL     1     -16.086  -6.866  12.757  1.00  0.00     0.211 HD
ENDBRANCH  36  45
BRANCH  24  47
HETATM   47  O6  UNL     1     -13.515  -7.249  16.754  1.00  0.00    -0.388 OA
HETATM   48  H39 UNL     1     -14.068  -6.771  17.402  1.00  0.00     0.210 HD
ENDBRANCH  24  47
TORSDOF 5
ENDMDL
