MODEL 1
REMARK minimizedAffinity -6.60197306
REMARK CNNscore 0.745545149
REMARK CNNaffinity 6.55102777
REMARK  10 active torsions:
REMARK  status: ('A' for Active; 'I' for Inactive)
REMARK    1  A    between atoms: C4_4  and  C5_5 
REMARK    2  A    between atoms: C5_5  and  O2_7 
REMARK    3  A    between atoms: O2_7  and  C6_8 
REMARK    4  A    between atoms: C6_8  and  C7_9 
REMARK    5  A    between atoms: C7_9  and  N1_10 
REMARK    6  A    between atoms: C20_24  and  O4_25 
REMARK    7  A    between atoms: O4_25  and  C21_26 
REMARK    8  A    between atoms: C21_26  and  C22_28 
REMARK    9  A    between atoms: C22_28  and  C23_29 
REMARK   10  A    between atoms: C23_29  and  O6_32 
ROOT
HETATM    1  C1  UNL     1       7.230  51.617  -7.030  1.00  0.00     0.015 C 
HETATM    2  C2  UNL     1       7.301  51.502  -8.562  1.00  0.00     0.022 C 
HETATM    3  C3  UNL     1       7.056  50.055  -8.989  1.00  0.00    -0.070 C 
HETATM    4  C4  UNL     1       8.044  49.148  -8.836  1.00  0.00     0.085 C 
HETATM    5  C10 UNL     1       5.709  49.769  -9.617  1.00  0.00     0.035 C 
HETATM    6  C11 UNL     1       4.559  50.610  -9.044  1.00  0.00     0.010 C 
HETATM    7  C12 UNL     1       4.850  52.128  -8.910  1.00  0.00     0.006 C 
HETATM    8  C13 UNL     1       6.316  52.436  -9.303  1.00  0.00     0.068 C 
HETATM    9  C14 UNL     1       6.653  53.911  -9.133  1.00  0.00     0.132 C 
HETATM   10  O3  UNL     1       7.730  54.295  -8.677  1.00  0.00    -0.298 OA
HETATM   11  C15 UNL     1       5.652  54.907  -9.684  1.00  0.00     0.085 C 
HETATM   12  C16 UNL     1       4.240  54.558  -9.187  1.00  0.00     0.011 C 
HETATM   13  C17 UNL     1       3.151  55.677  -9.394  1.00  0.00    -0.016 C 
HETATM   14  C18 UNL     1       2.983  56.079 -10.874  1.00  0.00     0.018 C 
HETATM   15  C19 UNL     1       3.612  56.967  -8.657  1.00  0.00     0.018 C 
HETATM   16  C20 UNL     1       1.794  55.241  -8.723  1.00  0.00     0.140 C 
HETATM   17  C26 UNL     1       1.817  53.815  -8.156  1.00  0.00     0.034 C 
HETATM   18  C27 UNL     1       2.360  52.806  -9.160  1.00  0.00     0.012 C 
HETATM   19  C28 UNL     1       3.820  53.096  -9.623  1.00  0.00    -0.035 C 
HETATM   20  C29 UNL     1       3.877  52.853 -11.152  1.00  0.00     0.016 C 
ENDROOT
BRANCH   4  21
HETATM   21  C5  UNL     1       8.022  47.726  -9.260  1.00  0.00     0.283 C 
HETATM   22  O1  UNL     1       7.098  47.147  -9.800  1.00  0.00    -0.260 OA
BRANCH  21  23
HETATM   23  O2  UNL     1       9.233  47.198  -8.949  1.00  0.00    -0.316 OA
BRANCH  23  24
HETATM   24  C6  UNL     1      10.343  47.651  -9.749  1.00  0.00     0.209 C 
BRANCH  24  25
HETATM   25  C7  UNL     1      10.425  46.843 -11.054  1.00  0.00     0.298 C 
BRANCH  25  26
HETATM   26  N1  UNL     1      10.654  45.400 -10.857  1.00  0.00     0.082 N 
HETATM   27  C8  UNL     1      11.771  45.191  -9.929  1.00  0.00     0.309 C 
HETATM   28  C9  UNL     1      10.931  44.710 -12.120  1.00  0.00     0.309 C 
ENDBRANCH  25  26
ENDBRANCH  24  25
ENDBRANCH  23  24
ENDBRANCH  21  23
ENDBRANCH   4  21
BRANCH  16  29
HETATM   29  O4  UNL     1       0.687  55.300  -9.654  1.00  0.00    -0.315 OA
BRANCH  29  30
HETATM   30  C21 UNL     1      -0.544  55.570  -9.125  1.00  0.00     0.262 C 
HETATM   31  O5  UNL     1      -0.742  55.939  -7.979  1.00  0.00    -0.265 OA
BRANCH  30  32
HETATM   32  C22 UNL     1      -1.594  55.414 -10.204  1.00  0.00     0.148 C 
BRANCH  32  33
HETATM   33  C23 UNL     1      -2.156  53.992 -10.366  1.00  0.00     0.059 C 
HETATM   34  C24 UNL     1      -1.736  53.145  -9.158  1.00  0.00     0.045 C 
HETATM   35  C25 UNL     1      -3.682  53.972 -10.487  1.00  0.00     0.045 C 
BRANCH  33  36
HETATM   36  O6  UNL     1      -1.614  53.352 -11.520  1.00  0.00    -0.390 OA
HETATM   37  H40 UNL     1      -0.643  53.394 -11.482  1.00  0.00     0.210 HD
ENDBRANCH  33  36
ENDBRANCH  32  33
ENDBRANCH  30  32
ENDBRANCH  29  30
ENDBRANCH  16  29
TORSDOF 10
ENDMDL
MODEL 2
REMARK minimizedAffinity -8.14731598
REMARK CNNscore 0.582000017
REMARK CNNaffinity 6.88363218
REMARK  10 active torsions:
REMARK  status: ('A' for Active; 'I' for Inactive)
REMARK    1  A    between atoms: C4_4  and  C5_5 
REMARK    2  A    between atoms: C5_5  and  O2_7 
REMARK    3  A    between atoms: O2_7  and  C6_8 
REMARK    4  A    between atoms: C6_8  and  C7_9 
REMARK    5  A    between atoms: C7_9  and  N1_10 
REMARK    6  A    between atoms: C20_24  and  O4_25 
REMARK    7  A    between atoms: O4_25  and  C21_26 
REMARK    8  A    between atoms: C21_26  and  C22_28 
REMARK    9  A    between atoms: C22_28  and  C23_29 
REMARK   10  A    between atoms: C23_29  and  O6_32 
ROOT
HETATM    1  C1  UNL     1      -0.067  54.280 -19.164  1.00  0.00     0.015 C 
HETATM    2  C2  UNL     1       0.667  52.933 -19.259  1.00  0.00     0.022 C 
HETATM    3  C3  UNL     1       0.617  52.213 -17.912  1.00  0.00    -0.070 C 
HETATM    4  C4  UNL     1       1.426  52.627 -16.914  1.00  0.00     0.085 C 
HETATM    5  C10 UNL     1      -0.322  51.028 -17.829  1.00  0.00     0.035 C 
HETATM    6  C11 UNL     1      -1.596  51.177 -18.673  1.00  0.00     0.010 C 
HETATM    7  C12 UNL     1      -1.374  51.668 -20.128  1.00  0.00     0.006 C 
HETATM    8  C13 UNL     1       0.120  52.001 -20.366  1.00  0.00     0.068 C 
HETATM    9  C14 UNL     1       0.366  52.538 -21.770  1.00  0.00     0.132 C 
HETATM   10  O3  UNL     1       1.138  53.469 -21.996  1.00  0.00    -0.298 OA
HETATM   11  C15 UNL     1      -0.280  51.778 -22.912  1.00  0.00     0.085 C 
HETATM   12  C16 UNL     1      -1.770  51.554 -22.614  1.00  0.00     0.011 C 
HETATM   13  C17 UNL     1      -2.644  51.082 -23.837  1.00  0.00    -0.016 C 
HETATM   14  C18 UNL     1      -2.141  49.762 -24.456  1.00  0.00     0.018 C 
HETATM   15  C19 UNL     1      -2.538  52.145 -24.968  1.00  0.00     0.018 C 
HETATM   16  C20 UNL     1      -4.163  51.022 -23.425  1.00  0.00     0.140 C 
HETATM   17  C26 UNL     1      -4.409  51.303 -21.936  1.00  0.00     0.034 C 
HETATM   18  C27 UNL     1      -3.493  50.483 -21.037  1.00  0.00     0.012 C 
HETATM   19  C28 UNL     1      -1.975  50.749 -21.268  1.00  0.00    -0.035 C 
HETATM   20  C29 UNL     1      -1.256  49.376 -21.238  1.00  0.00     0.016 C 
ENDROOT
BRANCH   4  21
HETATM   21  C5  UNL     1       1.575  52.010 -15.573  1.00  0.00     0.283 C 
HETATM   22  O1  UNL     1       2.368  51.142 -15.260  1.00  0.00    -0.260 OA
BRANCH  21  23
HETATM   23  O2  UNL     1       0.672  52.609 -14.756  1.00  0.00    -0.316 OA
BRANCH  23  24
HETATM   24  C6  UNL     1      -0.309  51.740 -14.156  1.00  0.00     0.209 C 
BRANCH  24  25
HETATM   25  C7  UNL     1      -0.460  52.059 -12.660  1.00  0.00     0.298 C 
BRANCH  25  26
HETATM   26  N1  UNL     1       0.586  52.949 -12.123  1.00  0.00     0.082 N 
HETATM   27  C8  UNL     1       1.604  52.159 -11.421  1.00  0.00     0.309 C 
HETATM   28  C9  UNL     1       0.036  53.959 -11.214  1.00  0.00     0.309 C 
ENDBRANCH  25  26
ENDBRANCH  24  25
ENDBRANCH  23  24
ENDBRANCH  21  23
ENDBRANCH   4  21
BRANCH  16  29
HETATM   29  O4  UNL     1      -4.748  49.728 -23.705  1.00  0.00    -0.315 OA
BRANCH  29  30
HETATM   30  C21 UNL     1      -4.015  48.881 -24.487  1.00  0.00     0.262 C 
HETATM   31  O5  UNL     1      -2.899  48.472 -24.212  1.00  0.00    -0.265 OA
BRANCH  30  32
HETATM   32  C22 UNL     1      -4.839  48.477 -25.691  1.00  0.00     0.148 C 
BRANCH  32  33
HETATM   33  C23 UNL     1      -4.208  48.812 -27.053  1.00  0.00     0.059 C 
HETATM   34  C24 UNL     1      -2.787  48.235 -27.105  1.00  0.00     0.045 C 
HETATM   35  C25 UNL     1      -5.017  48.260 -28.229  1.00  0.00     0.045 C 
BRANCH  33  36
HETATM   36  O6  UNL     1      -4.081  50.223 -27.228  1.00  0.00    -0.390 OA
HETATM   37  H40 UNL     1      -3.607  50.598 -26.466  1.00  0.00     0.210 HD
ENDBRANCH  33  36
ENDBRANCH  32  33
ENDBRANCH  30  32
ENDBRANCH  29  30
ENDBRANCH  16  29
TORSDOF 10
ENDMDL
MODEL 3
REMARK minimizedAffinity -6.58095455
REMARK CNNscore 0.561233819
REMARK CNNaffinity 6.82499647
REMARK  10 active torsions:
REMARK  status: ('A' for Active; 'I' for Inactive)
REMARK    1  A    between atoms: C4_4  and  C5_5 
REMARK    2  A    between atoms: C5_5  and  O2_7 
REMARK    3  A    between atoms: O2_7  and  C6_8 
REMARK    4  A    between atoms: C6_8  and  C7_9 
REMARK    5  A    between atoms: C7_9  and  N1_10 
REMARK    6  A    between atoms: C20_24  and  O4_25 
REMARK    7  A    between atoms: O4_25  and  C21_26 
REMARK    8  A    between atoms: C21_26  and  C22_28 
REMARK    9  A    between atoms: C22_28  and  C23_29 
REMARK   10  A    between atoms: C23_29  and  O6_32 
ROOT
HETATM    1  C1  UNL     1      -1.451  50.486 -16.111  1.00  0.00     0.015 C 
HETATM    2  C2  UNL     1      -0.075  50.175 -16.722  1.00  0.00     0.022 C 
HETATM    3  C3  UNL     1       0.301  51.250 -17.739  1.00  0.00    -0.070 C 
HETATM    4  C4  UNL     1      -0.284  51.239 -18.956  1.00  0.00     0.085 C 
HETATM    5  C10 UNL     1       1.369  52.230 -17.303  1.00  0.00     0.035 C 
HETATM    6  C11 UNL     1       1.342  52.561 -15.804  1.00  0.00     0.010 C 
HETATM    7  C12 UNL     1       1.225  51.338 -14.857  1.00  0.00     0.006 C 
HETATM    8  C13 UNL     1       1.054  50.034 -15.674  1.00  0.00     0.068 C 
HETATM    9  C14 UNL     1       0.882  48.817 -14.774  1.00  0.00     0.132 C 
HETATM   10  O3  UNL     1       0.082  47.916 -15.027  1.00  0.00    -0.298 OA
HETATM   11  C15 UNL     1       1.846  48.688 -13.612  1.00  0.00     0.085 C 
HETATM   12  C16 UNL     1       1.897  50.006 -12.825  1.00  0.00     0.011 C 
HETATM   13  C17 UNL     1       2.587  49.928 -11.411  1.00  0.00    -0.016 C 
HETATM   14  C18 UNL     1       4.046  49.433 -11.486  1.00  0.00     0.018 C 
HETATM   15  C19 UNL     1       1.831  48.882 -10.542  1.00  0.00     0.018 C 
HETATM   16  C20 UNL     1       2.449  51.309 -10.666  1.00  0.00     0.140 C 
HETATM   17  C26 UNL     1       1.809  52.410 -11.521  1.00  0.00     0.034 C 
HETATM   18  C27 UNL     1       2.451  52.515 -12.899  1.00  0.00     0.012 C 
HETATM   19  C28 UNL     1       2.346  51.211 -13.747  1.00  0.00    -0.035 C 
HETATM   20  C29 UNL     1       3.717  50.999 -14.440  1.00  0.00     0.016 C 
ENDROOT
BRANCH   4  21
HETATM   21  C5  UNL     1       0.007  52.146 -20.094  1.00  0.00     0.283 C 
HETATM   22  O1  UNL     1       0.139  53.354 -20.039  1.00  0.00    -0.260 OA
BRANCH  21  23
HETATM   23  O2  UNL     1       0.114  51.372 -21.204  1.00  0.00    -0.316 OA
BRANCH  23  24
HETATM   24  C6  UNL     1       0.317  52.075 -22.444  1.00  0.00     0.209 C 
BRANCH  24  25
HETATM   25  C7  UNL     1      -1.023  52.279 -23.168  1.00  0.00     0.298 C 
BRANCH  25  26
HETATM   26  N1  UNL     1      -0.902  52.446 -24.628  1.00  0.00     0.082 N 
HETATM   27  C8  UNL     1      -0.405  51.205 -25.235  1.00  0.00     0.309 C 
HETATM   28  C9  UNL     1      -0.012  53.555 -24.983  1.00  0.00     0.309 C 
ENDBRANCH  25  26
ENDBRANCH  24  25
ENDBRANCH  23  24
ENDBRANCH  21  23
ENDBRANCH   4  21
BRANCH  16  29
HETATM   29  O4  UNL     1       3.732  51.817 -10.228  1.00  0.00    -0.315 OA
BRANCH  29  30
HETATM   30  C21 UNL     1       3.711  52.778  -9.257  1.00  0.00     0.262 C 
HETATM   31  O5  UNL     1       3.224  52.634  -8.147  1.00  0.00    -0.265 OA
BRANCH  30  32
HETATM   32  C22 UNL     1       4.452  54.002  -9.751  1.00  0.00     0.148 C 
BRANCH  32  33
HETATM   33  C23 UNL     1       3.656  55.315  -9.684  1.00  0.00     0.059 C 
HETATM   34  C24 UNL     1       4.216  56.187  -8.553  1.00  0.00     0.045 C 
HETATM   35  C25 UNL     1       3.707  56.102 -10.996  1.00  0.00     0.045 C 
BRANCH  33  36
HETATM   36  O6  UNL     1       2.285  55.071  -9.370  1.00  0.00    -0.390 OA
HETATM   37  H40 UNL     1       2.234  54.533  -8.561  1.00  0.00     0.210 HD
ENDBRANCH  33  36
ENDBRANCH  32  33
ENDBRANCH  30  32
ENDBRANCH  29  30
ENDBRANCH  16  29
TORSDOF 10
ENDMDL
MODEL 4
REMARK minimizedAffinity -6.45496941
REMARK CNNscore 0.482990116
REMARK CNNaffinity 6.01535082
REMARK  10 active torsions:
REMARK  status: ('A' for Active; 'I' for Inactive)
REMARK    1  A    between atoms: C4_4  and  C5_5 
REMARK    2  A    between atoms: C5_5  and  O2_7 
REMARK    3  A    between atoms: O2_7  and  C6_8 
REMARK    4  A    between atoms: C6_8  and  C7_9 
REMARK    5  A    between atoms: C7_9  and  N1_10 
REMARK    6  A    between atoms: C20_24  and  O4_25 
REMARK    7  A    between atoms: O4_25  and  C21_26 
REMARK    8  A    between atoms: C21_26  and  C22_28 
REMARK    9  A    between atoms: C22_28  and  C23_29 
REMARK   10  A    between atoms: C23_29  and  O6_32 
ROOT
HETATM    1  C1  UNL     1       2.771  68.405 -41.338  1.00  0.00     0.015 C 
HETATM    2  C2  UNL     1       2.358  69.314 -40.169  1.00  0.00     0.022 C 
HETATM    3  C3  UNL     1       0.908  69.037 -39.777  1.00  0.00    -0.070 C 
HETATM    4  C4  UNL     1      -0.087  69.518 -40.553  1.00  0.00     0.085 C 
HETATM    5  C10 UNL     1       0.705  68.274 -38.485  1.00  0.00     0.035 C 
HETATM    6  C11 UNL     1       1.796  67.234 -38.194  1.00  0.00     0.010 C 
HETATM    7  C12 UNL     1       3.254  67.733 -38.376  1.00  0.00     0.006 C 
HETATM    8  C13 UNL     1       3.267  69.181 -38.925  1.00  0.00     0.068 C 
HETATM    9  C14 UNL     1       4.683  69.685 -39.167  1.00  0.00     0.132 C 
HETATM   10  O3  UNL     1       4.987  70.357 -40.152  1.00  0.00    -0.298 OA
HETATM   11  C15 UNL     1       5.690  69.443 -38.059  1.00  0.00     0.085 C 
HETATM   12  C16 UNL     1       5.650  67.969 -37.629  1.00  0.00     0.011 C 
HETATM   13  C17 UNL     1       6.854  67.488 -36.735  1.00  0.00    -0.016 C 
HETATM   14  C18 UNL     1       6.989  68.299 -35.429  1.00  0.00     0.018 C 
HETATM   15  C19 UNL     1       8.180  67.721 -37.514  1.00  0.00     0.018 C 
HETATM   16  C20 UNL     1       6.754  65.937 -36.481  1.00  0.00     0.140 C 
HETATM   17  C26 UNL     1       5.473  65.303 -37.040  1.00  0.00     0.034 C 
HETATM   18  C27 UNL     1       4.224  66.076 -36.634  1.00  0.00     0.012 C 
HETATM   19  C28 UNL     1       4.208  67.555 -37.126  1.00  0.00    -0.035 C 
HETATM   20  C29 UNL     1       3.674  68.424 -35.958  1.00  0.00     0.016 C 
ENDROOT
BRANCH   4  21
HETATM   21  C5  UNL     1      -1.545  69.419 -40.296  1.00  0.00     0.283 C 
HETATM   22  O1  UNL     1      -2.143  69.870 -39.336  1.00  0.00    -0.260 OA
BRANCH  21  23
HETATM   23  O2  UNL     1      -2.091  68.746 -41.340  1.00  0.00    -0.316 OA
BRANCH  23  24
HETATM   24  C6  UNL     1      -2.726  69.555 -42.349  1.00  0.00     0.209 C 
BRANCH  24  25
HETATM   25  C7  UNL     1      -1.810  69.695 -43.575  1.00  0.00     0.298 C 
BRANCH  25  26
HETATM   26  N1  UNL     1      -1.145  71.006 -43.686  1.00  0.00     0.082 N 
HETATM   27  C8  UNL     1      -2.140  72.082 -43.608  1.00  0.00     0.309 C 
HETATM   28  C9  UNL     1      -0.383  71.133 -44.932  1.00  0.00     0.309 C 
ENDBRANCH  25  26
ENDBRANCH  24  25
ENDBRANCH  23  24
ENDBRANCH  21  23
ENDBRANCH   4  21
BRANCH  16  29
HETATM   29  O4  UNL     1       6.794  65.616 -35.070  1.00  0.00    -0.315 OA
BRANCH  29  30
HETATM   30  C21 UNL     1       6.633  64.301 -34.737  1.00  0.00     0.262 C 
HETATM   31  O5  UNL     1       7.137  63.365 -35.336  1.00  0.00    -0.265 OA
BRANCH  30  32
HETATM   32  C22 UNL     1       5.805  64.206 -33.473  1.00  0.00     0.148 C 
BRANCH  32  33
HETATM   33  C23 UNL     1       4.618  63.231 -33.544  1.00  0.00     0.059 C 
HETATM   34  C24 UNL     1       5.134  61.837 -33.923  1.00  0.00     0.045 C 
HETATM   35  C25 UNL     1       3.849  63.141 -32.224  1.00  0.00     0.045 C 
BRANCH  33  36
HETATM   36  O6  UNL     1       3.697  63.616 -34.565  1.00  0.00    -0.390 OA
HETATM   37  H40 UNL     1       4.177  63.721 -35.404  1.00  0.00     0.210 HD
ENDBRANCH  33  36
ENDBRANCH  32  33
ENDBRANCH  30  32
ENDBRANCH  29  30
ENDBRANCH  16  29
TORSDOF 10
ENDMDL
MODEL 5
REMARK minimizedAffinity -6.6383791
REMARK CNNscore 0.455749691
REMARK CNNaffinity 6.63260651
REMARK  10 active torsions:
REMARK  status: ('A' for Active; 'I' for Inactive)
REMARK    1  A    between atoms: C4_4  and  C5_5 
REMARK    2  A    between atoms: C5_5  and  O2_7 
REMARK    3  A    between atoms: O2_7  and  C6_8 
REMARK    4  A    between atoms: C6_8  and  C7_9 
REMARK    5  A    between atoms: C7_9  and  N1_10 
REMARK    6  A    between atoms: C20_24  and  O4_25 
REMARK    7  A    between atoms: O4_25  and  C21_26 
REMARK    8  A    between atoms: C21_26  and  C22_28 
REMARK    9  A    between atoms: C22_28  and  C23_29 
REMARK   10  A    between atoms: C23_29  and  O6_32 
ROOT
HETATM    1  C1  UNL     1      -2.207  51.393 -19.072  1.00  0.00     0.015 C 
HETATM    2  C2  UNL     1      -0.790  50.832 -19.271  1.00  0.00     0.022 C 
HETATM    3  C3  UNL     1       0.089  51.869 -19.968  1.00  0.00    -0.070 C 
HETATM    4  C4  UNL     1      -0.059  52.072 -21.295  1.00  0.00     0.085 C 
HETATM    5  C10 UNL     1       1.119  52.558 -19.098  1.00  0.00     0.035 C 
HETATM    6  C11 UNL     1       0.665  52.779 -17.648  1.00  0.00     0.010 C 
HETATM    7  C12 UNL     1       0.021  51.548 -16.958  1.00  0.00     0.006 C 
HETATM    8  C13 UNL     1      -0.111  50.373 -17.960  1.00  0.00     0.068 C 
HETATM    9  C14 UNL     1      -0.790  49.164 -17.331  1.00  0.00     0.132 C 
HETATM   10  O3  UNL     1      -1.615  48.480 -17.935  1.00  0.00    -0.298 OA
HETATM   11  C15 UNL     1      -0.299  48.744 -15.959  1.00  0.00     0.085 C 
HETATM   12  C16 UNL     1      -0.265  49.960 -15.021  1.00  0.00     0.011 C 
HETATM   13  C17 UNL     1      -0.100  49.633 -13.489  1.00  0.00    -0.016 C 
HETATM   14  C18 UNL     1       1.185  48.836 -13.184  1.00  0.00     0.018 C 
HETATM   15  C19 UNL     1      -1.278  48.720 -13.044  1.00  0.00     0.018 C 
HETATM   16  C20 UNL     1      -0.215  50.954 -12.639  1.00  0.00     0.140 C 
HETATM   17  C26 UNL     1      -0.326  52.227 -13.489  1.00  0.00     0.034 C 
HETATM   18  C27 UNL     1       0.738  52.285 -14.578  1.00  0.00     0.012 C 
HETATM   19  C28 UNL     1       0.676  51.100 -15.589  1.00  0.00    -0.035 C 
HETATM   20  C29 UNL     1       2.133  50.642 -15.854  1.00  0.00     0.016 C 
ENDROOT
BRANCH   4  21
HETATM   21  C5  UNL     1       0.750  52.971 -22.155  1.00  0.00     0.283 C 
HETATM   22  O1  UNL     1       1.174  54.071 -21.853  1.00  0.00    -0.260 OA
BRANCH  21  23
HETATM   23  O2  UNL     1       0.942  52.329 -23.335  1.00  0.00    -0.316 OA
BRANCH  23  24
HETATM   24  C6  UNL     1      -0.073  52.534 -24.336  1.00  0.00     0.209 C 
BRANCH  24  25
HETATM   25  C7  UNL     1       0.573  52.814 -25.702  1.00  0.00     0.298 C 
BRANCH  25  26
HETATM   26  N1  UNL     1       0.938  51.602 -26.458  1.00  0.00     0.082 N 
HETATM   27  C8  UNL     1       2.395  51.428 -26.453  1.00  0.00     0.309 C 
HETATM   28  C9  UNL     1       0.455  51.650 -27.841  1.00  0.00     0.309 C 
ENDBRANCH  25  26
ENDBRANCH  24  25
ENDBRANCH  23  24
ENDBRANCH  21  23
ENDBRANCH   4  21
BRANCH  16  29
HETATM   29  O4  UNL     1       0.925  51.136 -11.766  1.00  0.00    -0.315 OA
BRANCH  29  30
HETATM   30  C21 UNL     1       0.789  52.055 -10.765  1.00  0.00     0.262 C 
HETATM   31  O5  UNL     1       1.452  53.074 -10.661  1.00  0.00    -0.265 OA
BRANCH  30  32
HETATM   32  C22 UNL     1      -0.358  51.645  -9.865  1.00  0.00     0.148 C 
BRANCH  32  33
HETATM   33  C23 UNL     1      -1.505  52.664  -9.767  1.00  0.00     0.059 C 
HETATM   34  C24 UNL     1      -1.827  52.918  -8.289  1.00  0.00     0.045 C 
HETATM   35  C25 UNL     1      -1.170  53.995 -10.444  1.00  0.00     0.045 C 
BRANCH  33  36
HETATM   36  O6  UNL     1      -2.699  52.155 -10.362  1.00  0.00    -0.390 OA
HETATM   37  H40 UNL     1      -2.903  51.286  -9.974  1.00  0.00     0.210 HD
ENDBRANCH  33  36
ENDBRANCH  32  33
ENDBRANCH  30  32
ENDBRANCH  29  30
ENDBRANCH  16  29
TORSDOF 10
ENDMDL
MODEL 6
REMARK minimizedAffinity -7.60591125
REMARK CNNscore 0.399242401
REMARK CNNaffinity 6.4059906
REMARK  10 active torsions:
REMARK  status: ('A' for Active; 'I' for Inactive)
REMARK    1  A    between atoms: C4_4  and  C5_5 
REMARK    2  A    between atoms: C5_5  and  O2_7 
REMARK    3  A    between atoms: O2_7  and  C6_8 
REMARK    4  A    between atoms: C6_8  and  C7_9 
REMARK    5  A    between atoms: C7_9  and  N1_10 
REMARK    6  A    between atoms: C20_24  and  O4_25 
REMARK    7  A    between atoms: O4_25  and  C21_26 
REMARK    8  A    between atoms: C21_26  and  C22_28 
REMARK    9  A    between atoms: C22_28  and  C23_29 
REMARK   10  A    between atoms: C23_29  and  O6_32 
ROOT
HETATM    1  C1  UNL     1      -1.866  47.899 -18.731  1.00  0.00     0.015 C 
HETATM    2  C2  UNL     1      -2.986  48.922 -18.484  1.00  0.00     0.022 C 
HETATM    3  C3  UNL     1      -2.533  49.956 -17.455  1.00  0.00    -0.070 C 
HETATM    4  C4  UNL     1      -2.504  49.615 -16.149  1.00  0.00     0.085 C 
HETATM    5  C10 UNL     1      -2.200  51.329 -17.997  1.00  0.00     0.035 C 
HETATM    6  C11 UNL     1      -1.581  51.314 -19.402  1.00  0.00     0.010 C 
HETATM    7  C12 UNL     1      -2.307  50.418 -20.439  1.00  0.00     0.006 C 
HETATM    8  C13 UNL     1      -3.467  49.642 -19.766  1.00  0.00     0.068 C 
HETATM    9  C14 UNL     1      -4.170  48.709 -20.743  1.00  0.00     0.132 C 
HETATM   10  O3  UNL     1      -4.539  47.578 -20.429  1.00  0.00    -0.298 OA
HETATM   11  C15 UNL     1      -4.528  49.288 -22.099  1.00  0.00     0.085 C 
HETATM   12  C16 UNL     1      -3.300  49.977 -22.713  1.00  0.00     0.011 C 
HETATM   13  C17 UNL     1      -3.414  50.330 -24.245  1.00  0.00    -0.016 C 
HETATM   14  C18 UNL     1      -4.610  51.253 -24.556  1.00  0.00     0.018 C 
HETATM   15  C19 UNL     1      -3.675  49.019 -25.042  1.00  0.00     0.018 C 
HETATM   16  C20 UNL     1      -2.045  50.905 -24.770  1.00  0.00     0.140 C 
HETATM   17  C26 UNL     1      -0.996  51.103 -23.668  1.00  0.00     0.034 C 
HETATM   18  C27 UNL     1      -1.558  51.851 -22.466  1.00  0.00     0.012 C 
HETATM   19  C28 UNL     1      -2.758  51.132 -21.777  1.00  0.00    -0.035 C 
HETATM   20  C29 UNL     1      -3.813  52.216 -21.438  1.00  0.00     0.016 C 
ENDROOT
BRANCH   4  21
HETATM   21  C5  UNL     1      -2.169  50.499 -15.004  1.00  0.00     0.283 C 
HETATM   22  O1  UNL     1      -1.079  50.978 -14.755  1.00  0.00    -0.260 OA
BRANCH  21  23
HETATM   23  O2  UNL     1      -3.313  50.686 -14.297  1.00  0.00    -0.316 OA
BRANCH  23  24
HETATM   24  C6  UNL     1      -3.169  50.719 -12.864  1.00  0.00     0.209 C 
BRANCH  24  25
HETATM   25  C7  UNL     1      -3.152  52.172 -12.364  1.00  0.00     0.298 C 
BRANCH  25  26
HETATM   26  N1  UNL     1      -3.504  52.325 -10.940  1.00  0.00     0.082 N 
HETATM   27  C8  UNL     1      -4.520  51.334 -10.565  1.00  0.00     0.309 C 
HETATM   28  C9  UNL     1      -3.998  53.671 -10.637  1.00  0.00     0.309 C 
ENDBRANCH  25  26
ENDBRANCH  24  25
ENDBRANCH  23  24
ENDBRANCH  21  23
ENDBRANCH   4  21
BRANCH  16  29
HETATM   29  O4  UNL     1      -2.212  52.189 -25.419  1.00  0.00    -0.315 OA
BRANCH  29  30
HETATM   30  C21 UNL     1      -1.861  52.259 -26.737  1.00  0.00     0.262 C 
HETATM   31  O5  UNL     1      -2.347  53.032 -27.546  1.00  0.00    -0.265 OA
BRANCH  30  32
HETATM   32  C22 UNL     1      -0.729  51.288 -27.003  1.00  0.00     0.148 C 
BRANCH  32  33
HETATM   33  C23 UNL     1       0.670  51.923 -27.071  1.00  0.00     0.059 C 
HETATM   34  C24 UNL     1       1.622  51.141 -26.157  1.00  0.00     0.045 C 
HETATM   35  C25 UNL     1       1.240  51.942 -28.491  1.00  0.00     0.045 C 
BRANCH  33  36
HETATM   36  O6  UNL     1       0.651  53.265 -26.586  1.00  0.00    -0.390 OA
HETATM   37  H40 UNL     1       0.250  53.278 -25.700  1.00  0.00     0.210 HD
ENDBRANCH  33  36
ENDBRANCH  32  33
ENDBRANCH  30  32
ENDBRANCH  29  30
ENDBRANCH  16  29
TORSDOF 10
ENDMDL
MODEL 7
REMARK minimizedAffinity -7.38534451
REMARK CNNscore 0.392725676
REMARK CNNaffinity 5.83488417
REMARK  10 active torsions:
REMARK  status: ('A' for Active; 'I' for Inactive)
REMARK    1  A    between atoms: C4_4  and  C5_5 
REMARK    2  A    between atoms: C5_5  and  O2_7 
REMARK    3  A    between atoms: O2_7  and  C6_8 
REMARK    4  A    between atoms: C6_8  and  C7_9 
REMARK    5  A    between atoms: C7_9  and  N1_10 
REMARK    6  A    between atoms: C20_24  and  O4_25 
REMARK    7  A    between atoms: O4_25  and  C21_26 
REMARK    8  A    between atoms: C21_26  and  C22_28 
REMARK    9  A    between atoms: C22_28  and  C23_29 
REMARK   10  A    between atoms: C23_29  and  O6_32 
ROOT
HETATM    1  C1  UNL     1       2.620  67.806 -41.038  1.00  0.00     0.015 C 
HETATM    2  C2  UNL     1       2.368  68.822 -39.912  1.00  0.00     0.022 C 
HETATM    3  C3  UNL     1       0.909  68.759 -39.466  1.00  0.00    -0.070 C 
HETATM    4  C4  UNL     1      -0.041  69.324 -40.241  1.00  0.00     0.085 C 
HETATM    5  C10 UNL     1       0.653  68.099 -38.128  1.00  0.00     0.035 C 
HETATM    6  C11 UNL     1       1.610  66.941 -37.808  1.00  0.00     0.010 C 
HETATM    7  C12 UNL     1       3.113  67.235 -38.056  1.00  0.00     0.006 C 
HETATM    8  C13 UNL     1       3.294  68.637 -38.687  1.00  0.00     0.068 C 
HETATM    9  C14 UNL     1       4.755  68.938 -38.995  1.00  0.00     0.132 C 
HETATM   10  O3  UNL     1       5.110  69.511 -40.025  1.00  0.00    -0.298 OA
HETATM   11  C15 UNL     1       5.759  68.625 -37.903  1.00  0.00     0.085 C 
HETATM   12  C16 UNL     1       5.543  67.194 -37.389  1.00  0.00     0.011 C 
HETATM   13  C17 UNL     1       6.705  66.607 -36.501  1.00  0.00    -0.016 C 
HETATM   14  C18 UNL     1       6.988  67.461 -35.248  1.00  0.00     0.018 C 
HETATM   15  C19 UNL     1       8.023  66.623 -37.328  1.00  0.00     0.018 C 
HETATM   16  C20 UNL     1       6.414  65.098 -36.157  1.00  0.00     0.140 C 
HETATM   17  C26 UNL     1       5.043  64.608 -36.644  1.00  0.00     0.034 C 
HETATM   18  C27 UNL     1       3.920  65.559 -36.250  1.00  0.00     0.012 C 
HETATM   19  C28 UNL     1       4.077  66.999 -36.824  1.00  0.00    -0.035 C 
HETATM   20  C29 UNL     1       3.701  67.991 -35.694  1.00  0.00     0.016 C 
ENDROOT
BRANCH   4  21
HETATM   21  C5  UNL     1      -1.490  69.431 -39.940  1.00  0.00     0.283 C 
HETATM   22  O1  UNL     1      -1.985  69.812 -38.895  1.00  0.00    -0.260 OA
BRANCH  21  23
HETATM   23  O2  UNL     1      -2.160  69.041 -41.054  1.00  0.00    -0.316 OA
BRANCH  23  24
HETATM   24  C6  UNL     1      -3.363  69.774 -41.354  1.00  0.00     0.209 C 
BRANCH  24  25
HETATM   25  C7  UNL     1      -4.289  68.934 -42.249  1.00  0.00     0.298 C 
BRANCH  25  26
HETATM   26  N1  UNL     1      -5.669  69.448 -42.341  1.00  0.00     0.082 N 
HETATM   27  C8  UNL     1      -5.660  70.915 -42.316  1.00  0.00     0.309 C 
HETATM   28  C9  UNL     1      -6.517  68.944 -41.257  1.00  0.00     0.309 C 
ENDBRANCH  25  26
ENDBRANCH  24  25
ENDBRANCH  23  24
ENDBRANCH  21  23
ENDBRANCH   4  21
BRANCH  16  29
HETATM   29  O4  UNL     1       6.460  64.850 -34.732  1.00  0.00    -0.315 OA
BRANCH  29  30
HETATM   30  C21 UNL     1       7.379  63.936 -34.300  1.00  0.00     0.262 C 
HETATM   31  O5  UNL     1       8.410  64.213 -33.708  1.00  0.00    -0.265 OA
BRANCH  30  32
HETATM   32  C22 UNL     1       6.874  62.541 -34.600  1.00  0.00     0.148 C 
BRANCH  32  33
HETATM   33  C23 UNL     1       7.904  61.418 -34.396  1.00  0.00     0.059 C 
HETATM   34  C24 UNL     1       7.252  60.070 -34.732  1.00  0.00     0.045 C 
HETATM   35  C25 UNL     1       9.154  61.600 -35.260  1.00  0.00     0.045 C 
BRANCH  33  36
HETATM   36  O6  UNL     1       8.319  61.340 -33.032  1.00  0.00    -0.390 OA
HETATM   37  H40 UNL     1       7.533  61.268 -32.463  1.00  0.00     0.210 HD
ENDBRANCH  33  36
ENDBRANCH  32  33
ENDBRANCH  30  32
ENDBRANCH  29  30
ENDBRANCH  16  29
TORSDOF 10
ENDMDL
MODEL 8
REMARK minimizedAffinity -7.15388298
REMARK CNNscore 0.318248808
REMARK CNNaffinity 6.0341897
REMARK  10 active torsions:
REMARK  status: ('A' for Active; 'I' for Inactive)
REMARK    1  A    between atoms: C4_4  and  C5_5 
REMARK    2  A    between atoms: C5_5  and  O2_7 
REMARK    3  A    between atoms: O2_7  and  C6_8 
REMARK    4  A    between atoms: C6_8  and  C7_9 
REMARK    5  A    between atoms: C7_9  and  N1_10 
REMARK    6  A    between atoms: C20_24  and  O4_25 
REMARK    7  A    between atoms: O4_25  and  C21_26 
REMARK    8  A    between atoms: C21_26  and  C22_28 
REMARK    9  A    between atoms: C22_28  and  C23_29 
REMARK   10  A    between atoms: C23_29  and  O6_32 
ROOT
HETATM    1  C1  UNL     1      -1.153  48.046 -21.327  1.00  0.00     0.015 C 
HETATM    2  C2  UNL     1      -1.945  49.231 -20.752  1.00  0.00     0.022 C 
HETATM    3  C3  UNL     1      -1.266  50.547 -21.128  1.00  0.00    -0.070 C 
HETATM    4  C4  UNL     1      -0.150  50.923 -20.467  1.00  0.00     0.085 C 
HETATM    5  C10 UNL     1      -1.954  51.366 -22.199  1.00  0.00     0.035 C 
HETATM    6  C11 UNL     1      -2.658  50.526 -23.274  1.00  0.00     0.010 C 
HETATM    7  C12 UNL     1      -3.543  49.370 -22.739  1.00  0.00     0.006 C 
HETATM    8  C13 UNL     1      -3.426  49.266 -21.198  1.00  0.00     0.068 C 
HETATM    9  C14 UNL     1      -4.242  48.106 -20.642  1.00  0.00     0.132 C 
HETATM   10  O3  UNL     1      -3.829  47.381 -19.737  1.00  0.00    -0.298 OA
HETATM   11  C15 UNL     1      -5.660  47.963 -21.157  1.00  0.00     0.085 C 
HETATM   12  C16 UNL     1      -5.666  48.011 -22.693  1.00  0.00     0.011 C 
HETATM   13  C17 UNL     1      -7.004  47.545 -23.382  1.00  0.00    -0.016 C 
HETATM   14  C18 UNL     1      -8.225  48.374 -22.935  1.00  0.00     0.018 C 
HETATM   15  C19 UNL     1      -7.306  46.081 -22.950  1.00  0.00     0.018 C 
HETATM   16  C20 UNL     1      -6.824  47.519 -24.947  1.00  0.00     0.140 C 
HETATM   17  C26 UNL     1      -5.470  48.063 -25.421  1.00  0.00     0.034 C 
HETATM   18  C27 UNL     1      -5.135  49.406 -24.785  1.00  0.00     0.012 C 
HETATM   19  C28 UNL     1      -5.048  49.366 -23.229  1.00  0.00    -0.035 C 
HETATM   20  C29 UNL     1      -5.755  50.637 -22.694  1.00  0.00     0.016 C 
ENDROOT
BRANCH   4  21
HETATM   21  C5  UNL     1       0.600  52.192 -20.635  1.00  0.00     0.283 C 
HETATM   22  O1  UNL     1       1.145  52.581 -21.651  1.00  0.00    -0.260 OA
BRANCH  21  23
HETATM   23  O2  UNL     1       0.550  52.847 -19.447  1.00  0.00    -0.316 OA
BRANCH  23  24
HETATM   24  C6  UNL     1       0.265  52.035 -18.292  1.00  0.00     0.209 C 
BRANCH  24  25
HETATM   25  C7  UNL     1       1.240  52.368 -17.152  1.00  0.00     0.298 C 
BRANCH  25  26
HETATM   26  N1  UNL     1       1.400  51.289 -16.159  1.00  0.00     0.082 N 
HETATM   27  C8  UNL     1       0.083  50.808 -15.726  1.00  0.00     0.309 C 
HETATM   28  C9  UNL     1       2.171  51.726 -14.992  1.00  0.00     0.309 C 
ENDBRANCH  25  26
ENDBRANCH  24  25
ENDBRANCH  23  24
ENDBRANCH  21  23
ENDBRANCH   4  21
BRANCH  16  29
HETATM   29  O4  UNL     1      -7.842  48.296 -25.621  1.00  0.00    -0.315 OA
BRANCH  29  30
HETATM   30  C21 UNL     1      -8.748  47.599 -26.370  1.00  0.00     0.262 C 
HETATM   31  O5  UNL     1      -9.944  47.537 -26.133  1.00  0.00    -0.265 OA
BRANCH  30  32
HETATM   32  C22 UNL     1      -8.046  46.995 -27.567  1.00  0.00     0.148 C 
BRANCH  32  33
HETATM   33  C23 UNL     1      -8.054  47.865 -28.835  1.00  0.00     0.059 C 
HETATM   34  C24 UNL     1      -6.615  48.037 -29.336  1.00  0.00     0.045 C 
HETATM   35  C25 UNL     1      -8.908  47.266 -29.955  1.00  0.00     0.045 C 
BRANCH  33  36
HETATM   36  O6  UNL     1      -8.549  49.175 -28.557  1.00  0.00    -0.390 OA
HETATM   37  H40 UNL     1      -8.045  49.555 -27.816  1.00  0.00     0.210 HD
ENDBRANCH  33  36
ENDBRANCH  32  33
ENDBRANCH  30  32
ENDBRANCH  29  30
ENDBRANCH  16  29
TORSDOF 10
ENDMDL
MODEL 9
REMARK minimizedAffinity -8.46394062
REMARK CNNscore 0.300402075
REMARK CNNaffinity 6.98765182
REMARK  10 active torsions:
REMARK  status: ('A' for Active; 'I' for Inactive)
REMARK    1  A    between atoms: C4_4  and  C5_5 
REMARK    2  A    between atoms: C5_5  and  O2_7 
REMARK    3  A    between atoms: O2_7  and  C6_8 
REMARK    4  A    between atoms: C6_8  and  C7_9 
REMARK    5  A    between atoms: C7_9  and  N1_10 
REMARK    6  A    between atoms: C20_24  and  O4_25 
REMARK    7  A    between atoms: O4_25  and  C21_26 
REMARK    8  A    between atoms: C21_26  and  C22_28 
REMARK    9  A    between atoms: C22_28  and  C23_29 
REMARK   10  A    between atoms: C23_29  and  O6_32 
ROOT
HETATM    1  C1  UNL     1      -4.367  52.816 -22.882  1.00  0.00     0.015 C 
HETATM    2  C2  UNL     1      -3.844  51.441 -23.326  1.00  0.00     0.022 C 
HETATM    3  C3  UNL     1      -2.892  51.601 -24.510  1.00  0.00    -0.070 C 
HETATM    4  C4  UNL     1      -3.403  51.845 -25.736  1.00  0.00     0.085 C 
HETATM    5  C10 UNL     1      -1.421  51.411 -24.210  1.00  0.00     0.035 C 
HETATM    6  C11 UNL     1      -1.001  51.887 -22.812  1.00  0.00     0.010 C 
HETATM    7  C12 UNL     1      -1.918  51.424 -21.649  1.00  0.00     0.006 C 
HETATM    8  C13 UNL     1      -3.140  50.649 -22.199  1.00  0.00     0.068 C 
HETATM    9  C14 UNL     1      -4.092  50.224 -21.088  1.00  0.00     0.132 C 
HETATM   10  O3  UNL     1      -5.315  50.281 -21.207  1.00  0.00    -0.298 OA
HETATM   11  C15 UNL     1      -3.466  49.589 -19.862  1.00  0.00     0.085 C 
HETATM   12  C16 UNL     1      -2.309  50.462 -19.353  1.00  0.00     0.011 C 
HETATM   13  C17 UNL     1      -1.781  50.117 -17.909  1.00  0.00    -0.016 C 
HETATM   14  C18 UNL     1      -1.288  48.661 -17.787  1.00  0.00     0.018 C 
HETATM   15  C19 UNL     1      -2.959  50.249 -16.901  1.00  0.00     0.018 C 
HETATM   16  C20 UNL     1      -0.695  51.168 -17.465  1.00  0.00     0.140 C 
HETATM   17  C26 UNL     1      -0.325  52.174 -18.564  1.00  0.00     0.034 C 
HETATM   18  C27 UNL     1      -0.015  51.489 -19.889  1.00  0.00     0.012 C 
HETATM   19  C28 UNL     1      -1.201  50.657 -20.465  1.00  0.00    -0.035 C 
HETATM   20  C29 UNL     1      -0.613  49.330 -21.009  1.00  0.00     0.016 C 
ENDROOT
BRANCH   4  21
HETATM   21  C5  UNL     1      -2.650  51.952 -27.011  1.00  0.00     0.283 C 
HETATM   22  O1  UNL     1      -2.464  51.061 -27.818  1.00  0.00    -0.260 OA
BRANCH  21  23
HETATM   23  O2  UNL     1      -2.223  53.236 -27.115  1.00  0.00    -0.316 OA
BRANCH  23  24
HETATM   24  C6  UNL     1      -0.953  53.426 -27.767  1.00  0.00     0.209 C 
BRANCH  24  25
HETATM   25  C7  UNL     1       0.197  53.143 -26.787  1.00  0.00     0.298 C 
BRANCH  25  26
HETATM   26  N1  UNL     1       0.873  51.851 -27.005  1.00  0.00     0.082 N 
HETATM   27  C8  UNL     1       2.146  51.820 -26.276  1.00  0.00     0.309 C 
HETATM   28  C9  UNL     1       1.117  51.592 -28.427  1.00  0.00     0.309 C 
ENDBRANCH  25  26
ENDBRANCH  24  25
ENDBRANCH  23  24
ENDBRANCH  21  23
ENDBRANCH   4  21
BRANCH  16  29
HETATM   29  O4  UNL     1       0.538  50.531 -17.054  1.00  0.00    -0.315 OA
BRANCH  29  30
HETATM   30  C21 UNL     1       0.828  50.563 -15.719  1.00  0.00     0.262 C 
HETATM   31  O5  UNL     1       0.658  49.632 -14.948  1.00  0.00    -0.265 OA
BRANCH  30  32
HETATM   32  C22 UNL     1       1.460  51.896 -15.379  1.00  0.00     0.148 C 
BRANCH  32  33
HETATM   33  C23 UNL     1       2.870  51.812 -14.773  1.00  0.00     0.059 C 
HETATM   34  C24 UNL     1       3.168  50.356 -14.391  1.00  0.00     0.045 C 
HETATM   35  C25 UNL     1       3.954  52.311 -15.732  1.00  0.00     0.045 C 
BRANCH  33  36
HETATM   36  O6  UNL     1       2.961  52.575 -13.570  1.00  0.00    -0.390 OA
HETATM   37  H40 UNL     1       2.250  52.301 -12.965  1.00  0.00     0.210 HD
ENDBRANCH  33  36
ENDBRANCH  32  33
ENDBRANCH  30  32
ENDBRANCH  29  30
ENDBRANCH  16  29
TORSDOF 10
ENDMDL
