MODEL 1
REMARK minimizedAffinity -7.56760979
REMARK CNNscore 0.648307383
REMARK CNNaffinity 5.56740046
REMARK  13 active torsions:
REMARK  status: ('A' for Active; 'I' for Inactive)
REMARK    1  A    between atoms: C3_3  and  O1_4 
REMARK    2  A    between atoms: N1_14  and  O2_16 
REMARK    3  A    between atoms: O2_16  and  C13_17 
REMARK    4  A    between atoms: C13_17  and  C14_18 
REMARK       I    between atoms: C14_18  and  N2_20 
REMARK    5  A    between atoms: N2_20  and  C15_21 
REMARK    6  A    between atoms: C15_21  and  C16_22 
REMARK    7  A    between atoms: C15_21  and  C21_33 
REMARK       I    between atoms: C16_22  and  N3_24 
REMARK    8  A    between atoms: N3_24  and  C17_25 
REMARK    9  A    between atoms: C17_25  and  C18_26 
REMARK   10  A    between atoms: C17_25  and  C20_30 
REMARK   11  A    between atoms: C18_26  and  C19_27 
REMARK   12  A    between atoms: C19_27  and  O6_29 
REMARK   13  A    between atoms: C20_30  and  O8_32 
ROOT
HETATM    1  C1  UNL     1       3.467   7.379   9.301  1.00  0.00     0.015 C 
HETATM    2  C2  UNL     1       4.376   7.791   9.973  1.00  0.00    -0.078 C 
HETATM    3  C3  UNL     1       5.494   8.269  10.802  1.00  0.00     0.128 C 
HETATM    4  C4  UNL     1       6.042   9.609  10.283  1.00  0.00     0.052 C 
HETATM    5  C5  UNL     1       6.846  10.130  11.466  1.00  0.00     0.010 C 
HETATM    6  C6  UNL     1       5.900   9.893  12.646  1.00  0.00     0.002 C 
HETATM    7  C7  UNL     1       6.530   9.954  14.053  1.00  0.00    -0.004 C 
HETATM    8  C8  UNL     1       7.190  11.308  14.354  1.00  0.00     0.010 C 
HETATM    9  C9  UNL     1       8.111  11.226  15.561  1.00  0.00     0.035 C 
HETATM   10  C10 UNL     1       9.252  10.332  15.176  1.00  0.00    -0.069 C 
HETATM   11  C11 UNL     1      10.500  10.827  15.067  1.00  0.00     0.030 C 
HETATM   12  C12 UNL     1      11.631   9.989  14.567  1.00  0.00     0.032 C 
HETATM   13  N1  UNL     1      12.889  10.306  14.624  1.00  0.00    -0.271 N 
ATOM     14  H1  UNL     1      13.642   9.719  14.265  1.00  0.00     0.194 HD
HETATM   15  C24 UNL     1      11.301   8.644  13.948  1.00  0.00     0.060 C 
HETATM   16  C25 UNL     1       9.814   8.455  13.656  1.00  0.00     0.020 C 
HETATM   17  C26 UNL     1       8.894   8.888  14.828  1.00  0.00    -0.016 C 
HETATM   18  C27 UNL     1       9.216   8.005  16.071  1.00  0.00     0.020 C 
HETATM   19  C28 UNL     1       7.350   8.707  14.502  1.00  0.00     0.002 C 
HETATM   20  C29 UNL     1       7.011   7.450  13.676  1.00  0.00     0.007 C 
HETATM   21  C30 UNL     1       5.537   7.414  13.281  1.00  0.00     0.014 C 
HETATM   22  C31 UNL     1       5.136   8.561  12.317  1.00  0.00     0.003 C 
HETATM   23  C32 UNL     1       3.625   8.830  12.520  1.00  0.00     0.020 C 
ENDROOT
BRANCH   3  24
HETATM   24  O1  UNL     1       6.528   7.286  10.701  1.00  0.00    -0.377 OA
HETATM   25  H2  UNL     1       7.044   7.474   9.900  1.00  0.00     0.211 HD
ENDBRANCH   3  24
BRANCH  13  26
HETATM   26  O2  UNL     1      13.090  11.551  15.238  1.00  0.00    -0.271 OA
BRANCH  26  27
HETATM   27  C13 UNL     1      13.765  11.352  16.478  1.00  0.00     0.303 C 
BRANCH  27  28
HETATM   28  C14 UNL     1      15.050  12.164  16.448  1.00  0.00     0.244 C 
HETATM   29  O3  UNL     1      15.062  13.394  16.446  1.00  0.00    -0.271 OA
HETATM   30  N2  UNL     1      16.211  11.411  16.402  1.00  0.00    -0.346 N 
HETATM   31  H16 UNL     1      16.154  10.506  16.866  1.00  0.00     0.163 HD
BRANCH  30  32
HETATM   32  C15 UNL     1      17.506  12.082  16.534  1.00  0.00     0.180 C 
BRANCH  32  33
HETATM   33  C16 UNL     1      17.867  12.074  18.036  1.00  0.00     0.241 C 
HETATM   34  O4  UNL     1      18.617  11.229  18.531  1.00  0.00    -0.271 OA
HETATM   35  N3  UNL     1      17.310  13.084  18.780  1.00  0.00    -0.344 N 
HETATM   36  H18 UNL     1      16.603  13.686  18.366  1.00  0.00     0.163 HD
BRANCH  35  37
HETATM   37  C17 UNL     1      17.409  13.111  20.244  1.00  0.00     0.192 C 
BRANCH  37  38
HETATM   38  C18 UNL     1      18.074  14.379  20.774  1.00  0.00     0.146 C 
BRANCH  38  39
HETATM   39  C19 UNL     1      19.420  14.654  20.172  1.00  0.00     0.141 C 
HETATM   40  O5  UNL     1      19.629  15.251  19.127  1.00  0.00    -0.650 OA
BRANCH  39  41
HETATM   41  O6  UNL     1      20.452  14.228  20.925  1.00  0.00    -0.776 OA
HETATM   42  H22 UNL     1      21.245  14.512  20.422  1.00  0.00     0.167 HD
ENDBRANCH  39  41
ENDBRANCH  38  39
ENDBRANCH  37  38
BRANCH  37  43
HETATM   43  C20 UNL     1      16.015  12.898  20.834  1.00  0.00     0.164 C 
HETATM   44  O7  UNL     1      15.051  12.414  20.258  1.00  0.00    -0.648 OA
BRANCH  43  45
HETATM   45  O8  UNL     1      15.922  13.281  22.121  1.00  0.00    -0.775 OA
HETATM   46  H23 UNL     1      15.004  13.049  22.384  1.00  0.00     0.167 HD
ENDBRANCH  43  45
ENDBRANCH  37  43
ENDBRANCH  35  37
ENDBRANCH  32  33
BRANCH  32  47
HETATM   47  C21 UNL     1      18.563  11.422  15.629  1.00  0.00     0.009 C 
HETATM   48  C22 UNL     1      17.957  10.329  14.747  1.00  0.00     0.012 C 
HETATM   49  C23 UNL     1      19.344  12.413  14.765  1.00  0.00     0.012 C 
ENDBRANCH  32  47
ENDBRANCH  30  32
ENDBRANCH  27  28
ENDBRANCH  26  27
ENDBRANCH  13  26
TORSDOF 13
ENDMDL
MODEL 2
REMARK minimizedAffinity -8.00359631
REMARK CNNscore 0.421087027
REMARK CNNaffinity 6.43086481
REMARK  13 active torsions:
REMARK  status: ('A' for Active; 'I' for Inactive)
REMARK    1  A    between atoms: C3_3  and  O1_4 
REMARK    2  A    between atoms: N1_14  and  O2_16 
REMARK    3  A    between atoms: O2_16  and  C13_17 
REMARK    4  A    between atoms: C13_17  and  C14_18 
REMARK       I    between atoms: C14_18  and  N2_20 
REMARK    5  A    between atoms: N2_20  and  C15_21 
REMARK    6  A    between atoms: C15_21  and  C16_22 
REMARK    7  A    between atoms: C15_21  and  C21_33 
REMARK       I    between atoms: C16_22  and  N3_24 
REMARK    8  A    between atoms: N3_24  and  C17_25 
REMARK    9  A    between atoms: C17_25  and  C18_26 
REMARK   10  A    between atoms: C17_25  and  C20_30 
REMARK   11  A    between atoms: C18_26  and  C19_27 
REMARK   12  A    between atoms: C19_27  and  O6_29 
REMARK   13  A    between atoms: C20_30  and  O8_32 
ROOT
HETATM    1  C1  UNL     1       1.929   6.930   6.520  1.00  0.00     0.015 C 
HETATM    2  C2  UNL     1       2.006   7.341   7.648  1.00  0.00    -0.078 C 
HETATM    3  C3  UNL     1       2.125   7.854   9.023  1.00  0.00     0.128 C 
HETATM    4  C4  UNL     1       0.746   8.177   9.620  1.00  0.00     0.052 C 
HETATM    5  C5  UNL     1       1.032   8.260  11.113  1.00  0.00     0.010 C 
HETATM    6  C6  UNL     1       1.899   7.024  11.359  1.00  0.00     0.002 C 
HETATM    7  C7  UNL     1       2.686   6.991  12.686  1.00  0.00    -0.004 C 
HETATM    8  C8  UNL     1       1.778   7.076  13.922  1.00  0.00     0.010 C 
HETATM    9  C9  UNL     1       2.569   7.418  15.175  1.00  0.00     0.035 C 
HETATM   10  C10 UNL     1       3.087   8.814  14.994  1.00  0.00    -0.069 C 
HETATM   11  C11 UNL     1       2.644   9.813  15.781  1.00  0.00     0.030 C 
HETATM   12  C12 UNL     1       3.049  11.231  15.545  1.00  0.00     0.032 C 
HETATM   13  N1  UNL     1       2.849  12.221  16.361  1.00  0.00    -0.271 N 
ATOM     14  H1  UNL     1       3.127  13.184  16.169  1.00  0.00     0.194 HD
HETATM   15  C24 UNL     1       3.770  11.558  14.250  1.00  0.00     0.060 C 
HETATM   16  C25 UNL     1       3.725  10.429  13.224  1.00  0.00     0.020 C 
HETATM   17  C26 UNL     1       4.045   9.034  13.825  1.00  0.00    -0.016 C 
HETATM   18  C27 UNL     1       5.495   9.055  14.397  1.00  0.00     0.020 C 
HETATM   19  C28 UNL     1       3.974   7.866  12.752  1.00  0.00     0.002 C 
HETATM   20  C29 UNL     1       4.501   8.245  11.353  1.00  0.00     0.007 C 
HETATM   21  C30 UNL     1       4.272   7.126  10.341  1.00  0.00     0.014 C 
HETATM   22  C31 UNL     1       2.771   6.851  10.064  1.00  0.00     0.003 C 
HETATM   23  C32 UNL     1       2.645   5.376   9.613  1.00  0.00     0.020 C 
ENDROOT
BRANCH   3  24
HETATM   24  O1  UNL     1       2.881   9.066   8.943  1.00  0.00    -0.377 OA
HETATM   25  H2  UNL     1       2.268   9.789   8.728  1.00  0.00     0.211 HD
ENDBRANCH   3  24
BRANCH  13  26
HETATM   26  O2  UNL     1       2.204  11.810  17.537  1.00  0.00    -0.271 OA
BRANCH  26  27
HETATM   27  C13 UNL     1       2.730  12.551  18.636  1.00  0.00     0.303 C 
BRANCH  27  28
HETATM   28  C14 UNL     1       3.487  11.585  19.533  1.00  0.00     0.244 C 
HETATM   29  O3  UNL     1       3.595  10.385  19.282  1.00  0.00    -0.271 OA
HETATM   30  N2  UNL     1       4.030  12.155  20.672  1.00  0.00    -0.346 N 
HETATM   31  H16 UNL     1       4.306  13.131  20.572  1.00  0.00     0.163 HD
BRANCH  30  32
HETATM   32  C15 UNL     1       4.914  11.356  21.522  1.00  0.00     0.180 C 
BRANCH  32  33
HETATM   33  C16 UNL     1       6.141  12.236  21.850  1.00  0.00     0.241 C 
HETATM   34  O4  UNL     1       6.290  12.779  22.946  1.00  0.00    -0.271 OA
HETATM   35  N3  UNL     1       7.065  12.356  20.842  1.00  0.00    -0.344 N 
HETATM   36  H18 UNL     1       6.850  11.997  19.915  1.00  0.00     0.163 HD
BRANCH  35  37
HETATM   37  C17 UNL     1       8.189  13.295  20.931  1.00  0.00     0.192 C 
BRANCH  37  38
HETATM   38  C18 UNL     1       7.845  14.567  21.700  1.00  0.00     0.146 C 
BRANCH  38  39
HETATM   39  C19 UNL     1       8.844  14.922  22.761  1.00  0.00     0.141 C 
HETATM   40  O5  UNL     1       8.824  14.541  23.921  1.00  0.00    -0.650 OA
BRANCH  39  41
HETATM   41  O6  UNL     1       9.860  15.687  22.318  1.00  0.00    -0.776 OA
HETATM   42  H22 UNL     1      10.435  15.797  23.106  1.00  0.00     0.167 HD
ENDBRANCH  39  41
ENDBRANCH  38  39
ENDBRANCH  37  38
BRANCH  37  43
HETATM   43  C20 UNL     1       9.391  12.564  21.527  1.00  0.00     0.164 C 
HETATM   44  O7  UNL     1      10.568  12.779  21.276  1.00  0.00    -0.648 OA
BRANCH  43  45
HETATM   45  O8  UNL     1       9.044  11.622  22.425  1.00  0.00    -0.775 OA
HETATM   46  H23 UNL     1       9.899  11.270  22.759  1.00  0.00     0.167 HD
ENDBRANCH  43  45
ENDBRANCH  37  43
ENDBRANCH  35  37
ENDBRANCH  32  33
BRANCH  32  47
HETATM   47  C21 UNL     1       4.163  10.836  22.763  1.00  0.00     0.009 C 
HETATM   48  C22 UNL     1       3.003  11.754  23.153  1.00  0.00     0.012 C 
HETATM   49  C23 UNL     1       3.663   9.398  22.626  1.00  0.00     0.012 C 
ENDBRANCH  32  47
ENDBRANCH  30  32
ENDBRANCH  27  28
ENDBRANCH  26  27
ENDBRANCH  13  26
TORSDOF 13
ENDMDL
MODEL 3
REMARK minimizedAffinity -8.4877615
REMARK CNNscore 0.308759302
REMARK CNNaffinity 6.45890045
REMARK  13 active torsions:
REMARK  status: ('A' for Active; 'I' for Inactive)
REMARK    1  A    between atoms: C3_3  and  O1_4 
REMARK    2  A    between atoms: N1_14  and  O2_16 
REMARK    3  A    between atoms: O2_16  and  C13_17 
REMARK    4  A    between atoms: C13_17  and  C14_18 
REMARK       I    between atoms: C14_18  and  N2_20 
REMARK    5  A    between atoms: N2_20  and  C15_21 
REMARK    6  A    between atoms: C15_21  and  C16_22 
REMARK    7  A    between atoms: C15_21  and  C21_33 
REMARK       I    between atoms: C16_22  and  N3_24 
REMARK    8  A    between atoms: N3_24  and  C17_25 
REMARK    9  A    between atoms: C17_25  and  C18_26 
REMARK   10  A    between atoms: C17_25  and  C20_30 
REMARK   11  A    between atoms: C18_26  and  C19_27 
REMARK   12  A    between atoms: C19_27  and  O6_29 
REMARK   13  A    between atoms: C20_30  and  O8_32 
ROOT
HETATM    1  C1  UNL     1      -6.636   5.881  15.816  1.00  0.00     0.015 C 
HETATM    2  C2  UNL     1      -5.502   6.119  15.492  1.00  0.00    -0.078 C 
HETATM    3  C3  UNL     1      -4.111   6.426  15.120  1.00  0.00     0.128 C 
HETATM    4  C4  UNL     1      -3.484   5.281  14.308  1.00  0.00     0.052 C 
HETATM    5  C5  UNL     1      -2.270   5.942  13.669  1.00  0.00     0.010 C 
HETATM    6  C6  UNL     1      -2.841   7.263  13.148  1.00  0.00     0.002 C 
HETATM    7  C7  UNL     1      -1.814   8.354  12.777  1.00  0.00    -0.004 C 
HETATM    8  C8  UNL     1      -0.832   7.903  11.686  1.00  0.00     0.010 C 
HETATM    9  C9  UNL     1       0.375   8.825  11.604  1.00  0.00     0.035 C 
HETATM   10  C10 UNL     1       1.136   8.657  12.885  1.00  0.00    -0.069 C 
HETATM   11  C11 UNL     1       2.366   8.107  12.882  1.00  0.00     0.030 C 
HETATM   12  C12 UNL     1       3.094   7.817  14.152  1.00  0.00     0.032 C 
HETATM   13  N1  UNL     1       4.348   7.489  14.248  1.00  0.00    -0.271 N 
ATOM     14  H1  UNL     1       4.819   7.285  15.130  1.00  0.00     0.194 HD
HETATM   15  C24 UNL     1       2.323   7.922  15.455  1.00  0.00     0.060 C 
HETATM   16  C25 UNL     1       0.813   8.031  15.263  1.00  0.00     0.020 C 
HETATM   17  C26 UNL     1       0.401   9.049  14.166  1.00  0.00    -0.016 C 
HETATM   18  C27 UNL     1       0.897  10.465  14.585  1.00  0.00     0.020 C 
HETATM   19  C28 UNL     1      -1.171   9.136  13.961  1.00  0.00     0.002 C 
HETATM   20  C29 UNL     1      -1.996   9.021  15.259  1.00  0.00     0.007 C 
HETATM   21  C30 UNL     1      -3.494   8.971  14.975  1.00  0.00     0.014 C 
HETATM   22  C31 UNL     1      -3.925   7.700  14.197  1.00  0.00     0.003 C 
HETATM   23  C32 UNL     1      -5.214   8.050  13.414  1.00  0.00     0.020 C 
ENDROOT
BRANCH   3  24
HETATM   24  O1  UNL     1      -3.382   6.569  16.342  1.00  0.00    -0.377 OA
HETATM   25  H2  UNL     1      -3.106   5.683  16.632  1.00  0.00     0.211 HD
ENDBRANCH   3  24
BRANCH  13  26
HETATM   26  O2  UNL     1       4.977   7.448  12.994  1.00  0.00    -0.271 OA
BRANCH  26  27
HETATM   27  C13 UNL     1       5.518   8.735  12.707  1.00  0.00     0.303 C 
BRANCH  27  28
HETATM   28  C14 UNL     1       7.010   8.692  12.996  1.00  0.00     0.244 C 
HETATM   29  O3  UNL     1       7.820   8.148  12.247  1.00  0.00    -0.271 OA
HETATM   30  N2  UNL     1       7.388   9.294  14.184  1.00  0.00    -0.346 N 
HETATM   31  H16 UNL     1       6.803  10.078  14.472  1.00  0.00     0.163 HD
BRANCH  30  32
HETATM   32  C15 UNL     1       8.811   9.454  14.485  1.00  0.00     0.180 C 
BRANCH  32  33
HETATM   33  C16 UNL     1       8.908  10.302  15.774  1.00  0.00     0.241 C 
HETATM   34  O4  UNL     1       8.562  11.484  15.814  1.00  0.00    -0.271 OA
HETATM   35  N3  UNL     1       9.388   9.642  16.877  1.00  0.00    -0.344 N 
HETATM   36  H18 UNL     1       9.777   8.707  16.777  1.00  0.00     0.163 HD
BRANCH  35  37
HETATM   37  C17 UNL     1       9.708  10.348  18.123  1.00  0.00     0.192 C 
BRANCH  37  38
HETATM   38  C18 UNL     1      10.796  11.404  17.948  1.00  0.00     0.146 C 
BRANCH  38  39
HETATM   39  C19 UNL     1      12.034  11.137  18.751  1.00  0.00     0.141 C 
HETATM   40  O5  UNL     1      13.178  11.125  18.321  1.00  0.00    -0.650 OA
BRANCH  39  41
HETATM   41  O6  UNL     1      11.804  10.957  20.065  1.00  0.00    -0.776 OA
HETATM   42  H22 UNL     1      12.700  10.834  20.448  1.00  0.00     0.167 HD
ENDBRANCH  39  41
ENDBRANCH  38  39
ENDBRANCH  37  38
BRANCH  37  43
HETATM   43  C20 UNL     1       8.419  10.933  18.699  1.00  0.00     0.164 C 
HETATM   44  O7  UNL     1       8.309  11.990  19.304  1.00  0.00    -0.648 OA
BRANCH  43  45
HETATM   45  O8  UNL     1       7.337  10.168  18.457  1.00  0.00    -0.775 OA
HETATM   46  H23 UNL     1       6.584  10.675  18.832  1.00  0.00     0.167 HD
ENDBRANCH  43  45
ENDBRANCH  37  43
ENDBRANCH  35  37
ENDBRANCH  32  33
BRANCH  32  47
HETATM   47  C21 UNL     1       9.512   8.086  14.579  1.00  0.00     0.009 C 
HETATM   48  C22 UNL     1      10.993   8.176  14.207  1.00  0.00     0.012 C 
HETATM   49  C23 UNL     1       9.360   7.405  15.941  1.00  0.00     0.012 C 
ENDBRANCH  32  47
ENDBRANCH  30  32
ENDBRANCH  27  28
ENDBRANCH  26  27
ENDBRANCH  13  26
TORSDOF 13
ENDMDL
MODEL 4
REMARK minimizedAffinity -7.52975368
REMARK CNNscore 0.292924553
REMARK CNNaffinity 6.18646097
REMARK  13 active torsions:
REMARK  status: ('A' for Active; 'I' for Inactive)
REMARK    1  A    between atoms: C3_3  and  O1_4 
REMARK    2  A    between atoms: N1_14  and  O2_16 
REMARK    3  A    between atoms: O2_16  and  C13_17 
REMARK    4  A    between atoms: C13_17  and  C14_18 
REMARK       I    between atoms: C14_18  and  N2_20 
REMARK    5  A    between atoms: N2_20  and  C15_21 
REMARK    6  A    between atoms: C15_21  and  C16_22 
REMARK    7  A    between atoms: C15_21  and  C21_33 
REMARK       I    between atoms: C16_22  and  N3_24 
REMARK    8  A    between atoms: N3_24  and  C17_25 
REMARK    9  A    between atoms: C17_25  and  C18_26 
REMARK   10  A    between atoms: C17_25  and  C20_30 
REMARK   11  A    between atoms: C18_26  and  C19_27 
REMARK   12  A    between atoms: C19_27  and  O6_29 
REMARK   13  A    between atoms: C20_30  and  O8_32 
ROOT
HETATM    1  C1  UNL     1       1.911   7.151   6.161  1.00  0.00     0.015 C 
HETATM    2  C2  UNL     1       1.844   7.444   7.325  1.00  0.00    -0.078 C 
HETATM    3  C3  UNL     1       1.786   7.819   8.748  1.00  0.00     0.128 C 
HETATM    4  C4  UNL     1       0.334   7.875   9.252  1.00  0.00     0.052 C 
HETATM    5  C5  UNL     1       0.497   7.838  10.765  1.00  0.00     0.010 C 
HETATM    6  C6  UNL     1       1.521   6.719  10.966  1.00  0.00     0.002 C 
HETATM    7  C7  UNL     1       2.208   6.657  12.347  1.00  0.00    -0.004 C 
HETATM    8  C8  UNL     1       1.211   6.478  13.501  1.00  0.00     0.010 C 
HETATM    9  C9  UNL     1       1.850   6.793  14.845  1.00  0.00     0.035 C 
HETATM   10  C10 UNL     1       2.162   8.260  14.844  1.00  0.00    -0.069 C 
HETATM   11  C11 UNL     1       1.518   9.095  15.682  1.00  0.00     0.030 C 
HETATM   12  C12 UNL     1       1.720  10.573  15.618  1.00  0.00     0.032 C 
HETATM   13  N1  UNL     1       1.314  11.431  16.505  1.00  0.00    -0.271 N 
ATOM     14  H1  UNL     1       1.456  12.439  16.431  1.00  0.00     0.194 HD
HETATM   15  C24 UNL     1       2.473  11.138  14.428  1.00  0.00     0.060 C 
HETATM   16  C25 UNL     1       2.674  10.130  13.299  1.00  0.00     0.020 C 
HETATM   17  C26 UNL     1       3.157   8.739  13.789  1.00  0.00    -0.016 C 
HETATM   18  C27 UNL     1       4.543   8.907  14.483  1.00  0.00     0.020 C 
HETATM   19  C28 UNL     1       3.340   7.695  12.607  1.00  0.00     0.002 C 
HETATM   20  C29 UNL     1       3.902   8.294  11.302  1.00  0.00     0.007 C 
HETATM   21  C30 UNL     1       3.918   7.269  10.171  1.00  0.00     0.014 C 
HETATM   22  C31 UNL     1       2.500   6.813   9.741  1.00  0.00     0.003 C 
HETATM   23  C32 UNL     1       2.632   5.392   9.141  1.00  0.00     0.020 C 
ENDROOT
BRANCH   3  24
HETATM   24  O1  UNL     1       2.353   9.128   8.850  1.00  0.00    -0.377 OA
HETATM   25  H2  UNL     1       1.654   9.775   8.653  1.00  0.00     0.211 HD
ENDBRANCH   3  24
BRANCH  13  26
HETATM   26  O2  UNL     1       0.657  10.808  17.576  1.00  0.00    -0.271 OA
BRANCH  26  27
HETATM   27  C13 UNL     1       0.977  11.501  18.780  1.00  0.00     0.303 C 
BRANCH  27  28
HETATM   28  C14 UNL     1       2.241  10.883  19.355  1.00  0.00     0.244 C 
HETATM   29  O3  UNL     1       2.667   9.784  19.002  1.00  0.00    -0.271 OA
HETATM   30  N2  UNL     1       2.868  11.643  20.327  1.00  0.00    -0.346 N 
HETATM   31  H16 UNL     1       2.759  12.651  20.220  1.00  0.00     0.163 HD
BRANCH  30  32
HETATM   32  C15 UNL     1       4.177  11.224  20.832  1.00  0.00     0.180 C 
BRANCH  32  33
HETATM   33  C16 UNL     1       5.232  12.131  20.160  1.00  0.00     0.241 C 
HETATM   34  O4  UNL     1       5.091  13.353  20.070  1.00  0.00    -0.271 OA
HETATM   35  N3  UNL     1       6.346  11.486  19.686  1.00  0.00    -0.344 N 
HETATM   36  H18 UNL     1       6.372  10.469  19.667  1.00  0.00     0.163 HD
BRANCH  35  37
HETATM   37  C17 UNL     1       7.350  12.175  18.868  1.00  0.00     0.192 C 
BRANCH  37  38
HETATM   38  C18 UNL     1       8.417  12.881  19.701  1.00  0.00     0.146 C 
BRANCH  38  39
HETATM   39  C19 UNL     1       8.837  12.116  20.921  1.00  0.00     0.141 C 
HETATM   40  O5  UNL     1       8.256  12.104  21.995  1.00  0.00    -0.650 OA
BRANCH  39  41
HETATM   41  O6  UNL     1       9.928  11.349  20.734  1.00  0.00    -0.776 OA
HETATM   42  H22 UNL     1      10.048  10.893  21.595  1.00  0.00     0.167 HD
ENDBRANCH  39  41
ENDBRANCH  38  39
ENDBRANCH  37  38
BRANCH  37  43
HETATM   43  C20 UNL     1       7.953  11.172  17.884  1.00  0.00     0.164 C 
HETATM   44  O7  UNL     1       8.393  10.065  18.157  1.00  0.00    -0.648 OA
BRANCH  43  45
HETATM   45  O8  UNL     1       7.942  11.610  16.611  1.00  0.00    -0.775 OA
HETATM   46  H23 UNL     1       8.307  10.863  16.087  1.00  0.00     0.167 HD
ENDBRANCH  43  45
ENDBRANCH  37  43
ENDBRANCH  35  37
ENDBRANCH  32  33
BRANCH  32  47
HETATM   47  C21 UNL     1       4.209  11.255  22.372  1.00  0.00     0.009 C 
HETATM   48  C22 UNL     1       3.116  12.157  22.947  1.00  0.00     0.012 C 
HETATM   49  C23 UNL     1       4.136   9.873  23.021  1.00  0.00     0.012 C 
ENDBRANCH  32  47
ENDBRANCH  30  32
ENDBRANCH  27  28
ENDBRANCH  26  27
ENDBRANCH  13  26
TORSDOF 13
ENDMDL
MODEL 5
REMARK minimizedAffinity -7.07698393
REMARK CNNscore 0.278445363
REMARK CNNaffinity 6.4624176
REMARK  13 active torsions:
REMARK  status: ('A' for Active; 'I' for Inactive)
REMARK    1  A    between atoms: C3_3  and  O1_4 
REMARK    2  A    between atoms: N1_14  and  O2_16 
REMARK    3  A    between atoms: O2_16  and  C13_17 
REMARK    4  A    between atoms: C13_17  and  C14_18 
REMARK       I    between atoms: C14_18  and  N2_20 
REMARK    5  A    between atoms: N2_20  and  C15_21 
REMARK    6  A    between atoms: C15_21  and  C16_22 
REMARK    7  A    between atoms: C15_21  and  C21_33 
REMARK       I    between atoms: C16_22  and  N3_24 
REMARK    8  A    between atoms: N3_24  and  C17_25 
REMARK    9  A    between atoms: C17_25  and  C18_26 
REMARK   10  A    between atoms: C17_25  and  C20_30 
REMARK   11  A    between atoms: C18_26  and  C19_27 
REMARK   12  A    between atoms: C19_27  and  O6_29 
REMARK   13  A    between atoms: C20_30  and  O8_32 
ROOT
HETATM    1  C1  UNL     1     -14.235  -3.587  33.723  1.00  0.00     0.015 C 
HETATM    2  C2  UNL     1     -14.176  -4.236  32.711  1.00  0.00    -0.078 C 
HETATM    3  C3  UNL     1     -14.131  -5.026  31.471  1.00  0.00     0.128 C 
HETATM    4  C4  UNL     1     -12.781  -4.865  30.754  1.00  0.00     0.052 C 
HETATM    5  C5  UNL     1     -12.764  -6.043  29.789  1.00  0.00     0.010 C 
HETATM    6  C6  UNL     1     -13.230  -7.205  30.669  1.00  0.00     0.002 C 
HETATM    7  C7  UNL     1     -13.694  -8.480  29.933  1.00  0.00    -0.004 C 
HETATM    8  C8  UNL     1     -12.600  -9.086  29.042  1.00  0.00     0.010 C 
HETATM    9  C9  UNL     1     -13.174 -10.093  28.058  1.00  0.00     0.035 C 
HETATM   10  C10 UNL     1     -14.045  -9.325  27.109  1.00  0.00    -0.069 C 
HETATM   11  C11 UNL     1     -13.709  -9.217  25.809  1.00  0.00     0.030 C 
HETATM   12  C12 UNL     1     -14.490  -8.358  24.870  1.00  0.00     0.032 C 
HETATM   13  N1  UNL     1     -14.375  -8.353  23.576  1.00  0.00    -0.271 N 
ATOM     14  H1  UNL     1     -14.915  -7.746  22.958  1.00  0.00     0.194 HD
HETATM   15  C24 UNL     1     -15.520  -7.413  25.460  1.00  0.00     0.060 C 
HETATM   16  C25 UNL     1     -15.412  -7.260  26.975  1.00  0.00     0.020 C 
HETATM   17  C26 UNL     1     -15.248  -8.611  27.722  1.00  0.00    -0.016 C 
HETATM   18  C27 UNL     1     -16.509  -9.488  27.455  1.00  0.00     0.020 C 
HETATM   19  C28 UNL     1     -15.114  -8.436  29.295  1.00  0.00     0.002 C 
HETATM   20  C29 UNL     1     -15.996  -7.322  29.895  1.00  0.00     0.007 C 
HETATM   21  C30 UNL     1     -15.713  -7.116  31.381  1.00  0.00     0.014 C 
HETATM   22  C31 UNL     1     -14.281  -6.592  31.662  1.00  0.00     0.003 C 
HETATM   23  C32 UNL     1     -13.892  -7.048  33.090  1.00  0.00     0.020 C 
ENDROOT
BRANCH   3  24
HETATM   24  O1  UNL     1     -15.161  -4.514  30.621  1.00  0.00    -0.377 OA
HETATM   25  H2  UNL     1     -14.802  -3.747  30.143  1.00  0.00     0.211 HD
ENDBRANCH   3  24
BRANCH  13  26
HETATM   26  O2  UNL     1     -13.421  -9.279  23.130  1.00  0.00    -0.271 OA
BRANCH  26  27
HETATM   27  C13 UNL     1     -13.971 -10.023  22.046  1.00  0.00     0.303 C 
BRANCH  27  28
HETATM   28  C14 UNL     1     -12.879 -10.928  21.497  1.00  0.00     0.244 C 
HETATM   29  O3  UNL     1     -13.119 -11.981  20.907  1.00  0.00    -0.271 OA
HETATM   30  N2  UNL     1     -11.588 -10.488  21.733  1.00  0.00    -0.346 N 
HETATM   31  H16 UNL     1     -11.481  -9.475  21.774  1.00  0.00     0.163 HD
BRANCH  30  32
HETATM   32  C15 UNL     1     -10.466 -11.193  21.111  1.00  0.00     0.180 C 
BRANCH  32  33
HETATM   33  C16 UNL     1      -9.908 -10.268  20.006  1.00  0.00     0.241 C 
HETATM   34  O4  UNL     1      -9.078  -9.387  20.239  1.00  0.00    -0.271 OA
HETATM   35  N3  UNL     1     -10.386 -10.508  18.743  1.00  0.00    -0.344 N 
HETATM   36  H18 UNL     1     -11.157 -11.157  18.609  1.00  0.00     0.163 HD
BRANCH  35  37
HETATM   37  C17 UNL     1     -10.094  -9.607  17.621  1.00  0.00     0.192 C 
BRANCH  37  38
HETATM   38  C18 UNL     1     -10.099 -10.315  16.270  1.00  0.00     0.146 C 
BRANCH  38  39
HETATM   39  C19 UNL     1     -10.796  -9.547  15.186  1.00  0.00     0.141 C 
HETATM   40  O5  UNL     1     -10.253  -8.933  14.280  1.00  0.00    -0.650 OA
BRANCH  39  41
HETATM   41  O6  UNL     1     -12.139  -9.626  15.238  1.00  0.00    -0.776 OA
HETATM   42  H22 UNL     1     -12.438  -9.114  14.456  1.00  0.00     0.167 HD
ENDBRANCH  39  41
ENDBRANCH  38  39
ENDBRANCH  37  38
BRANCH  37  43
HETATM   43  C20 UNL     1     -11.076  -8.436  17.666  1.00  0.00     0.164 C 
HETATM   44  O7  UNL     1     -10.872  -7.303  17.252  1.00  0.00    -0.648 OA
BRANCH  43  45
HETATM   45  O8  UNL     1     -12.266  -8.765  18.204  1.00  0.00    -0.775 OA
HETATM   46  H23 UNL     1     -12.807  -7.948  18.129  1.00  0.00     0.167 HD
ENDBRANCH  43  45
ENDBRANCH  37  43
ENDBRANCH  35  37
ENDBRANCH  32  33
BRANCH  32  47
HETATM   47  C21 UNL     1      -9.424 -11.610  22.167  1.00  0.00     0.009 C 
HETATM   48  C22 UNL     1      -8.275 -10.606  22.262  1.00  0.00     0.012 C 
HETATM   49  C23 UNL     1     -10.015 -11.855  23.556  1.00  0.00     0.012 C 
ENDBRANCH  32  47
ENDBRANCH  30  32
ENDBRANCH  27  28
ENDBRANCH  26  27
ENDBRANCH  13  26
TORSDOF 13
ENDMDL
MODEL 6
REMARK minimizedAffinity -7.31642008
REMARK CNNscore 0.260391861
REMARK CNNaffinity 5.88609552
REMARK  13 active torsions:
REMARK  status: ('A' for Active; 'I' for Inactive)
REMARK    1  A    between atoms: C3_3  and  O1_4 
REMARK    2  A    between atoms: N1_14  and  O2_16 
REMARK    3  A    between atoms: O2_16  and  C13_17 
REMARK    4  A    between atoms: C13_17  and  C14_18 
REMARK       I    between atoms: C14_18  and  N2_20 
REMARK    5  A    between atoms: N2_20  and  C15_21 
REMARK    6  A    between atoms: C15_21  and  C16_22 
REMARK    7  A    between atoms: C15_21  and  C21_33 
REMARK       I    between atoms: C16_22  and  N3_24 
REMARK    8  A    between atoms: N3_24  and  C17_25 
REMARK    9  A    between atoms: C17_25  and  C18_26 
REMARK   10  A    between atoms: C17_25  and  C20_30 
REMARK   11  A    between atoms: C18_26  and  C19_27 
REMARK   12  A    between atoms: C19_27  and  O6_29 
REMARK   13  A    between atoms: C20_30  and  O8_32 
ROOT
HETATM    1  C1  UNL     1      -5.896  17.368  14.041  1.00  0.00     0.015 C 
HETATM    2  C2  UNL     1      -5.211  16.436  14.370  1.00  0.00    -0.078 C 
HETATM    3  C3  UNL     1      -4.396  15.280  14.780  1.00  0.00     0.128 C 
HETATM    4  C4  UNL     1      -3.076  15.221  13.994  1.00  0.00     0.052 C 
HETATM    5  C5  UNL     1      -2.224  14.275  14.829  1.00  0.00     0.010 C 
HETATM    6  C6  UNL     1      -2.449  14.788  16.253  1.00  0.00     0.002 C 
HETATM    7  C7  UNL     1      -2.041  13.837  17.398  1.00  0.00    -0.004 C 
HETATM    8  C8  UNL     1      -0.553  13.457  17.356  1.00  0.00     0.010 C 
HETATM    9  C9  UNL     1      -0.258  12.254  18.238  1.00  0.00     0.035 C 
HETATM   10  C10 UNL     1      -0.960  11.081  17.620  1.00  0.00    -0.069 C 
HETATM   11  C11 UNL     1      -0.253  10.060  17.099  1.00  0.00     0.030 C 
HETATM   12  C12 UNL     1      -0.921   8.941  16.370  1.00  0.00     0.032 C 
HETATM   13  N1  UNL     1      -0.358   7.823  16.020  1.00  0.00    -0.271 N 
ATOM     14  H1  UNL     1      -0.836   7.078  15.513  1.00  0.00     0.194 HD
HETATM   15  C24 UNL     1      -2.386   9.100  16.011  1.00  0.00     0.060 C 
HETATM   16  C25 UNL     1      -2.909  10.523  16.192  1.00  0.00     0.020 C 
HETATM   17  C26 UNL     1      -2.483  11.171  17.537  1.00  0.00    -0.016 C 
HETATM   18  C27 UNL     1      -3.074  10.330  18.708  1.00  0.00     0.020 C 
HETATM   19  C28 UNL     1      -3.013  12.658  17.702  1.00  0.00     0.002 C 
HETATM   20  C29 UNL     1      -4.429  12.902  17.140  1.00  0.00     0.007 C 
HETATM   21  C30 UNL     1      -4.817  14.377  17.205  1.00  0.00     0.014 C 
HETATM   22  C31 UNL     1      -3.941  15.278  16.297  1.00  0.00     0.003 C 
HETATM   23  C32 UNL     1      -3.945  16.699  16.912  1.00  0.00     0.020 C 
ENDROOT
BRANCH   3  24
HETATM   24  O1  UNL     1      -5.160  14.111  14.473  1.00  0.00    -0.377 OA
HETATM   25  H2  UNL     1      -5.005  13.887  13.540  1.00  0.00     0.211 HD
ENDBRANCH   3  24
BRANCH  13  26
HETATM   26  O2  UNL     1       0.984   7.763  16.423  1.00  0.00    -0.271 OA
BRANCH  26  27
HETATM   27  C13 UNL     1       1.705   6.942  15.507  1.00  0.00     0.303 C 
BRANCH  27  28
HETATM   28  C14 UNL     1       1.740   7.656  14.165  1.00  0.00     0.244 C 
HETATM   29  O3  UNL     1       1.471   8.849  14.036  1.00  0.00    -0.271 OA
HETATM   30  N2  UNL     1       2.078   6.852  13.089  1.00  0.00    -0.346 N 
HETATM   31  H16 UNL     1       2.710   6.084  13.311  1.00  0.00     0.163 HD
BRANCH  30  32
HETATM   32  C15 UNL     1       2.301   7.465  11.779  1.00  0.00     0.180 C 
BRANCH  32  33
HETATM   33  C16 UNL     1       3.797   7.844  11.706  1.00  0.00     0.241 C 
HETATM   34  O4  UNL     1       4.223   8.705  10.933  1.00  0.00    -0.271 OA
HETATM   35  N3  UNL     1       4.617   7.170  12.576  1.00  0.00    -0.344 N 
HETATM   36  H18 UNL     1       4.252   6.385  13.109  1.00  0.00     0.163 HD
BRANCH  35  37
HETATM   37  C17 UNL     1       6.079   7.284  12.507  1.00  0.00     0.192 C 
BRANCH  37  38
HETATM   38  C18 UNL     1       6.773   6.845  13.793  1.00  0.00     0.146 C 
BRANCH  38  39
HETATM   39  C19 UNL     1       7.447   7.963  14.531  1.00  0.00     0.141 C 
HETATM   40  O5  UNL     1       7.272   9.157  14.338  1.00  0.00    -0.650 OA
BRANCH  39  41
HETATM   41  O6  UNL     1       8.264   7.551  15.518  1.00  0.00    -0.776 OA
HETATM   42  H22 UNL     1       8.590   8.385  15.920  1.00  0.00     0.167 HD
ENDBRANCH  39  41
ENDBRANCH  38  39
ENDBRANCH  37  38
BRANCH  37  43
HETATM   43  C20 UNL     1       6.573   6.508  11.287  1.00  0.00     0.164 C 
HETATM   44  O7  UNL     1       7.192   6.968  10.337  1.00  0.00    -0.648 OA
BRANCH  43  45
HETATM   45  O8  UNL     1       6.284   5.194  11.344  1.00  0.00    -0.775 OA
HETATM   46  H23 UNL     1       6.693   4.814  10.535  1.00  0.00     0.167 HD
ENDBRANCH  43  45
ENDBRANCH  37  43
ENDBRANCH  35  37
ENDBRANCH  32  33
BRANCH  32  47
HETATM   47  C21 UNL     1       1.834   6.530  10.647  1.00  0.00     0.009 C 
HETATM   48  C22 UNL     1       2.942   5.574  10.204  1.00  0.00     0.012 C 
HETATM   49  C23 UNL     1       0.568   5.739  10.980  1.00  0.00     0.012 C 
ENDBRANCH  32  47
ENDBRANCH  30  32
ENDBRANCH  27  28
ENDBRANCH  26  27
ENDBRANCH  13  26
TORSDOF 13
ENDMDL
MODEL 7
REMARK minimizedAffinity -7.87422943
REMARK CNNscore 0.227427036
REMARK CNNaffinity 6.74052191
REMARK  13 active torsions:
REMARK  status: ('A' for Active; 'I' for Inactive)
REMARK    1  A    between atoms: C3_3  and  O1_4 
REMARK    2  A    between atoms: N1_14  and  O2_16 
REMARK    3  A    between atoms: O2_16  and  C13_17 
REMARK    4  A    between atoms: C13_17  and  C14_18 
REMARK       I    between atoms: C14_18  and  N2_20 
REMARK    5  A    between atoms: N2_20  and  C15_21 
REMARK    6  A    between atoms: C15_21  and  C16_22 
REMARK    7  A    between atoms: C15_21  and  C21_33 
REMARK       I    between atoms: C16_22  and  N3_24 
REMARK    8  A    between atoms: N3_24  and  C17_25 
REMARK    9  A    between atoms: C17_25  and  C18_26 
REMARK   10  A    between atoms: C17_25  and  C20_30 
REMARK   11  A    between atoms: C18_26  and  C19_27 
REMARK   12  A    between atoms: C19_27  and  O6_29 
REMARK   13  A    between atoms: C20_30  and  O8_32 
ROOT
HETATM    1  C1  UNL     1     -10.162   6.410  14.264  1.00  0.00     0.015 C 
HETATM    2  C2  UNL     1      -9.008   6.654  14.500  1.00  0.00    -0.078 C 
HETATM    3  C3  UNL     1      -7.598   6.977  14.773  1.00  0.00     0.128 C 
HETATM    4  C4  UNL     1      -7.154   6.431  16.140  1.00  0.00     0.052 C 
HETATM    5  C5  UNL     1      -5.635   6.470  16.046  1.00  0.00     0.010 C 
HETATM    6  C6  UNL     1      -5.368   5.874  14.662  1.00  0.00     0.002 C 
HETATM    7  C7  UNL     1      -3.959   6.107  14.075  1.00  0.00    -0.004 C 
HETATM    8  C8  UNL     1      -2.842   5.538  14.962  1.00  0.00     0.010 C 
HETATM    9  C9  UNL     1      -1.481   6.093  14.573  1.00  0.00     0.035 C 
HETATM   10  C10 UNL     1      -1.502   7.558  14.893  1.00  0.00    -0.069 C 
HETATM   11  C11 UNL     1      -0.710   8.057  15.862  1.00  0.00     0.030 C 
HETATM   12  C12 UNL     1      -0.800   9.486  16.284  1.00  0.00     0.032 C 
HETATM   13  N1  UNL     1       0.050  10.104  17.048  1.00  0.00    -0.271 N 
ATOM     14  H1  UNL     1      -0.041  11.080  17.331  1.00  0.00     0.194 HD
HETATM   15  C24 UNL     1      -1.971  10.306  15.777  1.00  0.00     0.060 C 
HETATM   16  C25 UNL     1      -3.068   9.467  15.127  1.00  0.00     0.020 C 
HETATM   17  C26 UNL     1      -2.527   8.402  14.137  1.00  0.00    -0.016 C 
HETATM   18  C27 UNL     1      -1.782   9.129  12.977  1.00  0.00     0.020 C 
HETATM   19  C28 UNL     1      -3.677   7.521  13.485  1.00  0.00     0.002 C 
HETATM   20  C29 UNL     1      -4.972   8.293  13.160  1.00  0.00     0.007 C 
HETATM   21  C30 UNL     1      -6.078   7.362  12.671  1.00  0.00     0.014 C 
HETATM   22  C31 UNL     1      -6.554   6.359  13.754  1.00  0.00     0.003 C 
HETATM   23  C32 UNL     1      -7.116   5.117  13.021  1.00  0.00     0.020 C 
ENDROOT
BRANCH   3  24
HETATM   24  O1  UNL     1      -7.502   8.404  14.801  1.00  0.00    -0.377 OA
HETATM   25  H2  UNL     1      -7.742   8.703  15.694  1.00  0.00     0.211 HD
ENDBRANCH   3  24
BRANCH  13  26
HETATM   26  O2  UNL     1       1.108   9.269  17.439  1.00  0.00    -0.271 OA
BRANCH  26  27
HETATM   27  C13 UNL     1       2.341   9.888  17.082  1.00  0.00     0.303 C 
BRANCH  27  28
HETATM   28  C14 UNL     1       2.808  10.721  18.265  1.00  0.00     0.244 C 
HETATM   29  O3  UNL     1       3.578  11.673  18.149  1.00  0.00    -0.271 OA
HETATM   30  N2  UNL     1       2.314  10.312  19.492  1.00  0.00    -0.346 N 
HETATM   31  H16 UNL     1       1.390   9.885  19.462  1.00  0.00     0.163 HD
BRANCH  30  32
HETATM   32  C15 UNL     1       2.566  11.135  20.676  1.00  0.00     0.180 C 
BRANCH  32  33
HETATM   33  C16 UNL     1       4.084  11.073  20.955  1.00  0.00     0.241 C 
HETATM   34  O4  UNL     1       4.637  10.055  21.377  1.00  0.00    -0.271 OA
HETATM   35  N3  UNL     1       4.779  12.225  20.684  1.00  0.00    -0.344 N 
HETATM   36  H18 UNL     1       4.275  13.078  20.456  1.00  0.00     0.163 HD
BRANCH  35  37
HETATM   37  C17 UNL     1       6.188  12.386  21.062  1.00  0.00     0.192 C 
BRANCH  37  38
HETATM   38  C18 UNL     1       6.502  11.826  22.446  1.00  0.00     0.146 C 
BRANCH  38  39
HETATM   39  C19 UNL     1       7.774  12.355  23.040  1.00  0.00     0.141 C 
HETATM   40  O5  UNL     1       7.908  13.431  23.603  1.00  0.00    -0.650 OA
BRANCH  39  41
HETATM   41  O6  UNL     1       8.810  11.499  22.963  1.00  0.00    -0.776 OA
HETATM   42  H22 UNL     1       9.541  11.969  23.420  1.00  0.00     0.167 HD
ENDBRANCH  39  41
ENDBRANCH  38  39
ENDBRANCH  37  38
BRANCH  37  43
HETATM   43  C20 UNL     1       7.062  11.763  19.973  1.00  0.00     0.164 C 
HETATM   44  O7  UNL     1       6.712  10.925  19.154  1.00  0.00    -0.648 OA
BRANCH  43  45
HETATM   45  O8  UNL     1       8.317  12.249  19.961  1.00  0.00    -0.775 OA
HETATM   46  H23 UNL     1       8.748  11.807  19.197  1.00  0.00     0.167 HD
ENDBRANCH  43  45
ENDBRANCH  37  43
ENDBRANCH  35  37
ENDBRANCH  32  33
BRANCH  32  47
HETATM   47  C21 UNL     1       2.021  12.563  20.480  1.00  0.00     0.009 C 
HETATM   48  C22 UNL     1       0.559  12.558  20.029  1.00  0.00     0.012 C 
HETATM   49  C23 UNL     1       2.182  13.461  21.708  1.00  0.00     0.012 C 
ENDBRANCH  32  47
ENDBRANCH  30  32
ENDBRANCH  27  28
ENDBRANCH  26  27
ENDBRANCH  13  26
TORSDOF 13
ENDMDL
MODEL 8
REMARK minimizedAffinity -7.24075222
REMARK CNNscore 0.207032502
REMARK CNNaffinity 5.59041071
REMARK  13 active torsions:
REMARK  status: ('A' for Active; 'I' for Inactive)
REMARK    1  A    between atoms: C3_3  and  O1_4 
REMARK    2  A    between atoms: N1_14  and  O2_16 
REMARK    3  A    between atoms: O2_16  and  C13_17 
REMARK    4  A    between atoms: C13_17  and  C14_18 
REMARK       I    between atoms: C14_18  and  N2_20 
REMARK    5  A    between atoms: N2_20  and  C15_21 
REMARK    6  A    between atoms: C15_21  and  C16_22 
REMARK    7  A    between atoms: C15_21  and  C21_33 
REMARK       I    between atoms: C16_22  and  N3_24 
REMARK    8  A    between atoms: N3_24  and  C17_25 
REMARK    9  A    between atoms: C17_25  and  C18_26 
REMARK   10  A    between atoms: C17_25  and  C20_30 
REMARK   11  A    between atoms: C18_26  and  C19_27 
REMARK   12  A    between atoms: C19_27  and  O6_29 
REMARK   13  A    between atoms: C20_30  and  O8_32 
ROOT
HETATM    1  C1  UNL     1      -6.394  16.956  14.474  1.00  0.00     0.015 C 
HETATM    2  C2  UNL     1      -5.600  16.108  14.787  1.00  0.00    -0.078 C 
HETATM    3  C3  UNL     1      -4.649  15.053  15.173  1.00  0.00     0.128 C 
HETATM    4  C4  UNL     1      -3.298  15.230  14.462  1.00  0.00     0.052 C 
HETATM    5  C5  UNL     1      -2.361  14.359  15.287  1.00  0.00     0.010 C 
HETATM    6  C6  UNL     1      -2.726  14.740  16.724  1.00  0.00     0.002 C 
HETATM    7  C7  UNL     1      -2.242  13.781  17.832  1.00  0.00    -0.004 C 
HETATM    8  C8  UNL     1      -0.715  13.616  17.853  1.00  0.00     0.010 C 
HETATM    9  C9  UNL     1      -0.294  12.410  18.678  1.00  0.00     0.035 C 
HETATM   10  C10 UNL     1      -0.791  11.194  17.953  1.00  0.00    -0.069 C 
HETATM   11  C11 UNL     1       0.078  10.318  17.414  1.00  0.00     0.030 C 
HETATM   12  C12 UNL     1      -0.388   9.168  16.584  1.00  0.00     0.032 C 
HETATM   13  N1  UNL     1       0.345   8.165  16.202  1.00  0.00    -0.271 N 
ATOM     14  H1  UNL     1       0.003   7.396  15.625  1.00  0.00     0.194 HD
HETATM   15  C24 UNL     1      -1.842   9.144  16.151  1.00  0.00     0.060 C 
HETATM   16  C25 UNL     1      -2.569  10.466  16.386  1.00  0.00     0.020 C 
HETATM   17  C26 UNL     1      -2.305  11.076  17.788  1.00  0.00    -0.016 C 
HETATM   18  C27 UNL     1      -2.827  10.086  18.873  1.00  0.00     0.020 C 
HETATM   19  C28 UNL     1      -3.050  12.461  18.011  1.00  0.00     0.002 C 
HETATM   20  C29 UNL     1      -4.457  12.542  17.384  1.00  0.00     0.007 C 
HETATM   21  C30 UNL     1      -5.053  13.941  17.513  1.00  0.00     0.014 C 
HETATM   22  C31 UNL     1      -4.272  15.014  16.711  1.00  0.00     0.003 C 
HETATM   23  C32 UNL     1      -4.508  16.377  17.407  1.00  0.00     0.020 C 
ENDROOT
BRANCH   3  24
HETATM   24  O1  UNL     1      -5.223  13.811  14.755  1.00  0.00    -0.377 OA
HETATM   25  H2  UNL     1      -4.993  13.674  13.821  1.00  0.00     0.211 HD
ENDBRANCH   3  24
BRANCH  13  26
HETATM   26  O2  UNL     1       1.661   8.266  16.676  1.00  0.00    -0.271 OA
BRANCH  26  27
HETATM   27  C13 UNL     1       2.487   7.364  15.943  1.00  0.00     0.303 C 
BRANCH  27  28
HETATM   28  C14 UNL     1       3.055   8.113  14.749  1.00  0.00     0.244 C 
HETATM   29  O3  UNL     1       2.835   9.306  14.543  1.00  0.00    -0.271 OA
HETATM   30  N2  UNL     1       3.826   7.344  13.894  1.00  0.00    -0.346 N 
HETATM   31  H16 UNL     1       4.328   6.578  14.341  1.00  0.00     0.163 HD
BRANCH  30  32
HETATM   32  C15 UNL     1       4.554   7.995  12.804  1.00  0.00     0.180 C 
BRANCH  32  33
HETATM   33  C16 UNL     1       6.049   7.994  13.196  1.00  0.00     0.241 C 
HETATM   34  O4  UNL     1       6.725   6.964  13.221  1.00  0.00    -0.271 OA
HETATM   35  N3  UNL     1       6.578   9.224  13.499  1.00  0.00    -0.344 N 
HETATM   36  H18 UNL     1       5.964  10.030  13.588  1.00  0.00     0.163 HD
BRANCH  35  37
HETATM   37  C17 UNL     1       7.925   9.370  14.061  1.00  0.00     0.192 C 
BRANCH  37  38
HETATM   38  C18 UNL     1       8.398   8.125  14.807  1.00  0.00     0.146 C 
BRANCH  38  39
HETATM   39  C19 UNL     1       8.491   8.308  16.293  1.00  0.00     0.141 C 
HETATM   40  O5  UNL     1       7.554   8.521  17.048  1.00  0.00    -0.650 OA
BRANCH  39  41
HETATM   41  O6  UNL     1       9.735   8.158  16.785  1.00  0.00    -0.776 OA
HETATM   42  H22 UNL     1       9.622   8.268  17.754  1.00  0.00     0.167 HD
ENDBRANCH  39  41
ENDBRANCH  38  39
ENDBRANCH  37  38
BRANCH  37  43
HETATM   43  C20 UNL     1       8.883   9.772  12.939  1.00  0.00     0.164 C 
HETATM   44  O7  UNL     1       8.625  10.505  11.995  1.00  0.00    -0.648 OA
BRANCH  43  45
HETATM   45  O8  UNL     1      10.116   9.250  13.085  1.00  0.00    -0.775 OA
HETATM   46  H23 UNL     1      10.633   9.621  12.337  1.00  0.00     0.167 HD
ENDBRANCH  43  45
ENDBRANCH  37  43
ENDBRANCH  35  37
ENDBRANCH  32  33
BRANCH  32  47
HETATM   47  C21 UNL     1       4.258   7.309  11.456  1.00  0.00     0.009 C 
HETATM   48  C22 UNL     1       2.759   7.104  11.238  1.00  0.00     0.012 C 
HETATM   49  C23 UNL     1       4.864   8.028  10.250  1.00  0.00     0.012 C 
ENDBRANCH  32  47
ENDBRANCH  30  32
ENDBRANCH  27  28
ENDBRANCH  26  27
ENDBRANCH  13  26
TORSDOF 13
ENDMDL
MODEL 9
REMARK minimizedAffinity -7.55706692
REMARK CNNscore 0.16370526
REMARK CNNaffinity 5.2606225
REMARK  13 active torsions:
REMARK  status: ('A' for Active; 'I' for Inactive)
REMARK    1  A    between atoms: C3_3  and  O1_4 
REMARK    2  A    between atoms: N1_14  and  O2_16 
REMARK    3  A    between atoms: O2_16  and  C13_17 
REMARK    4  A    between atoms: C13_17  and  C14_18 
REMARK       I    between atoms: C14_18  and  N2_20 
REMARK    5  A    between atoms: N2_20  and  C15_21 
REMARK    6  A    between atoms: C15_21  and  C16_22 
REMARK    7  A    between atoms: C15_21  and  C21_33 
REMARK       I    between atoms: C16_22  and  N3_24 
REMARK    8  A    between atoms: N3_24  and  C17_25 
REMARK    9  A    between atoms: C17_25  and  C18_26 
REMARK   10  A    between atoms: C17_25  and  C20_30 
REMARK   11  A    between atoms: C18_26  and  C19_27 
REMARK   12  A    between atoms: C19_27  and  O6_29 
REMARK   13  A    between atoms: C20_30  and  O8_32 
ROOT
HETATM    1  C1  UNL     1      -5.204   7.409  13.612  1.00  0.00     0.015 C 
HETATM    2  C2  UNL     1      -4.262   7.762  14.271  1.00  0.00    -0.078 C 
HETATM    3  C3  UNL     1      -3.124   8.214  15.088  1.00  0.00     0.128 C 
HETATM    4  C4  UNL     1      -2.227   7.035  15.499  1.00  0.00     0.052 C 
HETATM    5  C5  UNL     1      -0.938   7.721  15.930  1.00  0.00     0.010 C 
HETATM    6  C6  UNL     1      -0.705   8.735  14.808  1.00  0.00     0.002 C 
HETATM    7  C7  UNL     1       0.305   9.864  15.102  1.00  0.00    -0.004 C 
HETATM    8  C8  UNL     1       1.707   9.337  15.441  1.00  0.00     0.010 C 
HETATM    9  C9  UNL     1       2.569  10.413  16.083  1.00  0.00     0.035 C 
HETATM   10  C10 UNL     1       1.955  10.725  17.415  1.00  0.00    -0.069 C 
HETATM   11  C11 UNL     1       2.609  10.429  18.554  1.00  0.00     0.030 C 
HETATM   12  C12 UNL     1       1.971  10.615  19.891  1.00  0.00     0.032 C 
HETATM   13  N1  UNL     1       2.583  10.560  21.036  1.00  0.00    -0.271 N 
ATOM     14  H1  UNL     1       2.119  10.680  21.937  1.00  0.00     0.194 HD
HETATM   15  C24 UNL     1       0.483  10.907  19.935  1.00  0.00     0.060 C 
HETATM   16  C25 UNL     1      -0.223  10.683  18.600  1.00  0.00     0.020 C 
HETATM   17  C26 UNL     1       0.535  11.290  17.390  1.00  0.00    -0.016 C 
HETATM   18  C27 UNL     1       0.634  12.833  17.583  1.00  0.00     0.020 C 
HETATM   19  C28 UNL     1      -0.198  11.029  16.006  1.00  0.00     0.002 C 
HETATM   20  C29 UNL     1      -1.737  11.102  16.070  1.00  0.00     0.007 C 
HETATM   21  C30 UNL     1      -2.378  10.704  14.743  1.00  0.00     0.014 C 
HETATM   22  C31 UNL     1      -2.133   9.219  14.369  1.00  0.00     0.003 C 
HETATM   23  C32 UNL     1      -2.207   9.111  12.826  1.00  0.00     0.020 C 
ENDROOT
BRANCH   3  24
HETATM   24  O1  UNL     1      -3.676   8.798  16.272  1.00  0.00    -0.377 OA
HETATM   25  H2  UNL     1      -3.847   8.084  16.908  1.00  0.00     0.211 HD
ENDBRANCH   3  24
BRANCH  13  26
HETATM   26  O2  UNL     1       3.956  10.315  20.886  1.00  0.00    -0.271 OA
BRANCH  26  27
HETATM   27  C13 UNL     1       4.684  11.375  21.501  1.00  0.00     0.303 C 
BRANCH  27  28
HETATM   28  C14 UNL     1       5.872  11.706  20.611  1.00  0.00     0.244 C 
HETATM   29  O3  UNL     1       6.026  11.214  19.494  1.00  0.00    -0.271 OA
HETATM   30  N2  UNL     1       6.783  12.590  21.164  1.00  0.00    -0.346 N 
HETATM   31  H16 UNL     1       6.382  13.271  21.807  1.00  0.00     0.163 HD
BRANCH  30  32
HETATM   32  C15 UNL     1       7.876  13.103  20.337  1.00  0.00     0.180 C 
BRANCH  32  33
HETATM   33  C16 UNL     1       8.872  11.939  20.132  1.00  0.00     0.241 C 
HETATM   34  O4  UNL     1       9.532  11.465  21.059  1.00  0.00    -0.271 OA
HETATM   35  N3  UNL     1       8.958  11.458  18.850  1.00  0.00    -0.344 N 
HETATM   36  H18 UNL     1       8.494  11.952  18.092  1.00  0.00     0.163 HD
BRANCH  35  37
HETATM   37  C17 UNL     1       9.982  10.482  18.458  1.00  0.00     0.192 C 
BRANCH  37  38
HETATM   38  C18 UNL     1       9.694   9.824  17.111  1.00  0.00     0.146 C 
BRANCH  38  39
HETATM   39  C19 UNL     1       8.491   8.928  17.120  1.00  0.00     0.141 C 
HETATM   40  O5  UNL     1       7.338   9.277  17.324  1.00  0.00    -0.650 OA
BRANCH  39  41
HETATM   41  O6  UNL     1       8.764   7.645  16.815  1.00  0.00    -0.776 OA
HETATM   42  H22 UNL     1       7.886   7.207  16.825  1.00  0.00     0.167 HD
ENDBRANCH  39  41
ENDBRANCH  38  39
ENDBRANCH  37  38
BRANCH  37  43
HETATM   43  C20 UNL     1      11.348  11.167  18.488  1.00  0.00     0.164 C 
HETATM   44  O7  UNL     1      11.585  12.325  18.174  1.00  0.00    -0.648 OA
BRANCH  43  45
HETATM   45  O8  UNL     1      12.332  10.363  18.934  1.00  0.00    -0.775 OA
HETATM   46  H23 UNL     1      13.132  10.933  18.948  1.00  0.00     0.167 HD
ENDBRANCH  43  45
ENDBRANCH  37  43
ENDBRANCH  35  37
ENDBRANCH  32  33
BRANCH  32  47
HETATM   47  C21 UNL     1       7.338  13.707  19.026  1.00  0.00     0.009 C 
HETATM   48  C22 UNL     1       6.469  14.940  19.280  1.00  0.00     0.012 C 
HETATM   49  C23 UNL     1       8.427  14.041  18.005  1.00  0.00     0.012 C 
ENDBRANCH  32  47
ENDBRANCH  30  32
ENDBRANCH  27  28
ENDBRANCH  26  27
ENDBRANCH  13  26
TORSDOF 13
ENDMDL
