MODEL 1
REMARK minimizedAffinity -8.03755474
REMARK CNNscore 0.713401794
REMARK CNNaffinity 5.59730673
REMARK  11 active torsions:
REMARK  status: ('A' for Active; 'I' for Inactive)
REMARK    1  A    between atoms: C2_2  and  O1_3 
REMARK    2  A    between atoms: C2_2  and  C3_4 
REMARK    3  A    between atoms: C4_5  and  C5_6 
REMARK    4  A    between atoms: C5_6  and  O2_7 
REMARK    5  A    between atoms: C9_11  and  O3_12 
REMARK    6  A    between atoms: O3_12  and  C10_13 
REMARK    7  A    between atoms: C11_15  and  C12_16 
REMARK    8  A    between atoms: C12_16  and  O5_17 
REMARK    9  A    between atoms: C13_18  and  O6_19 
REMARK   10  A    between atoms: C14_20  and  O7_21 
REMARK   11  A    between atoms: C15_22  and  O8_23 
ROOT
HETATM    1  C5  UNL     1      -8.172   6.285  14.301  1.00  0.00     0.086 C 
HETATM    2  C6  UNL     1      -7.558   5.502  13.081  1.00  0.00     0.023 C 
HETATM    3  C7  UNL     1      -8.318   4.213  12.720  1.00  0.00     0.013 C 
HETATM    4  C8  UNL     1      -6.093   5.138  13.357  1.00  0.00     0.039 C 
HETATM    5  C9  UNL     1      -5.201   6.373  13.487  1.00  0.00     0.126 C 
HETATM    6  C16 UNL     1      -5.997   7.631  13.867  1.00  0.00     0.044 C 
HETATM    7  C17 UNL     1      -7.153   7.384  14.875  1.00  0.00    -0.010 C 
HETATM    8  C18 UNL     1      -6.558   6.969  16.245  1.00  0.00     0.018 C 
HETATM    9  C19 UNL     1      -7.816   8.768  15.118  1.00  0.00     0.018 C 
ENDROOT
BRANCH   5  10
HETATM   10  O3  UNL     1      -4.182   6.177  14.473  1.00  0.00    -0.353 OA
BRANCH  10  11
HETATM   11  C10 UNL     1      -3.116   7.131  14.427  1.00  0.00     0.292 C 
HETATM   12  O4  UNL     1      -2.517   7.196  13.137  1.00  0.00    -0.348 OA
HETATM   13  C11 UNL     1      -1.326   6.419  12.939  1.00  0.00     0.179 C 
HETATM   14  C13 UNL     1      -0.211   6.861  13.910  1.00  0.00     0.180 C 
HETATM   15  C14 UNL     1      -0.748   7.346  15.264  1.00  0.00     0.183 C 
HETATM   16  C15 UNL     1      -2.131   6.791  15.570  1.00  0.00     0.204 C 
BRANCH  13  17
HETATM   17  C12 UNL     1      -1.584   4.900  12.968  1.00  0.00     0.198 C 
BRANCH  17  18
HETATM   18  O5  UNL     1      -0.482   4.216  12.370  1.00  0.00    -0.398 OA
HETATM   19  H20 UNL     1      -0.840   3.619  11.680  1.00  0.00     0.209 HD
ENDBRANCH  17  18
ENDBRANCH  13  17
BRANCH  14  20
HETATM   20  O6  UNL     1       0.507   7.973  13.334  1.00  0.00    -0.390 OA
HETATM   21  H22 UNL     1       0.952   7.652  12.531  1.00  0.00     0.210 HD
ENDBRANCH  14  20
BRANCH  15  22
HETATM   22  O7  UNL     1       0.156   6.942  16.309  1.00  0.00    -0.390 OA
HETATM   23  H24 UNL     1      -0.326   7.079  17.148  1.00  0.00     0.210 HD
ENDBRANCH  15  22
BRANCH  16  24
HETATM   24  O8  UNL     1      -2.565   7.312  16.846  1.00  0.00    -0.388 OA
HETATM   25  H26 UNL     1      -2.778   8.255  16.732  1.00  0.00     0.210 HD
ENDBRANCH  16  24
ENDBRANCH  10  11
ENDBRANCH   5  10
BRANCH   1  26
HETATM   26  C4  UNL     1      -9.556   6.859  14.025  1.00  0.00     0.010 C 
HETATM   27  C3  UNL     1     -10.616   6.946  14.852  1.00  0.00     0.003 C 
BRANCH  27  28
HETATM   28  C2  UNL     1     -11.970   7.518  14.517  1.00  0.00     0.136 C 
HETATM   29  C1  UNL     1     -12.979   6.415  14.208  1.00  0.00     0.043 C 
BRANCH  28  30
HETATM   30  O1  UNL     1     -11.896   8.398  13.401  1.00  0.00    -0.392 OA
HETATM   31  H5  UNL     1     -11.662   7.859  12.626  1.00  0.00     0.210 HD
ENDBRANCH  28  30
ENDBRANCH  27  28
ENDBRANCH   1  26
BRANCH   1  32
HETATM   32  O2  UNL     1      -8.400   5.314  15.343  1.00  0.00    -0.385 OA
HETATM   33  H8  UNL     1      -9.182   4.791  15.095  1.00  0.00     0.211 HD
ENDBRANCH   1  32
TORSDOF 11
ENDMDL
MODEL 2
REMARK minimizedAffinity -6.62321091
REMARK CNNscore 0.566033661
REMARK CNNaffinity 5.96147156
REMARK  11 active torsions:
REMARK  status: ('A' for Active; 'I' for Inactive)
REMARK    1  A    between atoms: C2_2  and  O1_3 
REMARK    2  A    between atoms: C2_2  and  C3_4 
REMARK    3  A    between atoms: C4_5  and  C5_6 
REMARK    4  A    between atoms: C5_6  and  O2_7 
REMARK    5  A    between atoms: C9_11  and  O3_12 
REMARK    6  A    between atoms: O3_12  and  C10_13 
REMARK    7  A    between atoms: C11_15  and  C12_16 
REMARK    8  A    between atoms: C12_16  and  O5_17 
REMARK    9  A    between atoms: C13_18  and  O6_19 
REMARK   10  A    between atoms: C14_20  and  O7_21 
REMARK   11  A    between atoms: C15_22  and  O8_23 
ROOT
HETATM    1  C5  UNL     1      -5.585   6.339  14.636  1.00  0.00     0.086 C 
HETATM    2  C6  UNL     1      -5.613   7.753  13.945  1.00  0.00     0.023 C 
HETATM    3  C7  UNL     1      -4.226   8.398  13.784  1.00  0.00     0.013 C 
HETATM    4  C8  UNL     1      -6.507   8.720  14.734  1.00  0.00     0.039 C 
HETATM    5  C9  UNL     1      -7.973   8.285  14.740  1.00  0.00     0.126 C 
HETATM    6  C16 UNL     1      -8.136   6.781  14.472  1.00  0.00     0.044 C 
HETATM    7  C17 UNL     1      -7.046   5.886  15.123  1.00  0.00    -0.010 C 
HETATM    8  C18 UNL     1      -7.190   5.943  16.665  1.00  0.00     0.018 C 
HETATM    9  C19 UNL     1      -7.398   4.425  14.731  1.00  0.00     0.018 C 
ENDROOT
BRANCH   5  10
HETATM   10  O3  UNL     1      -8.599   8.584  15.991  1.00  0.00    -0.353 OA
BRANCH  10  11
HETATM   11  C10 UNL     1     -10.029   8.612  15.951  1.00  0.00     0.292 C 
HETATM   12  O4  UNL     1     -10.515   9.192  14.745  1.00  0.00    -0.348 OA
HETATM   13  C11 UNL     1     -10.865  10.584  14.793  1.00  0.00     0.179 C 
HETATM   14  C13 UNL     1     -11.983  10.836  15.826  1.00  0.00     0.180 C 
HETATM   15  C14 UNL     1     -11.916   9.889  17.032  1.00  0.00     0.183 C 
HETATM   16  C15 UNL     1     -10.523   9.314  17.238  1.00  0.00     0.204 C 
BRANCH  13  17
HETATM   17  C12 UNL     1      -9.646  11.507  14.987  1.00  0.00     0.198 C 
BRANCH  17  18
HETATM   18  O5  UNL     1      -9.761  12.639  14.124  1.00  0.00    -0.398 OA
HETATM   19  H20 UNL     1      -8.929  12.708  13.610  1.00  0.00     0.209 HD
ENDBRANCH  17  18
ENDBRANCH  13  17
BRANCH  14  20
HETATM   20  O6  UNL     1     -13.266  10.612  15.202  1.00  0.00    -0.390 OA
HETATM   21  H22 UNL     1     -13.376  11.283  14.506  1.00  0.00     0.210 HD
ENDBRANCH  14  20
BRANCH  15  22
HETATM   22  O7  UNL     1     -12.306  10.600  18.222  1.00  0.00    -0.390 OA
HETATM   23  H24 UNL     1     -12.043  10.031  18.972  1.00  0.00     0.210 HD
ENDBRANCH  15  22
BRANCH  16  24
HETATM   24  O8  UNL     1     -10.555   8.423  18.375  1.00  0.00    -0.388 OA
HETATM   25  H26 UNL     1     -11.037   7.618  18.116  1.00  0.00     0.210 HD
ENDBRANCH  16  24
ENDBRANCH  10  11
ENDBRANCH   5  10
BRANCH   1  26
HETATM   26  C4  UNL     1      -4.887   5.267  13.807  1.00  0.00     0.010 C 
HETATM   27  C3  UNL     1      -5.244   4.756  12.613  1.00  0.00     0.003 C 
BRANCH  27  28
HETATM   28  C2  UNL     1      -4.515   3.684  11.843  1.00  0.00     0.136 C 
HETATM   29  C1  UNL     1      -5.471   2.593  11.367  1.00  0.00     0.043 C 
BRANCH  28  30
HETATM   30  O1  UNL     1      -3.494   3.086  12.634  1.00  0.00    -0.392 OA
HETATM   31  H5  UNL     1      -3.935   2.608  13.357  1.00  0.00     0.210 HD
ENDBRANCH  28  30
ENDBRANCH  27  28
ENDBRANCH   1  26
BRANCH   1  32
HETATM   32  O2  UNL     1      -4.754   6.468  15.807  1.00  0.00    -0.385 OA
HETATM   33  H8  UNL     1      -3.828   6.506  15.512  1.00  0.00     0.211 HD
ENDBRANCH   1  32
TORSDOF 11
ENDMDL
MODEL 3
REMARK minimizedAffinity -6.68811512
REMARK CNNscore 0.46990186
REMARK CNNaffinity 4.79370689
REMARK  11 active torsions:
REMARK  status: ('A' for Active; 'I' for Inactive)
REMARK    1  A    between atoms: C2_2  and  O1_3 
REMARK    2  A    between atoms: C2_2  and  C3_4 
REMARK    3  A    between atoms: C4_5  and  C5_6 
REMARK    4  A    between atoms: C5_6  and  O2_7 
REMARK    5  A    between atoms: C9_11  and  O3_12 
REMARK    6  A    between atoms: O3_12  and  C10_13 
REMARK    7  A    between atoms: C11_15  and  C12_16 
REMARK    8  A    between atoms: C12_16  and  O5_17 
REMARK    9  A    between atoms: C13_18  and  O6_19 
REMARK   10  A    between atoms: C14_20  and  O7_21 
REMARK   11  A    between atoms: C15_22  and  O8_23 
ROOT
HETATM    1  C5  UNL     1      -3.179   5.801  13.214  1.00  0.00     0.086 C 
HETATM    2  C6  UNL     1      -1.873   6.362  12.538  1.00  0.00     0.023 C 
HETATM    3  C7  UNL     1      -0.767   5.309  12.349  1.00  0.00     0.013 C 
HETATM    4  C8  UNL     1      -1.299   7.525  13.358  1.00  0.00     0.039 C 
HETATM    5  C9  UNL     1      -2.239   8.730  13.397  1.00  0.00     0.126 C 
HETATM    6  C16 UNL     1      -3.699   8.341  13.119  1.00  0.00     0.044 C 
HETATM    7  C17 UNL     1      -4.135   6.983  13.733  1.00  0.00    -0.010 C 
HETATM    8  C18 UNL     1      -4.134   7.096  15.279  1.00  0.00     0.018 C 
HETATM    9  C19 UNL     1      -5.623   6.787  13.336  1.00  0.00     0.018 C 
ENDROOT
BRANCH   5  10
HETATM   10  O3  UNL     1      -2.189   9.388  14.667  1.00  0.00    -0.353 OA
BRANCH  10  11
HETATM   11  C10 UNL     1      -2.567  10.768  14.639  1.00  0.00     0.292 C 
HETATM   12  O4  UNL     1      -1.434  11.630  14.629  1.00  0.00    -0.348 OA
HETATM   13  C11 UNL     1      -1.013  12.159  15.895  1.00  0.00     0.179 C 
HETATM   14  C13 UNL     1      -2.136  12.999  16.541  1.00  0.00     0.180 C 
HETATM   15  C14 UNL     1      -3.543  12.483  16.209  1.00  0.00     0.183 C 
HETATM   16  C15 UNL     1      -3.541  11.013  15.815  1.00  0.00     0.204 C 
BRANCH  13  17
HETATM   17  C12 UNL     1      -0.445  11.084  16.842  1.00  0.00     0.198 C 
BRANCH  17  18
HETATM   18  O5  UNL     1       0.439  10.228  16.117  1.00  0.00    -0.398 OA
HETATM   19  H20 UNL     1       0.153   9.304  16.271  1.00  0.00     0.209 HD
ENDBRANCH  17  18
ENDBRANCH  13  17
BRANCH  14  20
HETATM   20  O6  UNL     1      -2.069  14.351  16.036  1.00  0.00    -0.390 OA
HETATM   21  H22 UNL     1      -1.227  14.735  16.338  1.00  0.00     0.210 HD
ENDBRANCH  14  20
BRANCH  15  22
HETATM   22  O7  UNL     1      -4.399  12.656  17.354  1.00  0.00    -0.390 OA
HETATM   23  H24 UNL     1      -5.200  12.127  17.172  1.00  0.00     0.210 HD
ENDBRANCH  15  22
BRANCH  16  24
HETATM   24  O8  UNL     1      -4.895  10.618  15.502  1.00  0.00    -0.388 OA
HETATM   25  H26 UNL     1      -5.141  11.024  14.652  1.00  0.00     0.210 HD
ENDBRANCH  16  24
ENDBRANCH  10  11
ENDBRANCH   5  10
BRANCH   1  26
HETATM   26  C4  UNL     1      -3.923   4.783  12.358  1.00  0.00     0.010 C 
HETATM   27  C3  UNL     1      -3.748   3.450  12.286  1.00  0.00     0.003 C 
BRANCH  27  28
HETATM   28  C2  UNL     1      -4.511   2.490  11.408  1.00  0.00     0.136 C 
HETATM   29  C1  UNL     1      -5.987   2.436  11.793  1.00  0.00     0.043 C 
BRANCH  28  30
HETATM   30  O1  UNL     1      -3.967   1.177  11.485  1.00  0.00    -0.392 OA
HETATM   31  H5  UNL     1      -4.125   0.855  12.390  1.00  0.00     0.210 HD
ENDBRANCH  28  30
ENDBRANCH  27  28
ENDBRANCH   1  26
BRANCH   1  32
HETATM   32  O2  UNL     1      -2.756   5.043  14.365  1.00  0.00    -0.385 OA
HETATM   33  H8  UNL     1      -2.383   4.203  14.047  1.00  0.00     0.211 HD
ENDBRANCH   1  32
TORSDOF 11
ENDMDL
MODEL 4
REMARK minimizedAffinity -8.42813396
REMARK CNNscore 0.465060145
REMARK CNNaffinity 5.73296738
REMARK  11 active torsions:
REMARK  status: ('A' for Active; 'I' for Inactive)
REMARK    1  A    between atoms: C2_2  and  O1_3 
REMARK    2  A    between atoms: C2_2  and  C3_4 
REMARK    3  A    between atoms: C4_5  and  C5_6 
REMARK    4  A    between atoms: C5_6  and  O2_7 
REMARK    5  A    between atoms: C9_11  and  O3_12 
REMARK    6  A    between atoms: O3_12  and  C10_13 
REMARK    7  A    between atoms: C11_15  and  C12_16 
REMARK    8  A    between atoms: C12_16  and  O5_17 
REMARK    9  A    between atoms: C13_18  and  O6_19 
REMARK   10  A    between atoms: C14_20  and  O7_21 
REMARK   11  A    between atoms: C15_22  and  O8_23 
ROOT
HETATM    1  C5  UNL     1      -6.958   5.452  14.170  1.00  0.00     0.086 C 
HETATM    2  C6  UNL     1      -6.658   4.416  13.024  1.00  0.00     0.023 C 
HETATM    3  C7  UNL     1      -7.538   3.155  13.076  1.00  0.00     0.013 C 
HETATM    4  C8  UNL     1      -5.187   3.980  13.065  1.00  0.00     0.039 C 
HETATM    5  C9  UNL     1      -4.229   5.136  12.774  1.00  0.00     0.126 C 
HETATM    6  C16 UNL     1      -4.864   6.506  13.059  1.00  0.00     0.044 C 
HETATM    7  C17 UNL     1      -5.789   6.543  14.307  1.00  0.00    -0.010 C 
HETATM    8  C18 UNL     1      -4.936   6.326  15.583  1.00  0.00     0.018 C 
HETATM    9  C19 UNL     1      -6.317   8.000  14.409  1.00  0.00     0.018 C 
ENDROOT
BRANCH   5  10
HETATM   10  O3  UNL     1      -3.034   5.030  13.554  1.00  0.00    -0.353 OA
BRANCH  10  11
HETATM   11  C10 UNL     1      -1.982   5.916  13.159  1.00  0.00     0.292 C 
HETATM   12  O4  UNL     1      -1.635   5.750  11.788  1.00  0.00    -0.348 OA
HETATM   13  C11 UNL     1      -0.514   4.899  11.504  1.00  0.00     0.179 C 
HETATM   14  C13 UNL     1       0.770   5.439  12.170  1.00  0.00     0.180 C 
HETATM   15  C14 UNL     1       0.504   6.156  13.501  1.00  0.00     0.183 C 
HETATM   16  C15 UNL     1      -0.805   5.718  14.141  1.00  0.00     0.204 C 
BRANCH  13  17
HETATM   17  C12 UNL     1      -0.783   3.417  11.829  1.00  0.00     0.198 C 
BRANCH  17  18
HETATM   18  O5  UNL     1       0.285   2.615  11.323  1.00  0.00    -0.398 OA
HETATM   19  H20 UNL     1      -0.109   1.906  10.772  1.00  0.00     0.209 HD
ENDBRANCH  17  18
ENDBRANCH  13  17
BRANCH  14  20
HETATM   20  O6  UNL     1       1.383   6.414  11.298  1.00  0.00    -0.390 OA
HETATM   21  H22 UNL     1       1.664   5.949  10.490  1.00  0.00     0.210 HD
ENDBRANCH  14  20
BRANCH  15  22
HETATM   22  O7  UNL     1       1.583   5.882  14.415  1.00  0.00    -0.390 OA
HETATM   23  H24 UNL     1       1.269   6.172  15.294  1.00  0.00     0.210 HD
ENDBRANCH  15  22
BRANCH  16  24
HETATM   24  O8  UNL     1      -0.984   6.453  15.373  1.00  0.00    -0.388 OA
HETATM   25  H26 UNL     1      -1.201   7.374  15.147  1.00  0.00     0.210 HD
ENDBRANCH  16  24
ENDBRANCH  10  11
ENDBRANCH   5  10
BRANCH   1  26
HETATM   26  C4  UNL     1      -8.341   6.087  14.073  1.00  0.00     0.010 C 
HETATM   27  C3  UNL     1      -8.954   6.913  14.943  1.00  0.00     0.003 C 
BRANCH  27  28
HETATM   28  C2  UNL     1     -10.334   7.504  14.797  1.00  0.00     0.136 C 
HETATM   29  C1  UNL     1     -10.582   8.600  15.829  1.00  0.00     0.043 C 
BRANCH  28  30
HETATM   30  O1  UNL     1     -11.339   6.505  14.938  1.00  0.00    -0.392 OA
HETATM   31  H5  UNL     1     -11.305   6.192  15.858  1.00  0.00     0.210 HD
ENDBRANCH  28  30
ENDBRANCH  27  28
ENDBRANCH   1  26
BRANCH   1  32
HETATM   32  O2  UNL     1      -7.006   4.704  15.402  1.00  0.00    -0.385 OA
HETATM   33  H8  UNL     1      -7.847   4.216  15.421  1.00  0.00     0.211 HD
ENDBRANCH   1  32
TORSDOF 11
ENDMDL
MODEL 5
REMARK minimizedAffinity -6.9542346
REMARK CNNscore 0.44092533
REMARK CNNaffinity 5.33130121
REMARK  11 active torsions:
REMARK  status: ('A' for Active; 'I' for Inactive)
REMARK    1  A    between atoms: C2_2  and  O1_3 
REMARK    2  A    between atoms: C2_2  and  C3_4 
REMARK    3  A    between atoms: C4_5  and  C5_6 
REMARK    4  A    between atoms: C5_6  and  O2_7 
REMARK    5  A    between atoms: C9_11  and  O3_12 
REMARK    6  A    between atoms: O3_12  and  C10_13 
REMARK    7  A    between atoms: C11_15  and  C12_16 
REMARK    8  A    between atoms: C12_16  and  O5_17 
REMARK    9  A    between atoms: C13_18  and  O6_19 
REMARK   10  A    between atoms: C14_20  and  O7_21 
REMARK   11  A    between atoms: C15_22  and  O8_23 
ROOT
HETATM    1  C5  UNL     1      -3.208   5.296  13.860  1.00  0.00     0.086 C 
HETATM    2  C6  UNL     1      -1.988   6.082  13.251  1.00  0.00     0.023 C 
HETATM    3  C7  UNL     1      -0.646   5.340  13.370  1.00  0.00     0.013 C 
HETATM    4  C8  UNL     1      -1.842   7.454  13.922  1.00  0.00     0.039 C 
HETATM    5  C9  UNL     1      -3.039   8.366  13.649  1.00  0.00     0.126 C 
HETATM    6  C16 UNL     1      -4.302   7.575  13.277  1.00  0.00     0.044 C 
HETATM    7  C17 UNL     1      -4.487   6.246  14.060  1.00  0.00    -0.010 C 
HETATM    8  C18 UNL     1      -4.750   6.564  15.554  1.00  0.00     0.018 C 
HETATM    9  C19 UNL     1      -5.807   5.617  13.536  1.00  0.00     0.018 C 
ENDROOT
BRANCH   5  10
HETATM   10  O3  UNL     1      -3.343   9.180  14.786  1.00  0.00    -0.353 OA
BRANCH  10  11
HETATM   11  C10 UNL     1      -2.254   9.985  15.251  1.00  0.00     0.292 C 
HETATM   12  O4  UNL     1      -2.496  10.503  16.555  1.00  0.00    -0.348 OA
HETATM   13  C11 UNL     1      -3.022  11.836  16.633  1.00  0.00     0.179 C 
HETATM   14  C13 UNL     1      -2.054  12.849  15.984  1.00  0.00     0.180 C 
HETATM   15  C14 UNL     1      -1.273  12.263  14.800  1.00  0.00     0.183 C 
HETATM   16  C15 UNL     1      -1.975  11.065  14.180  1.00  0.00     0.204 C 
BRANCH  13  17
HETATM   17  C12 UNL     1      -4.462  11.950  16.097  1.00  0.00     0.198 C 
BRANCH  17  18
HETATM   18  O5  UNL     1      -4.580  13.122  15.287  1.00  0.00    -0.398 OA
HETATM   19  H20 UNL     1      -5.342  13.639  15.621  1.00  0.00     0.209 HD
ENDBRANCH  17  18
ENDBRANCH  13  17
BRANCH  14  20
HETATM   20  O6  UNL     1      -1.071  13.259  16.959  1.00  0.00    -0.390 OA
HETATM   21  H22 UNL     1      -1.539  13.737  17.665  1.00  0.00     0.210 HD
ENDBRANCH  14  20
BRANCH  15  22
HETATM   22  O7  UNL     1      -1.103  13.276  13.791  1.00  0.00    -0.390 OA
HETATM   23  H24 UNL     1      -0.800  12.807  12.988  1.00  0.00     0.210 HD
ENDBRANCH  15  22
BRANCH  16  24
HETATM   24  O8  UNL     1      -1.165  10.567  13.092  1.00  0.00    -0.388 OA
HETATM   25  H26 UNL     1      -0.382  10.130  13.472  1.00  0.00     0.210 HD
ENDBRANCH  16  24
ENDBRANCH  10  11
ENDBRANCH   5  10
BRANCH   1  26
HETATM   26  C4  UNL     1      -3.546   4.013  13.111  1.00  0.00     0.010 C 
HETATM   27  C3  UNL     1      -3.755   3.834  11.793  1.00  0.00     0.003 C 
BRANCH  27  28
HETATM   28  C2  UNL     1      -4.098   2.535  11.107  1.00  0.00     0.136 C 
HETATM   29  C1  UNL     1      -5.587   2.222  11.221  1.00  0.00     0.043 C 
BRANCH  28  30
HETATM   30  O1  UNL     1      -3.357   1.452  11.658  1.00  0.00    -0.392 OA
HETATM   31  H5  UNL     1      -3.664   1.331  12.573  1.00  0.00     0.210 HD
ENDBRANCH  28  30
ENDBRANCH  27  28
ENDBRANCH   1  26
BRANCH   1  32
HETATM   32  O2  UNL     1      -2.796   4.838  15.164  1.00  0.00    -0.385 OA
HETATM   33  H8  UNL     1      -2.188   4.090  15.038  1.00  0.00     0.211 HD
ENDBRANCH   1  32
TORSDOF 11
ENDMDL
MODEL 6
REMARK minimizedAffinity -6.58336449
REMARK CNNscore 0.437225103
REMARK CNNaffinity 4.90167761
REMARK  11 active torsions:
REMARK  status: ('A' for Active; 'I' for Inactive)
REMARK    1  A    between atoms: C2_2  and  O1_3 
REMARK    2  A    between atoms: C2_2  and  C3_4 
REMARK    3  A    between atoms: C4_5  and  C5_6 
REMARK    4  A    between atoms: C5_6  and  O2_7 
REMARK    5  A    between atoms: C9_11  and  O3_12 
REMARK    6  A    between atoms: O3_12  and  C10_13 
REMARK    7  A    between atoms: C11_15  and  C12_16 
REMARK    8  A    between atoms: C12_16  and  O5_17 
REMARK    9  A    between atoms: C13_18  and  O6_19 
REMARK   10  A    between atoms: C14_20  and  O7_21 
REMARK   11  A    between atoms: C15_22  and  O8_23 
ROOT
HETATM    1  C5  UNL     1      -3.418 -11.948   4.353  1.00  0.00     0.086 C 
HETATM    2  C6  UNL     1      -2.518 -12.371   5.573  1.00  0.00     0.023 C 
HETATM    3  C7  UNL     1      -2.403 -13.893   5.766  1.00  0.00     0.013 C 
HETATM    4  C8  UNL     1      -3.055 -11.758   6.874  1.00  0.00     0.039 C 
HETATM    5  C9  UNL     1      -2.978 -10.231   6.874  1.00  0.00     0.126 C 
HETATM    6  C16 UNL     1      -2.930  -9.650   5.453  1.00  0.00     0.044 C 
HETATM    7  C17 UNL     1      -3.818 -10.394   4.418  1.00  0.00    -0.010 C 
HETATM    8  C18 UNL     1      -5.310 -10.192   4.784  1.00  0.00     0.018 C 
HETATM    9  C19 UNL     1      -3.622  -9.652   3.068  1.00  0.00     0.018 C 
ENDROOT
BRANCH   5  10
HETATM   10  O3  UNL     1      -4.099  -9.655   7.552  1.00  0.00    -0.353 OA
BRANCH  10  11
HETATM   11  C10 UNL     1      -4.578 -10.415   8.665  1.00  0.00     0.292 C 
HETATM   12  O4  UNL     1      -5.891 -10.918   8.440  1.00  0.00    -0.348 OA
HETATM   13  C11 UNL     1      -6.978 -10.150   8.979  1.00  0.00     0.179 C 
HETATM   14  C13 UNL     1      -6.862 -10.034  10.514  1.00  0.00     0.180 C 
HETATM   15  C14 UNL     1      -5.410 -10.000  11.009  1.00  0.00     0.183 C 
HETATM   16  C15 UNL     1      -4.443  -9.536   9.930  1.00  0.00     0.204 C 
BRANCH  13  17
HETATM   17  C12 UNL     1      -7.158  -8.786   8.284  1.00  0.00     0.198 C 
BRANCH  17  18
HETATM   18  O5  UNL     1      -8.476  -8.294   8.532  1.00  0.00    -0.398 OA
HETATM   19  H20 UNL     1      -8.878  -8.071   7.667  1.00  0.00     0.209 HD
ENDBRANCH  17  18
ENDBRANCH  13  17
BRANCH  14  20
HETATM   20  O6  UNL     1      -7.473 -11.191  11.125  1.00  0.00    -0.390 OA
HETATM   21  H22 UNL     1      -8.423 -11.166  10.917  1.00  0.00     0.210 HD
ENDBRANCH  14  20
BRANCH  15  22
HETATM   22  O7  UNL     1      -5.309  -9.110  12.136  1.00  0.00    -0.390 OA
HETATM   23  H24 UNL     1      -4.354  -8.957  12.273  1.00  0.00     0.210 HD
ENDBRANCH  15  22
BRANCH  16  24
HETATM   24  O8  UNL     1      -3.103  -9.552  10.473  1.00  0.00    -0.388 OA
HETATM   25  H26 UNL     1      -2.825 -10.481  10.566  1.00  0.00     0.210 HD
ENDBRANCH  16  24
ENDBRANCH  10  11
ENDBRANCH   5  10
BRANCH   1  26
HETATM   26  C4  UNL     1      -2.839 -12.345   3.000  1.00  0.00     0.010 C 
HETATM   27  C3  UNL     1      -1.558 -12.598   2.670  1.00  0.00     0.003 C 
BRANCH  27  28
HETATM   28  C2  UNL     1      -1.042 -12.978   1.304  1.00  0.00     0.136 C 
HETATM   29  C1  UNL     1      -0.610 -14.441   1.260  1.00  0.00     0.043 C 
BRANCH  28  30
HETATM   30  O1  UNL     1       0.061 -12.162   0.926  1.00  0.00    -0.392 OA
HETATM   31  H5  UNL     1       0.794 -12.373   1.529  1.00  0.00     0.210 HD
ENDBRANCH  28  30
ENDBRANCH  27  28
ENDBRANCH   1  26
BRANCH   1  32
HETATM   32  O2  UNL     1      -4.634 -12.717   4.449  1.00  0.00    -0.385 OA
HETATM   33  H8  UNL     1      -4.432 -13.628   4.174  1.00  0.00     0.211 HD
ENDBRANCH   1  32
TORSDOF 11
ENDMDL
MODEL 7
REMARK minimizedAffinity -6.25198936
REMARK CNNscore 0.428089082
REMARK CNNaffinity 5.54282141
REMARK  11 active torsions:
REMARK  status: ('A' for Active; 'I' for Inactive)
REMARK    1  A    between atoms: C2_2  and  O1_3 
REMARK    2  A    between atoms: C2_2  and  C3_4 
REMARK    3  A    between atoms: C4_5  and  C5_6 
REMARK    4  A    between atoms: C5_6  and  O2_7 
REMARK    5  A    between atoms: C9_11  and  O3_12 
REMARK    6  A    between atoms: O3_12  and  C10_13 
REMARK    7  A    between atoms: C11_15  and  C12_16 
REMARK    8  A    between atoms: C12_16  and  O5_17 
REMARK    9  A    between atoms: C13_18  and  O6_19 
REMARK   10  A    between atoms: C14_20  and  O7_21 
REMARK   11  A    between atoms: C15_22  and  O8_23 
ROOT
HETATM    1  C5  UNL     1      -5.282   5.959  13.996  1.00  0.00     0.086 C 
HETATM    2  C6  UNL     1      -5.169   7.521  13.839  1.00  0.00     0.023 C 
HETATM    3  C7  UNL     1      -3.852   8.109  14.376  1.00  0.00     0.013 C 
HETATM    4  C8  UNL     1      -6.336   8.220  14.551  1.00  0.00     0.039 C 
HETATM    5  C9  UNL     1      -7.688   7.885  13.920  1.00  0.00     0.126 C 
HETATM    6  C16 UNL     1      -7.654   6.564  13.137  1.00  0.00     0.044 C 
HETATM    7  C17 UNL     1      -6.790   5.448  13.785  1.00  0.00    -0.010 C 
HETATM    8  C18 UNL     1      -7.445   5.001  15.117  1.00  0.00     0.018 C 
HETATM    9  C19 UNL     1      -6.894   4.218  12.843  1.00  0.00     0.018 C 
ENDROOT
BRANCH   5  10
HETATM   10  O3  UNL     1      -8.714   7.787  14.913  1.00  0.00    -0.353 OA
BRANCH  10  11
HETATM   11  C10 UNL     1      -9.992   8.281  14.499  1.00  0.00     0.292 C 
HETATM   12  O4  UNL     1     -10.261   9.572  15.035  1.00  0.00    -0.348 OA
HETATM   13  C11 UNL     1     -11.050   9.623  16.233  1.00  0.00     0.179 C 
HETATM   14  C13 UNL     1     -12.442   8.998  16.004  1.00  0.00     0.180 C 
HETATM   15  C14 UNL     1     -12.426   7.844  14.991  1.00  0.00     0.183 C 
HETATM   16  C15 UNL     1     -11.050   7.211  14.858  1.00  0.00     0.204 C 
BRANCH  13  17
HETATM   17  C12 UNL     1     -10.322   9.040  17.460  1.00  0.00     0.198 C 
BRANCH  17  18
HETATM   18  O5  UNL     1     -11.265   8.801  18.506  1.00  0.00    -0.398 OA
HETATM   19  H20 UNL     1     -10.931   9.242  19.315  1.00  0.00     0.209 HD
ENDBRANCH  17  18
ENDBRANCH  13  17
BRANCH  14  20
HETATM   20  O6  UNL     1     -13.330  10.001  15.465  1.00  0.00    -0.390 OA
HETATM   21  H22 UNL     1     -13.444  10.688  16.144  1.00  0.00     0.210 HD
ENDBRANCH  14  20
BRANCH  15  22
HETATM   22  O7  UNL     1     -13.365   6.833  15.403  1.00  0.00    -0.390 OA
HETATM   23  H24 UNL     1     -13.165   6.045  14.861  1.00  0.00     0.210 HD
ENDBRANCH  15  22
BRANCH  16  24
HETATM   24  O8  UNL     1     -11.121   6.153  13.876  1.00  0.00    -0.388 OA
HETATM   25  H26 UNL     1     -11.209   6.562  12.997  1.00  0.00     0.210 HD
ENDBRANCH  16  24
ENDBRANCH  10  11
ENDBRANCH   5  10
BRANCH   1  26
HETATM   26  C4  UNL     1      -4.279   5.185  13.148  1.00  0.00     0.010 C 
HETATM   27  C3  UNL     1      -4.193   3.857  12.944  1.00  0.00     0.003 C 
BRANCH  27  28
HETATM   28  C2  UNL     1      -3.167   3.145  12.099  1.00  0.00     0.136 C 
HETATM   29  C1  UNL     1      -3.096   3.736  10.693  1.00  0.00     0.043 C 
BRANCH  28  30
HETATM   30  O1  UNL     1      -3.457   1.755  11.998  1.00  0.00    -0.392 OA
HETATM   31  H5  UNL     1      -4.286   1.671  11.496  1.00  0.00     0.210 HD
ENDBRANCH  28  30
ENDBRANCH  27  28
ENDBRANCH   1  26
BRANCH   1  32
HETATM   32  O2  UNL     1      -4.901   5.651  15.352  1.00  0.00    -0.385 OA
HETATM   33  H8  UNL     1      -3.934   5.735  15.416  1.00  0.00     0.211 HD
ENDBRANCH   1  32
TORSDOF 11
ENDMDL
MODEL 8
REMARK minimizedAffinity -6.47450113
REMARK CNNscore 0.382418871
REMARK CNNaffinity 4.94521523
REMARK  11 active torsions:
REMARK  status: ('A' for Active; 'I' for Inactive)
REMARK    1  A    between atoms: C2_2  and  O1_3 
REMARK    2  A    between atoms: C2_2  and  C3_4 
REMARK    3  A    between atoms: C4_5  and  C5_6 
REMARK    4  A    between atoms: C5_6  and  O2_7 
REMARK    5  A    between atoms: C9_11  and  O3_12 
REMARK    6  A    between atoms: O3_12  and  C10_13 
REMARK    7  A    between atoms: C11_15  and  C12_16 
REMARK    8  A    between atoms: C12_16  and  O5_17 
REMARK    9  A    between atoms: C13_18  and  O6_19 
REMARK   10  A    between atoms: C14_20  and  O7_21 
REMARK   11  A    between atoms: C15_22  and  O8_23 
ROOT
HETATM    1  C5  UNL     1      -4.471   6.131  13.940  1.00  0.00     0.086 C 
HETATM    2  C6  UNL     1      -3.041   5.616  13.530  1.00  0.00     0.023 C 
HETATM    3  C7  UNL     1      -2.827   4.111  13.768  1.00  0.00     0.013 C 
HETATM    4  C8  UNL     1      -1.953   6.385  14.293  1.00  0.00     0.039 C 
HETATM    5  C9  UNL     1      -1.926   7.870  13.930  1.00  0.00     0.126 C 
HETATM    6  C16 UNL     1      -3.269   8.356  13.362  1.00  0.00     0.044 C 
HETATM    7  C17 UNL     1      -4.521   7.733  14.038  1.00  0.00    -0.010 C 
HETATM    8  C18 UNL     1      -4.609   8.224  15.505  1.00  0.00     0.018 C 
HETATM    9  C19 UNL     1      -5.751   8.353  13.322  1.00  0.00     0.018 C 
ENDROOT
BRANCH   5  10
HETATM   10  O3  UNL     1      -1.607   8.677  15.067  1.00  0.00    -0.353 OA
BRANCH  10  11
HETATM   11  C10 UNL     1      -0.211   8.952  15.230  1.00  0.00     0.292 C 
HETATM   12  O4  UNL     1       0.269   9.862  14.245  1.00  0.00    -0.348 OA
HETATM   13  C11 UNL     1       0.901   9.289  13.091  1.00  0.00     0.179 C 
HETATM   14  C13 UNL     1       2.140   8.462  13.495  1.00  0.00     0.180 C 
HETATM   15  C14 UNL     1       1.992   7.783  14.864  1.00  0.00     0.183 C 
HETATM   16  C15 UNL     1       0.535   7.599  15.263  1.00  0.00     0.204 C 
BRANCH  13  17
HETATM   17  C12 UNL     1      -0.076   8.510  12.190  1.00  0.00     0.198 C 
BRANCH  17  18
HETATM   18  O5  UNL     1      -0.570   9.370  11.162  1.00  0.00    -0.398 OA
HETATM   19  H20 UNL     1      -1.549   9.324  11.179  1.00  0.00     0.209 HD
ENDBRANCH  17  18
ENDBRANCH  13  17
BRANCH  14  20
HETATM   20  O6  UNL     1       3.284   9.338  13.596  1.00  0.00    -0.390 OA
HETATM   21  H22 UNL     1       3.464   9.689  12.707  1.00  0.00     0.210 HD
ENDBRANCH  14  20
BRANCH  15  22
HETATM   22  O7  UNL     1       2.631   6.493  14.829  1.00  0.00    -0.390 OA
HETATM   23  H24 UNL     1       2.328   6.023  15.631  1.00  0.00     0.210 HD
ENDBRANCH  15  22
BRANCH  16  24
HETATM   24  O8  UNL     1       0.489   6.974  16.565  1.00  0.00    -0.388 OA
HETATM   25  H26 UNL     1       0.768   7.632  17.227  1.00  0.00     0.210 HD
ENDBRANCH  16  24
ENDBRANCH  10  11
ENDBRANCH   5  10
BRANCH   1  26
HETATM   26  C4  UNL     1      -5.595   5.563  13.082  1.00  0.00     0.010 C 
HETATM   27  C3  UNL     1      -6.729   4.950  13.471  1.00  0.00     0.003 C 
BRANCH  27  28
HETATM   28  C2  UNL     1      -7.805   4.397  12.570  1.00  0.00     0.136 C 
HETATM   29  C1  UNL     1      -8.684   5.510  12.005  1.00  0.00     0.043 C 
BRANCH  28  30
HETATM   30  O1  UNL     1      -8.629   3.467  13.263  1.00  0.00    -0.392 OA
HETATM   31  H5  UNL     1      -9.115   3.967  13.943  1.00  0.00     0.210 HD
ENDBRANCH  28  30
ENDBRANCH  27  28
ENDBRANCH   1  26
BRANCH   1  32
HETATM   32  O2  UNL     1      -4.739   5.603  15.255  1.00  0.00    -0.385 OA
HETATM   33  H8  UNL     1      -4.945   4.657  15.160  1.00  0.00     0.211 HD
ENDBRANCH   1  32
TORSDOF 11
ENDMDL
MODEL 9
REMARK minimizedAffinity -7.18701744
REMARK CNNscore 0.342355758
REMARK CNNaffinity 4.35379934
REMARK  11 active torsions:
REMARK  status: ('A' for Active; 'I' for Inactive)
REMARK    1  A    between atoms: C2_2  and  O1_3 
REMARK    2  A    between atoms: C2_2  and  C3_4 
REMARK    3  A    between atoms: C4_5  and  C5_6 
REMARK    4  A    between atoms: C5_6  and  O2_7 
REMARK    5  A    between atoms: C9_11  and  O3_12 
REMARK    6  A    between atoms: O3_12  and  C10_13 
REMARK    7  A    between atoms: C11_15  and  C12_16 
REMARK    8  A    between atoms: C12_16  and  O5_17 
REMARK    9  A    between atoms: C13_18  and  O6_19 
REMARK   10  A    between atoms: C14_20  and  O7_21 
REMARK   11  A    between atoms: C15_22  and  O8_23 
ROOT
HETATM    1  C5  UNL     1      -4.133 -10.585   4.209  1.00  0.00     0.086 C 
HETATM    2  C6  UNL     1      -5.699 -10.574   4.044  1.00  0.00     0.023 C 
HETATM    3  C7  UNL     1      -6.186  -9.882   2.759  1.00  0.00     0.013 C 
HETATM    4  C8  UNL     1      -6.362  -9.886   5.245  1.00  0.00     0.039 C 
HETATM    5  C9  UNL     1      -6.136 -10.648   6.551  1.00  0.00     0.126 C 
HETATM    6  C16 UNL     1      -4.898 -11.556   6.490  1.00  0.00     0.044 C 
HETATM    7  C17 UNL     1      -3.696 -10.960   5.708  1.00  0.00    -0.010 C 
HETATM    8  C18 UNL     1      -3.142  -9.733   6.477  1.00  0.00     0.018 C 
HETATM    9  C19 UNL     1      -2.569 -12.027   5.770  1.00  0.00     0.018 C 
ENDROOT
BRANCH   5  10
HETATM   10  O3  UNL     1      -5.975  -9.751   7.655  1.00  0.00    -0.353 OA
BRANCH  10  11
HETATM   11  C10 UNL     1      -5.904 -10.388   8.935  1.00  0.00     0.292 C 
HETATM   12  O4  UNL     1      -7.151 -10.343   9.620  1.00  0.00    -0.348 OA
HETATM   13  C11 UNL     1      -7.325  -9.286  10.576  1.00  0.00     0.179 C 
HETATM   14  C13 UNL     1      -6.267  -9.375  11.696  1.00  0.00     0.180 C 
HETATM   15  C14 UNL     1      -4.921  -9.930  11.211  1.00  0.00     0.183 C 
HETATM   16  C15 UNL     1      -4.728  -9.752   9.712  1.00  0.00     0.204 C 
BRANCH  13  17
HETATM   17  C12 UNL     1      -7.399  -7.890   9.926  1.00  0.00     0.198 C 
BRANCH  17  18
HETATM   18  O5  UNL     1      -7.023  -6.897  10.881  1.00  0.00    -0.398 OA
HETATM   19  H20 UNL     1      -7.733  -6.223  10.905  1.00  0.00     0.209 HD
ENDBRANCH  17  18
ENDBRANCH  13  17
BRANCH  14  20
HETATM   20  O6  UNL     1      -6.735 -10.279  12.720  1.00  0.00    -0.390 OA
HETATM   21  H22 UNL     1      -7.529  -9.883  13.121  1.00  0.00     0.210 HD
ENDBRANCH  14  20
BRANCH  15  22
HETATM   22  O7  UNL     1      -3.850  -9.258  11.900  1.00  0.00    -0.390 OA
HETATM   23  H24 UNL     1      -3.033  -9.484  11.413  1.00  0.00     0.210 HD
ENDBRANCH  15  22
BRANCH  16  24
HETATM   24  O8  UNL     1      -3.451 -10.317   9.341  1.00  0.00    -0.388 OA
HETATM   25  H26 UNL     1      -3.522 -11.287   9.392  1.00  0.00     0.210 HD
ENDBRANCH  16  24
ENDBRANCH  10  11
ENDBRANCH   5  10
BRANCH   1  26
HETATM   26  C4  UNL     1      -3.414 -11.428   3.163  1.00  0.00     0.010 C 
HETATM   27  C3  UNL     1      -2.165 -11.288   2.678  1.00  0.00     0.003 C 
BRANCH  27  28
HETATM   28  C2  UNL     1      -1.508 -12.151   1.630  1.00  0.00     0.136 C 
HETATM   29  C1  UNL     1      -1.537 -13.625   2.025  1.00  0.00     0.043 C 
BRANCH  28  30
HETATM   30  O1  UNL     1      -0.157 -11.760   1.414  1.00  0.00    -0.392 OA
HETATM   31  H5  UNL     1       0.332 -11.957   2.232  1.00  0.00     0.210 HD
ENDBRANCH  28  30
ENDBRANCH  27  28
ENDBRANCH   1  26
BRANCH   1  32
HETATM   32  O2  UNL     1      -3.680  -9.242   3.944  1.00  0.00    -0.385 OA
HETATM   33  H8  UNL     1      -3.726  -9.097   2.983  1.00  0.00     0.211 HD
ENDBRANCH   1  32
TORSDOF 11
ENDMDL
