MODEL 1
REMARK minimizedAffinity -7.13689423
REMARK CNNscore 0.35566783
REMARK CNNaffinity 6.72889328
REMARK  12 active torsions:
REMARK  status: ('A' for Active; 'I' for Inactive)
REMARK    1  A    between atoms: O1_2  and  C2_3 
REMARK    2  A    between atoms: C3_6  and  C4_7 
REMARK    3  A    between atoms: C4_7  and  C5_8 
REMARK    4  A    between atoms: C6_9  and  C8_11 
REMARK    5  A    between atoms: C8_11  and  C9_12 
REMARK    6  A    between atoms: C10_13  and  C11_14 
REMARK    7  A    between atoms: C13_16  and  C14_17 
REMARK    8  A    between atoms: C14_17  and  C16_19 
REMARK    9  A    between atoms: C16_19  and  O2_20 
REMARK   10  A    between atoms: C16_19  and  C18_22 
REMARK   11  A    between atoms: C24_29  and  O4_30 
REMARK   12  A    between atoms: C25_31  and  O5_32 
ROOT
HETATM    1  C5  UNL     1      -7.677   5.222  13.161  1.00  0.00    -0.018 C 
HETATM    2  C6  UNL     1      -7.818   5.711  14.411  1.00  0.00    -0.084 C 
HETATM    3  C7  UNL     1      -7.591   4.912  15.668  1.00  0.00     0.043 C 
ENDROOT
BRANCH   2   4
HETATM    4  C8  UNL     1      -8.286   7.137  14.634  1.00  0.00     0.060 C 
BRANCH   4   5
HETATM    5  C9  UNL     1      -7.135   8.105  14.698  1.00  0.00    -0.022 C 
HETATM    6  C10 UNL     1      -5.891   7.801  14.291  1.00  0.00     0.003 C 
BRANCH   6   7
HETATM    7  C11 UNL     1      -4.723   8.685  14.304  1.00  0.00    -0.066 C 
HETATM    8  C12 UNL     1      -3.917   8.783  13.036  1.00  0.00     0.048 C 
HETATM    9  C13 UNL     1      -4.452   9.361  15.442  1.00  0.00    -0.013 C 
BRANCH   9  10
HETATM   10  C14 UNL     1      -3.318  10.322  15.788  1.00  0.00     0.037 C 
HETATM   11  C15 UNL     1      -3.794  11.779  15.814  1.00  0.00     0.017 C 
BRANCH  10  12
HETATM   12  C16 UNL     1      -2.530   9.868  17.049  1.00  0.00     0.165 C 
BRANCH  12  13
HETATM   13  O2  UNL     1      -1.159   9.655  16.650  1.00  0.00    -0.387 OA
HETATM   14  C17 UNL     1      -0.971   9.764  15.246  1.00  0.00     0.202 C 
ENDBRANCH  12  13
BRANCH  12  15
HETATM   15  C18 UNL     1      -2.527  10.885  18.180  1.00  0.00     0.110 A 
HETATM   16  C19 UNL     1      -3.803  11.088  18.944  1.00  0.00     0.051 C 
HETATM   17  O3  UNL     1      -1.339  10.877  18.994  1.00  0.00    -0.367 OA
HETATM   18  C20 UNL     1      -1.487  12.001  18.122  1.00  0.00     0.155 A 
HETATM   19  C21 UNL     1      -1.640  13.307  18.815  1.00  0.00     0.042 C 
ENDBRANCH  12  15
ENDBRANCH  10  12
ENDBRANCH   9  10
ENDBRANCH   6   7
ENDBRANCH   4   5
ENDBRANCH   2   4
BRANCH   1  20
HETATM   20  C4  UNL     1      -7.227   3.843  12.739  1.00  0.00     0.085 C 
BRANCH  20  21
HETATM   21  C3  UNL     1      -5.722   3.695  12.557  1.00  0.00     0.023 A 
HETATM   22  N1  UNL     1      -4.944   4.685  13.082  1.00  0.00    -0.337 N 
HETATM   23  C2  UNL     1      -3.603   4.605  12.934  1.00  0.00     0.179 A 
ATOM     24  H1  UNL     1      -5.367   5.471  13.576  1.00  0.00     0.168 HD
HETATM   25  C25 UNL     1      -2.972   3.539  12.309  1.00  0.00     0.153 A 
HETATM   26  C24 UNL     1      -3.786   2.538  11.781  1.00  0.00     0.111 A 
HETATM   27  C22 UNL     1      -5.175   2.570  11.921  1.00  0.00    -0.003 A 
HETATM   28  C23 UNL     1      -6.027   1.475  11.347  1.00  0.00     0.053 C 
BRANCH  23  29
HETATM   29  O1  UNL     1      -2.822   5.641  13.403  1.00  0.00    -0.339 OA
HETATM   30  C1  UNL     1      -2.596   5.590  14.806  1.00  0.00     0.211 C 
ENDBRANCH  23  29
BRANCH  25  31
HETATM   31  O5  UNL     1      -1.622   3.407  12.108  1.00  0.00    -0.349 OA
HETATM   32  C26 UNL     1      -1.132   4.328  11.132  1.00  0.00     0.210 C 
ENDBRANCH  25  31
BRANCH  26  33
HETATM   33  O4  UNL     1      -3.197   1.491  11.113  1.00  0.00    -0.357 OA
HETATM   34  H36 UNL     1      -2.253   1.736  11.023  1.00  0.00     0.217 HD
ENDBRANCH  26  33
ENDBRANCH  20  21
ENDBRANCH   1  20
TORSDOF 12
ENDMDL
MODEL 2
REMARK minimizedAffinity -8.18904972
REMARK CNNscore 0.250591367
REMARK CNNaffinity 6.21528673
REMARK  12 active torsions:
REMARK  status: ('A' for Active; 'I' for Inactive)
REMARK    1  A    between atoms: O1_2  and  C2_3 
REMARK    2  A    between atoms: C3_6  and  C4_7 
REMARK    3  A    between atoms: C4_7  and  C5_8 
REMARK    4  A    between atoms: C6_9  and  C8_11 
REMARK    5  A    between atoms: C8_11  and  C9_12 
REMARK    6  A    between atoms: C10_13  and  C11_14 
REMARK    7  A    between atoms: C13_16  and  C14_17 
REMARK    8  A    between atoms: C14_17  and  C16_19 
REMARK    9  A    between atoms: C16_19  and  O2_20 
REMARK   10  A    between atoms: C16_19  and  C18_22 
REMARK   11  A    between atoms: C24_29  and  O4_30 
REMARK   12  A    between atoms: C25_31  and  O5_32 
ROOT
HETATM    1  C5  UNL     1      -5.739   3.666  12.454  1.00  0.00    -0.018 C 
HETATM    2  C6  UNL     1      -5.095   2.690  11.780  1.00  0.00    -0.084 C 
HETATM    3  C7  UNL     1      -5.733   1.401  11.333  1.00  0.00     0.043 C 
ENDROOT
BRANCH   2   4
HETATM    4  C8  UNL     1      -3.616   2.815  11.468  1.00  0.00     0.060 C 
BRANCH   4   5
HETATM    5  C9  UNL     1      -3.089   4.193  11.774  1.00  0.00    -0.022 C 
HETATM    6  C10 UNL     1      -1.820   4.566  11.542  1.00  0.00     0.003 C 
BRANCH   6   7
HETATM    7  C11 UNL     1      -1.233   5.885  11.794  1.00  0.00    -0.066 C 
HETATM    8  C12 UNL     1      -2.022   6.839  12.650  1.00  0.00     0.048 C 
HETATM    9  C13 UNL     1      -0.024   6.155  11.255  1.00  0.00    -0.013 C 
BRANCH   9  10
HETATM   10  C14 UNL     1       0.833   7.417  11.304  1.00  0.00     0.037 C 
HETATM   11  C15 UNL     1       1.329   7.714  12.723  1.00  0.00     0.017 C 
BRANCH  10  12
HETATM   12  C16 UNL     1       1.939   7.416  10.210  1.00  0.00     0.165 C 
BRANCH  12  13
HETATM   13  O2  UNL     1       2.405   6.057  10.067  1.00  0.00    -0.387 OA
HETATM   14  C17 UNL     1       3.753   5.891  10.483  1.00  0.00     0.202 C 
ENDBRANCH  12  13
BRANCH  12  15
HETATM   15  C18 UNL     1       1.462   7.885   8.844  1.00  0.00     0.110 A 
HETATM   16  C19 UNL     1       0.059   8.405   8.731  1.00  0.00     0.051 C 
HETATM   17  O3  UNL     1       2.437   8.628   8.089  1.00  0.00    -0.367 OA
HETATM   18  C20 UNL     1       2.161   7.306   7.616  1.00  0.00     0.155 A 
HETATM   19  C21 UNL     1       1.542   7.247   6.267  1.00  0.00     0.042 C 
ENDBRANCH  12  15
ENDBRANCH  10  12
ENDBRANCH   9  10
ENDBRANCH   6   7
ENDBRANCH   4   5
ENDBRANCH   2   4
BRANCH   1  20
HETATM   20  C4  UNL     1      -7.195   3.725  12.854  1.00  0.00     0.085 C 
BRANCH  20  21
HETATM   21  C3  UNL     1      -7.629   5.044  13.479  1.00  0.00     0.023 A 
HETATM   22  N1  UNL     1      -8.956   5.346  13.407  1.00  0.00    -0.337 N 
HETATM   23  C2  UNL     1      -9.388   6.512  13.937  1.00  0.00     0.179 A 
ATOM     24  H1  UNL     1      -9.612   4.703  12.961  1.00  0.00     0.168 HD
HETATM   25  C25 UNL     1      -8.549   7.403  14.592  1.00  0.00     0.153 A 
HETATM   26  C24 UNL     1      -7.197   7.074  14.656  1.00  0.00     0.111 A 
HETATM   27  C22 UNL     1      -6.706   5.874  14.135  1.00  0.00    -0.003 A 
HETATM   28  C23 UNL     1      -5.244   5.543  14.223  1.00  0.00     0.053 C 
BRANCH  23  29
HETATM   29  O1  UNL     1     -10.719   6.849  13.800  1.00  0.00    -0.339 OA
HETATM   30  C1  UNL     1     -11.028   7.430  12.539  1.00  0.00     0.211 C 
ENDBRANCH  23  29
BRANCH  25  31
HETATM   31  O5  UNL     1      -8.918   8.608  15.131  1.00  0.00    -0.349 OA
HETATM   32  C26 UNL     1      -9.578   8.454  16.389  1.00  0.00     0.210 C 
ENDBRANCH  25  31
BRANCH  26  33
HETATM   33  O4  UNL     1      -6.329   7.956  15.254  1.00  0.00    -0.357 OA
HETATM   34  H36 UNL     1      -6.854   8.765  15.424  1.00  0.00     0.217 HD
ENDBRANCH  26  33
ENDBRANCH  20  21
ENDBRANCH   1  20
TORSDOF 12
ENDMDL
MODEL 3
REMARK minimizedAffinity -6.39300823
REMARK CNNscore 0.245407373
REMARK CNNaffinity 6.46440125
REMARK  12 active torsions:
REMARK  status: ('A' for Active; 'I' for Inactive)
REMARK    1  A    between atoms: O1_2  and  C2_3 
REMARK    2  A    between atoms: C3_6  and  C4_7 
REMARK    3  A    between atoms: C4_7  and  C5_8 
REMARK    4  A    between atoms: C6_9  and  C8_11 
REMARK    5  A    between atoms: C8_11  and  C9_12 
REMARK    6  A    between atoms: C10_13  and  C11_14 
REMARK    7  A    between atoms: C13_16  and  C14_17 
REMARK    8  A    between atoms: C14_17  and  C16_19 
REMARK    9  A    between atoms: C16_19  and  O2_20 
REMARK   10  A    between atoms: C16_19  and  C18_22 
REMARK   11  A    between atoms: C24_29  and  O4_30 
REMARK   12  A    between atoms: C25_31  and  O5_32 
ROOT
HETATM    1  C5  UNL     1      -6.316   5.754  13.322  1.00  0.00    -0.018 C 
HETATM    2  C6  UNL     1      -6.942   6.147  14.451  1.00  0.00    -0.084 C 
HETATM    3  C7  UNL     1      -7.401   5.213  15.540  1.00  0.00     0.043 C 
ENDROOT
BRANCH   2   4
HETATM    4  C8  UNL     1      -7.283   7.609  14.675  1.00  0.00     0.060 C 
BRANCH   4   5
HETATM    5  C9  UNL     1      -6.053   8.479  14.688  1.00  0.00    -0.022 C 
HETATM    6  C10 UNL     1      -5.044   8.318  15.560  1.00  0.00     0.003 C 
BRANCH   6   7
HETATM    7  C11 UNL     1      -3.811   9.107  15.630  1.00  0.00    -0.066 C 
HETATM    8  C12 UNL     1      -3.353   9.786  14.367  1.00  0.00     0.048 C 
HETATM    9  C13 UNL     1      -3.175   9.184  16.819  1.00  0.00    -0.013 C 
BRANCH   9  10
HETATM   10  C14 UNL     1      -1.880   9.888  17.216  1.00  0.00     0.037 C 
HETATM   11  C15 UNL     1      -0.672   9.330  16.457  1.00  0.00     0.017 C 
BRANCH  10  12
HETATM   12  C16 UNL     1      -2.021  11.437  17.175  1.00  0.00     0.165 C 
BRANCH  12  13
HETATM   13  O2  UNL     1      -3.242  11.779  17.865  1.00  0.00    -0.387 OA
HETATM   14  C17 UNL     1      -3.555  10.872  18.913  1.00  0.00     0.202 C 
ENDBRANCH  12  13
BRANCH  12  15
HETATM   15  C18 UNL     1      -0.884  12.183  17.856  1.00  0.00     0.110 A 
HETATM   16  C19 UNL     1       0.128  12.867  16.984  1.00  0.00     0.051 C 
HETATM   17  O3  UNL     1      -1.269  12.932  19.024  1.00  0.00    -0.367 OA
HETATM   18  C20 UNL     1      -0.503  11.750  19.270  1.00  0.00     0.155 A 
HETATM   19  C21 UNL     1       0.833  11.992  19.874  1.00  0.00     0.042 C 
ENDBRANCH  12  15
ENDBRANCH  10  12
ENDBRANCH   9  10
ENDBRANCH   6   7
ENDBRANCH   4   5
ENDBRANCH   2   4
BRANCH   1  20
HETATM   20  C4  UNL     1      -5.896   4.359  12.922  1.00  0.00     0.085 C 
BRANCH  20  21
HETATM   21  C3  UNL     1      -4.452   4.241  12.453  1.00  0.00     0.023 A 
HETATM   22  N1  UNL     1      -3.497   4.742  13.287  1.00  0.00    -0.337 N 
HETATM   23  C2  UNL     1      -2.201   4.673  12.908  1.00  0.00     0.179 A 
ATOM     24  H1  UNL     1      -3.756   5.162  14.180  1.00  0.00     0.168 HD
HETATM   25  C25 UNL     1      -1.789   4.075  11.726  1.00  0.00     0.153 A 
HETATM   26  C24 UNL     1      -2.781   3.568  10.889  1.00  0.00     0.111 A 
HETATM   27  C22 UNL     1      -4.131   3.604  11.244  1.00  0.00    -0.003 A 
HETATM   28  C23 UNL     1      -5.179   3.045  10.324  1.00  0.00     0.053 C 
BRANCH  23  29
HETATM   29  O1  UNL     1      -1.243   5.244  13.720  1.00  0.00    -0.339 OA
HETATM   30  C1  UNL     1      -1.788   6.052  14.756  1.00  0.00     0.211 C 
ENDBRANCH  23  29
BRANCH  25  31
HETATM   31  O5  UNL     1      -0.497   3.990  11.275  1.00  0.00    -0.349 OA
HETATM   32  C26 UNL     1       0.049   5.274  10.965  1.00  0.00     0.210 C 
ENDBRANCH  25  31
BRANCH  26  33
HETATM   33  O4  UNL     1      -2.412   3.012   9.688  1.00  0.00    -0.357 OA
HETATM   34  H36 UNL     1      -1.457   3.208   9.591  1.00  0.00     0.217 HD
ENDBRANCH  26  33
ENDBRANCH  20  21
ENDBRANCH   1  20
TORSDOF 12
ENDMDL
MODEL 4
REMARK minimizedAffinity -6.53112221
REMARK CNNscore 0.220458731
REMARK CNNaffinity 5.3520298
REMARK  12 active torsions:
REMARK  status: ('A' for Active; 'I' for Inactive)
REMARK    1  A    between atoms: O1_2  and  C2_3 
REMARK    2  A    between atoms: C3_6  and  C4_7 
REMARK    3  A    between atoms: C4_7  and  C5_8 
REMARK    4  A    between atoms: C6_9  and  C8_11 
REMARK    5  A    between atoms: C8_11  and  C9_12 
REMARK    6  A    between atoms: C10_13  and  C11_14 
REMARK    7  A    between atoms: C13_16  and  C14_17 
REMARK    8  A    between atoms: C14_17  and  C16_19 
REMARK    9  A    between atoms: C16_19  and  O2_20 
REMARK   10  A    between atoms: C16_19  and  C18_22 
REMARK   11  A    between atoms: C24_29  and  O4_30 
REMARK   12  A    between atoms: C25_31  and  O5_32 
ROOT
HETATM    1  C5  UNL     1      -1.753   5.883  13.879  1.00  0.00    -0.018 C 
HETATM    2  C6  UNL     1      -0.640   6.506  14.323  1.00  0.00    -0.084 C 
HETATM    3  C7  UNL     1       0.750   6.228  13.815  1.00  0.00     0.043 C 
ENDROOT
BRANCH   2   4
HETATM    4  C8  UNL     1      -0.722   7.525  15.444  1.00  0.00     0.060 C 
BRANCH   4   5
HETATM    5  C9  UNL     1       0.612   8.164  15.723  1.00  0.00    -0.022 C 
HETATM    6  C10 UNL     1       0.762   9.257  16.492  1.00  0.00     0.003 C 
BRANCH   6   7
HETATM    7  C11 UNL     1       2.019   9.930  16.824  1.00  0.00    -0.066 C 
HETATM    8  C12 UNL     1       3.177   9.734  15.883  1.00  0.00     0.048 C 
HETATM    9  C13 UNL     1       2.057  10.688  17.942  1.00  0.00    -0.013 C 
BRANCH   9  10
HETATM   10  C14 UNL     1       3.196  11.484  18.572  1.00  0.00     0.037 C 
HETATM   11  C15 UNL     1       3.620  12.666  17.693  1.00  0.00     0.017 C 
BRANCH  10  12
HETATM   12  C16 UNL     1       2.907  11.843  20.058  1.00  0.00     0.165 C 
BRANCH  12  13
HETATM   13  O2  UNL     1       1.494  12.118  20.169  1.00  0.00    -0.387 OA
HETATM   14  C17 UNL     1       1.217  13.492  20.401  1.00  0.00     0.202 C 
ENDBRANCH  12  13
BRANCH  12  15
HETATM   15  C18 UNL     1       3.238  10.732  21.042  1.00  0.00     0.110 A 
HETATM   16  C19 UNL     1       2.134   9.797  21.442  1.00  0.00     0.051 C 
HETATM   17  O3  UNL     1       4.511  10.095  20.824  1.00  0.00    -0.367 OA
HETATM   18  C20 UNL     1       4.430  10.945  21.971  1.00  0.00     0.155 A 
HETATM   19  C21 UNL     1       4.595  10.247  23.273  1.00  0.00     0.042 C 
ENDBRANCH  12  15
ENDBRANCH  10  12
ENDBRANCH   9  10
ENDBRANCH   6   7
ENDBRANCH   4   5
ENDBRANCH   2   4
BRANCH   1  20
HETATM   20  C4  UNL     1      -1.874   4.850  12.783  1.00  0.00     0.085 C 
BRANCH  20  21
HETATM   21  C3  UNL     1      -3.269   4.263  12.616  1.00  0.00     0.023 A 
HETATM   22  N1  UNL     1      -4.294   4.955  13.190  1.00  0.00    -0.337 N 
HETATM   23  C2  UNL     1      -5.551   4.466  13.080  1.00  0.00     0.179 A 
ATOM     24  H1  UNL     1      -4.117   5.825  13.693  1.00  0.00     0.168 HD
HETATM   25  C25 UNL     1      -5.854   3.312  12.373  1.00  0.00     0.153 A 
HETATM   26  C24 UNL     1      -4.792   2.622  11.793  1.00  0.00     0.111 A 
HETATM   27  C22 UNL     1      -3.480   3.095  11.867  1.00  0.00    -0.003 A 
HETATM   28  C23 UNL     1      -2.354   2.333  11.228  1.00  0.00     0.053 C 
BRANCH  23  29
HETATM   29  O1  UNL     1      -6.577   5.128  13.722  1.00  0.00    -0.339 OA
HETATM   30  C1  UNL     1      -6.139   5.924  14.817  1.00  0.00     0.211 C 
ENDBRANCH  23  29
BRANCH  25  31
HETATM   31  O5  UNL     1      -7.100   2.754  12.241  1.00  0.00    -0.349 OA
HETATM   32  C26 UNL     1      -8.112   3.546  12.864  1.00  0.00     0.210 C 
ENDBRANCH  25  31
BRANCH  26  33
HETATM   33  O4  UNL     1      -5.051   1.449  11.125  1.00  0.00    -0.357 OA
HETATM   34  H36 UNL     1      -5.992   1.247  11.307  1.00  0.00     0.217 HD
ENDBRANCH  26  33
ENDBRANCH  20  21
ENDBRANCH   1  20
TORSDOF 12
ENDMDL
MODEL 5
REMARK minimizedAffinity -7.17544127
REMARK CNNscore 0.21417287
REMARK CNNaffinity 6.34230566
REMARK  12 active torsions:
REMARK  status: ('A' for Active; 'I' for Inactive)
REMARK    1  A    between atoms: O1_2  and  C2_3 
REMARK    2  A    between atoms: C3_6  and  C4_7 
REMARK    3  A    between atoms: C4_7  and  C5_8 
REMARK    4  A    between atoms: C6_9  and  C8_11 
REMARK    5  A    between atoms: C8_11  and  C9_12 
REMARK    6  A    between atoms: C10_13  and  C11_14 
REMARK    7  A    between atoms: C13_16  and  C14_17 
REMARK    8  A    between atoms: C14_17  and  C16_19 
REMARK    9  A    between atoms: C16_19  and  O2_20 
REMARK   10  A    between atoms: C16_19  and  C18_22 
REMARK   11  A    between atoms: C24_29  and  O4_30 
REMARK   12  A    between atoms: C25_31  and  O5_32 
ROOT
HETATM    1  C5  UNL     1      -2.515   3.526  11.427  1.00  0.00    -0.018 C 
HETATM    2  C6  UNL     1      -1.381   2.806  11.298  1.00  0.00    -0.084 C 
HETATM    3  C7  UNL     1      -1.331   1.367  10.854  1.00  0.00     0.043 C 
ENDROOT
BRANCH   2   4
HETATM    4  C8  UNL     1      -0.038   3.412  11.660  1.00  0.00     0.060 C 
BRANCH   4   5
HETATM    5  C9  UNL     1      -0.151   4.877  11.990  1.00  0.00    -0.022 C 
HETATM    6  C10 UNL     1       0.187   5.855  11.133  1.00  0.00     0.003 C 
BRANCH   6   7
HETATM    7  C11 UNL     1       0.094   7.298  11.367  1.00  0.00    -0.066 C 
HETATM    8  C12 UNL     1       0.110   8.197  10.159  1.00  0.00     0.048 C 
HETATM    9  C13 UNL     1      -0.012   7.728  12.644  1.00  0.00    -0.013 C 
BRANCH   9  10
HETATM   10  C14 UNL     1      -0.100   9.138  13.220  1.00  0.00     0.037 C 
HETATM   11  C15 UNL     1      -1.546   9.643  13.273  1.00  0.00     0.017 C 
BRANCH  10  12
HETATM   12  C16 UNL     1       0.692   9.277  14.551  1.00  0.00     0.165 C 
BRANCH  12  13
HETATM   13  O2  UNL     1       1.067  10.663  14.689  1.00  0.00    -0.387 OA
HETATM   14  C17 UNL     1       2.440  10.893  14.405  1.00  0.00     0.202 C 
ENDBRANCH  12  13
BRANCH  12  15
HETATM   15  C18 UNL     1      -0.102   8.890  15.790  1.00  0.00     0.110 A 
HETATM   16  C19 UNL     1      -0.586   7.473  15.899  1.00  0.00     0.051 C 
HETATM   17  O3  UNL     1       0.394   9.448  17.021  1.00  0.00    -0.367 OA
HETATM   18  C20 UNL     1      -0.832  10.003  16.536  1.00  0.00     0.155 A 
HETATM   19  C21 UNL     1      -2.008   9.773  17.416  1.00  0.00     0.042 C 
ENDBRANCH  12  15
ENDBRANCH  10  12
ENDBRANCH   9  10
ENDBRANCH   6   7
ENDBRANCH   4   5
ENDBRANCH   2   4
BRANCH   1  20
HETATM   20  C4  UNL     1      -3.933   3.103  11.119  1.00  0.00     0.085 C 
BRANCH  20  21
HETATM   21  C3  UNL     1      -4.990   3.722  12.023  1.00  0.00     0.023 A 
HETATM   22  N1  UNL     1      -4.687   4.931  12.576  1.00  0.00    -0.337 N 
HETATM   23  C2  UNL     1      -5.589   5.516  13.396  1.00  0.00     0.179 A 
ATOM     24  H1  UNL     1      -3.796   5.385  12.375  1.00  0.00     0.168 HD
HETATM   25  C25 UNL     1      -6.832   4.964  13.671  1.00  0.00     0.153 A 
HETATM   26  C24 UNL     1      -7.122   3.729  13.094  1.00  0.00     0.111 A 
HETATM   27  C22 UNL     1      -6.228   3.093  12.229  1.00  0.00    -0.003 A 
HETATM   28  C23 UNL     1      -6.569   1.765  11.617  1.00  0.00     0.053 C 
BRANCH  23  29
HETATM   29  O1  UNL     1      -5.252   6.704  14.012  1.00  0.00    -0.339 OA
HETATM   30  C1  UNL     1      -3.848   6.922  14.088  1.00  0.00     0.211 C 
ENDBRANCH  23  29
BRANCH  25  31
HETATM   31  O5  UNL     1      -7.781   5.493  14.507  1.00  0.00    -0.349 OA
HETATM   32  C26 UNL     1      -7.467   5.272  15.883  1.00  0.00     0.210 C 
ENDBRANCH  25  31
BRANCH  26  33
HETATM   33  O4  UNL     1      -8.325   3.131  13.382  1.00  0.00    -0.357 OA
HETATM   34  H36 UNL     1      -8.724   3.675  14.092  1.00  0.00     0.217 HD
ENDBRANCH  26  33
ENDBRANCH  20  21
ENDBRANCH   1  20
TORSDOF 12
ENDMDL
MODEL 6
REMARK minimizedAffinity -7.92310381
REMARK CNNscore 0.202829495
REMARK CNNaffinity 6.13509703
REMARK  12 active torsions:
REMARK  status: ('A' for Active; 'I' for Inactive)
REMARK    1  A    between atoms: O1_2  and  C2_3 
REMARK    2  A    between atoms: C3_6  and  C4_7 
REMARK    3  A    between atoms: C4_7  and  C5_8 
REMARK    4  A    between atoms: C6_9  and  C8_11 
REMARK    5  A    between atoms: C8_11  and  C9_12 
REMARK    6  A    between atoms: C10_13  and  C11_14 
REMARK    7  A    between atoms: C13_16  and  C14_17 
REMARK    8  A    between atoms: C14_17  and  C16_19 
REMARK    9  A    between atoms: C16_19  and  O2_20 
REMARK   10  A    between atoms: C16_19  and  C18_22 
REMARK   11  A    between atoms: C24_29  and  O4_30 
REMARK   12  A    between atoms: C25_31  and  O5_32 
ROOT
HETATM    1  C5  UNL     1      -3.903   3.390  11.651  1.00  0.00    -0.018 C 
HETATM    2  C6  UNL     1      -3.091   2.317  11.544  1.00  0.00    -0.084 C 
HETATM    3  C7  UNL     1      -3.560   0.886  11.605  1.00  0.00     0.043 C 
ENDROOT
BRANCH   2   4
HETATM    4  C8  UNL     1      -1.591   2.494  11.405  1.00  0.00     0.060 C 
BRANCH   4   5
HETATM    5  C9  UNL     1      -1.142   3.863  11.842  1.00  0.00    -0.022 C 
HETATM    6  C10 UNL     1      -0.109   4.515  11.283  1.00  0.00     0.003 C 
BRANCH   6   7
HETATM    7  C11 UNL     1       0.381   5.850  11.637  1.00  0.00    -0.066 C 
HETATM    8  C12 UNL     1      -0.482   6.684  12.544  1.00  0.00     0.048 C 
HETATM    9  C13 UNL     1       1.575   6.240  11.139  1.00  0.00    -0.013 C 
BRANCH   9  10
HETATM   10  C14 UNL     1       2.341   7.551  11.291  1.00  0.00     0.037 C 
HETATM   11  C15 UNL     1       3.236   7.547  12.535  1.00  0.00     0.017 C 
BRANCH  10  12
HETATM   12  C16 UNL     1       3.054   7.968   9.973  1.00  0.00     0.165 C 
BRANCH  12  13
HETATM   13  O2  UNL     1       4.041   6.958   9.675  1.00  0.00    -0.387 OA
HETATM   14  C17 UNL     1       3.597   5.645   9.990  1.00  0.00     0.202 C 
ENDBRANCH  12  13
BRANCH  12  15
HETATM   15  C18 UNL     1       2.126   8.073   8.771  1.00  0.00     0.110 A 
HETATM   16  C19 UNL     1       0.664   8.288   9.031  1.00  0.00     0.051 C 
HETATM   17  O3  UNL     1       2.655   8.831   7.667  1.00  0.00    -0.367 OA
HETATM   18  C20 UNL     1       2.581   7.417   7.470  1.00  0.00     0.155 A 
HETATM   19  C21 UNL     1       1.650   6.989   6.394  1.00  0.00     0.042 C 
ENDBRANCH  12  15
ENDBRANCH  10  12
ENDBRANCH   9  10
ENDBRANCH   6   7
ENDBRANCH   4   5
ENDBRANCH   2   4
BRANCH   1  20
HETATM   20  C4  UNL     1      -5.406   3.418  11.795  1.00  0.00     0.085 C 
BRANCH  20  21
HETATM   21  C3  UNL     1      -5.937   4.523  12.697  1.00  0.00     0.023 A 
HETATM   22  N1  UNL     1      -5.061   5.513  13.029  1.00  0.00    -0.337 N 
HETATM   23  C2  UNL     1      -5.482   6.511  13.839  1.00  0.00     0.179 A 
ATOM     24  H1  UNL     1      -4.105   5.502  12.672  1.00  0.00     0.168 HD
HETATM   25  C25 UNL     1      -6.781   6.599  14.318  1.00  0.00     0.153 A 
HETATM   26  C24 UNL     1      -7.661   5.577  13.966  1.00  0.00     0.111 A 
HETATM   27  C22 UNL     1      -7.276   4.534  13.120  1.00  0.00    -0.003 A 
HETATM   28  C23 UNL     1      -8.247   3.449  12.753  1.00  0.00     0.053 C 
BRANCH  23  29
HETATM   29  O1  UNL     1      -4.575   7.473  14.231  1.00  0.00    -0.339 OA
HETATM   30  C1  UNL     1      -4.351   8.474  13.245  1.00  0.00     0.211 C 
ENDBRANCH  23  29
BRANCH  25  31
HETATM   31  O5  UNL     1      -7.266   7.570  15.157  1.00  0.00    -0.349 OA
HETATM   32  C26 UNL     1      -7.287   7.140  16.519  1.00  0.00     0.210 C 
ENDBRANCH  25  31
BRANCH  26  33
HETATM   33  O4  UNL     1      -8.942   5.608  14.461  1.00  0.00    -0.357 OA
HETATM   34  H36 UNL     1      -8.952   6.334  15.118  1.00  0.00     0.217 HD
ENDBRANCH  26  33
ENDBRANCH  20  21
ENDBRANCH   1  20
TORSDOF 12
ENDMDL
MODEL 7
REMARK minimizedAffinity -7.03558016
REMARK CNNscore 0.191330105
REMARK CNNaffinity 5.71373224
REMARK  12 active torsions:
REMARK  status: ('A' for Active; 'I' for Inactive)
REMARK    1  A    between atoms: O1_2  and  C2_3 
REMARK    2  A    between atoms: C3_6  and  C4_7 
REMARK    3  A    between atoms: C4_7  and  C5_8 
REMARK    4  A    between atoms: C6_9  and  C8_11 
REMARK    5  A    between atoms: C8_11  and  C9_12 
REMARK    6  A    between atoms: C10_13  and  C11_14 
REMARK    7  A    between atoms: C13_16  and  C14_17 
REMARK    8  A    between atoms: C14_17  and  C16_19 
REMARK    9  A    between atoms: C16_19  and  O2_20 
REMARK   10  A    between atoms: C16_19  and  C18_22 
REMARK   11  A    between atoms: C24_29  and  O4_30 
REMARK   12  A    between atoms: C25_31  and  O5_32 
ROOT
HETATM    1  C5  UNL     1      -2.778   4.884  12.845  1.00  0.00    -0.018 C 
HETATM    2  C6  UNL     1      -1.475   4.548  12.747  1.00  0.00    -0.084 C 
HETATM    3  C7  UNL     1      -0.954   3.387  11.941  1.00  0.00     0.043 C 
ENDROOT
BRANCH   2   4
HETATM    4  C8  UNL     1      -0.419   5.319  13.517  1.00  0.00     0.060 C 
BRANCH   4   5
HETATM    5  C9  UNL     1       0.852   5.479  12.726  1.00  0.00    -0.022 C 
HETATM    6  C10 UNL     1       0.891   6.001  11.488  1.00  0.00     0.003 C 
BRANCH   6   7
HETATM    7  C11 UNL     1       2.081   6.205  10.660  1.00  0.00    -0.066 C 
HETATM    8  C12 UNL     1       2.743   4.980  10.087  1.00  0.00     0.048 C 
HETATM    9  C13 UNL     1       2.500   7.473  10.453  1.00  0.00    -0.013 C 
BRANCH   9  10
HETATM   10  C14 UNL     1       3.696   8.016   9.676  1.00  0.00     0.037 C 
HETATM   11  C15 UNL     1       3.273   8.649   8.346  1.00  0.00     0.017 C 
BRANCH  10  12
HETATM   12  C16 UNL     1       4.614   8.907  10.562  1.00  0.00     0.165 C 
BRANCH  12  13
HETATM   13  O2  UNL     1       3.847   9.301  11.720  1.00  0.00    -0.387 OA
HETATM   14  C17 UNL     1       4.425  10.396  12.417  1.00  0.00     0.202 C 
ENDBRANCH  12  13
BRANCH  12  15
HETATM   15  C18 UNL     1       5.869   8.205  11.060  1.00  0.00     0.110 A 
HETATM   16  C19 UNL     1       7.164   8.960  11.001  1.00  0.00     0.051 C 
HETATM   17  O3  UNL     1       5.687   7.423  12.255  1.00  0.00    -0.367 OA
HETATM   18  C20 UNL     1       5.875   6.679  11.048  1.00  0.00     0.155 A 
HETATM   19  C21 UNL     1       7.114   5.860  11.011  1.00  0.00     0.042 C 
ENDBRANCH  12  15
ENDBRANCH  10  12
ENDBRANCH   9  10
ENDBRANCH   6   7
ENDBRANCH   4   5
ENDBRANCH   2   4
BRANCH   1  20
HETATM   20  C4  UNL     1      -3.965   4.244  12.163  1.00  0.00     0.085 C 
BRANCH  20  21
HETATM   21  C3  UNL     1      -5.318   4.658  12.724  1.00  0.00     0.023 A 
HETATM   22  N1  UNL     1      -5.390   5.894  13.294  1.00  0.00    -0.337 N 
HETATM   23  C2  UNL     1      -6.568   6.302  13.818  1.00  0.00     0.179 A 
ATOM     24  H1  UNL     1      -4.570   6.501  13.325  1.00  0.00     0.168 HD
HETATM   25  C25 UNL     1      -7.725   5.537  13.767  1.00  0.00     0.153 A 
HETATM   26  C24 UNL     1      -7.630   4.277  13.178  1.00  0.00     0.111 A 
HETATM   27  C22 UNL     1      -6.438   3.819  12.611  1.00  0.00    -0.003 A 
HETATM   28  C23 UNL     1      -6.366   2.459  11.978  1.00  0.00     0.053 C 
BRANCH  23  29
HETATM   29  O1  UNL     1      -6.621   7.523  14.458  1.00  0.00    -0.339 OA
HETATM   30  C1  UNL     1      -5.527   8.375  14.141  1.00  0.00     0.211 C 
ENDBRANCH  23  29
BRANCH  25  31
HETATM   31  O5  UNL     1      -8.942   5.881  14.296  1.00  0.00    -0.349 OA
HETATM   32  C26 UNL     1      -9.758   6.580  13.354  1.00  0.00     0.210 C 
ENDBRANCH  25  31
BRANCH  26  33
HETATM   33  O4  UNL     1      -8.744   3.473  13.153  1.00  0.00    -0.357 OA
HETATM   34  H36 UNL     1      -9.409   3.930  13.708  1.00  0.00     0.217 HD
ENDBRANCH  26  33
ENDBRANCH  20  21
ENDBRANCH   1  20
TORSDOF 12
ENDMDL
MODEL 8
REMARK minimizedAffinity -7.6176734
REMARK CNNscore 0.18801485
REMARK CNNaffinity 6.19235849
REMARK  12 active torsions:
REMARK  status: ('A' for Active; 'I' for Inactive)
REMARK    1  A    between atoms: O1_2  and  C2_3 
REMARK    2  A    between atoms: C3_6  and  C4_7 
REMARK    3  A    between atoms: C4_7  and  C5_8 
REMARK    4  A    between atoms: C6_9  and  C8_11 
REMARK    5  A    between atoms: C8_11  and  C9_12 
REMARK    6  A    between atoms: C10_13  and  C11_14 
REMARK    7  A    between atoms: C13_16  and  C14_17 
REMARK    8  A    between atoms: C14_17  and  C16_19 
REMARK    9  A    between atoms: C16_19  and  O2_20 
REMARK   10  A    between atoms: C16_19  and  C18_22 
REMARK   11  A    between atoms: C24_29  and  O4_30 
REMARK   12  A    between atoms: C25_31  and  O5_32 
ROOT
HETATM    1  C5  UNL     1      -3.036   4.926  13.615  1.00  0.00    -0.018 C 
HETATM    2  C6  UNL     1      -1.717   4.882  13.333  1.00  0.00    -0.084 C 
HETATM    3  C7  UNL     1      -1.123   4.152  12.157  1.00  0.00     0.043 C 
ENDROOT
BRANCH   2   4
HETATM    4  C8  UNL     1      -0.709   5.546  14.252  1.00  0.00     0.060 C 
BRANCH   4   5
HETATM    5  C9  UNL     1       0.114   6.581  13.532  1.00  0.00    -0.022 C 
HETATM    6  C10 UNL     1       1.446   6.692  13.669  1.00  0.00     0.003 C 
BRANCH   6   7
HETATM    7  C11 UNL     1       2.320   7.656  12.997  1.00  0.00    -0.066 C 
HETATM    8  C12 UNL     1       2.649   8.925  13.738  1.00  0.00     0.048 C 
HETATM    9  C13 UNL     1       2.782   7.343  11.766  1.00  0.00    -0.013 C 
BRANCH   9  10
HETATM   10  C14 UNL     1       3.673   8.124  10.804  1.00  0.00     0.037 C 
HETATM   11  C15 UNL     1       5.076   8.346  11.379  1.00  0.00     0.017 C 
BRANCH  10  12
HETATM   12  C16 UNL     1       3.640   7.532   9.366  1.00  0.00     0.165 C 
BRANCH  12  13
HETATM   13  O2  UNL     1       4.223   6.213   9.428  1.00  0.00    -0.387 OA
HETATM   14  C17 UNL     1       3.345   5.248   9.991  1.00  0.00     0.202 C 
ENDBRANCH  12  13
BRANCH  12  15
HETATM   15  C18 UNL     1       2.242   7.390   8.784  1.00  0.00     0.110 A 
HETATM   16  C19 UNL     1       2.119   6.937   7.358  1.00  0.00     0.051 C 
HETATM   17  O3  UNL     1       1.273   6.813   9.679  1.00  0.00    -0.367 OA
HETATM   18  C20 UNL     1       1.126   8.212   9.422  1.00  0.00     0.155 A 
HETATM   19  C21 UNL     1      -0.129   8.584   8.718  1.00  0.00     0.042 C 
ENDBRANCH  12  15
ENDBRANCH  10  12
ENDBRANCH   9  10
ENDBRANCH   6   7
ENDBRANCH   4   5
ENDBRANCH   2   4
BRANCH   1  20
HETATM   20  C4  UNL     1      -4.183   4.333  12.831  1.00  0.00     0.085 C 
BRANCH  20  21
HETATM   21  C3  UNL     1      -5.545   4.937  13.142  1.00  0.00     0.023 A 
HETATM   22  N1  UNL     1      -5.554   6.229  13.577  1.00  0.00    -0.337 N 
HETATM   23  C2  UNL     1      -6.739   6.807  13.878  1.00  0.00     0.179 A 
ATOM     24  H1  UNL     1      -4.682   6.751  13.673  1.00  0.00     0.168 HD
HETATM   25  C25 UNL     1      -7.956   6.159  13.726  1.00  0.00     0.153 A 
HETATM   26  C24 UNL     1      -7.925   4.840  13.279  1.00  0.00     0.111 A 
HETATM   27  C22 UNL     1      -6.726   4.206  12.942  1.00  0.00    -0.003 A 
HETATM   28  C23 UNL     1      -6.723   2.785  12.457  1.00  0.00     0.053 C 
BRANCH  23  29
HETATM   29  O1  UNL     1      -6.740   8.090  14.386  1.00  0.00    -0.339 OA
HETATM   30  C1  UNL     1      -5.930   8.239  15.546  1.00  0.00     0.211 C 
ENDBRANCH  23  29
BRANCH  25  31
HETATM   31  O5  UNL     1      -9.188   6.679  14.033  1.00  0.00    -0.349 OA
HETATM   32  C26 UNL     1      -9.419   6.715  15.442  1.00  0.00     0.210 C 
ENDBRANCH  25  31
BRANCH  26  33
HETATM   33  O4  UNL     1      -9.109   4.152  13.163  1.00  0.00    -0.357 OA
HETATM   34  H36 UNL     1      -9.788   4.731  13.567  1.00  0.00     0.217 HD
ENDBRANCH  26  33
ENDBRANCH  20  21
ENDBRANCH   1  20
TORSDOF 12
ENDMDL
MODEL 9
REMARK minimizedAffinity -7.3797946
REMARK CNNscore 0.186151788
REMARK CNNaffinity 5.95809507
REMARK  12 active torsions:
REMARK  status: ('A' for Active; 'I' for Inactive)
REMARK    1  A    between atoms: O1_2  and  C2_3 
REMARK    2  A    between atoms: C3_6  and  C4_7 
REMARK    3  A    between atoms: C4_7  and  C5_8 
REMARK    4  A    between atoms: C6_9  and  C8_11 
REMARK    5  A    between atoms: C8_11  and  C9_12 
REMARK    6  A    between atoms: C10_13  and  C11_14 
REMARK    7  A    between atoms: C13_16  and  C14_17 
REMARK    8  A    between atoms: C14_17  and  C16_19 
REMARK    9  A    between atoms: C16_19  and  O2_20 
REMARK   10  A    between atoms: C16_19  and  C18_22 
REMARK   11  A    between atoms: C24_29  and  O4_30 
REMARK   12  A    between atoms: C25_31  and  O5_32 
ROOT
HETATM    1  C5  UNL     1      -6.353   7.035  13.637  1.00  0.00    -0.018 C 
HETATM    2  C6  UNL     1      -5.058   6.693  13.469  1.00  0.00    -0.084 C 
HETATM    3  C7  UNL     1      -4.528   5.288  13.583  1.00  0.00     0.043 C 
ENDROOT
BRANCH   2   4
HETATM    4  C8  UNL     1      -4.008   7.754  13.199  1.00  0.00     0.060 C 
BRANCH   4   5
HETATM    5  C9  UNL     1      -2.612   7.193  13.254  1.00  0.00    -0.022 C 
HETATM    6  C10 UNL     1      -1.601   7.652  12.497  1.00  0.00     0.003 C 
BRANCH   6   7
HETATM    7  C11 UNL     1      -0.216   7.175  12.499  1.00  0.00    -0.066 C 
HETATM    8  C12 UNL     1       0.314   6.602  13.786  1.00  0.00     0.048 C 
HETATM    9  C13 UNL     1       0.489   7.268  11.351  1.00  0.00    -0.013 C 
BRANCH   9  10
HETATM   10  C14 UNL     1       1.934   6.893  11.032  1.00  0.00     0.037 C 
HETATM   11  C15 UNL     1       2.060   5.430  10.594  1.00  0.00     0.017 C 
BRANCH  10  12
HETATM   12  C16 UNL     1       2.608   7.922  10.080  1.00  0.00     0.165 C 
BRANCH  12  13
HETATM   13  O2  UNL     1       3.947   7.453   9.814  1.00  0.00    -0.387 OA
HETATM   14  C17 UNL     1       4.945   8.255  10.431  1.00  0.00     0.202 C 
ENDBRANCH  12  13
BRANCH  12  15
HETATM   15  C18 UNL     1       1.904   8.085   8.741  1.00  0.00     0.110 A 
HETATM   16  C19 UNL     1       0.445   8.434   8.754  1.00  0.00     0.051 C 
HETATM   17  O3  UNL     1       2.674   8.772   7.737  1.00  0.00    -0.367 OA
HETATM   18  C20 UNL     1       2.505   7.367   7.536  1.00  0.00     0.155 A 
HETATM   19  C21 UNL     1       1.729   7.002   6.323  1.00  0.00     0.042 C 
ENDBRANCH  12  15
ENDBRANCH  10  12
ENDBRANCH   9  10
ENDBRANCH   6   7
ENDBRANCH   4   5
ENDBRANCH   2   4
BRANCH   1  20
HETATM   20  C4  UNL     1      -7.533   6.132  13.910  1.00  0.00     0.085 C 
BRANCH  20  21
HETATM   21  C3  UNL     1      -8.775   6.848  14.423  1.00  0.00     0.023 A 
HETATM   22  N1  UNL     1      -9.805   6.990  13.541  1.00  0.00    -0.337 N 
HETATM   23  C2  UNL     1     -10.925   7.630  13.946  1.00  0.00     0.179 A 
ATOM     24  H1  UNL     1      -9.732   6.619  12.593  1.00  0.00     0.168 HD
HETATM   25  C25 UNL     1     -11.095   8.117  15.234  1.00  0.00     0.153 A 
HETATM   26  C24 UNL     1     -10.030   7.961  16.120  1.00  0.00     0.111 A 
HETATM   27  C22 UNL     1      -8.859   7.294  15.751  1.00  0.00    -0.003 A 
HETATM   28  C23 UNL     1      -7.730   7.135  16.728  1.00  0.00     0.053 C 
BRANCH  23  29
HETATM   29  O1  UNL     1     -11.938   7.835  13.032  1.00  0.00    -0.339 OA
HETATM   30  C1  UNL     1     -13.014   6.915  13.165  1.00  0.00     0.211 C 
ENDBRANCH  23  29
BRANCH  25  31
HETATM   31  O5  UNL     1     -12.193   8.792  15.701  1.00  0.00    -0.349 OA
HETATM   32  C26 UNL     1     -12.159  10.178  15.355  1.00  0.00     0.210 C 
ENDBRANCH  25  31
BRANCH  26  33
HETATM   33  O4  UNL     1     -10.146   8.473  17.389  1.00  0.00    -0.357 OA
HETATM   34  H36 UNL     1     -10.972   8.999  17.385  1.00  0.00     0.217 HD
ENDBRANCH  26  33
ENDBRANCH  20  21
ENDBRANCH   1  20
TORSDOF 12
ENDMDL
