MODEL 1
REMARK minimizedAffinity -8.43550014
REMARK  10 active torsions:
REMARK  status: ('A' for Active; 'I' for Inactive)
REMARK    1  A    between atoms: C2_2  and  C3_4 
REMARK    2  A    between atoms: C10_12  and  O3_13 
REMARK    3  A    between atoms: C13_16  and  C14_17 
REMARK    4  A    between atoms: C14_17  and  C16_19 
REMARK    5  A    between atoms: C16_19  and  C17_20 
REMARK    6  A    between atoms: C17_20  and  C18_21 
REMARK    7  A    between atoms: C26_29  and  C27_30 
REMARK    8  A    between atoms: C27_30  and  C28_31 
REMARK    9  A    between atoms: C28_31  and  C29_32 
REMARK   10  A    between atoms: C29_32  and  O4_33 
ROOT
HETATM    1  C3  UNL     1       1.711   6.736  11.541  1.00  0.00     0.151 A 
HETATM    2  O2  UNL     1       0.902   7.261  10.467  1.00  0.00    -0.360 OA
HETATM    3  C4  UNL     1       0.753   5.875  10.754  1.00  0.00     0.166 A 
HETATM    4  C5  UNL     1      -0.475   5.417  11.447  1.00  0.00     0.041 C 
HETATM    5  C6  UNL     1      -1.219   6.506  12.256  1.00  0.00     0.006 C 
HETATM    6  C7  UNL     1      -0.280   7.547  13.034  1.00  0.00    -0.030 C 
HETATM    7  C8  UNL     1      -0.436   8.974  12.419  1.00  0.00     0.016 C 
HETATM    8  C9  UNL     1      -0.700   7.687  14.540  1.00  0.00     0.042 C 
HETATM    9  C10 UNL     1      -2.205   7.705  14.903  1.00  0.00     0.128 C 
HETATM   10  C11 UNL     1      -3.145   6.980  13.912  1.00  0.00    -0.006 C 
HETATM   11  C12 UNL     1      -3.760   8.043  12.941  1.00  0.00     0.019 C 
HETATM   12  C13 UNL     1      -4.352   6.152  14.496  1.00  0.00     0.001 C 
HETATM   13  C22 UNL     1      -4.648   5.132  13.353  1.00  0.00     0.007 C 
HETATM   14  C23 UNL     1      -3.451   5.149  12.389  1.00  0.00     0.011 C 
HETATM   15  C24 UNL     1      -2.327   5.863  13.164  1.00  0.00    -0.029 C 
HETATM   16  C25 UNL     1      -1.696   4.781  14.105  1.00  0.00     0.016 C 
HETATM   17  C26 UNL     1       1.259   7.098  12.962  1.00  0.00     0.039 C 
ENDROOT
BRANCH  12  18
HETATM   18  C14 UNL     1      -5.645   6.888  14.974  1.00  0.00    -0.013 C 
HETATM   19  C15 UNL     1      -5.350   8.291  15.516  1.00  0.00     0.010 C 
BRANCH  18  20
HETATM   20  C16 UNL     1      -6.375   6.044  16.057  1.00  0.00     0.008 C 
BRANCH  20  21
HETATM   21  C17 UNL     1      -7.829   5.703  15.708  1.00  0.00     0.028 C 
BRANCH  21  22
HETATM   22  C18 UNL     1      -8.127   6.018  14.267  1.00  0.00    -0.025 C 
HETATM   23  C19 UNL     1      -8.213   5.156  13.234  1.00  0.00    -0.091 C 
HETATM   24  C20 UNL     1      -7.974   3.674  13.319  1.00  0.00     0.042 C 
HETATM   25  C21 UNL     1      -8.552   5.649  11.851  1.00  0.00     0.042 C 
ENDBRANCH  21  22
ENDBRANCH  20  21
ENDBRANCH  18  20
ENDBRANCH  12  18
BRANCH   9  26
HETATM   26  O3  UNL     1      -2.318   7.138  16.211  1.00  0.00    -0.395 OA
HETATM   27  H14 UNL     1      -1.815   7.704  16.823  1.00  0.00     0.210 HD
ENDBRANCH   9  26
BRANCH  17  28
HETATM   28  C27 UNL     1       2.229   8.122  13.625  1.00  0.00     0.011 C 
BRANCH  28  29
HETATM   29  C28 UNL     1       2.781   7.770  15.013  1.00  0.00     0.027 C 
BRANCH  29  30
HETATM   30  C29 UNL     1       4.247   8.125  15.221  1.00  0.00     0.164 C 
BRANCH  30  31
HETATM   31  O4  UNL     1       4.947   6.951  15.613  1.00  0.00    -0.401 OA
HETATM   32  H48 UNL     1       5.846   7.224  15.862  1.00  0.00     0.209 HD
ENDBRANCH  30  31
ENDBRANCH  29  30
ENDBRANCH  28  29
ENDBRANCH  17  28
BRANCH   1  33
HETATM   33  C2  UNL     1       3.147   6.519  11.200  1.00  0.00     0.160 C 
HETATM   34  C1  UNL     1       3.439   5.598  10.052  1.00  0.00     0.094 C 
HETATM   35  O1  UNL     1       4.021   7.052  11.876  1.00  0.00    -0.295 OA
ENDBRANCH   1  33
TORSDOF 10
ENDMDL
MODEL 2
REMARK minimizedAffinity -8.23536301
REMARK  10 active torsions:
REMARK  status: ('A' for Active; 'I' for Inactive)
REMARK    1  A    between atoms: C2_2  and  C3_4 
REMARK    2  A    between atoms: C10_12  and  O3_13 
REMARK    3  A    between atoms: C13_16  and  C14_17 
REMARK    4  A    between atoms: C14_17  and  C16_19 
REMARK    5  A    between atoms: C16_19  and  C17_20 
REMARK    6  A    between atoms: C17_20  and  C18_21 
REMARK    7  A    between atoms: C26_29  and  C27_30 
REMARK    8  A    between atoms: C27_30  and  C28_31 
REMARK    9  A    between atoms: C28_31  and  C29_32 
REMARK   10  A    between atoms: C29_32  and  O4_33 
ROOT
HETATM    1  C3  UNL     1       3.948   7.263  11.211  1.00  0.00     0.151 A 
HETATM    2  O2  UNL     1       3.176   7.966  10.216  1.00  0.00    -0.360 OA
HETATM    3  C4  UNL     1       3.083   6.546  10.204  1.00  0.00     0.166 A 
HETATM    4  C5  UNL     1       1.842   5.908  10.705  1.00  0.00     0.041 C 
HETATM    5  C6  UNL     1       0.998   6.776  11.667  1.00  0.00     0.006 C 
HETATM    6  C7  UNL     1       1.835   7.670  12.702  1.00  0.00    -0.030 C 
HETATM    7  C8  UNL     1       1.641   9.186  12.381  1.00  0.00     0.016 C 
HETATM    8  C9  UNL     1       1.323   7.480  14.174  1.00  0.00     0.042 C 
HETATM    9  C10 UNL     1      -0.199   7.365  14.431  1.00  0.00     0.128 C 
HETATM   10  C11 UNL     1      -1.042   6.823  13.252  1.00  0.00    -0.006 C 
HETATM   11  C12 UNL     1      -1.654   8.039  12.480  1.00  0.00     0.019 C 
HETATM   12  C13 UNL     1      -2.236   5.846  13.574  1.00  0.00     0.001 C 
HETATM   13  C22 UNL     1      -2.413   5.074  12.230  1.00  0.00     0.007 C 
HETATM   14  C23 UNL     1      -1.165   5.335  11.372  1.00  0.00     0.011 C 
HETATM   15  C24 UNL     1      -0.125   5.917  12.349  1.00  0.00    -0.029 C 
HETATM   16  C25 UNL     1       0.505   4.690  13.091  1.00  0.00     0.016 C 
HETATM   17  C26 UNL     1       3.397   7.306  12.643  1.00  0.00     0.039 C 
ENDROOT
BRANCH  12  18
HETATM   18  C14 UNL     1      -3.591   6.417  14.104  1.00  0.00    -0.013 C 
HETATM   19  C15 UNL     1      -3.763   6.204  15.612  1.00  0.00     0.010 C 
BRANCH  18  20
HETATM   20  C16 UNL     1      -4.782   5.773  13.338  1.00  0.00     0.008 C 
BRANCH  20  21
HETATM   21  C17 UNL     1      -6.124   5.872  14.075  1.00  0.00     0.028 C 
BRANCH  21  22
HETATM   22  C18 UNL     1      -7.001   4.690  13.761  1.00  0.00    -0.025 C 
HETATM   23  C19 UNL     1      -6.687   3.597  13.039  1.00  0.00    -0.091 C 
HETATM   24  C20 UNL     1      -5.371   3.363  12.349  1.00  0.00     0.042 C 
HETATM   25  C21 UNL     1      -7.690   2.489  12.850  1.00  0.00     0.042 C 
ENDBRANCH  21  22
ENDBRANCH  20  21
ENDBRANCH  18  20
ENDBRANCH  12  18
BRANCH   9  26
HETATM   26  O3  UNL     1      -0.357   6.536  15.586  1.00  0.00    -0.395 OA
HETATM   27  H14 UNL     1       0.079   6.982  16.332  1.00  0.00     0.210 HD
ENDBRANCH   9  26
BRANCH  17  28
HETATM   28  C27 UNL     1       4.273   8.208  13.564  1.00  0.00     0.011 C 
BRANCH  28  29
HETATM   29  C28 UNL     1       5.043   7.518  14.698  1.00  0.00     0.027 C 
BRANCH  29  30
HETATM   30  C29 UNL     1       6.476   7.999  14.876  1.00  0.00     0.164 C 
BRANCH  30  31
HETATM   31  O4  UNL     1       6.810   7.932  16.256  1.00  0.00    -0.401 OA
HETATM   32  H48 UNL     1       7.676   8.360  16.363  1.00  0.00     0.209 HD
ENDBRANCH  30  31
ENDBRANCH  29  30
ENDBRANCH  28  29
ENDBRANCH  17  28
BRANCH   1  33
HETATM   33  C2  UNL     1       5.411   7.177  10.930  1.00  0.00     0.160 C 
HETATM   34  C1  UNL     1       6.159   8.474  10.829  1.00  0.00     0.094 C 
HETATM   35  O1  UNL     1       5.934   6.082  10.755  1.00  0.00    -0.295 OA
ENDBRANCH   1  33
TORSDOF 10
ENDMDL
MODEL 3
REMARK minimizedAffinity -8.0025053
REMARK  10 active torsions:
REMARK  status: ('A' for Active; 'I' for Inactive)
REMARK    1  A    between atoms: C2_2  and  C3_4 
REMARK    2  A    between atoms: C10_12  and  O3_13 
REMARK    3  A    between atoms: C13_16  and  C14_17 
REMARK    4  A    between atoms: C14_17  and  C16_19 
REMARK    5  A    between atoms: C16_19  and  C17_20 
REMARK    6  A    between atoms: C17_20  and  C18_21 
REMARK    7  A    between atoms: C26_29  and  C27_30 
REMARK    8  A    between atoms: C27_30  and  C28_31 
REMARK    9  A    between atoms: C28_31  and  C29_32 
REMARK   10  A    between atoms: C29_32  and  O4_33 
ROOT
HETATM    1  C3  UNL     1       3.200   7.421  10.834  1.00  0.00     0.151 A 
HETATM    2  O2  UNL     1       2.287   8.121   9.962  1.00  0.00    -0.360 OA
HETATM    3  C4  UNL     1       2.369   6.710   9.793  1.00  0.00     0.166 A 
HETATM    4  C5  UNL     1       1.249   5.867  10.276  1.00  0.00     0.041 C 
HETATM    5  C6  UNL     1       0.365   6.510  11.370  1.00  0.00     0.006 C 
HETATM    6  C7  UNL     1       1.147   7.389  12.459  1.00  0.00    -0.030 C 
HETATM    7  C8  UNL     1       0.748   8.893  12.323  1.00  0.00     0.016 C 
HETATM    8  C9  UNL     1       0.753   6.978  13.922  1.00  0.00     0.042 C 
HETATM    9  C10 UNL     1      -0.725   6.640  14.236  1.00  0.00     0.128 C 
HETATM   10  C11 UNL     1      -1.565   6.123  13.044  1.00  0.00    -0.006 C 
HETATM   11  C12 UNL     1      -2.368   7.326  12.444  1.00  0.00     0.019 C 
HETATM   12  C13 UNL     1      -2.607   4.971  13.307  1.00  0.00     0.001 C 
HETATM   13  C22 UNL     1      -2.769   4.331  11.894  1.00  0.00     0.007 C 
HETATM   14  C23 UNL     1      -1.618   4.842  11.014  1.00  0.00     0.011 C 
HETATM   15  C24 UNL     1      -0.600   5.445  12.001  1.00  0.00    -0.029 C 
HETATM   16  C25 UNL     1       0.221   4.238  12.568  1.00  0.00     0.016 C 
HETATM   17  C26 UNL     1       2.735   7.239  12.286  1.00  0.00     0.039 C 
ENDROOT
BRANCH  12  18
HETATM   18  C14 UNL     1      -3.987   5.302  13.962  1.00  0.00    -0.013 C 
HETATM   19  C15 UNL     1      -5.159   4.669  13.203  1.00  0.00     0.010 C 
BRANCH  18  20
HETATM   20  C16 UNL     1      -4.184   6.842  14.052  1.00  0.00     0.008 C 
BRANCH  20  21
HETATM   21  C17 UNL     1      -4.602   7.338  15.442  1.00  0.00     0.028 C 
BRANCH  21  22
HETATM   22  C18 UNL     1      -5.995   7.906  15.417  1.00  0.00    -0.025 C 
HETATM   23  C19 UNL     1      -7.142   7.296  15.773  1.00  0.00    -0.091 C 
HETATM   24  C20 UNL     1      -7.259   5.869  16.233  1.00  0.00     0.042 C 
HETATM   25  C21 UNL     1      -8.454   8.034  15.710  1.00  0.00     0.042 C 
ENDBRANCH  21  22
ENDBRANCH  20  21
ENDBRANCH  18  20
ENDBRANCH  12  18
BRANCH   9  26
HETATM   26  O3  UNL     1      -0.709   5.678  15.294  1.00  0.00    -0.395 OA
HETATM   27  H14 UNL     1      -0.286   6.095  16.065  1.00  0.00     0.210 HD
ENDBRANCH   9  26
BRANCH  17  28
HETATM   28  C27 UNL     1       3.548   8.142  13.261  1.00  0.00     0.011 C 
BRANCH  28  29
HETATM   29  C28 UNL     1       4.918   7.626  13.722  1.00  0.00     0.027 C 
BRANCH  29  30
HETATM   30  C29 UNL     1       5.176   7.759  15.216  1.00  0.00     0.164 C 
BRANCH  30  31
HETATM   31  O4  UNL     1       4.699   6.588  15.866  1.00  0.00    -0.401 OA
HETATM   32  H48 UNL     1       4.757   6.747  16.823  1.00  0.00     0.209 HD
ENDBRANCH  30  31
ENDBRANCH  29  30
ENDBRANCH  28  29
ENDBRANCH  17  28
BRANCH   1  33
HETATM   33  C2  UNL     1       4.642   7.556  10.477  1.00  0.00     0.160 C 
HETATM   34  C1  UNL     1       5.133   8.936  10.151  1.00  0.00     0.094 C 
HETATM   35  O1  UNL     1       5.351   6.557  10.422  1.00  0.00    -0.295 OA
ENDBRANCH   1  33
TORSDOF 10
ENDMDL
MODEL 4
REMARK minimizedAffinity -8.00141811
REMARK  10 active torsions:
REMARK  status: ('A' for Active; 'I' for Inactive)
REMARK    1  A    between atoms: C2_2  and  C3_4 
REMARK    2  A    between atoms: C10_12  and  O3_13 
REMARK    3  A    between atoms: C13_16  and  C14_17 
REMARK    4  A    between atoms: C14_17  and  C16_19 
REMARK    5  A    between atoms: C16_19  and  C17_20 
REMARK    6  A    between atoms: C17_20  and  C18_21 
REMARK    7  A    between atoms: C26_29  and  C27_30 
REMARK    8  A    between atoms: C27_30  and  C28_31 
REMARK    9  A    between atoms: C28_31  and  C29_32 
REMARK   10  A    between atoms: C29_32  and  O4_33 
ROOT
HETATM    1  C3  UNL     1       5.022   7.837  11.361  1.00  0.00     0.151 A 
HETATM    2  O2  UNL     1       5.158   6.576  12.049  1.00  0.00    -0.360 OA
HETATM    3  C4  UNL     1       5.081   7.738  12.866  1.00  0.00     0.166 A 
HETATM    4  C5  UNL     1       3.829   8.003  13.615  1.00  0.00     0.041 C 
HETATM    5  C6  UNL     1       2.565   7.315  13.047  1.00  0.00     0.006 C 
HETATM    6  C7  UNL     1       2.469   7.264  11.448  1.00  0.00    -0.030 C 
HETATM    7  C8  UNL     1       2.568   5.787  10.950  1.00  0.00     0.016 C 
HETATM    8  C9  UNL     1       1.081   7.790  10.937  1.00  0.00     0.042 C 
HETATM    9  C10 UNL     1      -0.200   7.415  11.721  1.00  0.00     0.128 C 
HETATM   10  C11 UNL     1      -0.004   7.110  13.225  1.00  0.00    -0.006 C 
HETATM   11  C12 UNL     1       0.101   5.559  13.408  1.00  0.00     0.019 C 
HETATM   12  C13 UNL     1      -1.102   7.611  14.238  1.00  0.00     0.001 C 
HETATM   13  C22 UNL     1      -0.313   7.689  15.582  1.00  0.00     0.007 C 
HETATM   14  C23 UNL     1       1.185   7.612  15.249  1.00  0.00     0.011 C 
HETATM   15  C24 UNL     1       1.271   7.879  13.734  1.00  0.00    -0.029 C 
HETATM   16  C25 UNL     1       1.201   9.435  13.565  1.00  0.00     0.016 C 
HETATM   17  C26 UNL     1       3.635   8.136  10.774  1.00  0.00     0.039 C 
ENDROOT
BRANCH  12  18
HETATM   18  C14 UNL     1      -2.442   6.820  14.391  1.00  0.00    -0.013 C 
HETATM   19  C15 UNL     1      -2.238   5.449  15.046  1.00  0.00     0.010 C 
BRANCH  18  20
HETATM   20  C16 UNL     1      -3.126   6.649  13.005  1.00  0.00     0.008 C 
BRANCH  20  21
HETATM   21  C17 UNL     1      -4.455   5.884  13.055  1.00  0.00     0.028 C 
BRANCH  21  22
HETATM   22  C18 UNL     1      -4.329   4.538  12.395  1.00  0.00    -0.025 C 
HETATM   23  C19 UNL     1      -5.285   3.600  12.243  1.00  0.00    -0.091 C 
HETATM   24  C20 UNL     1      -6.693   3.705  12.763  1.00  0.00     0.042 C 
HETATM   25  C21 UNL     1      -4.986   2.311  11.524  1.00  0.00     0.042 C 
ENDBRANCH  21  22
ENDBRANCH  20  21
ENDBRANCH  18  20
ENDBRANCH  12  18
BRANCH   9  26
HETATM   26  O3  UNL     1      -1.121   8.494  11.542  1.00  0.00    -0.395 OA
HETATM   27  H14 UNL     1      -1.315   8.562  10.590  1.00  0.00     0.210 HD
ENDBRANCH   9  26
BRANCH  17  28
HETATM   28  C27 UNL     1       3.646   8.050   9.218  1.00  0.00     0.011 C 
BRANCH  28  29
HETATM   29  C28 UNL     1       2.333   8.361   8.487  1.00  0.00     0.027 C 
BRANCH  29  30
HETATM   30  C29 UNL     1       2.151   7.622   7.168  1.00  0.00     0.164 C 
BRANCH  30  31
HETATM   31  O4  UNL     1       2.239   6.225   7.415  1.00  0.00    -0.401 OA
HETATM   32  H48 UNL     1       2.248   5.781   6.550  1.00  0.00     0.209 HD
ENDBRANCH  30  31
ENDBRANCH  29  30
ENDBRANCH  28  29
ENDBRANCH  17  28
BRANCH   1  33
HETATM   33  C2  UNL     1       6.273   8.352  10.734  1.00  0.00     0.160 C 
HETATM   34  C1  UNL     1       6.355   9.833  10.502  1.00  0.00     0.094 C 
HETATM   35  O1  UNL     1       7.154   7.567  10.399  1.00  0.00    -0.295 OA
ENDBRANCH   1  33
TORSDOF 10
ENDMDL
MODEL 5
REMARK minimizedAffinity -7.98947239
REMARK  10 active torsions:
REMARK  status: ('A' for Active; 'I' for Inactive)
REMARK    1  A    between atoms: C2_2  and  C3_4 
REMARK    2  A    between atoms: C10_12  and  O3_13 
REMARK    3  A    between atoms: C13_16  and  C14_17 
REMARK    4  A    between atoms: C14_17  and  C16_19 
REMARK    5  A    between atoms: C16_19  and  C17_20 
REMARK    6  A    between atoms: C17_20  and  C18_21 
REMARK    7  A    between atoms: C26_29  and  C27_30 
REMARK    8  A    between atoms: C27_30  and  C28_31 
REMARK    9  A    between atoms: C28_31  and  C29_32 
REMARK   10  A    between atoms: C29_32  and  O4_33 
ROOT
HETATM    1  C3  UNL     1       1.629   8.356  12.731  1.00  0.00     0.151 A 
HETATM    2  O2  UNL     1       0.917   8.781  11.550  1.00  0.00    -0.360 OA
HETATM    3  C4  UNL     1       1.138   7.383  11.687  1.00  0.00     0.166 A 
HETATM    4  C5  UNL     1      -0.005   6.512  12.054  1.00  0.00     0.041 C 
HETATM    5  C6  UNL     1      -1.179   7.229  12.762  1.00  0.00     0.006 C 
HETATM    6  C7  UNL     1      -0.758   8.370  13.807  1.00  0.00    -0.030 C 
HETATM    7  C8  UNL     1      -1.214   9.770  13.287  1.00  0.00     0.016 C 
HETATM    8  C9  UNL     1      -1.477   8.178  15.189  1.00  0.00     0.042 C 
HETATM    9  C10 UNL     1      -2.958   7.730  15.211  1.00  0.00     0.128 C 
HETATM   10  C11 UNL     1      -3.435   6.919  13.983  1.00  0.00    -0.006 C 
HETATM   11  C12 UNL     1      -4.144   7.896  12.987  1.00  0.00     0.019 C 
HETATM   12  C13 UNL     1      -4.426   5.717  14.219  1.00  0.00     0.001 C 
HETATM   13  C22 UNL     1      -4.184   4.825  12.962  1.00  0.00     0.007 C 
HETATM   14  C23 UNL     1      -2.887   5.305  12.291  1.00  0.00     0.011 C 
HETATM   15  C24 UNL     1      -2.194   6.186  13.349  1.00  0.00    -0.029 C 
HETATM   16  C25 UNL     1      -1.459   5.200  14.319  1.00  0.00     0.016 C 
HETATM   17  C26 UNL     1       0.829   8.378  14.042  1.00  0.00     0.039 C 
ENDROOT
BRANCH  12  18
HETATM   18  C14 UNL     1      -5.946   5.995  14.456  1.00  0.00    -0.013 C 
HETATM   19  C15 UNL     1      -6.225   6.551  15.857  1.00  0.00     0.010 C 
BRANCH  18  20
HETATM   20  C16 UNL     1      -6.771   4.697  14.227  1.00  0.00     0.008 C 
BRANCH  20  21
HETATM   21  C17 UNL     1      -7.087   4.410  12.753  1.00  0.00     0.028 C 
BRANCH  21  22
HETATM   22  C18 UNL     1      -6.912   2.949  12.437  1.00  0.00    -0.025 C 
HETATM   23  C19 UNL     1      -6.219   2.402  11.418  1.00  0.00    -0.091 C 
HETATM   24  C20 UNL     1      -5.506   3.173  10.342  1.00  0.00     0.042 C 
HETATM   25  C21 UNL     1      -6.127   0.906  11.271  1.00  0.00     0.042 C 
ENDBRANCH  21  22
ENDBRANCH  20  21
ENDBRANCH  18  20
ENDBRANCH  12  18
BRANCH   9  26
HETATM   26  O3  UNL     1      -3.141   6.977  16.413  1.00  0.00    -0.395 OA
HETATM   27  H14 UNL     1      -2.955   7.568  17.163  1.00  0.00     0.210 HD
ENDBRANCH   9  26
BRANCH  17  28
HETATM   28  C27 UNL     1       1.306   9.526  14.980  1.00  0.00     0.011 C 
BRANCH  28  29
HETATM   29  C28 UNL     1       2.300   9.159  16.091  1.00  0.00     0.027 C 
BRANCH  29  30
HETATM   30  C29 UNL     1       2.652   7.680  16.163  1.00  0.00     0.164 C 
BRANCH  30  31
HETATM   31  O4  UNL     1       1.565   6.983  16.759  1.00  0.00    -0.401 OA
HETATM   32  H48 UNL     1       1.859   6.069  16.912  1.00  0.00     0.209 HD
ENDBRANCH  30  31
ENDBRANCH  29  30
ENDBRANCH  28  29
ENDBRANCH  17  28
BRANCH   1  33
HETATM   33  C2  UNL     1       3.101   8.593  12.700  1.00  0.00     0.160 C 
HETATM   34  C1  UNL     1       3.557   9.984  12.371  1.00  0.00     0.094 C 
HETATM   35  O1  UNL     1       3.872   7.660  12.898  1.00  0.00    -0.295 OA
ENDBRANCH   1  33
TORSDOF 10
ENDMDL
MODEL 6
REMARK minimizedAffinity -7.78418398
REMARK  10 active torsions:
REMARK  status: ('A' for Active; 'I' for Inactive)
REMARK    1  A    between atoms: C2_2  and  C3_4 
REMARK    2  A    between atoms: C10_12  and  O3_13 
REMARK    3  A    between atoms: C13_16  and  C14_17 
REMARK    4  A    between atoms: C14_17  and  C16_19 
REMARK    5  A    between atoms: C16_19  and  C17_20 
REMARK    6  A    between atoms: C17_20  and  C18_21 
REMARK    7  A    between atoms: C26_29  and  C27_30 
REMARK    8  A    between atoms: C27_30  and  C28_31 
REMARK    9  A    between atoms: C28_31  and  C29_32 
REMARK   10  A    between atoms: C29_32  and  O4_33 
ROOT
HETATM    1  C3  UNL     1      -6.424   7.667  15.367  1.00  0.00     0.151 A 
HETATM    2  O2  UNL     1      -6.433   8.438  14.147  1.00  0.00    -0.360 OA
HETATM    3  C4  UNL     1      -5.881   9.073  15.295  1.00  0.00     0.166 A 
HETATM    4  C5  UNL     1      -4.410   9.240  15.381  1.00  0.00     0.041 C 
HETATM    5  C6  UNL     1      -3.585   8.265  14.508  1.00  0.00     0.006 C 
HETATM    6  C7  UNL     1      -4.152   6.767  14.425  1.00  0.00    -0.030 C 
HETATM    7  C8  UNL     1      -4.636   6.456  12.974  1.00  0.00     0.016 C 
HETATM    8  C9  UNL     1      -3.035   5.710  14.735  1.00  0.00     0.042 C 
HETATM    9  C10 UNL     1      -1.607   5.941  14.184  1.00  0.00     0.128 C 
HETATM   10  C11 UNL     1      -1.215   7.416  13.928  1.00  0.00    -0.006 C 
HETATM   11  C12 UNL     1      -1.437   7.734  12.412  1.00  0.00     0.019 C 
HETATM   12  C13 UNL     1       0.254   7.870  14.273  1.00  0.00     0.001 C 
HETATM   13  C22 UNL     1       0.095   9.407  14.482  1.00  0.00     0.007 C 
HETATM   14  C23 UNL     1      -1.406   9.707  14.623  1.00  0.00     0.011 C 
HETATM   15  C24 UNL     1      -2.063   8.337  14.883  1.00  0.00    -0.029 C 
HETATM   16  C25 UNL     1      -1.865   8.046  16.409  1.00  0.00     0.016 C 
HETATM   17  C26 UNL     1      -5.368   6.556  15.451  1.00  0.00     0.039 C 
ENDROOT
BRANCH  12  18
HETATM   18  C14 UNL     1       1.426   7.530  13.296  1.00  0.00    -0.013 C 
HETATM   19  C15 UNL     1       1.978   8.776  12.593  1.00  0.00     0.010 C 
BRANCH  18  20
HETATM   20  C16 UNL     1       0.959   6.490  12.239  1.00  0.00     0.008 C 
BRANCH  20  21
HETATM   21  C17 UNL     1       2.079   5.991  11.317  1.00  0.00     0.028 C 
BRANCH  21  22
HETATM   22  C18 UNL     1       1.757   6.273   9.874  1.00  0.00    -0.025 C 
HETATM   23  C19 UNL     1       2.443   7.049   9.011  1.00  0.00    -0.091 C 
HETATM   24  C20 UNL     1       3.675   7.843   9.349  1.00  0.00     0.042 C 
HETATM   25  C21 UNL     1       1.986   7.195   7.583  1.00  0.00     0.042 C 
ENDBRANCH  21  22
ENDBRANCH  20  21
ENDBRANCH  18  20
ENDBRANCH  12  18
BRANCH   9  26
HETATM   26  O3  UNL     1      -0.705   5.335  15.113  1.00  0.00    -0.395 OA
HETATM   27  H14 UNL     1      -0.906   4.383  15.141  1.00  0.00     0.210 HD
ENDBRANCH   9  26
BRANCH  17  28
HETATM   28  C27 UNL     1      -6.019   5.143  15.351  1.00  0.00     0.011 C 
BRANCH  28  29
HETATM   29  C28 UNL     1      -7.208   4.984  14.394  1.00  0.00     0.027 C 
BRANCH  29  30
HETATM   30  C29 UNL     1      -7.344   3.599  13.776  1.00  0.00     0.164 C 
BRANCH  30  31
HETATM   31  O4  UNL     1      -8.657   3.464  13.248  1.00  0.00    -0.401 OA
HETATM   32  H48 UNL     1      -8.762   2.536  12.975  1.00  0.00     0.209 HD
ENDBRANCH  30  31
ENDBRANCH  29  30
ENDBRANCH  28  29
ENDBRANCH  17  28
BRANCH   1  33
HETATM   33  C2  UNL     1      -7.743   7.556  16.054  1.00  0.00     0.160 C 
HETATM   34  C1  UNL     1      -8.948   8.013  15.284  1.00  0.00     0.094 C 
HETATM   35  O1  UNL     1      -7.796   7.147  17.208  1.00  0.00    -0.295 OA
ENDBRANCH   1  33
TORSDOF 10
ENDMDL
MODEL 7
REMARK minimizedAffinity -7.71618795
REMARK  10 active torsions:
REMARK  status: ('A' for Active; 'I' for Inactive)
REMARK    1  A    between atoms: C2_2  and  C3_4 
REMARK    2  A    between atoms: C10_12  and  O3_13 
REMARK    3  A    between atoms: C13_16  and  C14_17 
REMARK    4  A    between atoms: C14_17  and  C16_19 
REMARK    5  A    between atoms: C16_19  and  C17_20 
REMARK    6  A    between atoms: C17_20  and  C18_21 
REMARK    7  A    between atoms: C26_29  and  C27_30 
REMARK    8  A    between atoms: C27_30  and  C28_31 
REMARK    9  A    between atoms: C28_31  and  C29_32 
REMARK   10  A    between atoms: C29_32  and  O4_33 
ROOT
HETATM    1  C3  UNL     1      -2.416   4.487  11.943  1.00  0.00     0.151 A 
HETATM    2  O2  UNL     1      -1.273   4.404  12.821  1.00  0.00    -0.360 OA
HETATM    3  C4  UNL     1      -1.216   5.391  11.798  1.00  0.00     0.166 A 
HETATM    4  C5  UNL     1      -1.388   6.816  12.171  1.00  0.00     0.041 C 
HETATM    5  C6  UNL     1      -2.129   7.061  13.507  1.00  0.00     0.006 C 
HETATM    6  C7  UNL     1      -3.352   6.069  13.808  1.00  0.00    -0.030 C 
HETATM    7  C8  UNL     1      -3.018   5.164  15.037  1.00  0.00     0.016 C 
HETATM    8  C9  UNL     1      -4.650   6.857  14.204  1.00  0.00     0.042 C 
HETATM    9  C10 UNL     1      -4.526   8.101  15.117  1.00  0.00     0.128 C 
HETATM   10  C11 UNL     1      -3.168   8.841  15.066  1.00  0.00    -0.006 C 
HETATM   11  C12 UNL     1      -2.289   8.349  16.264  1.00  0.00     0.019 C 
HETATM   12  C13 UNL     1      -3.172  10.415  15.125  1.00  0.00     0.001 C 
HETATM   13  C22 UNL     1      -1.813  10.784  14.453  1.00  0.00     0.007 C 
HETATM   14  C23 UNL     1      -1.291   9.528  13.736  1.00  0.00     0.011 C 
HETATM   15  C24 UNL     1      -2.502   8.578  13.664  1.00  0.00    -0.029 C 
HETATM   16  C25 UNL     1      -3.355   9.057  12.441  1.00  0.00     0.016 C 
HETATM   17  C26 UNL     1      -3.670   5.146  12.535  1.00  0.00     0.039 C 
ENDROOT
BRANCH  12  18
HETATM   18  C14 UNL     1      -3.364  11.145  16.494  1.00  0.00    -0.013 C 
HETATM   19  C15 UNL     1      -4.448  12.227  16.430  1.00  0.00     0.010 C 
BRANCH  18  20
HETATM   20  C16 UNL     1      -2.020  11.768  16.965  1.00  0.00     0.008 C 
BRANCH  20  21
HETATM   21  C17 UNL     1      -1.955  12.048  18.471  1.00  0.00     0.028 C 
BRANCH  21  22
HETATM   22  C18 UNL     1      -0.881  11.224  19.130  1.00  0.00    -0.025 C 
HETATM   23  C19 UNL     1       0.206  11.663  19.793  1.00  0.00    -0.091 C 
HETATM   24  C20 UNL     1       0.592  13.107  19.968  1.00  0.00     0.042 C 
HETATM   25  C21 UNL     1       1.168  10.687  20.418  1.00  0.00     0.042 C 
ENDBRANCH  21  22
ENDBRANCH  20  21
ENDBRANCH  18  20
ENDBRANCH  12  18
BRANCH   9  26
HETATM   26  O3  UNL     1      -5.593   8.982  14.755  1.00  0.00    -0.395 OA
HETATM   27  H14 UNL     1      -6.431   8.518  14.928  1.00  0.00     0.210 HD
ENDBRANCH   9  26
BRANCH  17  28
HETATM   28  C27 UNL     1      -4.792   4.097  12.801  1.00  0.00     0.011 C 
BRANCH  28  29
HETATM   29  C28 UNL     1      -6.211   4.630  13.041  1.00  0.00     0.027 C 
BRANCH  29  30
HETATM   30  C29 UNL     1      -7.323   3.730  12.518  1.00  0.00     0.164 C 
BRANCH  30  31
HETATM   31  O4  UNL     1      -8.142   3.339  13.613  1.00  0.00    -0.401 OA
HETATM   32  H48 UNL     1      -8.763   2.668  13.280  1.00  0.00     0.209 HD
ENDBRANCH  30  31
ENDBRANCH  29  30
ENDBRANCH  28  29
ENDBRANCH  17  28
BRANCH   1  33
HETATM   33  C2  UNL     1      -2.500   3.414  10.911  1.00  0.00     0.160 C 
HETATM   34  C1  UNL     1      -1.809   2.119  11.224  1.00  0.00     0.094 C 
HETATM   35  O1  UNL     1      -3.079   3.630   9.853  1.00  0.00    -0.295 OA
ENDBRANCH   1  33
TORSDOF 10
ENDMDL
MODEL 8
REMARK minimizedAffinity -7.58518553
REMARK  10 active torsions:
REMARK  status: ('A' for Active; 'I' for Inactive)
REMARK    1  A    between atoms: C2_2  and  C3_4 
REMARK    2  A    between atoms: C10_12  and  O3_13 
REMARK    3  A    between atoms: C13_16  and  C14_17 
REMARK    4  A    between atoms: C14_17  and  C16_19 
REMARK    5  A    between atoms: C16_19  and  C17_20 
REMARK    6  A    between atoms: C17_20  and  C18_21 
REMARK    7  A    between atoms: C26_29  and  C27_30 
REMARK    8  A    between atoms: C27_30  and  C28_31 
REMARK    9  A    between atoms: C28_31  and  C29_32 
REMARK   10  A    between atoms: C29_32  and  O4_33 
ROOT
HETATM    1  C3  UNL     1      -5.284   7.841  15.073  1.00  0.00     0.151 A 
HETATM    2  O2  UNL     1      -4.848   9.207  14.914  1.00  0.00    -0.360 OA
HETATM    3  C4  UNL     1      -4.303   8.493  16.017  1.00  0.00     0.166 A 
HETATM    4  C5  UNL     1      -2.891   8.042  15.947  1.00  0.00     0.041 C 
HETATM    5  C6  UNL     1      -2.311   7.914  14.519  1.00  0.00     0.006 C 
HETATM    6  C7  UNL     1      -3.322   7.340  13.414  1.00  0.00    -0.030 C 
HETATM    7  C8  UNL     1      -3.650   8.446  12.361  1.00  0.00     0.016 C 
HETATM    8  C9  UNL     1      -2.679   6.160  12.603  1.00  0.00     0.042 C 
HETATM    9  C10 UNL     1      -1.188   6.251  12.197  1.00  0.00     0.128 C 
HETATM   10  C11 UNL     1      -0.295   7.130  13.106  1.00  0.00    -0.006 C 
HETATM   11  C12 UNL     1      -0.162   8.546  12.452  1.00  0.00     0.019 C 
HETATM   12  C13 UNL     1       1.169   6.637  13.417  1.00  0.00     0.001 C 
HETATM   13  C22 UNL     1       1.496   7.371  14.754  1.00  0.00     0.007 C 
HETATM   14  C23 UNL     1       0.176   7.912  15.326  1.00  0.00     0.011 C 
HETATM   15  C24 UNL     1      -0.928   7.173  14.546  1.00  0.00    -0.029 C 
HETATM   16  C25 UNL     1      -1.077   5.772  15.231  1.00  0.00     0.016 C 
HETATM   17  C26 UNL     1      -4.682   6.826  14.092  1.00  0.00     0.039 C 
ENDROOT
BRANCH  12  18
HETATM   18  C14 UNL     1       2.299   6.827  12.353  1.00  0.00    -0.013 C 
HETATM   19  C15 UNL     1       2.488   8.297  11.960  1.00  0.00     0.010 C 
BRANCH  18  20
HETATM   20  C16 UNL     1       1.994   5.975  11.088  1.00  0.00     0.008 C 
BRANCH  20  21
HETATM   21  C17 UNL     1       3.062   6.081   9.993  1.00  0.00     0.028 C 
BRANCH  21  22
HETATM   22  C18 UNL     1       2.432   6.179   8.630  1.00  0.00    -0.025 C 
HETATM   23  C19 UNL     1       2.432   7.236   7.794  1.00  0.00    -0.091 C 
HETATM   24  C20 UNL     1       3.042   8.578   8.094  1.00  0.00     0.042 C 
HETATM   25  C21 UNL     1       1.769   7.146   6.445  1.00  0.00     0.042 C 
ENDBRANCH  21  22
ENDBRANCH  20  21
ENDBRANCH  18  20
ENDBRANCH  12  18
BRANCH   9  26
HETATM   26  O3  UNL     1      -0.693   4.910  12.151  1.00  0.00    -0.395 OA
HETATM   27  H14 UNL     1      -1.200   4.432  11.472  1.00  0.00     0.210 HD
ENDBRANCH   9  26
BRANCH  17  28
HETATM   28  C27 UNL     1      -5.740   6.340  13.056  1.00  0.00     0.011 C 
BRANCH  28  29
HETATM   29  C28 UNL     1      -6.175   4.870  13.131  1.00  0.00     0.027 C 
BRANCH  29  30
HETATM   30  C29 UNL     1      -7.669   4.641  12.949  1.00  0.00     0.164 C 
BRANCH  30  31
HETATM   31  O4  UNL     1      -8.333   5.896  13.019  1.00  0.00    -0.401 OA
HETATM   32  H48 UNL     1      -9.288   5.715  13.028  1.00  0.00     0.209 HD
ENDBRANCH  30  31
ENDBRANCH  29  30
ENDBRANCH  28  29
ENDBRANCH  17  28
BRANCH   1  33
HETATM   33  C2  UNL     1      -6.656   7.677  15.637  1.00  0.00     0.160 C 
HETATM   34  C1  UNL     1      -6.914   6.436  16.441  1.00  0.00     0.094 C 
HETATM   35  O1  UNL     1      -7.516   8.517  15.398  1.00  0.00    -0.295 OA
ENDBRANCH   1  33
TORSDOF 10
ENDMDL
MODEL 9
REMARK minimizedAffinity -7.46292591
REMARK  10 active torsions:
REMARK  status: ('A' for Active; 'I' for Inactive)
REMARK    1  A    between atoms: C2_2  and  C3_4 
REMARK    2  A    between atoms: C10_12  and  O3_13 
REMARK    3  A    between atoms: C13_16  and  C14_17 
REMARK    4  A    between atoms: C14_17  and  C16_19 
REMARK    5  A    between atoms: C16_19  and  C17_20 
REMARK    6  A    between atoms: C17_20  and  C18_21 
REMARK    7  A    between atoms: C26_29  and  C27_30 
REMARK    8  A    between atoms: C27_30  and  C28_31 
REMARK    9  A    between atoms: C28_31  and  C29_32 
REMARK   10  A    between atoms: C29_32  and  O4_33 
ROOT
HETATM    1  C3  UNL     1      -4.701   5.219  13.289  1.00  0.00     0.151 A 
HETATM    2  O2  UNL     1      -4.034   4.294  14.174  1.00  0.00    -0.360 OA
HETATM    3  C4  UNL     1      -3.870   4.066  12.779  1.00  0.00     0.166 A 
HETATM    4  C5  UNL     1      -2.567   4.392  12.151  1.00  0.00     0.041 C 
HETATM    5  C6  UNL     1      -1.705   5.421  12.920  1.00  0.00     0.006 C 
HETATM    6  C7  UNL     1      -2.515   6.625  13.602  1.00  0.00    -0.030 C 
HETATM    7  C8  UNL     1      -2.421   6.522  15.158  1.00  0.00     0.016 C 
HETATM    8  C9  UNL     1      -1.895   8.019  13.232  1.00  0.00     0.042 C 
HETATM    9  C10 UNL     1      -0.356   8.166  13.173  1.00  0.00     0.128 C 
HETATM   10  C11 UNL     1       0.433   6.872  12.861  1.00  0.00    -0.006 C 
HETATM   11  C12 UNL     1       0.928   6.253  14.211  1.00  0.00     0.019 C 
HETATM   12  C13 UNL     1       1.694   6.972  11.922  1.00  0.00     0.001 C 
HETATM   13  C22 UNL     1       1.819   5.521  11.365  1.00  0.00     0.007 C 
HETATM   14  C23 UNL     1       0.504   4.787  11.672  1.00  0.00     0.011 C 
HETATM   15  C24 UNL     1      -0.496   5.900  12.041  1.00  0.00    -0.029 C 
HETATM   16  C25 UNL     1      -1.011   6.487  10.684  1.00  0.00     0.016 C 
HETATM   17  C26 UNL     1      -4.056   6.606  13.157  1.00  0.00     0.039 C 
ENDROOT
BRANCH  12  18
HETATM   18  C14 UNL     1       3.051   7.500  12.491  1.00  0.00    -0.013 C 
HETATM   19  C15 UNL     1       3.113   9.032  12.521  1.00  0.00     0.010 C 
BRANCH  18  20
HETATM   20  C16 UNL     1       4.238   6.937  11.659  1.00  0.00     0.008 C 
BRANCH  20  21
HETATM   21  C17 UNL     1       4.405   7.598  10.285  1.00  0.00     0.028 C 
BRANCH  21  22
HETATM   22  C18 UNL     1       3.664   6.831   9.222  1.00  0.00    -0.025 C 
HETATM   23  C19 UNL     1       2.912   7.326   8.220  1.00  0.00    -0.091 C 
HETATM   24  C20 UNL     1       2.621   8.784   7.992  1.00  0.00     0.042 C 
HETATM   25  C21 UNL     1       2.261   6.403   7.223  1.00  0.00     0.042 C 
ENDBRANCH  21  22
ENDBRANCH  20  21
ENDBRANCH  18  20
ENDBRANCH  12  18
BRANCH   9  26
HETATM   26  O3  UNL     1      -0.077   9.173  12.196  1.00  0.00    -0.395 OA
HETATM   27  H14 UNL     1      -0.484  10.002  12.503  1.00  0.00     0.210 HD
ENDBRANCH   9  26
BRANCH  17  28
HETATM   28  C27 UNL     1      -4.914   7.700  13.861  1.00  0.00     0.011 C 
BRANCH  28  29
HETATM   29  C28 UNL     1      -5.298   7.458  15.327  1.00  0.00     0.027 C 
BRANCH  29  30
HETATM   30  C29 UNL     1      -6.744   7.791  15.666  1.00  0.00     0.164 C 
BRANCH  30  31
HETATM   31  O4  UNL     1      -7.118   7.061  16.828  1.00  0.00    -0.401 OA
HETATM   32  H48 UNL     1      -8.074   7.189  16.952  1.00  0.00     0.209 HD
ENDBRANCH  30  31
ENDBRANCH  29  30
ENDBRANCH  28  29
ENDBRANCH  17  28
BRANCH   1  33
HETATM   33  C2  UNL     1      -6.173   5.015  13.156  1.00  0.00     0.160 C 
HETATM   34  C1  UNL     1      -6.726   3.717  13.667  1.00  0.00     0.094 C 
HETATM   35  O1  UNL     1      -6.859   5.873  12.611  1.00  0.00    -0.295 OA
ENDBRANCH   1  33
TORSDOF 10
ENDMDL
