MODEL 1
REMARK minimizedAffinity -7.24361515
REMARK CNNscore 0.656316161
REMARK CNNaffinity 6.89801788
REMARK  6 active torsions:
REMARK  status: ('A' for Active; 'I' for Inactive)
REMARK    1  A    between atoms: C2_2  and  C30_31 
REMARK    2  A    between atoms: C3_3  and  C4_4 
REMARK    3  A    between atoms: C4_4  and  C5_5 
REMARK    4  A    between atoms: C5_5  and  C6_6 
REMARK    5  A    between atoms: C6_6  and  C8_8 
REMARK    6  A    between atoms: C30_31  and  O3_33 
ROOT
HETATM    1  C8  UNL     1      -0.758  13.080  17.378  1.00  0.00    -0.002 C 
HETATM    2  C9  UNL     1      -2.119  13.825  17.539  1.00  0.00     0.007 C 
HETATM    3  C10 UNL     1      -3.216  12.924  16.941  1.00  0.00     0.015 C 
HETATM    4  C11 UNL     1      -2.448  11.843  16.156  1.00  0.00    -0.013 C 
HETATM    5  C12 UNL     1      -2.104  12.481  14.771  1.00  0.00     0.021 C 
HETATM    6  C13 UNL     1      -3.162  10.529  15.851  1.00  0.00    -0.070 C 
HETATM    7  C14 UNL     1      -4.487  10.467  15.632  1.00  0.00    -0.022 C 
HETATM    8  C15 UNL     1      -5.224   9.233  15.218  1.00  0.00     0.034 C 
HETATM    9  C16 UNL     1      -4.398   7.926  15.287  1.00  0.00     0.013 C 
HETATM   10  C17 UNL     1      -5.136   6.704  14.625  1.00  0.00     0.018 C 
HETATM   11  C18 UNL     1      -5.937   7.042  13.351  1.00  0.00     0.023 C 
HETATM   12  C19 UNL     1      -6.130   6.093  15.636  1.00  0.00     0.023 C 
HETATM   13  C20 UNL     1      -4.119   5.608  14.295  1.00  0.00     0.135 C 
HETATM   14  O1  UNL     1      -4.307   4.762  13.421  1.00  0.00    -0.297 OA
HETATM   15  C21 UNL     1      -2.890   5.553  15.160  1.00  0.00     0.080 C 
HETATM   16  C22 UNL     1      -2.078   6.833  15.041  1.00  0.00     0.017 C 
HETATM   17  C23 UNL     1      -2.905   8.145  14.836  1.00  0.00    -0.031 C 
HETATM   18  C24 UNL     1      -2.816   8.541  13.343  1.00  0.00     0.016 C 
HETATM   19  C25 UNL     1      -2.290   9.277  15.757  1.00  0.00     0.024 C 
HETATM   20  C26 UNL     1      -0.807   9.617  15.467  1.00  0.00     0.010 C 
HETATM   21  C27 UNL     1      -0.189  10.703  16.381  1.00  0.00     0.011 C 
HETATM   22  C28 UNL     1      -1.214  11.607  17.102  1.00  0.00    -0.029 C 
HETATM   23  C29 UNL     1      -1.594  10.954  18.469  1.00  0.00     0.016 C 
ENDROOT
BRANCH   1  24
HETATM   24  C6  UNL     1       0.225  13.388  18.549  1.00  0.00    -0.014 C 
HETATM   25  C7  UNL     1      -0.510  13.853  19.811  1.00  0.00     0.010 C 
BRANCH  24  26
HETATM   26  C5  UNL     1       1.087  12.135  18.865  1.00  0.00     0.008 C 
BRANCH  26  27
HETATM   27  C4  UNL     1       0.861  11.561  20.268  1.00  0.00     0.028 C 
BRANCH  27  28
HETATM   28  C3  UNL     1       1.899  12.065  21.236  1.00  0.00    -0.013 C 
HETATM   29  C2  UNL     1       3.004  11.430  21.676  1.00  0.00     0.008 C 
HETATM   30  C1  UNL     1       3.963  12.090  22.625  1.00  0.00     0.055 C 
BRANCH  29  31
HETATM   31  C30 UNL     1       3.304  10.029  21.292  1.00  0.00     0.171 C 
HETATM   32  O2  UNL     1       2.587   9.055  21.423  1.00  0.00    -0.646 OA
BRANCH  31  33
HETATM   33  O3  UNL     1       4.535   9.914  20.761  1.00  0.00    -0.773 OA
HETATM   34  H46 UNL     1       4.602   8.959  20.556  1.00  0.00     0.167 HD
ENDBRANCH  31  33
ENDBRANCH  29  31
ENDBRANCH  27  28
ENDBRANCH  26  27
ENDBRANCH  24  26
ENDBRANCH   1  24
TORSDOF 6
ENDMDL
MODEL 2
REMARK minimizedAffinity -9.48802376
REMARK CNNscore 0.605887711
REMARK CNNaffinity 7.47351837
REMARK  6 active torsions:
REMARK  status: ('A' for Active; 'I' for Inactive)
REMARK    1  A    between atoms: C2_2  and  C30_31 
REMARK    2  A    between atoms: C3_3  and  C4_4 
REMARK    3  A    between atoms: C4_4  and  C5_5 
REMARK    4  A    between atoms: C5_5  and  C6_6 
REMARK    5  A    between atoms: C6_6  and  C8_8 
REMARK    6  A    between atoms: C30_31  and  O3_33 
ROOT
HETATM    1  C8  UNL     1       0.318   7.641  12.980  1.00  0.00    -0.002 C 
HETATM    2  C9  UNL     1       0.411   6.362  12.091  1.00  0.00     0.007 C 
HETATM    3  C10 UNL     1      -0.940   5.629  12.187  1.00  0.00     0.015 C 
HETATM    4  C11 UNL     1      -1.664   6.301  13.370  1.00  0.00    -0.013 C 
HETATM    5  C12 UNL     1      -1.109   5.614  14.660  1.00  0.00     0.021 C 
HETATM    6  C13 UNL     1      -3.184   6.179  13.446  1.00  0.00    -0.070 C 
HETATM    7  C14 UNL     1      -3.840   5.093  13.002  1.00  0.00    -0.022 C 
HETATM    8  C15 UNL     1      -5.311   4.868  13.154  1.00  0.00     0.034 C 
HETATM    9  C16 UNL     1      -6.112   6.094  13.652  1.00  0.00     0.013 C 
HETATM   10  C17 UNL     1      -7.602   5.742  14.016  1.00  0.00     0.018 C 
HETATM   11  C18 UNL     1      -7.797   4.370  14.691  1.00  0.00     0.023 C 
HETATM   12  C19 UNL     1      -8.459   5.742  12.731  1.00  0.00     0.023 C 
HETATM   13  C20 UNL     1      -8.178   6.831  14.926  1.00  0.00     0.135 C 
HETATM   14  O1  UNL     1      -9.119   6.630  15.695  1.00  0.00    -0.297 OA
HETATM   15  C21 UNL     1      -7.592   8.207  14.779  1.00  0.00     0.080 C 
HETATM   16  C22 UNL     1      -6.110   8.212  15.121  1.00  0.00     0.017 C 
HETATM   17  C23 UNL     1      -5.322   6.916  14.739  1.00  0.00    -0.031 C 
HETATM   18  C24 UNL     1      -5.105   6.088  16.028  1.00  0.00     0.016 C 
HETATM   19  C25 UNL     1      -3.935   7.340  14.102  1.00  0.00     0.024 C 
HETATM   20  C26 UNL     1      -3.022   8.177  15.030  1.00  0.00     0.010 C 
HETATM   21  C27 UNL     1      -1.676   8.620  14.406  1.00  0.00     0.011 C 
HETATM   22  C28 UNL     1      -1.228   7.799  13.176  1.00  0.00    -0.029 C 
HETATM   23  C29 UNL     1      -1.815   8.456  11.886  1.00  0.00     0.016 C 
ENDROOT
BRANCH   1  24
HETATM   24  C6  UNL     1       1.157   8.822  12.403  1.00  0.00    -0.014 C 
HETATM   25  C7  UNL     1       2.217   9.313  13.395  1.00  0.00     0.010 C 
BRANCH  24  26
HETATM   26  C5  UNL     1       1.830   8.398  11.069  1.00  0.00     0.008 C 
BRANCH  26  27
HETATM   27  C4  UNL     1       0.954   7.501  10.188  1.00  0.00     0.028 C 
BRANCH  27  28
HETATM   28  C3  UNL     1       1.190   7.777   8.726  1.00  0.00    -0.013 C 
HETATM   29  C2  UNL     1       2.018   7.129   7.881  1.00  0.00     0.008 C 
HETATM   30  C1  UNL     1       2.114   7.511   6.431  1.00  0.00     0.055 C 
BRANCH  29  31
HETATM   31  C30 UNL     1       2.915   6.044   8.345  1.00  0.00     0.171 C 
HETATM   32  O2  UNL     1       3.650   6.055   9.315  1.00  0.00    -0.646 OA
BRANCH  31  33
HETATM   33  O3  UNL     1       2.857   4.972   7.536  1.00  0.00    -0.773 OA
HETATM   34  H46 UNL     1       3.484   4.343   7.949  1.00  0.00     0.167 HD
ENDBRANCH  31  33
ENDBRANCH  29  31
ENDBRANCH  27  28
ENDBRANCH  26  27
ENDBRANCH  24  26
ENDBRANCH   1  24
TORSDOF 6
ENDMDL
MODEL 3
REMARK minimizedAffinity -7.82697868
REMARK CNNscore 0.513356328
REMARK CNNaffinity 7.20842028
REMARK  6 active torsions:
REMARK  status: ('A' for Active; 'I' for Inactive)
REMARK    1  A    between atoms: C2_2  and  C30_31 
REMARK    2  A    between atoms: C3_3  and  C4_4 
REMARK    3  A    between atoms: C4_4  and  C5_5 
REMARK    4  A    between atoms: C5_5  and  C6_6 
REMARK    5  A    between atoms: C6_6  and  C8_8 
REMARK    6  A    between atoms: C30_31  and  O3_33 
ROOT
HETATM    1  C8  UNL     1     -10.656   7.002  14.584  1.00  0.00    -0.002 C 
HETATM    2  C9  UNL     1     -10.627   8.532  14.888  1.00  0.00     0.007 C 
HETATM    3  C10 UNL     1      -9.151   8.969  14.940  1.00  0.00     0.015 C 
HETATM    4  C11 UNL     1      -8.357   7.649  14.999  1.00  0.00    -0.013 C 
HETATM    5  C12 UNL     1      -8.363   7.211  16.500  1.00  0.00     0.021 C 
HETATM    6  C13 UNL     1      -6.892   7.671  14.571  1.00  0.00    -0.070 C 
HETATM    7  C14 UNL     1      -6.105   8.744  14.760  1.00  0.00    -0.022 C 
HETATM    8  C15 UNL     1      -4.638   8.785  14.468  1.00  0.00     0.034 C 
HETATM    9  C16 UNL     1      -4.094   7.567  13.685  1.00  0.00     0.013 C 
HETATM   10  C17 UNL     1      -2.522   7.544  13.608  1.00  0.00     0.018 C 
HETATM   11  C18 UNL     1      -1.804   8.020  14.887  1.00  0.00     0.023 C 
HETATM   12  C19 UNL     1      -2.050   8.457  12.456  1.00  0.00     0.023 C 
HETATM   13  C20 UNL     1      -2.046   6.129  13.268  1.00  0.00     0.135 C 
HETATM   14  O1  UNL     1      -0.923   5.714  13.556  1.00  0.00    -0.297 OA
HETATM   15  C21 UNL     1      -2.995   5.275  12.475  1.00  0.00     0.080 C 
HETATM   16  C22 UNL     1      -4.288   5.036  13.239  1.00  0.00     0.017 C 
HETATM   17  C23 UNL     1      -4.773   6.219  14.139  1.00  0.00    -0.031 C 
HETATM   18  C24 UNL     1      -4.427   5.879  15.608  1.00  0.00     0.016 C 
HETATM   19  C25 UNL     1      -6.337   6.386  13.952  1.00  0.00     0.024 C 
HETATM   20  C26 UNL     1      -7.174   5.142  14.338  1.00  0.00     0.010 C 
HETATM   21  C27 UNL     1      -8.701   5.286  14.133  1.00  0.00     0.011 C 
HETATM   22  C28 UNL     1      -9.211   6.742  14.040  1.00  0.00    -0.029 C 
HETATM   23  C29 UNL     1      -9.167   7.202  12.547  1.00  0.00     0.016 C 
ENDROOT
BRANCH   1  24
HETATM   24  C6  UNL     1     -11.897   6.592  13.734  1.00  0.00    -0.014 C 
HETATM   25  C7  UNL     1     -13.036   6.047  14.602  1.00  0.00     0.010 C 
BRANCH  24  26
HETATM   26  C5  UNL     1     -12.396   7.804  12.900  1.00  0.00     0.008 C 
BRANCH  26  27
HETATM   27  C4  UNL     1     -13.912   8.027  12.970  1.00  0.00     0.028 C 
BRANCH  27  28
HETATM   28  C3  UNL     1     -14.247   9.495  12.947  1.00  0.00    -0.013 C 
HETATM   29  C2  UNL     1     -15.281  10.102  12.330  1.00  0.00     0.008 C 
HETATM   30  C1  UNL     1     -15.494  11.585  12.432  1.00  0.00     0.055 C 
BRANCH  29  31
HETATM   31  C30 UNL     1     -16.231   9.349  11.476  1.00  0.00     0.171 C 
HETATM   32  O2  UNL     1     -16.004   8.352  10.816  1.00  0.00    -0.646 OA
BRANCH  31  33
HETATM   33  O3  UNL     1     -17.452   9.912  11.476  1.00  0.00    -0.773 OA
HETATM   34  H46 UNL     1     -17.970   9.328  10.885  1.00  0.00     0.167 HD
ENDBRANCH  31  33
ENDBRANCH  29  31
ENDBRANCH  27  28
ENDBRANCH  26  27
ENDBRANCH  24  26
ENDBRANCH   1  24
TORSDOF 6
ENDMDL
MODEL 4
REMARK minimizedAffinity -8.74380779
REMARK CNNscore 0.513163865
REMARK CNNaffinity 7.30678415
REMARK  6 active torsions:
REMARK  status: ('A' for Active; 'I' for Inactive)
REMARK    1  A    between atoms: C2_2  and  C30_31 
REMARK    2  A    between atoms: C3_3  and  C4_4 
REMARK    3  A    between atoms: C4_4  and  C5_5 
REMARK    4  A    between atoms: C5_5  and  C6_6 
REMARK    5  A    between atoms: C6_6  and  C8_8 
REMARK    6  A    between atoms: C30_31  and  O3_33 
ROOT
HETATM    1  C8  UNL     1      -3.329   6.678  14.292  1.00  0.00    -0.002 C 
HETATM    2  C9  UNL     1      -3.638   5.421  13.422  1.00  0.00     0.007 C 
HETATM    3  C10 UNL     1      -5.169   5.311  13.292  1.00  0.00     0.015 C 
HETATM    4  C11 UNL     1      -5.721   6.290  14.347  1.00  0.00    -0.013 C 
HETATM    5  C12 UNL     1      -5.699   5.516  15.705  1.00  0.00     0.021 C 
HETATM    6  C13 UNL     1      -7.148   6.804  14.176  1.00  0.00    -0.070 C 
HETATM    7  C14 UNL     1      -8.119   6.056  13.624  1.00  0.00    -0.022 C 
HETATM    8  C15 UNL     1      -9.556   6.460  13.534  1.00  0.00     0.034 C 
HETATM    9  C16 UNL     1      -9.844   7.934  13.904  1.00  0.00     0.013 C 
HETATM   10  C17 UNL     1     -11.383   8.243  14.020  1.00  0.00     0.018 C 
HETATM   11  C18 UNL     1     -12.226   7.114  14.645  1.00  0.00     0.023 C 
HETATM   12  C19 UNL     1     -11.961   8.515  12.614  1.00  0.00     0.023 C 
HETATM   13  C20 UNL     1     -11.589   9.525  14.833  1.00  0.00     0.135 C 
HETATM   14  O1  UNL     1     -12.632   9.773  15.437  1.00  0.00    -0.297 OA
HETATM   15  C21 UNL     1     -10.472  10.530  14.791  1.00  0.00     0.080 C 
HETATM   16  C22 UNL     1      -9.190   9.951  15.369  1.00  0.00     0.017 C 
HETATM   17  C23 UNL     1      -8.959   8.426  15.110  1.00  0.00    -0.031 C 
HETATM   18  C24 UNL     1      -9.300   7.661  16.412  1.00  0.00     0.016 C 
HETATM   19  C25 UNL     1      -7.442   8.207  14.709  1.00  0.00     0.024 C 
HETATM   20  C26 UNL     1      -6.416   8.654  15.779  1.00  0.00     0.010 C 
HETATM   21  C27 UNL     1      -4.930   8.470  15.384  1.00  0.00     0.011 C 
HETATM   22  C28 UNL     1      -4.682   7.465  14.237  1.00  0.00    -0.029 C 
HETATM   23  C29 UNL     1      -4.744   8.225  12.873  1.00  0.00     0.016 C 
ENDROOT
BRANCH   1  24
HETATM   24  C6  UNL     1      -2.000   7.377  13.868  1.00  0.00    -0.014 C 
HETATM   25  C7  UNL     1      -0.939   7.315  14.971  1.00  0.00     0.010 C 
BRANCH  24  26
HETATM   26  C5  UNL     1      -1.453   6.735  12.564  1.00  0.00     0.008 C 
BRANCH  26  27
HETATM   27  C4  UNL     1      -0.071   7.253  12.148  1.00  0.00     0.028 C 
BRANCH  27  28
HETATM   28  C3  UNL     1      -0.117   7.891  10.784  1.00  0.00    -0.013 C 
HETATM   29  C2  UNL     1       0.605   7.571   9.691  1.00  0.00     0.008 C 
HETATM   30  C1  UNL     1       0.414   8.290   8.386  1.00  0.00     0.055 C 
BRANCH  29  31
HETATM   31  C30 UNL     1       1.663   6.533   9.731  1.00  0.00     0.171 C 
HETATM   32  O2  UNL     1       1.572   5.399  10.163  1.00  0.00    -0.646 OA
BRANCH  31  33
HETATM   33  O3  UNL     1       2.825   6.988   9.229  1.00  0.00    -0.773 OA
HETATM   34  H46 UNL     1       3.424   6.219   9.314  1.00  0.00     0.167 HD
ENDBRANCH  31  33
ENDBRANCH  29  31
ENDBRANCH  27  28
ENDBRANCH  26  27
ENDBRANCH  24  26
ENDBRANCH   1  24
TORSDOF 6
ENDMDL
MODEL 5
REMARK minimizedAffinity -9.57517624
REMARK CNNscore 0.480912209
REMARK CNNaffinity 7.15008116
REMARK  6 active torsions:
REMARK  status: ('A' for Active; 'I' for Inactive)
REMARK    1  A    between atoms: C2_2  and  C30_31 
REMARK    2  A    between atoms: C3_3  and  C4_4 
REMARK    3  A    between atoms: C4_4  and  C5_5 
REMARK    4  A    between atoms: C5_5  and  C6_6 
REMARK    5  A    between atoms: C6_6  and  C8_8 
REMARK    6  A    between atoms: C30_31  and  O3_33 
ROOT
HETATM    1  C8  UNL     1      -5.078   7.290  15.548  1.00  0.00    -0.002 C 
HETATM    2  C9  UNL     1      -5.289   8.791  15.177  1.00  0.00     0.007 C 
HETATM    3  C10 UNL     1      -4.038   9.261  14.412  1.00  0.00     0.015 C 
HETATM    4  C11 UNL     1      -2.999   8.145  14.640  1.00  0.00    -0.013 C 
HETATM    5  C12 UNL     1      -2.355   8.436  16.034  1.00  0.00     0.021 C 
HETATM    6  C13 UNL     1      -1.840   8.027  13.654  1.00  0.00    -0.070 C 
HETATM    7  C14 UNL     1      -1.304   9.100  13.045  1.00  0.00    -0.022 C 
HETATM    8  C15 UNL     1      -0.098   9.061  12.161  1.00  0.00     0.034 C 
HETATM    9  C16 UNL     1       0.382   7.643  11.773  1.00  0.00     0.013 C 
HETATM   10  C17 UNL     1       1.777   7.650  11.044  1.00  0.00     0.018 C 
HETATM   11  C18 UNL     1       2.786   8.682  11.585  1.00  0.00     0.023 C 
HETATM   12  C19 UNL     1       1.572   7.957   9.545  1.00  0.00     0.023 C 
HETATM   13  C20 UNL     1       2.403   6.254  11.123  1.00  0.00     0.135 C 
HETATM   14  O1  UNL     1       3.617   6.061  11.038  1.00  0.00    -0.297 OA
HETATM   15  C21 UNL     1       1.450   5.097  11.225  1.00  0.00     0.080 C 
HETATM   16  C22 UNL     1       0.619   5.180  12.495  1.00  0.00     0.017 C 
HETATM   17  C23 UNL     1       0.243   6.623  12.967  1.00  0.00    -0.031 C 
HETATM   18  C24 UNL     1       1.172   7.001  14.145  1.00  0.00     0.016 C 
HETATM   19  C25 UNL     1      -1.274   6.625  13.421  1.00  0.00     0.024 C 
HETATM   20  C26 UNL     1      -1.605   5.660  14.586  1.00  0.00     0.010 C 
HETATM   21  C27 UNL     1      -3.091   5.635  15.019  1.00  0.00     0.011 C 
HETATM   22  C28 UNL     1      -3.916   6.868  14.587  1.00  0.00    -0.029 C 
HETATM   23  C29 UNL     1      -4.528   6.600  13.175  1.00  0.00     0.016 C 
ENDROOT
BRANCH   1  24
HETATM   24  C6  UNL     1      -6.417   6.490  15.553  1.00  0.00    -0.014 C 
HETATM   25  C7  UNL     1      -7.418   7.049  16.570  1.00  0.00     0.010 C 
BRANCH  24  26
HETATM   26  C5  UNL     1      -7.044   6.489  14.132  1.00  0.00     0.008 C 
BRANCH  26  27
HETATM   27  C4  UNL     1      -7.406   5.093  13.612  1.00  0.00     0.028 C 
BRANCH  27  28
HETATM   28  C3  UNL     1      -6.329   4.553  12.709  1.00  0.00    -0.013 C 
HETATM   29  C2  UNL     1      -6.272   3.344  12.113  1.00  0.00     0.008 C 
HETATM   30  C1  UNL     1      -5.134   2.969  11.207  1.00  0.00     0.055 C 
BRANCH  29  31
HETATM   31  C30 UNL     1      -7.298   2.303  12.360  1.00  0.00     0.171 C 
HETATM   32  O2  UNL     1      -8.409   2.455  12.832  1.00  0.00    -0.646 OA
BRANCH  31  33
HETATM   33  O3  UNL     1      -6.859   1.081  12.010  1.00  0.00    -0.773 OA
HETATM   34  H46 UNL     1      -7.619   0.500  12.220  1.00  0.00     0.167 HD
ENDBRANCH  31  33
ENDBRANCH  29  31
ENDBRANCH  27  28
ENDBRANCH  26  27
ENDBRANCH  24  26
ENDBRANCH   1  24
TORSDOF 6
ENDMDL
MODEL 6
REMARK minimizedAffinity -8.36320114
REMARK CNNscore 0.416958869
REMARK CNNaffinity 7.02973795
REMARK  6 active torsions:
REMARK  status: ('A' for Active; 'I' for Inactive)
REMARK    1  A    between atoms: C2_2  and  C30_31 
REMARK    2  A    between atoms: C3_3  and  C4_4 
REMARK    3  A    between atoms: C4_4  and  C5_5 
REMARK    4  A    between atoms: C5_5  and  C6_6 
REMARK    5  A    between atoms: C6_6  and  C8_8 
REMARK    6  A    between atoms: C30_31  and  O3_33 
ROOT
HETATM    1  C8  UNL     1      -4.304   5.886  14.260  1.00  0.00    -0.002 C 
HETATM    2  C9  UNL     1      -4.924   4.706  13.449  1.00  0.00     0.007 C 
HETATM    3  C10 UNL     1      -6.445   4.938  13.378  1.00  0.00     0.015 C 
HETATM    4  C11 UNL     1      -6.718   6.046  14.414  1.00  0.00    -0.013 C 
HETATM    5  C12 UNL     1      -6.811   5.326  15.799  1.00  0.00     0.021 C 
HETATM    6  C13 UNL     1      -8.001   6.861  14.275  1.00  0.00    -0.070 C 
HETATM    7  C14 UNL     1      -9.137   6.334  13.786  1.00  0.00    -0.022 C 
HETATM    8  C15 UNL     1     -10.451   7.048  13.732  1.00  0.00     0.034 C 
HETATM    9  C16 UNL     1     -10.387   8.559  14.056  1.00  0.00     0.013 C 
HETATM   10  C17 UNL     1     -11.812   9.208  14.215  1.00  0.00     0.018 C 
HETATM   11  C18 UNL     1     -12.858   8.315  14.912  1.00  0.00     0.023 C 
HETATM   12  C19 UNL     1     -12.374   9.562  12.821  1.00  0.00     0.023 C 
HETATM   13  C20 UNL     1     -11.691  10.526  14.985  1.00  0.00     0.135 C 
HETATM   14  O1  UNL     1     -12.627  11.019  15.617  1.00  0.00    -0.297 OA
HETATM   15  C21 UNL     1     -10.382  11.254  14.866  1.00  0.00     0.080 C 
HETATM   16  C22 UNL     1      -9.237  10.419  15.419  1.00  0.00     0.017 C 
HETATM   17  C23 UNL     1      -9.363   8.874  15.211  1.00  0.00    -0.031 C 
HETATM   18  C24 UNL     1      -9.809   8.243  16.551  1.00  0.00     0.016 C 
HETATM   19  C25 UNL     1      -7.952   8.310  14.764  1.00  0.00     0.024 C 
HETATM   20  C26 UNL     1      -6.807   8.546  15.779  1.00  0.00     0.010 C 
HETATM   21  C27 UNL     1      -5.418   8.022  15.339  1.00  0.00     0.011 C 
HETATM   22  C28 UNL     1      -5.450   6.954  14.223  1.00  0.00    -0.029 C 
HETATM   23  C29 UNL     1      -5.399   7.669  12.834  1.00  0.00     0.016 C 
ENDROOT
BRANCH   1  24
HETATM   24  C6  UNL     1      -2.873   6.257  13.762  1.00  0.00    -0.014 C 
HETATM   25  C7  UNL     1      -2.425   5.378  12.590  1.00  0.00     0.010 C 
BRANCH  24  26
HETATM   26  C5  UNL     1      -2.821   7.755  13.356  1.00  0.00     0.008 C 
BRANCH  26  27
HETATM   27  C4  UNL     1      -1.409   8.266  13.042  1.00  0.00     0.028 C 
BRANCH  27  28
HETATM   28  C3  UNL     1      -1.225   8.477  11.562  1.00  0.00    -0.013 C 
HETATM   29  C2  UNL     1      -0.079   8.429  10.851  1.00  0.00     0.008 C 
HETATM   30  C1  UNL     1      -0.070   8.632   9.363  1.00  0.00     0.055 C 
BRANCH  29  31
HETATM   31  C30 UNL     1       1.236   8.228  11.505  1.00  0.00     0.171 C 
HETATM   32  O2  UNL     1       1.906   7.213  11.526  1.00  0.00    -0.646 OA
BRANCH  31  33
HETATM   33  O3  UNL     1       1.652   9.342  12.135  1.00  0.00    -0.773 OA
HETATM   34  H46 UNL     1       2.514   9.076  12.515  1.00  0.00     0.167 HD
ENDBRANCH  31  33
ENDBRANCH  29  31
ENDBRANCH  27  28
ENDBRANCH  26  27
ENDBRANCH  24  26
ENDBRANCH   1  24
TORSDOF 6
ENDMDL
MODEL 7
REMARK minimizedAffinity -7.44061089
REMARK CNNscore 0.336657792
REMARK CNNaffinity 6.731462
REMARK  6 active torsions:
REMARK  status: ('A' for Active; 'I' for Inactive)
REMARK    1  A    between atoms: C2_2  and  C30_31 
REMARK    2  A    between atoms: C3_3  and  C4_4 
REMARK    3  A    between atoms: C4_4  and  C5_5 
REMARK    4  A    between atoms: C5_5  and  C6_6 
REMARK    5  A    between atoms: C6_6  and  C8_8 
REMARK    6  A    between atoms: C30_31  and  O3_33 
ROOT
HETATM    1  C8  UNL     1      -7.598   6.491  14.319  1.00  0.00    -0.002 C 
HETATM    2  C9  UNL     1      -7.362   5.149  15.079  1.00  0.00     0.007 C 
HETATM    3  C10 UNL     1      -5.841   4.927  15.171  1.00  0.00     0.015 C 
HETATM    4  C11 UNL     1      -5.238   5.951  14.190  1.00  0.00    -0.013 C 
HETATM    5  C12 UNL     1      -5.328   5.295  12.774  1.00  0.00     0.021 C 
HETATM    6  C13 UNL     1      -3.778   6.354  14.377  1.00  0.00    -0.070 C 
HETATM    7  C14 UNL     1      -2.852   5.501  14.849  1.00  0.00    -0.022 C 
HETATM    8  C15 UNL     1      -1.390   5.800  14.947  1.00  0.00     0.034 C 
HETATM    9  C16 UNL     1      -1.008   7.277  14.693  1.00  0.00     0.013 C 
HETATM   10  C17 UNL     1       0.547   7.493  14.575  1.00  0.00     0.018 C 
HETATM   11  C18 UNL     1       1.304   6.366  13.845  1.00  0.00     0.023 C 
HETATM   12  C19 UNL     1       1.158   7.609  15.988  1.00  0.00     0.023 C 
HETATM   13  C20 UNL     1       0.828   8.821  13.866  1.00  0.00     0.135 C 
HETATM   14  O1  UNL     1       1.879   9.048  13.265  1.00  0.00    -0.297 OA
HETATM   15  C21 UNL     1      -0.218   9.891  14.009  1.00  0.00     0.080 C 
HETATM   16  C22 UNL     1      -1.543   9.447  13.409  1.00  0.00     0.017 C 
HETATM   17  C23 UNL     1      -1.873   7.924  13.546  1.00  0.00    -0.031 C 
HETATM   18  C24 UNL     1      -1.600   7.248  12.181  1.00  0.00     0.016 C 
HETATM   19  C25 UNL     1      -3.396   7.774  13.955  1.00  0.00     0.024 C 
HETATM   20  C26 UNL     1      -4.403   8.374  12.944  1.00  0.00     0.010 C 
HETATM   21  C27 UNL     1      -5.892   8.257  13.348  1.00  0.00     0.011 C 
HETATM   22  C28 UNL     1      -6.194   7.179  14.414  1.00  0.00    -0.029 C 
HETATM   23  C29 UNL     1      -6.064   7.818  15.834  1.00  0.00     0.016 C 
ENDROOT
BRANCH   1  24
HETATM   24  C6  UNL     1      -8.871   7.238  14.823  1.00  0.00    -0.014 C 
HETATM   25  C7  UNL     1      -8.601   8.724  15.085  1.00  0.00     0.010 C 
BRANCH  24  26
HETATM   26  C5  UNL     1     -10.024   7.079  13.795  1.00  0.00     0.008 C 
BRANCH  26  27
HETATM   27  C4  UNL     1     -11.394   6.815  14.432  1.00  0.00     0.028 C 
BRANCH  27  28
HETATM   28  C3  UNL     1     -12.511   7.132  13.472  1.00  0.00    -0.013 C 
HETATM   29  C2  UNL     1     -13.814   6.804  13.576  1.00  0.00     0.008 C 
HETATM   30  C1  UNL     1     -14.815   7.229  12.539  1.00  0.00     0.055 C 
BRANCH  29  31
HETATM   31  C30 UNL     1     -14.322   5.963  14.687  1.00  0.00     0.171 C 
HETATM   32  O2  UNL     1     -14.694   4.806  14.629  1.00  0.00    -0.646 OA
BRANCH  31  33
HETATM   33  O3  UNL     1     -14.355   6.642  15.847  1.00  0.00    -0.773 OA
HETATM   34  H46 UNL     1     -14.701   5.983  16.483  1.00  0.00     0.167 HD
ENDBRANCH  31  33
ENDBRANCH  29  31
ENDBRANCH  27  28
ENDBRANCH  26  27
ENDBRANCH  24  26
ENDBRANCH   1  24
TORSDOF 6
ENDMDL
MODEL 8
REMARK minimizedAffinity -7.74286222
REMARK CNNscore 0.329792202
REMARK CNNaffinity 6.70664024
REMARK  6 active torsions:
REMARK  status: ('A' for Active; 'I' for Inactive)
REMARK    1  A    between atoms: C2_2  and  C30_31 
REMARK    2  A    between atoms: C3_3  and  C4_4 
REMARK    3  A    between atoms: C4_4  and  C5_5 
REMARK    4  A    between atoms: C5_5  and  C6_6 
REMARK    5  A    between atoms: C6_6  and  C8_8 
REMARK    6  A    between atoms: C30_31  and  O3_33 
ROOT
HETATM    1  C8  UNL     1      -1.284  11.022  17.061  1.00  0.00    -0.002 C 
HETATM    2  C9  UNL     1      -2.422  11.553  17.987  1.00  0.00     0.007 C 
HETATM    3  C10 UNL     1      -3.724  10.838  17.581  1.00  0.00     0.015 C 
HETATM    4  C11 UNL     1      -3.397  10.168  16.233  1.00  0.00    -0.013 C 
HETATM    5  C12 UNL     1      -3.573  11.278  15.146  1.00  0.00     0.021 C 
HETATM    6  C13 UNL     1      -4.263   8.994  15.783  1.00  0.00    -0.070 C 
HETATM    7  C14 UNL     1      -5.570   8.910  16.085  1.00  0.00    -0.022 C 
HETATM    8  C15 UNL     1      -6.493   7.847  15.578  1.00  0.00     0.034 C 
HETATM    9  C16 UNL     1      -5.799   6.669  14.855  1.00  0.00     0.013 C 
HETATM   10  C17 UNL     1      -6.818   5.706  14.142  1.00  0.00     0.018 C 
HETATM   11  C18 UNL     1      -8.024   6.408  13.486  1.00  0.00     0.023 C 
HETATM   12  C19 UNL     1      -7.383   4.702  15.171  1.00  0.00     0.023 C 
HETATM   13  C20 UNL     1      -6.086   4.879  13.081  1.00  0.00     0.135 C 
HETATM   14  O1  UNL     1      -6.657   4.384  12.108  1.00  0.00    -0.297 OA
HETATM   15  C21 UNL     1      -4.626   4.619  13.324  1.00  0.00     0.080 C 
HETATM   16  C22 UNL     1      -3.836   5.919  13.363  1.00  0.00     0.017 C 
HETATM   17  C23 UNL     1      -4.584   7.149  13.973  1.00  0.00    -0.031 C 
HETATM   18  C24 UNL     1      -5.054   8.052  12.808  1.00  0.00     0.016 C 
HETATM   19  C25 UNL     1      -3.584   7.927  14.922  1.00  0.00     0.024 C 
HETATM   20  C26 UNL     1      -2.310   8.463  14.224  1.00  0.00     0.010 C 
HETATM   21  C27 UNL     1      -1.312   9.202  15.149  1.00  0.00     0.011 C 
HETATM   22  C28 UNL     1      -1.913   9.710  16.479  1.00  0.00    -0.029 C 
HETATM   23  C29 UNL     1      -1.778   8.589  17.559  1.00  0.00     0.016 C 
ENDROOT
BRANCH   1  24
HETATM   24  C6  UNL     1       0.094  10.972  17.789  1.00  0.00    -0.014 C 
HETATM   25  C7  UNL     1       1.188  11.701  17.001  1.00  0.00     0.010 C 
BRANCH  24  26
HETATM   26  C5  UNL     1      -0.032  11.579  19.213  1.00  0.00     0.008 C 
BRANCH  26  27
HETATM   27  C4  UNL     1       1.271  11.548  20.021  1.00  0.00     0.028 C 
BRANCH  27  28
HETATM   28  C3  UNL     1       1.344  10.319  20.889  1.00  0.00    -0.013 C 
HETATM   29  C2  UNL     1       2.416   9.821  21.537  1.00  0.00     0.008 C 
HETATM   30  C1  UNL     1       2.313   8.593  22.396  1.00  0.00     0.055 C 
BRANCH  29  31
HETATM   31  C30 UNL     1       3.763  10.425  21.396  1.00  0.00     0.171 C 
HETATM   32  O2  UNL     1       4.576  10.225  20.514  1.00  0.00    -0.646 OA
BRANCH  31  33
HETATM   33  O3  UNL     1       4.039  11.264  22.411  1.00  0.00    -0.773 OA
HETATM   34  H46 UNL     1       4.938  11.586  22.198  1.00  0.00     0.167 HD
ENDBRANCH  31  33
ENDBRANCH  29  31
ENDBRANCH  27  28
ENDBRANCH  26  27
ENDBRANCH  24  26
ENDBRANCH   1  24
TORSDOF 6
ENDMDL
MODEL 9
REMARK minimizedAffinity -9.04884148
REMARK CNNscore 0.322055459
REMARK CNNaffinity 7.08856964
REMARK  6 active torsions:
REMARK  status: ('A' for Active; 'I' for Inactive)
REMARK    1  A    between atoms: C2_2  and  C30_31 
REMARK    2  A    between atoms: C3_3  and  C4_4 
REMARK    3  A    between atoms: C4_4  and  C5_5 
REMARK    4  A    between atoms: C5_5  and  C6_6 
REMARK    5  A    between atoms: C6_6  and  C8_8 
REMARK    6  A    between atoms: C30_31  and  O3_33 
ROOT
HETATM    1  C8  UNL     1      -4.228   6.128  14.445  1.00  0.00    -0.002 C 
HETATM    2  C9  UNL     1      -4.816   4.879  13.719  1.00  0.00     0.007 C 
HETATM    3  C10 UNL     1      -6.344   5.053  13.656  1.00  0.00     0.015 C 
HETATM    4  C11 UNL     1      -6.644   6.215  14.624  1.00  0.00    -0.013 C 
HETATM    5  C12 UNL     1      -6.694   5.582  16.052  1.00  0.00     0.021 C 
HETATM    6  C13 UNL     1      -7.956   6.976  14.452  1.00  0.00    -0.070 C 
HETATM    7  C14 UNL     1      -9.078   6.381  14.014  1.00  0.00    -0.022 C 
HETATM    8  C15 UNL     1     -10.417   7.044  13.933  1.00  0.00     0.034 C 
HETATM    9  C16 UNL     1     -10.402   8.574  14.161  1.00  0.00     0.013 C 
HETATM   10  C17 UNL     1     -11.846   9.184  14.299  1.00  0.00     0.018 C 
HETATM   11  C18 UNL     1     -12.852   8.301  15.066  1.00  0.00     0.023 C 
HETATM   12  C19 UNL     1     -12.438   9.429  12.894  1.00  0.00     0.023 C 
HETATM   13  C20 UNL     1     -11.762  10.551  14.983  1.00  0.00     0.135 C 
HETATM   14  O1  UNL     1     -12.707  11.051  15.596  1.00  0.00    -0.297 OA
HETATM   15  C21 UNL     1     -10.480  11.314  14.800  1.00  0.00     0.080 C 
HETATM   16  C22 UNL     1      -9.301  10.555  15.388  1.00  0.00     0.017 C 
HETATM   17  C23 UNL     1      -9.375   8.996  15.279  1.00  0.00    -0.031 C 
HETATM   18  C24 UNL     1      -9.783   8.437  16.663  1.00  0.00     0.016 C 
HETATM   19  C25 UNL     1      -7.951   8.453  14.848  1.00  0.00     0.024 C 
HETATM   20  C26 UNL     1      -6.803   8.792  15.830  1.00  0.00     0.010 C 
HETATM   21  C27 UNL     1      -5.402   8.289  15.404  1.00  0.00     0.011 C 
HETATM   22  C28 UNL     1      -5.410   7.152  14.357  1.00  0.00    -0.029 C 
HETATM   23  C29 UNL     1      -5.402   7.779  12.926  1.00  0.00     0.016 C 
ENDROOT
BRANCH   1  24
HETATM   24  C6  UNL     1      -2.817   6.515  13.904  1.00  0.00    -0.014 C 
HETATM   25  C7  UNL     1      -2.054   7.419  14.879  1.00  0.00     0.010 C 
BRANCH  24  26
HETATM   26  C5  UNL     1      -1.990   5.234  13.606  1.00  0.00     0.008 C 
BRANCH  26  27
HETATM   27  C4  UNL     1      -2.066   4.769  12.148  1.00  0.00     0.028 C 
BRANCH  27  28
HETATM   28  C3  UNL     1      -2.959   3.563  12.007  1.00  0.00    -0.013 C 
HETATM   29  C2  UNL     1      -2.625   2.325  11.590  1.00  0.00     0.008 C 
HETATM   30  C1  UNL     1      -3.636   1.216  11.538  1.00  0.00     0.055 C 
BRANCH  29  31
HETATM   31  C30 UNL     1      -1.258   2.005  11.111  1.00  0.00     0.171 C 
HETATM   32  O2  UNL     1      -0.201   2.341  11.611  1.00  0.00    -0.646 OA
BRANCH  31  33
HETATM   33  O3  UNL     1      -1.287   1.273   9.984  1.00  0.00    -0.773 OA
HETATM   34  H46 UNL     1      -0.339   1.135   9.781  1.00  0.00     0.167 HD
ENDBRANCH  31  33
ENDBRANCH  29  31
ENDBRANCH  27  28
ENDBRANCH  26  27
ENDBRANCH  24  26
ENDBRANCH   1  24
TORSDOF 6
ENDMDL
