MODEL 1
REMARK minimizedAffinity -8.0353632
REMARK CNNscore 0.802521884
REMARK CNNaffinity 7.41380501
REMARK  13 active torsions:
REMARK  status: ('A' for Active; 'I' for Inactive)
REMARK    1  A    between atoms: C2_2  and  C3_3 
REMARK    2  A    between atoms: C3_3  and  C4_4 
REMARK    3  A    between atoms: C6_7  and  C7_8 
REMARK    4  A    between atoms: C7_8  and  O2_9 
REMARK    5  A    between atoms: C7_8  and  C8_10 
REMARK    6  A    between atoms: C8_10  and  O3_12 
REMARK    7  A    between atoms: C8_10  and  C10_13 
REMARK    8  A    between atoms: C13_16  and  O4_17 
REMARK    9  A    between atoms: C19_24  and  O6_25 
REMARK   10  A    between atoms: O6_25  and  C20_26 
REMARK   11  A    between atoms: C20_26  and  C21_27 
REMARK   12  A    between atoms: C21_27  and  C22_28 
REMARK   13  A    between atoms: C22_28  and  O7_29 
ROOT
HETATM    1  C10 UNL     1      -1.426  50.159 -16.987  1.00  0.00     0.034 C 
HETATM    2  C11 UNL     1      -0.396  51.336 -17.052  1.00  0.00     0.012 C 
HETATM    3  C12 UNL     1      -0.376  51.855 -18.506  1.00  0.00     0.044 C 
HETATM    4  C13 UNL     1      -1.610  51.216 -19.145  1.00  0.00     0.089 C 
HETATM    5  C14 UNL     1      -1.783  51.103 -20.641  1.00  0.00    -0.037 C 
HETATM    6  C15 UNL     1      -0.833  51.436 -21.526  1.00  0.00     0.057 C 
HETATM    7  C16 UNL     1      -0.974  51.113 -22.962  1.00  0.00     0.154 C 
HETATM    8  O5  UNL     1      -0.098  51.506 -23.730  1.00  0.00    -0.293 OA
HETATM    9  C17 UNL     1      -2.144  50.234 -23.408  1.00  0.00     0.071 C 
HETATM   10  C18 UNL     1      -2.375  50.395 -24.917  1.00  0.00     0.045 C 
HETATM   11  C19 UNL     1      -2.896  51.788 -25.292  1.00  0.00     0.122 C 
HETATM   12  C24 UNL     1      -4.125  52.168 -24.465  1.00  0.00     0.033 C 
HETATM   13  C25 UNL     1      -3.931  51.960 -22.962  1.00  0.00     0.013 C 
HETATM   14  C26 UNL     1      -3.423  50.531 -22.588  1.00  0.00    -0.026 C 
HETATM   15  C27 UNL     1      -4.540  49.514 -22.946  1.00  0.00     0.016 C 
HETATM   16  C28 UNL     1      -3.119  50.472 -21.043  1.00  0.00     0.026 C 
HETATM   17  C29 UNL     1      -3.197  49.064 -20.402  1.00  0.00     0.011 C 
HETATM   18  C30 UNL     1      -2.925  49.064 -18.882  1.00  0.00     0.014 C 
HETATM   19  C31 UNL     1      -1.608  49.784 -18.502  1.00  0.00    -0.002 C 
HETATM   20  C32 UNL     1      -0.420  48.913 -19.009  1.00  0.00     0.019 C 
ENDROOT
BRANCH   1  21
HETATM   21  C8  UNL     1      -1.052  49.072 -15.915  1.00  0.00     0.087 C 
HETATM   22  C9  UNL     1       0.374  49.356 -15.397  1.00  0.00     0.049 C 
BRANCH  21  23
HETATM   23  C7  UNL     1      -2.063  49.046 -14.728  1.00  0.00     0.181 C 
BRANCH  23  24
HETATM   24  C6  UNL     1      -1.776  50.068 -13.603  1.00  0.00     0.157 C 
HETATM   25  O1  UNL     1      -0.590  50.830 -13.887  1.00  0.00    -0.382 OA
HETATM   26  C5  UNL     1      -0.680  52.089 -13.201  1.00  0.00     0.173 C 
HETATM   27  C4  UNL     1      -2.069  52.187 -12.563  1.00  0.00     0.016 C 
HETATM   28  C33 UNL     1      -2.860  51.130 -13.343  1.00  0.00     0.019 C 
HETATM   29  C34 UNL     1      -3.476  51.757 -14.597  1.00  0.00     0.013 C 
BRANCH  27  30
HETATM   30  C3  UNL     1      -2.059  51.894 -11.048  1.00  0.00     0.007 C 
BRANCH  30  31
HETATM   31  C2  UNL     1      -3.363  52.315 -10.362  1.00  0.00    -0.004 C 
HETATM   32  C1  UNL     1      -3.840  53.674 -10.844  1.00  0.00     0.005 C 
ENDBRANCH  30  31
ENDBRANCH  27  30
ENDBRANCH  23  24
BRANCH  23  33
HETATM   33  O2  UNL     1      -3.394  49.169 -15.238  1.00  0.00    -0.390 OA
HETATM   34  H13 UNL     1      -3.939  49.612 -14.559  1.00  0.00     0.210 HD
ENDBRANCH  23  33
ENDBRANCH  21  23
BRANCH  21  35
HETATM   35  O3  UNL     1      -1.058  47.768 -16.516  1.00  0.00    -0.387 OA
HETATM   36  H17 UNL     1      -0.186  47.617 -16.928  1.00  0.00     0.210 HD
ENDBRANCH  21  35
ENDBRANCH   1  21
BRANCH   4  37
HETATM   37  O4  UNL     1      -2.696  52.052 -18.710  1.00  0.00    -0.384 OA
HETATM   38  H23 UNL     1      -3.368  51.513 -18.267  1.00  0.00     0.211 HD
ENDBRANCH   4  37
BRANCH  11  39
HETATM   39  O6  UNL     1      -3.312  51.799 -26.659  1.00  0.00    -0.386 OA
BRANCH  39  40
HETATM   40  C20 UNL     1      -2.230  51.879 -27.590  1.00  0.00     0.170 C 
BRANCH  40  41
HETATM   41  C21 UNL     1      -1.228  52.922 -27.099  1.00  0.00     0.052 C 
BRANCH  41  42
HETATM   42  C22 UNL     1       0.177  52.713 -27.678  1.00  0.00     0.169 C 
BRANCH  42  43
HETATM   43  O7  UNL     1       0.757  51.441 -27.400  1.00  0.00    -0.396 OA
HETATM   44  C23 UNL     1       1.949  51.529 -26.630  1.00  0.00     0.201 C 
ENDBRANCH  42  43
ENDBRANCH  41  42
ENDBRANCH  40  41
ENDBRANCH  39  40
ENDBRANCH  11  39
TORSDOF 13
ENDMDL
MODEL 2
REMARK minimizedAffinity -8.80062199
REMARK CNNscore 0.78797859
REMARK CNNaffinity 7.46171951
REMARK  13 active torsions:
REMARK  status: ('A' for Active; 'I' for Inactive)
REMARK    1  A    between atoms: C2_2  and  C3_3 
REMARK    2  A    between atoms: C3_3  and  C4_4 
REMARK    3  A    between atoms: C6_7  and  C7_8 
REMARK    4  A    between atoms: C7_8  and  O2_9 
REMARK    5  A    between atoms: C7_8  and  C8_10 
REMARK    6  A    between atoms: C8_10  and  O3_12 
REMARK    7  A    between atoms: C8_10  and  C10_13 
REMARK    8  A    between atoms: C13_16  and  O4_17 
REMARK    9  A    between atoms: C19_24  and  O6_25 
REMARK   10  A    between atoms: O6_25  and  C20_26 
REMARK   11  A    between atoms: C20_26  and  C21_27 
REMARK   12  A    between atoms: C21_27  and  C22_28 
REMARK   13  A    between atoms: C22_28  and  O7_29 
ROOT
HETATM    1  C10 UNL     1      -3.538  49.231 -17.925  1.00  0.00     0.034 C 
HETATM    2  C11 UNL     1      -3.088  50.649 -17.437  1.00  0.00     0.012 C 
HETATM    3  C12 UNL     1      -2.645  51.448 -18.681  1.00  0.00     0.044 C 
HETATM    4  C13 UNL     1      -3.164  50.621 -19.858  1.00  0.00     0.089 C 
HETATM    5  C14 UNL     1      -2.633  50.784 -21.263  1.00  0.00    -0.037 C 
HETATM    6  C15 UNL     1      -1.592  51.569 -21.577  1.00  0.00     0.057 C 
HETATM    7  C16 UNL     1      -0.983  51.534 -22.924  1.00  0.00     0.154 C 
HETATM    8  O5  UNL     1      -0.076  52.327 -23.166  1.00  0.00    -0.293 OA
HETATM    9  C17 UNL     1      -1.443  50.461 -23.912  1.00  0.00     0.071 C 
HETATM   10  C18 UNL     1      -1.055  50.865 -25.341  1.00  0.00     0.045 C 
HETATM   11  C19 UNL     1      -1.838  52.084 -25.847  1.00  0.00     0.122 C 
HETATM   12  C24 UNL     1      -3.345  51.890 -25.680  1.00  0.00     0.033 C 
HETATM   13  C25 UNL     1      -3.744  51.433 -24.276  1.00  0.00     0.013 C 
HETATM   14  C26 UNL     1      -2.959  50.177 -23.779  1.00  0.00    -0.026 C 
HETATM   15  C27 UNL     1      -3.362  48.974 -24.672  1.00  0.00     0.016 C 
HETATM   16  C28 UNL     1      -3.340  49.882 -22.278  1.00  0.00     0.026 C 
HETATM   17  C29 UNL     1      -3.161  48.414 -21.822  1.00  0.00     0.011 C 
HETATM   18  C30 UNL     1      -3.579  48.169 -20.356  1.00  0.00     0.014 C 
HETATM   19  C31 UNL     1      -2.911  49.152 -19.363  1.00  0.00    -0.002 C 
HETATM   20  C32 UNL     1      -1.393  48.808 -19.293  1.00  0.00     0.019 C 
ENDROOT
BRANCH   1  21
HETATM   21  C8  UNL     1      -3.285  48.103 -16.860  1.00  0.00     0.087 C 
HETATM   22  C9  UNL     1      -2.488  46.962 -17.527  1.00  0.00     0.049 C 
BRANCH  21  23
HETATM   23  C7  UNL     1      -2.520  48.637 -15.610  1.00  0.00     0.181 C 
BRANCH  23  24
HETATM   24  C6  UNL     1      -1.453  49.717 -15.909  1.00  0.00     0.157 C 
HETATM   25  O1  UNL     1      -1.354  50.658 -14.827  1.00  0.00    -0.382 OA
HETATM   26  C5  UNL     1      -0.039  51.237 -14.844  1.00  0.00     0.173 C 
HETATM   27  C4  UNL     1       0.787  50.514 -15.912  1.00  0.00     0.016 C 
HETATM   28  C33 UNL     1      -0.011  49.222 -16.121  1.00  0.00     0.019 C 
HETATM   29  C34 UNL     1       0.463  48.149 -15.136  1.00  0.00     0.013 C 
BRANCH  27  30
HETATM   30  C3  UNL     1       0.923  51.322 -17.219  1.00  0.00     0.007 C 
BRANCH  30  31
HETATM   31  C2  UNL     1       1.669  52.645 -17.015  1.00  0.00    -0.004 C 
HETATM   32  C1  UNL     1       3.078  52.422 -16.492  1.00  0.00     0.005 C 
ENDBRANCH  30  31
ENDBRANCH  27  30
ENDBRANCH  23  24
BRANCH  23  33
HETATM   33  O2  UNL     1      -3.465  49.074 -14.629  1.00  0.00    -0.390 OA
HETATM   34  H13 UNL     1      -3.054  49.793 -14.111  1.00  0.00     0.210 HD
ENDBRANCH  23  33
ENDBRANCH  21  23
BRANCH  21  35
HETATM   35  O3  UNL     1      -4.537  47.569 -16.405  1.00  0.00    -0.387 OA
HETATM   36  H17 UNL     1      -4.817  46.873 -17.029  1.00  0.00     0.210 HD
ENDBRANCH  21  35
ENDBRANCH   1  21
BRANCH   4  37
HETATM   37  O4  UNL     1      -4.554  50.978 -19.945  1.00  0.00    -0.384 OA
HETATM   38  H23 UNL     1      -5.102  50.181 -19.900  1.00  0.00     0.211 HD
ENDBRANCH   4  37
BRANCH  11  39
HETATM   39  O6  UNL     1      -1.608  52.262 -27.246  1.00  0.00    -0.386 OA
BRANCH  39  40
HETATM   40  C20 UNL     1      -0.809  53.406 -27.558  1.00  0.00     0.170 C 
BRANCH  40  41
HETATM   41  C21 UNL     1       0.234  53.016 -28.602  1.00  0.00     0.052 C 
BRANCH  41  42
HETATM   42  C22 UNL     1       1.210  51.947 -28.094  1.00  0.00     0.169 C 
BRANCH  42  43
HETATM   43  O7  UNL     1       1.946  52.312 -26.929  1.00  0.00    -0.396 OA
HETATM   44  C23 UNL     1       2.506  51.195 -26.250  1.00  0.00     0.201 C 
ENDBRANCH  42  43
ENDBRANCH  41  42
ENDBRANCH  40  41
ENDBRANCH  39  40
ENDBRANCH  11  39
TORSDOF 13
ENDMDL
MODEL 3
REMARK minimizedAffinity -8.19322491
REMARK CNNscore 0.727424324
REMARK CNNaffinity 7.10658979
REMARK  13 active torsions:
REMARK  status: ('A' for Active; 'I' for Inactive)
REMARK    1  A    between atoms: C2_2  and  C3_3 
REMARK    2  A    between atoms: C3_3  and  C4_4 
REMARK    3  A    between atoms: C6_7  and  C7_8 
REMARK    4  A    between atoms: C7_8  and  O2_9 
REMARK    5  A    between atoms: C7_8  and  C8_10 
REMARK    6  A    between atoms: C8_10  and  O3_12 
REMARK    7  A    between atoms: C8_10  and  C10_13 
REMARK    8  A    between atoms: C13_16  and  O4_17 
REMARK    9  A    between atoms: C19_24  and  O6_25 
REMARK   10  A    between atoms: O6_25  and  C20_26 
REMARK   11  A    between atoms: C20_26  and  C21_27 
REMARK   12  A    between atoms: C21_27  and  C22_28 
REMARK   13  A    between atoms: C22_28  and  O7_29 
ROOT
HETATM    1  C10 UNL     1      -3.309  49.266 -18.007  1.00  0.00     0.034 C 
HETATM    2  C11 UNL     1      -2.967  50.730 -17.570  1.00  0.00     0.012 C 
HETATM    3  C12 UNL     1      -2.591  51.518 -18.842  1.00  0.00     0.044 C 
HETATM    4  C13 UNL     1      -3.048  50.613 -19.988  1.00  0.00     0.089 C 
HETATM    5  C14 UNL     1      -2.536  50.768 -21.400  1.00  0.00    -0.037 C 
HETATM    6  C15 UNL     1      -1.559  51.619 -21.746  1.00  0.00     0.057 C 
HETATM    7  C16 UNL     1      -0.953  51.584 -23.094  1.00  0.00     0.154 C 
HETATM    8  O5  UNL     1      -0.110  52.436 -23.369  1.00  0.00    -0.293 OA
HETATM    9  C17 UNL     1      -1.332  50.446 -24.044  1.00  0.00     0.071 C 
HETATM   10  C18 UNL     1      -0.980  50.829 -25.487  1.00  0.00     0.045 C 
HETATM   11  C19 UNL     1      -1.856  51.966 -26.030  1.00  0.00     0.122 C 
HETATM   12  C24 UNL     1      -3.343  51.663 -25.848  1.00  0.00     0.033 C 
HETATM   13  C25 UNL     1      -3.702  51.225 -24.427  1.00  0.00     0.013 C 
HETATM   14  C26 UNL     1      -2.821  50.051 -23.892  1.00  0.00    -0.026 C 
HETATM   15  C27 UNL     1      -3.133  48.791 -24.742  1.00  0.00     0.016 C 
HETATM   16  C28 UNL     1      -3.174  49.780 -22.380  1.00  0.00     0.026 C 
HETATM   17  C29 UNL     1      -2.881  48.346 -21.875  1.00  0.00     0.011 C 
HETATM   18  C30 UNL     1      -3.275  48.121 -20.399  1.00  0.00     0.014 C 
HETATM   19  C31 UNL     1      -2.682  49.186 -19.445  1.00  0.00    -0.002 C 
HETATM   20  C32 UNL     1      -1.142  48.962 -19.371  1.00  0.00     0.019 C 
ENDROOT
BRANCH   1  21
HETATM   21  C8  UNL     1      -2.967  48.198 -16.905  1.00  0.00     0.087 C 
HETATM   22  C9  UNL     1      -2.801  46.821 -17.583  1.00  0.00     0.049 C 
BRANCH  21  23
HETATM   23  C7  UNL     1      -1.677  48.567 -16.111  1.00  0.00     0.181 C 
BRANCH  23  24
HETATM   24  C6  UNL     1      -1.910  49.436 -14.852  1.00  0.00     0.157 C 
HETATM   25  O1  UNL     1      -1.891  48.634 -13.659  1.00  0.00    -0.382 OA
HETATM   26  C5  UNL     1      -1.518  49.471 -12.552  1.00  0.00     0.173 C 
HETATM   27  C4  UNL     1      -1.141  50.850 -13.101  1.00  0.00     0.016 C 
HETATM   28  C33 UNL     1      -0.882  50.550 -14.583  1.00  0.00     0.019 C 
HETATM   29  C34 UNL     1       0.582  50.152 -14.788  1.00  0.00     0.013 C 
BRANCH  27  30
HETATM   30  C3  UNL     1      -2.256  51.899 -12.915  1.00  0.00     0.007 C 
BRANCH  30  31
HETATM   31  C2  UNL     1      -3.409  51.380 -12.047  1.00  0.00    -0.004 C 
HETATM   32  C1  UNL     1      -3.664  52.281 -10.851  1.00  0.00     0.005 C 
ENDBRANCH  30  31
ENDBRANCH  27  30
ENDBRANCH  23  24
BRANCH  23  33
HETATM   33  O2  UNL     1      -0.950  47.372 -15.810  1.00  0.00    -0.390 OA
HETATM   34  H13 UNL     1      -0.461  47.516 -14.976  1.00  0.00     0.210 HD
ENDBRANCH  23  33
ENDBRANCH  21  23
BRANCH  21  35
HETATM   35  O3  UNL     1      -4.044  48.105 -15.961  1.00  0.00    -0.387 OA
HETATM   36  H17 UNL     1      -4.707  47.482 -16.313  1.00  0.00     0.210 HD
ENDBRANCH  21  35
ENDBRANCH   1  21
BRANCH   4  37
HETATM   37  O4  UNL     1      -4.462  50.859 -20.079  1.00  0.00    -0.384 OA
HETATM   38  H23 UNL     1      -4.947  50.024 -20.004  1.00  0.00     0.211 HD
ENDBRANCH   4  37
BRANCH  11  39
HETATM   39  O6  UNL     1      -1.644  52.112 -27.436  1.00  0.00    -0.386 OA
BRANCH  39  40
HETATM   40  C20 UNL     1      -1.254  53.432 -27.825  1.00  0.00     0.170 C 
BRANCH  40  41
HETATM   41  C21 UNL     1       0.118  53.369 -28.492  1.00  0.00     0.052 C 
BRANCH  41  42
HETATM   42  C22 UNL     1       0.952  52.172 -28.019  1.00  0.00     0.169 C 
BRANCH  42  43
HETATM   43  O7  UNL     1       1.815  52.440 -26.916  1.00  0.00    -0.396 OA
HETATM   44  C23 UNL     1       2.499  51.283 -26.451  1.00  0.00     0.201 C 
ENDBRANCH  42  43
ENDBRANCH  41  42
ENDBRANCH  40  41
ENDBRANCH  39  40
ENDBRANCH  11  39
TORSDOF 13
ENDMDL
MODEL 4
REMARK minimizedAffinity -6.99520111
REMARK CNNscore 0.620676219
REMARK CNNaffinity 7.03826094
REMARK  13 active torsions:
REMARK  status: ('A' for Active; 'I' for Inactive)
REMARK    1  A    between atoms: C2_2  and  C3_3 
REMARK    2  A    between atoms: C3_3  and  C4_4 
REMARK    3  A    between atoms: C6_7  and  C7_8 
REMARK    4  A    between atoms: C7_8  and  O2_9 
REMARK    5  A    between atoms: C7_8  and  C8_10 
REMARK    6  A    between atoms: C8_10  and  O3_12 
REMARK    7  A    between atoms: C8_10  and  C10_13 
REMARK    8  A    between atoms: C13_16  and  O4_17 
REMARK    9  A    between atoms: C19_24  and  O6_25 
REMARK   10  A    between atoms: O6_25  and  C20_26 
REMARK   11  A    between atoms: C20_26  and  C21_27 
REMARK   12  A    between atoms: C21_27  and  C22_28 
REMARK   13  A    between atoms: C22_28  and  O7_29 
ROOT
HETATM    1  C10 UNL     1      -2.743  48.701 -15.156  1.00  0.00     0.034 C 
HETATM    2  C11 UNL     1      -2.939  50.164 -14.635  1.00  0.00     0.012 C 
HETATM    3  C12 UNL     1      -2.664  51.118 -15.817  1.00  0.00     0.044 C 
HETATM    4  C13 UNL     1      -2.658  50.199 -17.041  1.00  0.00     0.089 C 
HETATM    5  C14 UNL     1      -2.038  50.604 -18.357  1.00  0.00    -0.037 C 
HETATM    6  C15 UNL     1      -1.341  51.736 -18.533  1.00  0.00     0.057 C 
HETATM    7  C16 UNL     1      -0.582  51.985 -19.777  1.00  0.00     0.154 C 
HETATM    8  O5  UNL     1      -0.020  53.071 -19.902  1.00  0.00    -0.293 OA
HETATM    9  C17 UNL     1      -0.455  50.856 -20.801  1.00  0.00     0.071 C 
HETATM   10  C18 UNL     1      -0.054  51.429 -22.167  1.00  0.00     0.045 C 
HETATM   11  C19 UNL     1      -1.162  52.278 -22.803  1.00  0.00     0.122 C 
HETATM   12  C24 UNL     1      -2.490  51.522 -22.851  1.00  0.00     0.033 C 
HETATM   13  C25 UNL     1      -2.878  50.895 -21.511  1.00  0.00     0.013 C 
HETATM   14  C26 UNL     1      -1.752  50.013 -20.882  1.00  0.00    -0.026 C 
HETATM   15  C27 UNL     1      -1.537  48.781 -21.801  1.00  0.00     0.016 C 
HETATM   16  C28 UNL     1      -2.199  49.540 -19.446  1.00  0.00     0.026 C 
HETATM   17  C29 UNL     1      -1.541  48.233 -18.942  1.00  0.00     0.011 C 
HETATM   18  C30 UNL     1      -2.036  47.794 -17.546  1.00  0.00     0.014 C 
HETATM   19  C31 UNL     1      -1.938  48.919 -16.487  1.00  0.00    -0.002 C 
HETATM   20  C32 UNL     1      -0.429  49.173 -16.192  1.00  0.00     0.019 C 
ENDROOT
BRANCH   1  21
HETATM   21  C8  UNL     1      -2.232  47.714 -14.044  1.00  0.00     0.087 C 
HETATM   22  C9  UNL     1      -1.370  46.620 -14.710  1.00  0.00     0.049 C 
BRANCH  21  23
HETATM   23  C7  UNL     1      -1.413  48.448 -12.939  1.00  0.00     0.181 C 
BRANCH  23  24
HETATM   24  C6  UNL     1      -2.260  49.086 -11.812  1.00  0.00     0.157 C 
HETATM   25  O1  UNL     1      -2.131  48.345 -10.586  1.00  0.00    -0.382 OA
HETATM   26  C5  UNL     1      -2.404  49.230  -9.487  1.00  0.00     0.173 C 
HETATM   27  C4  UNL     1      -2.576  50.646 -10.045  1.00  0.00     0.016 C 
HETATM   28  C33 UNL     1      -1.914  50.534 -11.424  1.00  0.00     0.019 C 
HETATM   29  C34 UNL     1      -0.418  50.842 -11.313  1.00  0.00     0.013 C 
BRANCH  27  30
HETATM   30  C3  UNL     1      -4.054  51.077 -10.151  1.00  0.00     0.007 C 
BRANCH  30  31
HETATM   31  C2  UNL     1      -4.218  52.435 -10.844  1.00  0.00    -0.004 C 
HETATM   32  C1  UNL     1      -3.398  53.517 -10.164  1.00  0.00     0.005 C 
ENDBRANCH  30  31
ENDBRANCH  27  30
ENDBRANCH  23  24
BRANCH  23  33
HETATM   33  O2  UNL     1      -0.415  47.562 -12.423  1.00  0.00    -0.390 OA
HETATM   34  H13 UNL     1      -0.246  47.804 -11.492  1.00  0.00     0.210 HD
ENDBRANCH  23  33
ENDBRANCH  21  23
BRANCH  21  35
HETATM   35  O3  UNL     1      -3.347  47.077 -13.404  1.00  0.00    -0.387 OA
HETATM   36  H17 UNL     1      -3.600  46.298 -13.934  1.00  0.00     0.210 HD
ENDBRANCH  21  35
ENDBRANCH   1  21
BRANCH   4  37
HETATM   37  O4  UNL     1      -4.053  50.006 -17.334  1.00  0.00    -0.384 OA
HETATM   38  H23 UNL     1      -4.256  49.060 -17.353  1.00  0.00     0.211 HD
ENDBRANCH   4  37
BRANCH  11  39
HETATM   39  O6  UNL     1      -0.823  52.582 -24.158  1.00  0.00    -0.386 OA
BRANCH  39  40
HETATM   40  C20 UNL     1       0.561  52.883 -24.351  1.00  0.00     0.170 C 
BRANCH  40  41
HETATM   41  C21 UNL     1       1.032  52.241 -25.654  1.00  0.00     0.052 C 
BRANCH  41  42
HETATM   42  C22 UNL     1       0.159  51.055 -26.080  1.00  0.00     0.169 C 
BRANCH  42  43
HETATM   43  O7  UNL     1      -0.393  51.156 -27.391  1.00  0.00    -0.396 OA
HETATM   44  C23 UNL     1       0.440  51.877 -28.291  1.00  0.00     0.201 C 
ENDBRANCH  42  43
ENDBRANCH  41  42
ENDBRANCH  40  41
ENDBRANCH  39  40
ENDBRANCH  11  39
TORSDOF 13
ENDMDL
MODEL 5
REMARK minimizedAffinity -7.1921258
REMARK CNNscore 0.470588177
REMARK CNNaffinity 6.86846542
REMARK  13 active torsions:
REMARK  status: ('A' for Active; 'I' for Inactive)
REMARK    1  A    between atoms: C2_2  and  C3_3 
REMARK    2  A    between atoms: C3_3  and  C4_4 
REMARK    3  A    between atoms: C6_7  and  C7_8 
REMARK    4  A    between atoms: C7_8  and  O2_9 
REMARK    5  A    between atoms: C7_8  and  C8_10 
REMARK    6  A    between atoms: C8_10  and  O3_12 
REMARK    7  A    between atoms: C8_10  and  C10_13 
REMARK    8  A    between atoms: C13_16  and  O4_17 
REMARK    9  A    between atoms: C19_24  and  O6_25 
REMARK   10  A    between atoms: O6_25  and  C20_26 
REMARK   11  A    between atoms: C20_26  and  C21_27 
REMARK   12  A    between atoms: C21_27  and  C22_28 
REMARK   13  A    between atoms: C22_28  and  O7_29 
ROOT
HETATM    1  C10 UNL     1      -7.531  47.389 -20.046  1.00  0.00     0.034 C 
HETATM    2  C11 UNL     1      -7.003  47.964 -18.689  1.00  0.00     0.012 C 
HETATM    3  C12 UNL     1      -5.791  48.864 -19.007  1.00  0.00     0.044 C 
HETATM    4  C13 UNL     1      -5.861  49.060 -20.522  1.00  0.00     0.089 C 
HETATM    5  C14 UNL     1      -4.677  49.524 -21.337  1.00  0.00    -0.037 C 
HETATM    6  C15 UNL     1      -3.445  49.685 -20.832  1.00  0.00     0.057 C 
HETATM    7  C16 UNL     1      -2.283  49.939 -21.710  1.00  0.00     0.154 C 
HETATM    8  O5  UNL     1      -1.194  50.146 -21.179  1.00  0.00    -0.293 OA
HETATM    9  C17 UNL     1      -2.469  49.842 -23.225  1.00  0.00     0.071 C 
HETATM   10  C18 UNL     1      -1.321  50.566 -23.942  1.00  0.00     0.045 C 
HETATM   11  C19 UNL     1      -1.361  52.086 -23.739  1.00  0.00     0.122 C 
HETATM   12  C24 UNL     1      -2.731  52.663 -24.094  1.00  0.00     0.033 C 
HETATM   13  C25 UNL     1      -3.891  51.917 -23.432  1.00  0.00     0.013 C 
HETATM   14  C26 UNL     1      -3.856  50.373 -23.663  1.00  0.00    -0.026 C 
HETATM   15  C27 UNL     1      -4.080  50.108 -25.176  1.00  0.00     0.016 C 
HETATM   16  C28 UNL     1      -5.003  49.692 -22.824  1.00  0.00     0.026 C 
HETATM   17  C29 UNL     1      -5.504  48.330 -23.363  1.00  0.00     0.011 C 
HETATM   18  C30 UNL     1      -6.649  47.720 -22.526  1.00  0.00     0.014 C 
HETATM   19  C31 UNL     1      -6.320  47.641 -21.015  1.00  0.00    -0.002 C 
HETATM   20  C32 UNL     1      -5.213  46.563 -20.818  1.00  0.00     0.019 C 
ENDROOT
BRANCH   1  21
HETATM   21  C8  UNL     1      -8.179  45.964 -19.902  1.00  0.00     0.087 C 
HETATM   22  C9  UNL     1      -7.054  44.907 -19.885  1.00  0.00     0.049 C 
BRANCH  21  23
HETATM   23  C7  UNL     1      -9.052  45.843 -18.615  1.00  0.00     0.181 C 
BRANCH  23  24
HETATM   24  C6  UNL     1     -10.541  46.222 -18.797  1.00  0.00     0.157 C 
HETATM   25  O1  UNL     1     -11.394  45.339 -18.049  1.00  0.00    -0.382 OA
HETATM   26  C5  UNL     1     -12.620  46.028 -17.756  1.00  0.00     0.173 C 
HETATM   27  C4  UNL     1     -12.476  47.479 -18.222  1.00  0.00     0.016 C 
HETATM   28  C33 UNL     1     -10.955  47.633 -18.341  1.00  0.00     0.019 C 
HETATM   29  C34 UNL     1     -10.368  48.085 -17.001  1.00  0.00     0.013 C 
BRANCH  27  30
HETATM   30  C3  UNL     1     -13.187  47.755 -19.564  1.00  0.00     0.007 C 
BRANCH  30  31
HETATM   31  C2  UNL     1     -14.022  49.040 -19.530  1.00  0.00    -0.004 C 
HETATM   32  C1  UNL     1     -15.143  48.957 -18.509  1.00  0.00     0.005 C 
ENDBRANCH  30  31
ENDBRANCH  27  30
ENDBRANCH  23  24
BRANCH  23  33
HETATM   33  O2  UNL     1      -8.895  44.534 -18.059  1.00  0.00    -0.390 OA
HETATM   34  H13 UNL     1      -9.724  44.300 -17.597  1.00  0.00     0.210 HD
ENDBRANCH  23  33
ENDBRANCH  21  23
BRANCH  21  35
HETATM   35  O3  UNL     1      -9.029  45.696 -21.027  1.00  0.00    -0.387 OA
HETATM   36  H17 UNL     1      -8.478  45.337 -21.748  1.00  0.00     0.210 HD
ENDBRANCH  21  35
ENDBRANCH   1  21
BRANCH   4  37
HETATM   37  O4  UNL     1      -6.852  50.088 -20.692  1.00  0.00    -0.384 OA
HETATM   38  H23 UNL     1      -7.549  49.777 -21.288  1.00  0.00     0.211 HD
ENDBRANCH   4  37
BRANCH  11  39
HETATM   39  O6  UNL     1      -0.421  52.716 -24.612  1.00  0.00    -0.386 OA
BRANCH  39  40
HETATM   40  C20 UNL     1       0.866  52.920 -24.023  1.00  0.00     0.170 C 
BRANCH  40  41
HETATM   41  C21 UNL     1       0.700  53.101 -22.516  1.00  0.00     0.052 C 
BRANCH  41  42
HETATM   42  C22 UNL     1       1.388  54.368 -21.992  1.00  0.00     0.169 C 
BRANCH  42  43
HETATM   43  O7  UNL     1       1.579  54.405 -20.580  1.00  0.00    -0.396 OA
HETATM   44  C23 UNL     1       0.508  53.811 -19.857  1.00  0.00     0.201 C 
ENDBRANCH  42  43
ENDBRANCH  41  42
ENDBRANCH  40  41
ENDBRANCH  39  40
ENDBRANCH  11  39
TORSDOF 13
ENDMDL
MODEL 6
REMARK minimizedAffinity -7.44631815
REMARK CNNscore 0.436145395
REMARK CNNaffinity 7.01612234
REMARK  13 active torsions:
REMARK  status: ('A' for Active; 'I' for Inactive)
REMARK    1  A    between atoms: C2_2  and  C3_3 
REMARK    2  A    between atoms: C3_3  and  C4_4 
REMARK    3  A    between atoms: C6_7  and  C7_8 
REMARK    4  A    between atoms: C7_8  and  O2_9 
REMARK    5  A    between atoms: C7_8  and  C8_10 
REMARK    6  A    between atoms: C8_10  and  O3_12 
REMARK    7  A    between atoms: C8_10  and  C10_13 
REMARK    8  A    between atoms: C13_16  and  O4_17 
REMARK    9  A    between atoms: C19_24  and  O6_25 
REMARK   10  A    between atoms: O6_25  and  C20_26 
REMARK   11  A    between atoms: C20_26  and  C21_27 
REMARK   12  A    between atoms: C21_27  and  C22_28 
REMARK   13  A    between atoms: C22_28  and  O7_29 
ROOT
HETATM    1  C10 UNL     1      -1.879  49.274 -18.794  1.00  0.00     0.034 C 
HETATM    2  C11 UNL     1      -2.008  47.735 -18.542  1.00  0.00     0.012 C 
HETATM    3  C12 UNL     1      -2.813  47.138 -19.716  1.00  0.00     0.044 C 
HETATM    4  C13 UNL     1      -2.827  48.256 -20.761  1.00  0.00     0.089 C 
HETATM    5  C14 UNL     1      -3.822  48.293 -21.897  1.00  0.00    -0.037 C 
HETATM    6  C15 UNL     1      -4.841  47.431 -22.020  1.00  0.00     0.057 C 
HETATM    7  C16 UNL     1      -5.902  47.635 -23.029  1.00  0.00     0.154 C 
HETATM    8  O5  UNL     1      -6.771  46.773 -23.134  1.00  0.00    -0.293 OA
HETATM    9  C17 UNL     1      -5.921  48.943 -23.823  1.00  0.00     0.071 C 
HETATM   10  C18 UNL     1      -6.774  48.775 -25.088  1.00  0.00     0.045 C 
HETATM   11  C19 UNL     1      -6.139  47.822 -26.109  1.00  0.00     0.122 C 
HETATM   12  C24 UNL     1      -4.695  48.216 -26.421  1.00  0.00     0.033 C 
HETATM   13  C25 UNL     1      -3.846  48.442 -25.170  1.00  0.00     0.013 C 
HETATM   14  C26 UNL     1      -4.489  49.433 -24.147  1.00  0.00    -0.026 C 
HETATM   15  C27 UNL     1      -4.536  50.838 -24.803  1.00  0.00     0.016 C 
HETATM   16  C28 UNL     1      -3.608  49.479 -22.840  1.00  0.00     0.026 C 
HETATM   17  C29 UNL     1      -3.720  50.780 -22.009  1.00  0.00     0.011 C 
HETATM   18  C30 UNL     1      -2.814  50.792 -20.758  1.00  0.00     0.014 C 
HETATM   19  C31 UNL     1      -2.994  49.537 -19.868  1.00  0.00    -0.002 C 
HETATM   20  C32 UNL     1      -4.402  49.614 -19.206  1.00  0.00     0.019 C 
ENDROOT
BRANCH   1  21
HETATM   21  C8  UNL     1      -1.810  50.113 -17.465  1.00  0.00     0.087 C 
HETATM   22  C9  UNL     1      -2.068  49.170 -16.270  1.00  0.00     0.049 C 
BRANCH  21  23
HETATM   23  C7  UNL     1      -0.439  50.836 -17.297  1.00  0.00     0.181 C 
BRANCH  23  24
HETATM   24  C6  UNL     1       0.009  51.680 -18.514  1.00  0.00     0.157 C 
HETATM   25  O1  UNL     1      -0.808  52.855 -18.656  1.00  0.00    -0.382 OA
HETATM   26  C5  UNL     1      -0.049  53.856 -19.354  1.00  0.00     0.173 C 
HETATM   27  C4  UNL     1       1.378  53.334 -19.536  1.00  0.00     0.016 C 
HETATM   28  C33 UNL     1       1.451  52.216 -18.489  1.00  0.00     0.019 C 
HETATM   29  C34 UNL     1       1.913  52.787 -17.145  1.00  0.00     0.013 C 
BRANCH  27  30
HETATM   30  C3  UNL     1       1.650  52.805 -20.960  1.00  0.00     0.007 C 
BRANCH  30  31
HETATM   31  C2  UNL     1       0.370  52.343 -21.666  1.00  0.00    -0.004 C 
HETATM   32  C1  UNL     1       0.329  52.801 -23.114  1.00  0.00     0.005 C 
ENDBRANCH  30  31
ENDBRANCH  27  30
ENDBRANCH  23  24
BRANCH  23  33
HETATM   33  O2  UNL     1      -0.455  51.602 -16.089  1.00  0.00    -0.390 OA
HETATM   34  H13 UNL     1       0.137  52.371 -16.210  1.00  0.00     0.210 HD
ENDBRANCH  23  33
ENDBRANCH  21  23
BRANCH  21  35
HETATM   35  O3  UNL     1      -2.833  51.120 -17.469  1.00  0.00    -0.387 OA
HETATM   36  H17 UNL     1      -3.658  50.720 -17.136  1.00  0.00     0.210 HD
ENDBRANCH  21  35
ENDBRANCH   1  21
BRANCH   4  37
HETATM   37  O4  UNL     1      -1.543  48.149 -21.398  1.00  0.00    -0.384 OA
HETATM   38  H23 UNL     1      -1.080  48.998 -21.349  1.00  0.00     0.211 HD
ENDBRANCH   4  37
BRANCH  11  39
HETATM   39  O6  UNL     1      -6.852  47.892 -27.346  1.00  0.00    -0.386 OA
BRANCH  39  40
HETATM   40  C20 UNL     1      -6.020  47.738 -28.499  1.00  0.00     0.170 C 
BRANCH  40  41
HETATM   41  C21 UNL     1      -6.743  46.864 -29.521  1.00  0.00     0.052 C 
BRANCH  41  42
HETATM   42  C22 UNL     1      -5.859  46.498 -30.719  1.00  0.00     0.169 C 
BRANCH  42  43
HETATM   43  O7  UNL     1      -4.808  47.421 -30.993  1.00  0.00    -0.396 OA
HETATM   44  C23 UNL     1      -4.968  48.097 -32.234  1.00  0.00     0.201 C 
ENDBRANCH  42  43
ENDBRANCH  41  42
ENDBRANCH  40  41
ENDBRANCH  39  40
ENDBRANCH  11  39
TORSDOF 13
ENDMDL
MODEL 7
REMARK minimizedAffinity -8.46122456
REMARK CNNscore 0.411802173
REMARK CNNaffinity 7.29799032
REMARK  13 active torsions:
REMARK  status: ('A' for Active; 'I' for Inactive)
REMARK    1  A    between atoms: C2_2  and  C3_3 
REMARK    2  A    between atoms: C3_3  and  C4_4 
REMARK    3  A    between atoms: C6_7  and  C7_8 
REMARK    4  A    between atoms: C7_8  and  O2_9 
REMARK    5  A    between atoms: C7_8  and  C8_10 
REMARK    6  A    between atoms: C8_10  and  O3_12 
REMARK    7  A    between atoms: C8_10  and  C10_13 
REMARK    8  A    between atoms: C13_16  and  O4_17 
REMARK    9  A    between atoms: C19_24  and  O6_25 
REMARK   10  A    between atoms: O6_25  and  C20_26 
REMARK   11  A    between atoms: C20_26  and  C21_27 
REMARK   12  A    between atoms: C21_27  and  C22_28 
REMARK   13  A    between atoms: C22_28  and  O7_29 
ROOT
HETATM    1  C10 UNL     1      -2.714  50.755 -20.781  1.00  0.00     0.034 C 
HETATM    2  C11 UNL     1      -3.667  49.638 -20.239  1.00  0.00     0.012 C 
HETATM    3  C12 UNL     1      -3.173  49.249 -18.829  1.00  0.00     0.044 C 
HETATM    4  C13 UNL     1      -2.188  50.361 -18.462  1.00  0.00     0.089 C 
HETATM    5  C14 UNL     1      -1.160  50.206 -17.367  1.00  0.00    -0.037 C 
HETATM    6  C15 UNL     1      -0.939  49.057 -16.712  1.00  0.00     0.057 C 
HETATM    7  C16 UNL     1       0.213  48.903 -15.799  1.00  0.00     0.154 C 
HETATM    8  O5  UNL     1       0.319  47.847 -15.178  1.00  0.00    -0.293 OA
HETATM    9  C17 UNL     1       1.261  50.016 -15.740  1.00  0.00     0.071 C 
HETATM   10  C18 UNL     1       2.087  49.890 -14.453  1.00  0.00     0.045 C 
HETATM   11  C19 UNL     1       1.268  50.192 -13.191  1.00  0.00     0.122 C 
HETATM   12  C24 UNL     1       0.548  51.536 -13.298  1.00  0.00     0.033 C 
HETATM   13  C25 UNL     1      -0.235  51.701 -14.602  1.00  0.00     0.013 C 
HETATM   14  C26 UNL     1       0.613  51.415 -15.882  1.00  0.00    -0.026 C 
HETATM   15  C27 UNL     1       1.709  52.508 -15.986  1.00  0.00     0.016 C 
HETATM   16  C28 UNL     1      -0.321  51.469 -17.150  1.00  0.00     0.026 C 
HETATM   17  C29 UNL     1       0.387  51.810 -18.485  1.00  0.00     0.011 C 
HETATM   18  C30 UNL     1      -0.575  51.884 -19.690  1.00  0.00     0.014 C 
HETATM   19  C31 UNL     1      -1.468  50.627 -19.832  1.00  0.00    -0.002 C 
HETATM   20  C32 UNL     1      -0.559  49.436 -20.260  1.00  0.00     0.019 C 
ENDROOT
BRANCH   1  21
HETATM   21  C8  UNL     1      -2.556  50.725 -22.344  1.00  0.00     0.087 C 
HETATM   22  C9  UNL     1      -3.869  50.203 -22.965  1.00  0.00     0.049 C 
BRANCH  21  23
HETATM   23  C7  UNL     1      -2.205  52.129 -22.926  1.00  0.00     0.181 C 
BRANCH  23  24
HETATM   24  C6  UNL     1      -1.192  52.117 -24.096  1.00  0.00     0.157 C 
HETATM   25  O1  UNL     1      -1.359  53.271 -24.936  1.00  0.00    -0.382 OA
HETATM   26  C5  UNL     1      -0.112  53.539 -25.597  1.00  0.00     0.173 C 
HETATM   27  C4  UNL     1       0.944  52.584 -25.032  1.00  0.00     0.016 C 
HETATM   28  C33 UNL     1       0.300  52.131 -23.716  1.00  0.00     0.019 C 
HETATM   29  C34 UNL     1       0.679  53.095 -22.589  1.00  0.00     0.013 C 
BRANCH  27  30
HETATM   30  C3  UNL     1       1.241  51.392 -25.966  1.00  0.00     0.007 C 
BRANCH  30  31
HETATM   31  C2  UNL     1       2.011  51.812 -27.223  1.00  0.00    -0.004 C 
HETATM   32  C1  UNL     1       1.137  51.758 -28.464  1.00  0.00     0.005 C 
ENDBRANCH  30  31
ENDBRANCH  27  30
ENDBRANCH  23  24
BRANCH  23  33
HETATM   33  O2  UNL     1      -3.413  52.813 -23.271  1.00  0.00    -0.390 OA
HETATM   34  H13 UNL     1      -3.219  53.415 -24.016  1.00  0.00     0.210 HD
ENDBRANCH  23  33
ENDBRANCH  21  23
BRANCH  21  35
HETATM   35  O3  UNL     1      -1.498  49.828 -22.713  1.00  0.00    -0.387 OA
HETATM   36  H17 UNL     1      -1.867  48.926 -22.765  1.00  0.00     0.210 HD
ENDBRANCH  21  35
ENDBRANCH   1  21
BRANCH   4  37
HETATM   37  O4  UNL     1      -3.033  51.440 -18.026  1.00  0.00    -0.384 OA
HETATM   38  H23 UNL     1      -2.838  52.238 -18.538  1.00  0.00     0.211 HD
ENDBRANCH   4  37
BRANCH  11  39
HETATM   39  O6  UNL     1       2.138  50.291 -12.061  1.00  0.00    -0.386 OA
BRANCH  39  40
HETATM   40  C20 UNL     1       1.900  51.444 -11.250  1.00  0.00     0.170 C 
BRANCH  40  41
HETATM   41  C21 UNL     1       3.233  52.124 -10.948  1.00  0.00     0.052 C 
BRANCH  41  42
HETATM   42  C22 UNL     1       3.064  53.564 -10.448  1.00  0.00     0.169 C 
BRANCH  42  43
HETATM   43  O7  UNL     1       3.997  54.498 -10.986  1.00  0.00    -0.396 OA
HETATM   44  C23 UNL     1       4.812  55.107  -9.993  1.00  0.00     0.201 C 
ENDBRANCH  42  43
ENDBRANCH  41  42
ENDBRANCH  40  41
ENDBRANCH  39  40
ENDBRANCH  11  39
TORSDOF 13
ENDMDL
MODEL 8
REMARK minimizedAffinity -7.52539158
REMARK CNNscore 0.411628664
REMARK CNNaffinity 6.77308083
REMARK  13 active torsions:
REMARK  status: ('A' for Active; 'I' for Inactive)
REMARK    1  A    between atoms: C2_2  and  C3_3 
REMARK    2  A    between atoms: C3_3  and  C4_4 
REMARK    3  A    between atoms: C6_7  and  C7_8 
REMARK    4  A    between atoms: C7_8  and  O2_9 
REMARK    5  A    between atoms: C7_8  and  C8_10 
REMARK    6  A    between atoms: C8_10  and  O3_12 
REMARK    7  A    between atoms: C8_10  and  C10_13 
REMARK    8  A    between atoms: C13_16  and  O4_17 
REMARK    9  A    between atoms: C19_24  and  O6_25 
REMARK   10  A    between atoms: O6_25  and  C20_26 
REMARK   11  A    between atoms: C20_26  and  C21_27 
REMARK   12  A    between atoms: C21_27  and  C22_28 
REMARK   13  A    between atoms: C22_28  and  O7_29 
ROOT
HETATM    1  C10 UNL     1       0.304  49.461 -13.690  1.00  0.00     0.034 C 
HETATM    2  C11 UNL     1      -0.670  48.248 -13.516  1.00  0.00     0.012 C 
HETATM    3  C12 UNL     1      -1.440  48.078 -14.843  1.00  0.00     0.044 C 
HETATM    4  C13 UNL     1      -0.666  48.949 -15.835  1.00  0.00     0.089 C 
HETATM    5  C14 UNL     1      -1.262  49.418 -17.141  1.00  0.00    -0.037 C 
HETATM    6  C15 UNL     1      -2.543  49.219 -17.487  1.00  0.00     0.057 C 
HETATM    7  C16 UNL     1      -3.127  49.875 -18.676  1.00  0.00     0.154 C 
HETATM    8  O5  UNL     1      -4.286  49.597 -18.976  1.00  0.00    -0.293 OA
HETATM    9  C17 UNL     1      -2.302  50.928 -19.417  1.00  0.00     0.071 C 
HETATM   10  C18 UNL     1      -2.866  51.139 -20.828  1.00  0.00     0.045 C 
HETATM   11  C19 UNL     1      -2.666  49.918 -21.736  1.00  0.00     0.122 C 
HETATM   12  C24 UNL     1      -1.206  49.463 -21.749  1.00  0.00     0.033 C 
HETATM   13  C25 UNL     1      -0.610  49.302 -20.350  1.00  0.00     0.013 C 
HETATM   14  C26 UNL     1      -0.798  50.559 -19.441  1.00  0.00    -0.026 C 
HETATM   15  C27 UNL     1       0.032  51.721 -20.049  1.00  0.00     0.016 C 
HETATM   16  C28 UNL     1      -0.282  50.235 -17.987  1.00  0.00     0.026 C 
HETATM   17  C29 UNL     1       0.169  51.458 -17.152  1.00  0.00     0.011 C 
HETATM   18  C30 UNL     1       0.697  51.085 -15.750  1.00  0.00     0.014 C 
HETATM   19  C31 UNL     1      -0.282  50.189 -14.952  1.00  0.00    -0.002 C 
HETATM   20  C32 UNL     1      -1.524  51.051 -14.574  1.00  0.00     0.019 C 
ENDROOT
BRANCH   1  21
HETATM   21  C8  UNL     1       0.568  50.237 -12.348  1.00  0.00     0.087 C 
HETATM   22  C9  UNL     1       2.065  50.120 -11.993  1.00  0.00     0.049 C 
BRANCH  21  23
HETATM   23  C7  UNL     1       0.152  51.737 -12.445  1.00  0.00     0.181 C 
BRANCH  23  24
HETATM   24  C6  UNL     1      -0.937  52.180 -11.440  1.00  0.00     0.157 C 
HETATM   25  O1  UNL     1      -0.716  51.594 -10.146  1.00  0.00    -0.382 OA
HETATM   26  C5  UNL     1      -1.324  52.436  -9.153  1.00  0.00     0.173 C 
HETATM   27  C4  UNL     1      -1.835  53.701  -9.847  1.00  0.00     0.016 C 
HETATM   28  C33 UNL     1      -1.048  53.690 -11.163  1.00  0.00     0.019 C 
HETATM   29  C34 UNL     1       0.285  54.421 -10.982  1.00  0.00     0.013 C 
BRANCH  27  30
HETATM   30  C3  UNL     1      -3.359  53.682 -10.090  1.00  0.00     0.007 C 
BRANCH  30  31
HETATM   31  C2  UNL     1      -3.756  52.754 -11.244  1.00  0.00    -0.004 C 
HETATM   32  C1  UNL     1      -4.517  51.535 -10.750  1.00  0.00     0.005 C 
ENDBRANCH  30  31
ENDBRANCH  27  30
ENDBRANCH  23  24
BRANCH  23  33
HETATM   33  O2  UNL     1       1.322  52.557 -12.364  1.00  0.00    -0.390 OA
HETATM   34  H13 UNL     1       1.067  53.410 -11.961  1.00  0.00     0.210 HD
ENDBRANCH  23  33
ENDBRANCH  21  23
BRANCH  21  35
HETATM   35  O3  UNL     1      -0.192  49.646 -11.283  1.00  0.00    -0.387 OA
HETATM   36  H17 UNL     1       0.321  48.902 -10.917  1.00  0.00     0.210 HD
ENDBRANCH  21  35
ENDBRANCH   1  21
BRANCH   4  37
HETATM   37  O4  UNL     1       0.453  48.130 -16.213  1.00  0.00    -0.384 OA
HETATM   38  H23 UNL     1       1.280  48.607 -16.048  1.00  0.00     0.211 HD
ENDBRANCH   4  37
BRANCH  11  39
HETATM   39  O6  UNL     1      -2.993  50.258 -23.085  1.00  0.00    -0.386 OA
BRANCH  39  40
HETATM   40  C20 UNL     1      -1.852  50.497 -23.912  1.00  0.00     0.170 C 
BRANCH  40  41
HETATM   41  C21 UNL     1      -2.323  50.871 -25.315  1.00  0.00     0.052 C 
BRANCH  41  42
HETATM   42  C22 UNL     1      -2.065  49.763 -26.343  1.00  0.00     0.169 C 
BRANCH  42  43
HETATM   43  O7  UNL     1      -3.231  49.264 -26.994  1.00  0.00    -0.396 OA
HETATM   44  C23 UNL     1      -4.056  48.484 -26.137  1.00  0.00     0.201 C 
ENDBRANCH  42  43
ENDBRANCH  41  42
ENDBRANCH  40  41
ENDBRANCH  39  40
ENDBRANCH  11  39
TORSDOF 13
ENDMDL
MODEL 9
REMARK minimizedAffinity -7.23270273
REMARK CNNscore 0.38172403
REMARK CNNaffinity 5.96258307
REMARK  13 active torsions:
REMARK  status: ('A' for Active; 'I' for Inactive)
REMARK    1  A    between atoms: C2_2  and  C3_3 
REMARK    2  A    between atoms: C3_3  and  C4_4 
REMARK    3  A    between atoms: C6_7  and  C7_8 
REMARK    4  A    between atoms: C7_8  and  O2_9 
REMARK    5  A    between atoms: C7_8  and  C8_10 
REMARK    6  A    between atoms: C8_10  and  O3_12 
REMARK    7  A    between atoms: C8_10  and  C10_13 
REMARK    8  A    between atoms: C13_16  and  O4_17 
REMARK    9  A    between atoms: C19_24  and  O6_25 
REMARK   10  A    between atoms: O6_25  and  C20_26 
REMARK   11  A    between atoms: C20_26  and  C21_27 
REMARK   12  A    between atoms: C21_27  and  C22_28 
REMARK   13  A    between atoms: C22_28  and  O7_29 
ROOT
HETATM    1  C10 UNL     1     -11.087  45.889 -28.594  1.00  0.00     0.034 C 
HETATM    2  C11 UNL     1     -10.184  46.191 -27.351  1.00  0.00     0.012 C 
HETATM    3  C12 UNL     1     -11.105  46.263 -26.115  1.00  0.00     0.044 C 
HETATM    4  C13 UNL     1     -12.430  45.674 -26.604  1.00  0.00     0.089 C 
HETATM    5  C14 UNL     1     -13.737  45.904 -25.883  1.00  0.00    -0.037 C 
HETATM    6  C15 UNL     1     -13.872  46.731 -24.836  1.00  0.00     0.057 C 
HETATM    7  C16 UNL     1     -15.205  47.079 -24.299  1.00  0.00     0.154 C 
HETATM    8  O5  UNL     1     -15.256  47.787 -23.297  1.00  0.00    -0.293 OA
HETATM    9  C17 UNL     1     -16.449  46.621 -25.063  1.00  0.00     0.071 C 
HETATM   10  C18 UNL     1     -17.676  46.669 -24.143  1.00  0.00     0.045 C 
HETATM   11  C19 UNL     1     -17.619  45.623 -23.023  1.00  0.00     0.122 C 
HETATM   12  C24 UNL     1     -17.355  44.222 -23.577  1.00  0.00     0.033 C 
HETATM   13  C25 UNL     1     -16.169  44.167 -24.540  1.00  0.00     0.013 C 
HETATM   14  C26 UNL     1     -16.247  45.220 -25.691  1.00  0.00    -0.026 C 
HETATM   15  C27 UNL     1     -17.455  44.856 -26.595  1.00  0.00     0.016 C 
HETATM   16  C28 UNL     1     -14.915  45.175 -26.533  1.00  0.00     0.026 C 
HETATM   17  C29 UNL     1     -15.035  45.666 -27.996  1.00  0.00     0.011 C 
HETATM   18  C30 UNL     1     -13.713  45.570 -28.788  1.00  0.00     0.014 C 
HETATM   19  C31 UNL     1     -12.523  46.245 -28.064  1.00  0.00    -0.002 C 
HETATM   20  C32 UNL     1     -12.759  47.785 -28.080  1.00  0.00     0.019 C 
ENDROOT
BRANCH   1  21
HETATM   21  C8  UNL     1     -10.530  46.511 -29.926  1.00  0.00     0.087 C 
HETATM   22  C9  UNL     1      -9.847  47.856 -29.597  1.00  0.00     0.049 C 
BRANCH  21  23
HETATM   23  C7  UNL     1      -9.527  45.558 -30.644  1.00  0.00     0.181 C 
BRANCH  23  24
HETATM   24  C6  UNL     1      -8.430  46.268 -31.473  1.00  0.00     0.157 C 
HETATM   25  O1  UNL     1      -8.745  47.658 -31.664  1.00  0.00    -0.382 OA
HETATM   26  C5  UNL     1      -7.520  48.378 -31.879  1.00  0.00     0.173 C 
HETATM   27  C4  UNL     1      -6.353  47.410 -31.669  1.00  0.00     0.016 C 
HETATM   28  C33 UNL     1      -7.011  46.275 -30.876  1.00  0.00     0.019 C 
HETATM   29  C34 UNL     1      -6.934  46.572 -29.376  1.00  0.00     0.013 C 
BRANCH  27  30
HETATM   30  C3  UNL     1      -5.743  46.905 -32.994  1.00  0.00     0.007 C 
BRANCH  30  31
HETATM   31  C2  UNL     1      -4.217  46.770 -32.921  1.00  0.00    -0.004 C 
HETATM   32  C1  UNL     1      -3.521  47.734 -33.867  1.00  0.00     0.005 C 
ENDBRANCH  30  31
ENDBRANCH  27  30
ENDBRANCH  23  24
BRANCH  23  33
HETATM   33  O2  UNL     1      -8.973  44.648 -29.689  1.00  0.00    -0.390 OA
HETATM   34  H13 UNL     1      -8.074  44.406 -29.987  1.00  0.00     0.210 HD
ENDBRANCH  23  33
ENDBRANCH  21  23
BRANCH  21  35
HETATM   35  O3  UNL     1     -11.610  46.768 -30.836  1.00  0.00    -0.387 OA
HETATM   36  H17 UNL     1     -11.988  47.642 -30.623  1.00  0.00     0.210 HD
ENDBRANCH  21  35
ENDBRANCH   1  21
BRANCH   4  37
HETATM   37  O4  UNL     1     -12.219  44.254 -26.543  1.00  0.00    -0.384 OA
HETATM   38  H23 UNL     1     -12.396  43.858 -27.409  1.00  0.00     0.211 HD
ENDBRANCH   4  37
BRANCH  11  39
HETATM   39  O6  UNL     1     -18.881  45.559 -22.354  1.00  0.00    -0.386 OA
BRANCH  39  40
HETATM   40  C20 UNL     1     -18.836  46.006 -20.996  1.00  0.00     0.170 C 
BRANCH  40  41
HETATM   41  C21 UNL     1     -17.426  46.500 -20.682  1.00  0.00     0.052 C 
BRANCH  41  42
HETATM   42  C22 UNL     1     -17.184  46.683 -19.178  1.00  0.00     0.169 C 
BRANCH  42  43
HETATM   43  O7  UNL     1     -17.065  48.038 -18.751  1.00  0.00    -0.396 OA
HETATM   44  C23 UNL     1     -15.747  48.379 -18.339  1.00  0.00     0.201 C 
ENDBRANCH  42  43
ENDBRANCH  41  42
ENDBRANCH  40  41
ENDBRANCH  39  40
ENDBRANCH  11  39
TORSDOF 13
ENDMDL
