MODEL 1
REMARK minimizedAffinity -6.31757975
REMARK CNNscore 0.466065973
REMARK CNNaffinity 5.70060539
REMARK  8 active torsions:
REMARK  status: ('A' for Active; 'I' for Inactive)
REMARK    1  A    between atoms: C5_5  and  C6_6 
REMARK    2  A    between atoms: C6_6  and  O1_9 
REMARK    3  A    between atoms: C14_16  and  C15_17 
REMARK    4  A    between atoms: C16_19  and  O4_20 
REMARK    5  A    between atoms: C17_21  and  C18_22 
REMARK    6  A    between atoms: C19_24  and  O6_25 
REMARK    7  A    between atoms: C21_27  and  C22_28 
REMARK    8  A    between atoms: C22_28  and  C23_29 
ROOT
HETATM    1  C1  UNL     1       3.263  56.563 -11.463  1.00  0.00     0.019 C 
HETATM    2  C2  UNL     1       2.878  55.590 -10.615  1.00  0.00    -0.068 C 
HETATM    3  C3  UNL     1       1.448  55.345 -10.471  1.00  0.00     0.003 C 
HETATM    4  C4  UNL     1       0.700  54.795  -9.496  1.00  0.00    -0.019 C 
HETATM    5  C5  UNL     1       1.091  54.201  -8.154  1.00  0.00     0.042 C 
HETATM    6  C9  UNL     1       1.158  55.285  -7.037  1.00  0.00     0.014 C 
HETATM    7  C10 UNL     1       1.901  56.595  -7.363  1.00  0.00     0.039 C 
HETATM    8  C11 UNL     1       3.439  56.679  -7.114  1.00  0.00     0.068 C 
HETATM    9  C12 UNL     1       3.901  57.967  -7.855  1.00  0.00     0.047 C 
HETATM   10  O2  UNL     1       3.565  56.944  -5.675  1.00  0.00    -0.338 OA
HETATM   11  C13 UNL     1       4.880  57.160  -5.316  1.00  0.00     0.095 A 
HETATM   12  C14 UNL     1       5.224  58.290  -4.573  1.00  0.00     0.070 A 
HETATM   13  C16 UNL     1       6.577  58.567  -4.339  1.00  0.00     0.097 A 
HETATM   14  C17 UNL     1       7.558  57.717  -4.864  1.00  0.00     0.069 A 
HETATM   15  C19 UNL     1       7.190  56.558  -5.580  1.00  0.00     0.091 A 
HETATM   16  C20 UNL     1       5.844  56.237  -5.764  1.00  0.00     0.015 A 
HETATM   17  C21 UNL     1       5.241  54.979  -6.349  1.00  0.00     0.031 C 
HETATM   18  C26 UNL     1       4.244  55.377  -7.494  1.00  0.00     0.029 C 
HETATM   19  C27 UNL     1       4.849  55.349  -8.921  1.00  0.00     0.013 C 
HETATM   20  C28 UNL     1       3.944  54.711 -10.001  1.00  0.00     0.038 C 
ENDROOT
BRANCH   5  21
HETATM   21  C6  UNL     1       0.205  52.961  -7.747  1.00  0.00     0.057 C 
HETATM   22  C7  UNL     1      -1.267  53.368  -7.565  1.00  0.00     0.046 C 
HETATM   23  C8  UNL     1       0.282  51.772  -8.716  1.00  0.00     0.046 C 
BRANCH  21  24
HETATM   24  O1  UNL     1       0.661  52.503  -6.462  1.00  0.00    -0.390 OA
HETATM   25  H12 UNL     1       0.118  51.742  -6.197  1.00  0.00     0.210 HD
ENDBRANCH  21  24
ENDBRANCH   5  21
BRANCH  17  26
HETATM   26  C22 UNL     1       6.089  53.717  -6.656  1.00  0.00     0.014 C 
BRANCH  26  27
HETATM   27  C23 UNL     1       7.043  53.792  -7.877  1.00  0.00    -0.022 C 
HETATM   28  C24 UNL     1       7.023  55.177  -8.536  1.00  0.00     0.009 C 
HETATM   29  C25 UNL     1       6.823  52.710  -8.928  1.00  0.00     0.009 C 
ENDBRANCH  26  27
ENDBRANCH  17  26
BRANCH  12  30
HETATM   30  C15 UNL     1       4.165  59.186  -4.077  1.00  0.00     0.275 C 
HETATM   31  O3  UNL     1       2.986  58.944  -4.324  1.00  0.00    -0.301 OA
ENDBRANCH  12  30
BRANCH  13  32
HETATM   32  O4  UNL     1       6.972  59.673  -3.627  1.00  0.00    -0.359 OA
HETATM   33  H21 UNL     1       6.168  60.168  -3.339  1.00  0.00     0.217 HD
ENDBRANCH  13  32
BRANCH  15  34
HETATM   34  O6  UNL     1       8.137  55.739  -6.128  1.00  0.00    -0.359 OA
HETATM   35  H23 UNL     1       9.032  56.097  -5.924  1.00  0.00     0.217 HD
ENDBRANCH  15  34
BRANCH  14  36
HETATM   36  C18 UNL     1       8.983  58.051  -4.653  1.00  0.00     0.275 C 
HETATM   37  O5  UNL     1       9.765  57.206  -4.224  1.00  0.00    -0.301 OA
ENDBRANCH  14  36
TORSDOF 8
ENDMDL
MODEL 2
REMARK minimizedAffinity -6.4115243
REMARK CNNscore 0.403418601
REMARK CNNaffinity 5.46476316
REMARK  8 active torsions:
REMARK  status: ('A' for Active; 'I' for Inactive)
REMARK    1  A    between atoms: C5_5  and  C6_6 
REMARK    2  A    between atoms: C6_6  and  O1_9 
REMARK    3  A    between atoms: C14_16  and  C15_17 
REMARK    4  A    between atoms: C16_19  and  O4_20 
REMARK    5  A    between atoms: C17_21  and  C18_22 
REMARK    6  A    between atoms: C19_24  and  O6_25 
REMARK    7  A    between atoms: C21_27  and  C22_28 
REMARK    8  A    between atoms: C22_28  and  C23_29 
ROOT
HETATM    1  C1  UNL     1     -14.073  47.810  -1.908  1.00  0.00     0.019 C 
HETATM    2  C2  UNL     1     -12.996  48.524  -2.288  1.00  0.00    -0.068 C 
HETATM    3  C3  UNL     1     -12.500  49.540  -1.367  1.00  0.00     0.003 C 
HETATM    4  C4  UNL     1     -11.768  50.657  -1.534  1.00  0.00    -0.019 C 
HETATM    5  C5  UNL     1     -11.167  51.278  -2.783  1.00  0.00     0.042 C 
HETATM    6  C9  UNL     1     -12.173  52.226  -3.501  1.00  0.00     0.014 C 
HETATM    7  C10 UNL     1     -13.611  51.709  -3.709  1.00  0.00     0.039 C 
HETATM    8  C11 UNL     1     -13.944  50.882  -4.989  1.00  0.00     0.068 C 
HETATM    9  C12 UNL     1     -15.336  50.247  -4.712  1.00  0.00     0.047 C 
HETATM   10  O2  UNL     1     -14.135  51.892  -6.039  1.00  0.00    -0.338 OA
HETATM   11  C13 UNL     1     -14.552  51.315  -7.222  1.00  0.00     0.095 A 
HETATM   12  C14 UNL     1     -15.676  51.814  -7.883  1.00  0.00     0.070 A 
HETATM   13  C16 UNL     1     -16.168  51.131  -9.002  1.00  0.00     0.097 A 
HETATM   14  C17 UNL     1     -15.536  49.957  -9.430  1.00  0.00     0.069 A 
HETATM   15  C19 UNL     1     -14.377  49.489  -8.772  1.00  0.00     0.091 A 
HETATM   16  C20 UNL     1     -13.840  50.197  -7.696  1.00  0.00     0.015 A 
HETATM   17  C21 UNL     1     -12.537  49.965  -6.964  1.00  0.00     0.031 C 
HETATM   18  C26 UNL     1     -12.827  49.857  -5.426  1.00  0.00     0.029 C 
HETATM   19  C27 UNL     1     -12.995  48.411  -4.895  1.00  0.00     0.013 C 
HETATM   20  C28 UNL     1     -12.279  48.119  -3.556  1.00  0.00     0.038 C 
ENDROOT
BRANCH   5  21
HETATM   21  C6  UNL     1      -9.769  51.961  -2.521  1.00  0.00     0.057 C 
HETATM   22  C7  UNL     1      -9.556  52.227  -1.022  1.00  0.00     0.046 C 
HETATM   23  C8  UNL     1      -8.564  51.184  -3.070  1.00  0.00     0.046 C 
BRANCH  21  24
HETATM   24  O1  UNL     1      -9.786  53.247  -3.164  1.00  0.00    -0.390 OA
HETATM   25  H12 UNL     1      -8.931  53.681  -3.003  1.00  0.00     0.210 HD
ENDBRANCH  21  24
ENDBRANCH   5  21
BRANCH  17  26
HETATM   26  C22 UNL     1     -11.462  48.971  -7.478  1.00  0.00     0.014 C 
BRANCH  26  27
HETATM   27  C23 UNL     1      -9.991  49.261  -7.082  1.00  0.00    -0.022 C 
HETATM   28  C24 UNL     1      -9.054  49.240  -8.296  1.00  0.00     0.009 C 
HETATM   29  C25 UNL     1      -9.437  48.364  -5.979  1.00  0.00     0.009 C 
ENDBRANCH  26  27
ENDBRANCH  17  26
BRANCH  12  30
HETATM   30  C15 UNL     1     -16.342  53.026  -7.375  1.00  0.00     0.275 C 
HETATM   31  O3  UNL     1     -17.178  52.940  -6.478  1.00  0.00    -0.301 OA
ENDBRANCH  12  30
BRANCH  13  32
HETATM   32  O4  UNL     1     -17.278  51.569  -9.682  1.00  0.00    -0.359 OA
HETATM   33  H21 UNL     1     -17.608  52.394  -9.252  1.00  0.00     0.217 HD
ENDBRANCH  13  32
BRANCH  15  34
HETATM   34  O6  UNL     1     -13.771  48.326  -9.156  1.00  0.00    -0.359 OA
HETATM   35  H23 UNL     1     -14.265  47.939  -9.916  1.00  0.00     0.217 HD
ENDBRANCH  15  34
BRANCH  14  36
HETATM   36  C18 UNL     1     -16.097  49.218 -10.581  1.00  0.00     0.275 C 
HETATM   37  O5  UNL     1     -15.355  48.696 -11.410  1.00  0.00    -0.301 OA
ENDBRANCH  14  36
TORSDOF 8
ENDMDL
MODEL 3
REMARK minimizedAffinity -6.75179291
REMARK CNNscore 0.304068089
REMARK CNNaffinity 4.87424088
REMARK  8 active torsions:
REMARK  status: ('A' for Active; 'I' for Inactive)
REMARK    1  A    between atoms: C5_5  and  C6_6 
REMARK    2  A    between atoms: C6_6  and  O1_9 
REMARK    3  A    between atoms: C14_16  and  C15_17 
REMARK    4  A    between atoms: C16_19  and  O4_20 
REMARK    5  A    between atoms: C17_21  and  C18_22 
REMARK    6  A    between atoms: C19_24  and  O6_25 
REMARK    7  A    between atoms: C21_27  and  C22_28 
REMARK    8  A    between atoms: C22_28  and  C23_29 
ROOT
HETATM    1  C1  UNL     1     -10.168  41.963 -25.580  1.00  0.00     0.019 C 
HETATM    2  C2  UNL     1      -9.902  43.165 -26.129  1.00  0.00    -0.068 C 
HETATM    3  C3  UNL     1      -8.689  43.851 -25.700  1.00  0.00     0.003 C 
HETATM    4  C4  UNL     1      -8.314  45.144 -25.696  1.00  0.00    -0.019 C 
HETATM    5  C5  UNL     1      -9.039  46.394 -26.161  1.00  0.00     0.042 C 
HETATM    6  C9  UNL     1      -9.939  46.994 -25.040  1.00  0.00     0.014 C 
HETATM    7  C10 UNL     1     -10.843  46.021 -24.259  1.00  0.00     0.039 C 
HETATM    8  C11 UNL     1     -12.267  45.698 -24.810  1.00  0.00     0.068 C 
HETATM    9  C12 UNL     1     -12.747  44.461 -23.998  1.00  0.00     0.047 C 
HETATM   10  O2  UNL     1     -13.093  46.837 -24.383  1.00  0.00    -0.338 OA
HETATM   11  C13 UNL     1     -14.421  46.642 -24.702  1.00  0.00     0.095 A 
HETATM   12  C14 UNL     1     -15.404  46.805 -23.724  1.00  0.00     0.070 A 
HETATM   13  C16 UNL     1     -16.729  46.467 -24.026  1.00  0.00     0.097 A 
HETATM   14  C17 UNL     1     -17.043  45.960 -25.293  1.00  0.00     0.069 A 
HETATM   15  C19 UNL     1     -16.042  45.839 -26.282  1.00  0.00     0.091 A 
HETATM   16  C20 UNL     1     -14.731  46.234 -26.013  1.00  0.00     0.015 A 
HETATM   17  C21 UNL     1     -13.559  46.340 -26.964  1.00  0.00     0.031 C 
HETATM   18  C26 UNL     1     -12.350  45.530 -26.376  1.00  0.00     0.029 C 
HETATM   19  C27 UNL     1     -12.219  44.080 -26.906  1.00  0.00     0.013 C 
HETATM   20  C28 UNL     1     -10.779  43.643 -27.264  1.00  0.00     0.038 C 
ENDROOT
BRANCH   5  21
HETATM   21  C6  UNL     1      -8.073  47.463 -26.804  1.00  0.00     0.057 C 
HETATM   22  C7  UNL     1      -6.850  47.715 -25.907  1.00  0.00     0.046 C 
HETATM   23  C8  UNL     1      -7.595  47.123 -28.223  1.00  0.00     0.046 C 
BRANCH  21  24
HETATM   24  O1  UNL     1      -8.788  48.709 -26.874  1.00  0.00    -0.390 OA
HETATM   25  H12 UNL     1      -8.200  49.379 -27.263  1.00  0.00     0.210 HD
ENDBRANCH  21  24
ENDBRANCH   5  21
BRANCH  17  26
HETATM   26  C22 UNL     1     -13.723  46.208 -28.502  1.00  0.00     0.014 C 
BRANCH  26  27
HETATM   27  C23 UNL     1     -12.695  46.962 -29.384  1.00  0.00    -0.022 C 
HETATM   28  C24 UNL     1     -11.691  46.006 -30.040  1.00  0.00     0.009 C 
HETATM   29  C25 UNL     1     -11.954  48.093 -28.679  1.00  0.00     0.009 C 
ENDBRANCH  26  27
ENDBRANCH  17  26
BRANCH  12  30
HETATM   30  C15 UNL     1     -15.027  47.296 -22.387  1.00  0.00     0.275 C 
HETATM   31  O3  UNL     1     -13.892  47.718 -22.182  1.00  0.00    -0.301 OA
ENDBRANCH  12  30
BRANCH  13  32
HETATM   32  O4  UNL     1     -17.733  46.593 -23.097  1.00  0.00    -0.359 OA
HETATM   33  H21 UNL     1     -17.349  46.950 -22.261  1.00  0.00     0.217 HD
ENDBRANCH  13  32
BRANCH  15  34
HETATM   34  O6  UNL     1     -16.328  45.314 -27.510  1.00  0.00    -0.359 OA
HETATM   35  H23 UNL     1     -17.283  45.075 -27.547  1.00  0.00     0.217 HD
ENDBRANCH  15  34
BRANCH  14  36
HETATM   36  C18 UNL     1     -18.437  45.558 -25.580  1.00  0.00     0.275 C 
HETATM   37  O5  UNL     1     -19.354  46.371 -25.481  1.00  0.00    -0.301 OA
ENDBRANCH  14  36
TORSDOF 8
ENDMDL
MODEL 4
REMARK minimizedAffinity -6.37726164
REMARK CNNscore 0.293685824
REMARK CNNaffinity 5.9614234
REMARK  8 active torsions:
REMARK  status: ('A' for Active; 'I' for Inactive)
REMARK    1  A    between atoms: C5_5  and  C6_6 
REMARK    2  A    between atoms: C6_6  and  O1_9 
REMARK    3  A    between atoms: C14_16  and  C15_17 
REMARK    4  A    between atoms: C16_19  and  O4_20 
REMARK    5  A    between atoms: C17_21  and  C18_22 
REMARK    6  A    between atoms: C19_24  and  O6_25 
REMARK    7  A    between atoms: C21_27  and  C22_28 
REMARK    8  A    between atoms: C22_28  and  C23_29 
ROOT
HETATM    1  C1  UNL     1       2.218  51.377  -5.334  1.00  0.00     0.019 C 
HETATM    2  C2  UNL     1       2.616  52.604  -5.723  1.00  0.00    -0.068 C 
HETATM    3  C3  UNL     1       2.437  53.703  -4.782  1.00  0.00     0.003 C 
HETATM    4  C4  UNL     1       2.327  55.037  -4.932  1.00  0.00    -0.019 C 
HETATM    5  C5  UNL     1       2.361  55.906  -6.176  1.00  0.00     0.042 C 
HETATM    6  C9  UNL     1       0.951  56.049  -6.822  1.00  0.00     0.014 C 
HETATM    7  C10 UNL     1       0.118  54.765  -6.999  1.00  0.00     0.039 C 
HETATM    8  C11 UNL     1       0.293  53.918  -8.298  1.00  0.00     0.068 C 
HETATM    9  C12 UNL     1      -0.407  52.562  -7.997  1.00  0.00     0.047 C 
HETATM   10  O2  UNL     1      -0.527  54.610  -9.302  1.00  0.00    -0.338 OA
HETATM   11  C13 UNL     1      -0.565  53.909 -10.490  1.00  0.00     0.095 A 
HETATM   12  C14 UNL     1      -1.792  53.625 -11.093  1.00  0.00     0.070 A 
HETATM   13  C16 UNL     1      -1.822  52.794 -12.220  1.00  0.00     0.097 A 
HETATM   14  C17 UNL     1      -0.628  52.253 -12.713  1.00  0.00     0.069 A 
HETATM   15  C19 UNL     1       0.607  52.583 -12.114  1.00  0.00     0.091 A 
HETATM   16  C20 UNL     1       0.655  53.462 -11.031  1.00  0.00     0.015 A 
HETATM   17  C21 UNL     1       1.865  54.068 -10.354  1.00  0.00     0.031 C 
HETATM   18  C26 UNL     1       1.779  53.791  -8.812  1.00  0.00     0.029 C 
HETATM   19  C27 UNL     1       2.554  52.538  -8.331  1.00  0.00     0.013 C 
HETATM   20  C28 UNL     1       3.366  52.732  -7.029  1.00  0.00     0.038 C 
ENDROOT
BRANCH   5  21
HETATM   21  C6  UNL     1       3.065  57.298  -5.937  1.00  0.00     0.057 C 
HETATM   22  C7  UNL     1       3.060  58.148  -7.217  1.00  0.00     0.046 C 
HETATM   23  C8  UNL     1       2.478  58.123  -4.782  1.00  0.00     0.046 C 
BRANCH  21  24
HETATM   24  O1  UNL     1       4.446  57.039  -5.627  1.00  0.00    -0.390 OA
HETATM   25  H12 UNL     1       4.893  57.891  -5.484  1.00  0.00     0.210 HD
ENDBRANCH  21  24
ENDBRANCH   5  21
BRANCH  17  26
HETATM   26  C22 UNL     1       3.296  53.941 -10.943  1.00  0.00     0.014 C 
BRANCH  26  27
HETATM   27  C23 UNL     1       4.187  55.209 -10.901  1.00  0.00    -0.022 C 
HETATM   28  C24 UNL     1       5.150  55.195  -9.708  1.00  0.00     0.009 C 
HETATM   29  C25 UNL     1       3.423  56.529 -10.941  1.00  0.00     0.009 C 
ENDBRANCH  26  27
ENDBRANCH  17  26
BRANCH  12  30
HETATM   30  C15 UNL     1      -3.032  54.173 -10.516  1.00  0.00     0.275 C 
HETATM   31  O3  UNL     1      -4.068  53.513 -10.543  1.00  0.00    -0.301 OA
ENDBRANCH  12  30
BRANCH  13  32
HETATM   32  O4  UNL     1      -3.002  52.469 -12.843  1.00  0.00    -0.359 OA
HETATM   33  H21 UNL     1      -3.743  52.917 -12.371  1.00  0.00     0.217 HD
ENDBRANCH  13  32
BRANCH  15  34
HETATM   34  O6  UNL     1       1.775  52.036 -12.563  1.00  0.00    -0.359 OA
HETATM   35  H23 UNL     1       1.582  51.434 -13.319  1.00  0.00     0.217 HD
ENDBRANCH  15  34
BRANCH  14  36
HETATM   36  C18 UNL     1      -0.681  51.335 -13.872  1.00  0.00     0.275 C 
HETATM   37  O5  UNL     1       0.023  51.536 -14.859  1.00  0.00    -0.301 OA
ENDBRANCH  14  36
TORSDOF 8
ENDMDL
MODEL 5
REMARK minimizedAffinity -6.83703089
REMARK CNNscore 0.262082458
REMARK CNNaffinity 5.07564354
REMARK  8 active torsions:
REMARK  status: ('A' for Active; 'I' for Inactive)
REMARK    1  A    between atoms: C5_5  and  C6_6 
REMARK    2  A    between atoms: C6_6  and  O1_9 
REMARK    3  A    between atoms: C14_16  and  C15_17 
REMARK    4  A    between atoms: C16_19  and  O4_20 
REMARK    5  A    between atoms: C17_21  and  C18_22 
REMARK    6  A    between atoms: C19_24  and  O6_25 
REMARK    7  A    between atoms: C21_27  and  C22_28 
REMARK    8  A    between atoms: C22_28  and  C23_29 
ROOT
HETATM    1  C1  UNL     1     -13.894  40.792 -26.286  1.00  0.00     0.019 C 
HETATM    2  C2  UNL     1     -14.903  41.667 -26.106  1.00  0.00    -0.068 C 
HETATM    3  C3  UNL     1     -16.137  41.438 -26.847  1.00  0.00     0.003 C 
HETATM    4  C4  UNL     1     -17.144  42.245 -27.233  1.00  0.00    -0.019 C 
HETATM    5  C5  UNL     1     -17.367  43.731 -27.022  1.00  0.00     0.042 C 
HETATM    6  C9  UNL     1     -16.695  44.584 -28.138  1.00  0.00     0.014 C 
HETATM    7  C10 UNL     1     -15.243  44.235 -28.520  1.00  0.00     0.039 C 
HETATM    8  C11 UNL     1     -14.069  44.895 -27.731  1.00  0.00     0.068 C 
HETATM    9  C12 UNL     1     -12.805  44.081 -28.127  1.00  0.00     0.047 C 
HETATM   10  O2  UNL     1     -13.926  46.228 -28.332  1.00  0.00    -0.338 OA
HETATM   11  C13 UNL     1     -12.840  46.901 -27.810  1.00  0.00     0.095 A 
HETATM   12  C14 UNL     1     -11.898  47.474 -28.665  1.00  0.00     0.070 A 
HETATM   13  C16 UNL     1     -10.732  48.029 -28.123  1.00  0.00     0.097 A 
HETATM   14  C17 UNL     1     -10.524  47.986 -26.739  1.00  0.00     0.069 A 
HETATM   15  C19 UNL     1     -11.506  47.437 -25.886  1.00  0.00     0.091 A 
HETATM   16  C20 UNL     1     -12.701  46.941 -26.410  1.00  0.00     0.015 A 
HETATM   17  C21 UNL     1     -13.934  46.466 -25.673  1.00  0.00     0.031 C 
HETATM   18  C26 UNL     1     -14.306  45.027 -26.177  1.00  0.00     0.029 C 
HETATM   19  C27 UNL     1     -13.752  43.870 -25.309  1.00  0.00     0.013 C 
HETATM   20  C28 UNL     1     -14.752  42.722 -25.034  1.00  0.00     0.038 C 
ENDROOT
BRANCH   5  21
HETATM   21  C6  UNL     1     -18.886  44.102 -26.804  1.00  0.00     0.057 C 
HETATM   22  C7  UNL     1     -19.786  43.358 -27.805  1.00  0.00     0.046 C 
HETATM   23  C8  UNL     1     -19.407  43.859 -25.381  1.00  0.00     0.046 C 
BRANCH  21  24
HETATM   24  O1  UNL     1     -19.036  45.504 -27.088  1.00  0.00    -0.390 OA
HETATM   25  H12 UNL     1     -19.970  45.743 -26.964  1.00  0.00     0.210 HD
ENDBRANCH  21  24
ENDBRANCH   5  21
BRANCH  17  26
HETATM   26  C22 UNL     1     -14.119  46.671 -24.146  1.00  0.00     0.014 C 
BRANCH  26  27
HETATM   27  C23 UNL     1     -15.489  47.225 -23.674  1.00  0.00    -0.022 C 
HETATM   28  C24 UNL     1     -15.795  46.837 -22.222  1.00  0.00     0.009 C 
HETATM   29  C25 UNL     1     -16.668  46.865 -24.571  1.00  0.00     0.009 C 
ENDBRANCH  26  27
ENDBRANCH  17  26
BRANCH  12  30
HETATM   30  C15 UNL     1     -12.129  47.457 -30.121  1.00  0.00     0.275 C 
HETATM   31  O3  UNL     1     -11.267  47.014 -30.876  1.00  0.00    -0.301 OA
ENDBRANCH  12  30
BRANCH  13  32
HETATM   32  O4  UNL     1      -9.765  48.592 -28.919  1.00  0.00    -0.359 OA
HETATM   33  H21 UNL     1     -10.056  48.533 -29.860  1.00  0.00     0.217 HD
ENDBRANCH  13  32
BRANCH  15  34
HETATM   34  O6  UNL     1     -11.302  47.358 -24.537  1.00  0.00    -0.359 OA
HETATM   35  H23 UNL     1     -10.418  47.736 -24.320  1.00  0.00     0.217 HD
ENDBRANCH  15  34
BRANCH  14  36
HETATM   36  C18 UNL     1      -9.265  48.529 -26.185  1.00  0.00     0.275 C 
HETATM   37  O5  UNL     1      -9.288  49.420 -25.340  1.00  0.00    -0.301 OA
ENDBRANCH  14  36
TORSDOF 8
ENDMDL
MODEL 6
REMARK minimizedAffinity -5.34310722
REMARK CNNscore 0.257168859
REMARK CNNaffinity 5.44115973
REMARK  8 active torsions:
REMARK  status: ('A' for Active; 'I' for Inactive)
REMARK    1  A    between atoms: C5_5  and  C6_6 
REMARK    2  A    between atoms: C6_6  and  O1_9 
REMARK    3  A    between atoms: C14_16  and  C15_17 
REMARK    4  A    between atoms: C16_19  and  O4_20 
REMARK    5  A    between atoms: C17_21  and  C18_22 
REMARK    6  A    between atoms: C19_24  and  O6_25 
REMARK    7  A    between atoms: C21_27  and  C22_28 
REMARK    8  A    between atoms: C22_28  and  C23_29 
ROOT
HETATM    1  C1  UNL     1     -12.788  46.090  -2.898  1.00  0.00     0.019 C 
HETATM    2  C2  UNL     1     -11.709  46.767  -3.335  1.00  0.00    -0.068 C 
HETATM    3  C3  UNL     1     -10.990  47.590  -2.370  1.00  0.00     0.003 C 
HETATM    4  C4  UNL     1     -10.180  48.659  -2.492  1.00  0.00    -0.019 C 
HETATM    5  C5  UNL     1      -9.700  49.411  -3.720  1.00  0.00     0.042 C 
HETATM    6  C9  UNL     1     -10.697  50.533  -4.140  1.00  0.00     0.014 C 
HETATM    7  C10 UNL     1     -12.193  50.168  -4.196  1.00  0.00     0.039 C 
HETATM    8  C11 UNL     1     -12.782  49.572  -5.512  1.00  0.00     0.068 C 
HETATM    9  C12 UNL     1     -14.178  49.013  -5.116  1.00  0.00     0.047 C 
HETATM   10  O2  UNL     1     -13.016  50.740  -6.372  1.00  0.00    -0.338 OA
HETATM   11  C13 UNL     1     -13.648  50.382  -7.545  1.00  0.00     0.095 A 
HETATM   12  C14 UNL     1     -14.797  51.061  -7.954  1.00  0.00     0.070 A 
HETATM   13  C16 UNL     1     -15.505  50.595  -9.068  1.00  0.00     0.097 A 
HETATM   14  C17 UNL     1     -15.059  49.453  -9.744  1.00  0.00     0.069 A 
HETATM   15  C19 UNL     1     -13.874  48.802  -9.340  1.00  0.00     0.091 A 
HETATM   16  C20 UNL     1     -13.124  49.295  -8.271  1.00  0.00     0.015 A 
HETATM   17  C21 UNL     1     -11.761  48.854  -7.785  1.00  0.00     0.031 C 
HETATM   18  C26 UNL     1     -11.845  48.539  -6.249  1.00  0.00     0.029 C 
HETATM   19  C27 UNL     1     -12.081  47.047  -5.904  1.00  0.00     0.013 C 
HETATM   20  C28 UNL     1     -11.218  46.502  -4.741  1.00  0.00     0.038 C 
ENDROOT
BRANCH   5  21
HETATM   21  C6  UNL     1      -8.218  49.935  -3.582  1.00  0.00     0.057 C 
HETATM   22  C7  UNL     1      -7.987  50.588  -2.209  1.00  0.00     0.046 C 
HETATM   23  C8  UNL     1      -7.138  48.870  -3.821  1.00  0.00     0.046 C 
BRANCH  21  24
HETATM   24  O1  UNL     1      -8.030  50.971  -4.561  1.00  0.00    -0.390 OA
HETATM   25  H12 UNL     1      -7.121  51.307  -4.481  1.00  0.00     0.210 HD
ENDBRANCH  21  24
ENDBRANCH   5  21
BRANCH  17  26
HETATM   26  C22 UNL     1     -10.873  47.867  -8.588  1.00  0.00     0.014 C 
BRANCH  26  27
HETATM   27  C23 UNL     1      -9.337  48.045  -8.464  1.00  0.00    -0.022 C 
HETATM   28  C24 UNL     1      -8.717  47.026  -7.500  1.00  0.00     0.009 C 
HETATM   29  C25 UNL     1      -8.884  49.454  -8.097  1.00  0.00     0.009 C 
ENDBRANCH  26  27
ENDBRANCH  17  26
BRANCH  12  30
HETATM   30  C15 UNL     1     -15.263  52.232  -7.189  1.00  0.00     0.275 C 
HETATM   31  O3  UNL     1     -16.423  52.284  -6.788  1.00  0.00    -0.301 OA
ENDBRANCH  12  30
BRANCH  13  32
HETATM   32  O4  UNL     1     -16.650  51.216  -9.504  1.00  0.00    -0.359 OA
HETATM   33  H21 UNL     1     -16.833  51.991  -8.920  1.00  0.00     0.217 HD
ENDBRANCH  13  32
BRANCH  15  34
HETATM   34  O6  UNL     1     -13.446  47.666  -9.968  1.00  0.00    -0.359 OA
HETATM   35  H23 UNL     1     -14.077  47.437 -10.689  1.00  0.00     0.217 HD
ENDBRANCH  15  34
BRANCH  14  36
HETATM   36  C18 UNL     1     -15.847  48.942 -10.887  1.00  0.00     0.275 C 
HETATM   37  O5  UNL     1     -15.918  47.735 -11.105  1.00  0.00    -0.301 OA
ENDBRANCH  14  36
TORSDOF 8
ENDMDL
MODEL 7
REMARK minimizedAffinity -5.76271915
REMARK CNNscore 0.246778175
REMARK CNNaffinity 5.20905018
REMARK  8 active torsions:
REMARK  status: ('A' for Active; 'I' for Inactive)
REMARK    1  A    between atoms: C5_5  and  C6_6 
REMARK    2  A    between atoms: C6_6  and  O1_9 
REMARK    3  A    between atoms: C14_16  and  C15_17 
REMARK    4  A    between atoms: C16_19  and  O4_20 
REMARK    5  A    between atoms: C17_21  and  C18_22 
REMARK    6  A    between atoms: C19_24  and  O6_25 
REMARK    7  A    between atoms: C21_27  and  C22_28 
REMARK    8  A    between atoms: C22_28  and  C23_29 
ROOT
HETATM    1  C1  UNL     1      -2.894  54.146 -10.283  1.00  0.00     0.019 C 
HETATM    2  C2  UNL     1      -1.616  53.891 -10.624  1.00  0.00    -0.068 C 
HETATM    3  C3  UNL     1      -1.320  52.594 -11.220  1.00  0.00     0.003 C 
HETATM    4  C4  UNL     1      -0.200  51.852 -11.307  1.00  0.00    -0.019 C 
HETATM    5  C5  UNL     1       1.209  52.112 -10.806  1.00  0.00     0.042 C 
HETATM    6  C9  UNL     1       1.401  51.633  -9.336  1.00  0.00     0.014 C 
HETATM    7  C10 UNL     1       0.311  52.019  -8.316  1.00  0.00     0.039 C 
HETATM    8  C11 UNL     1       0.420  53.382  -7.565  1.00  0.00     0.068 C 
HETATM    9  C12 UNL     1      -0.972  53.597  -6.907  1.00  0.00     0.047 C 
HETATM   10  O2  UNL     1       1.374  53.128  -6.478  1.00  0.00    -0.338 OA
HETATM   11  C13 UNL     1       1.492  54.222  -5.645  1.00  0.00     0.095 A 
HETATM   12  C14 UNL     1       1.357  54.066  -4.265  1.00  0.00     0.070 A 
HETATM   13  C16 UNL     1       1.338  55.204  -3.448  1.00  0.00     0.097 A 
HETATM   14  C17 UNL     1       1.440  56.474  -4.028  1.00  0.00     0.069 A 
HETATM   15  C19 UNL     1       1.614  56.610  -5.423  1.00  0.00     0.091 A 
HETATM   16  C20 UNL     1       1.700  55.482  -6.239  1.00  0.00     0.015 A 
HETATM   17  C21 UNL     1       2.044  55.399  -7.710  1.00  0.00     0.031 C 
HETATM   18  C26 UNL     1       0.922  54.588  -8.450  1.00  0.00     0.029 C 
HETATM   19  C27 UNL     1      -0.185  55.455  -9.100  1.00  0.00     0.013 C 
HETATM   20  C28 UNL     1      -0.610  55.015 -10.521  1.00  0.00     0.038 C 
ENDROOT
BRANCH   5  21
HETATM   21  C6  UNL     1       2.321  51.556 -11.777  1.00  0.00     0.057 C 
HETATM   22  C7  UNL     1       3.624  51.262 -11.016  1.00  0.00     0.046 C 
HETATM   23  C8  UNL     1       1.911  50.309 -12.574  1.00  0.00     0.046 C 
BRANCH  21  24
HETATM   24  O1  UNL     1       2.630  52.594 -12.725  1.00  0.00    -0.390 OA
HETATM   25  H12 UNL     1       3.320  52.265 -13.325  1.00  0.00     0.210 HD
ENDBRANCH  21  24
ENDBRANCH   5  21
BRANCH  17  26
HETATM   26  C22 UNL     1       2.576  56.619  -8.508  1.00  0.00     0.014 C 
BRANCH  26  27
HETATM   27  C23 UNL     1       3.762  56.361  -9.474  1.00  0.00    -0.022 C 
HETATM   28  C24 UNL     1       3.312  56.334 -10.940  1.00  0.00     0.009 C 
HETATM   29  C25 UNL     1       4.587  55.118  -9.158  1.00  0.00     0.009 C 
ENDBRANCH  26  27
ENDBRANCH  17  26
BRANCH  12  30
HETATM   30  C15 UNL     1       1.204  52.716  -3.695  1.00  0.00     0.275 C 
HETATM   31  O3  UNL     1       1.969  52.328  -2.815  1.00  0.00    -0.301 OA
ENDBRANCH  12  30
BRANCH  13  32
HETATM   32  O4  UNL     1       1.193  55.109  -2.086  1.00  0.00    -0.359 OA
HETATM   33  H21 UNL     1       1.124  54.156  -1.840  1.00  0.00     0.217 HD
ENDBRANCH  13  32
BRANCH  15  34
HETATM   34  O6  UNL     1       1.680  57.844  -6.006  1.00  0.00    -0.359 OA
HETATM   35  H23 UNL     1       1.596  58.537  -5.310  1.00  0.00     0.217 HD
ENDBRANCH  15  34
BRANCH  14  36
HETATM   36  C18 UNL     1       1.365  57.668  -3.159  1.00  0.00     0.275 C 
HETATM   37  O5  UNL     1       0.539  58.551  -3.381  1.00  0.00    -0.301 OA
ENDBRANCH  14  36
TORSDOF 8
ENDMDL
MODEL 8
REMARK minimizedAffinity -5.58820963
REMARK CNNscore 0.224719554
REMARK CNNaffinity 5.25580263
REMARK  8 active torsions:
REMARK  status: ('A' for Active; 'I' for Inactive)
REMARK    1  A    between atoms: C5_5  and  C6_6 
REMARK    2  A    between atoms: C6_6  and  O1_9 
REMARK    3  A    between atoms: C14_16  and  C15_17 
REMARK    4  A    between atoms: C16_19  and  O4_20 
REMARK    5  A    between atoms: C17_21  and  C18_22 
REMARK    6  A    between atoms: C19_24  and  O6_25 
REMARK    7  A    between atoms: C21_27  and  C22_28 
REMARK    8  A    between atoms: C22_28  and  C23_29 
ROOT
HETATM    1  C1  UNL     1       0.151  52.996  -5.043  1.00  0.00     0.019 C 
HETATM    2  C2  UNL     1      -0.099  53.358  -6.316  1.00  0.00    -0.068 C 
HETATM    3  C3  UNL     1      -1.444  53.134  -6.831  1.00  0.00     0.003 C 
HETATM    4  C4  UNL     1      -1.944  52.983  -8.072  1.00  0.00    -0.019 C 
HETATM    5  C5  UNL     1      -1.264  53.000  -9.429  1.00  0.00     0.042 C 
HETATM    6  C9  UNL     1      -0.730  51.593  -9.829  1.00  0.00     0.014 C 
HETATM    7  C10 UNL     1       0.057  50.803  -8.764  1.00  0.00     0.039 C 
HETATM    8  C11 UNL     1       1.597  51.018  -8.641  1.00  0.00     0.068 C 
HETATM    9  C12 UNL     1       1.993  50.359  -7.289  1.00  0.00     0.047 C 
HETATM   10  O2  UNL     1       2.170  50.186  -9.708  1.00  0.00    -0.338 OA
HETATM   11  C13 UNL     1       3.549  50.182  -9.656  1.00  0.00     0.095 A 
HETATM   12  C14 UNL     1       4.244  48.971  -9.663  1.00  0.00     0.070 A 
HETATM   13  C16 UNL     1       5.631  48.979  -9.468  1.00  0.00     0.097 A 
HETATM   14  C17 UNL     1       6.293  50.194  -9.256  1.00  0.00     0.069 A 
HETATM   15  C19 UNL     1       5.580  51.412  -9.291  1.00  0.00     0.091 A 
HETATM   16  C20 UNL     1       4.208  51.421  -9.549  1.00  0.00     0.015 A 
HETATM   17  C21 UNL     1       3.297  52.605  -9.789  1.00  0.00     0.031 C 
HETATM   18  C26 UNL     1       2.074  52.512  -8.809  1.00  0.00     0.029 C 
HETATM   19  C27 UNL     1       2.228  53.323  -7.498  1.00  0.00     0.013 C 
HETATM   20  C28 UNL     1       0.971  54.116  -7.068  1.00  0.00     0.038 C 
ENDROOT
BRANCH   5  21
HETATM   21  C6  UNL     1      -2.152  53.657 -10.556  1.00  0.00     0.057 C 
HETATM   22  C7  UNL     1      -1.918  52.975 -11.913  1.00  0.00     0.046 C 
HETATM   23  C8  UNL     1      -3.658  53.675 -10.255  1.00  0.00     0.046 C 
BRANCH  21  24
HETATM   24  O1  UNL     1      -1.724  55.022 -10.708  1.00  0.00    -0.390 OA
HETATM   25  H12 UNL     1      -2.260  55.436 -11.405  1.00  0.00     0.210 HD
ENDBRANCH  21  24
ENDBRANCH   5  21
BRANCH  17  26
HETATM   26  C22 UNL     1       3.841  54.044  -9.991  1.00  0.00     0.014 C 
BRANCH  26  27
HETATM   27  C23 UNL     1       3.034  54.973 -10.936  1.00  0.00    -0.022 C 
HETATM   28  C24 UNL     1       3.556  56.414 -10.907  1.00  0.00     0.009 C 
HETATM   29  C25 UNL     1       1.525  54.959 -10.711  1.00  0.00     0.009 C 
ENDBRANCH  26  27
ENDBRANCH  17  26
BRANCH  12  30
HETATM   30  C15 UNL     1       3.506  47.708  -9.842  1.00  0.00     0.275 C 
HETATM   31  O3  UNL     1       3.888  46.883 -10.668  1.00  0.00    -0.301 OA
ENDBRANCH  12  30
BRANCH  13  32
HETATM   32  O4  UNL     1       6.361  47.816  -9.451  1.00  0.00    -0.359 OA
HETATM   33  H21 UNL     1       5.751  47.056  -9.603  1.00  0.00     0.217 HD
ENDBRANCH  13  32
BRANCH  15  34
HETATM   34  O6  UNL     1       6.207  52.602  -9.050  1.00  0.00    -0.359 OA
HETATM   35  H23 UNL     1       7.163  52.435  -8.877  1.00  0.00     0.217 HD
ENDBRANCH  15  34
BRANCH  14  36
HETATM   36  C18 UNL     1       7.750  50.182  -8.999  1.00  0.00     0.275 C 
HETATM   37  O5  UNL     1       8.193  50.533  -7.908  1.00  0.00    -0.301 OA
ENDBRANCH  14  36
TORSDOF 8
ENDMDL
MODEL 9
REMARK minimizedAffinity -6.57898235
REMARK CNNscore 0.222876266
REMARK CNNaffinity 5.46224213
REMARK  8 active torsions:
REMARK  status: ('A' for Active; 'I' for Inactive)
REMARK    1  A    between atoms: C5_5  and  C6_6 
REMARK    2  A    between atoms: C6_6  and  O1_9 
REMARK    3  A    between atoms: C14_16  and  C15_17 
REMARK    4  A    between atoms: C16_19  and  O4_20 
REMARK    5  A    between atoms: C17_21  and  C18_22 
REMARK    6  A    between atoms: C19_24  and  O6_25 
REMARK    7  A    between atoms: C21_27  and  C22_28 
REMARK    8  A    between atoms: C22_28  and  C23_29 
ROOT
HETATM    1  C1  UNL     1      15.528  38.560 -22.004  1.00  0.00     0.019 C 
HETATM    2  C2  UNL     1      14.853  39.475 -21.281  1.00  0.00    -0.068 C 
HETATM    3  C3  UNL     1      13.417  39.283 -21.117  1.00  0.00     0.003 C 
HETATM    4  C4  UNL     1      12.400  40.121 -20.844  1.00  0.00    -0.019 C 
HETATM    5  C5  UNL     1      12.382  41.618 -20.592  1.00  0.00     0.042 C 
HETATM    6  C9  UNL     1      12.260  42.429 -21.916  1.00  0.00     0.014 C 
HETATM    7  C10 UNL     1      13.177  42.019 -23.086  1.00  0.00     0.039 C 
HETATM    8  C11 UNL     1      14.603  42.645 -23.189  1.00  0.00     0.068 C 
HETATM    9  C12 UNL     1      15.352  41.778 -24.241  1.00  0.00     0.047 C 
HETATM   10  O2  UNL     1      14.382  43.964 -23.799  1.00  0.00    -0.338 OA
HETATM   11  C13 UNL     1      15.577  44.602 -24.063  1.00  0.00     0.095 A 
HETATM   12  C14 UNL     1      15.821  45.127 -25.333  1.00  0.00     0.070 A 
HETATM   13  C16 UNL     1      17.089  45.645 -25.625  1.00  0.00     0.097 A 
HETATM   14  C17 UNL     1      18.091  45.614 -24.647  1.00  0.00     0.069 A 
HETATM   15  C19 UNL     1      17.814  45.114 -23.356  1.00  0.00     0.091 A 
HETATM   16  C20 UNL     1      16.536  44.656 -23.034  1.00  0.00     0.015 A 
HETATM   17  C21 UNL     1      15.989  44.239 -21.686  1.00  0.00     0.031 C 
HETATM   18  C26 UNL     1      15.357  42.808 -21.814  1.00  0.00     0.029 C 
HETATM   19  C27 UNL     1      16.299  41.643 -21.418  1.00  0.00     0.013 C 
HETATM   20  C28 UNL     1      15.645  40.538 -20.555  1.00  0.00     0.038 C 
ENDROOT
BRANCH   5  21
HETATM   21  C6  UNL     1      11.313  42.048 -19.514  1.00  0.00     0.057 C 
HETATM   22  C7  UNL     1      10.130  42.781 -20.169  1.00  0.00     0.046 C 
HETATM   23  C8  UNL     1      10.776  40.899 -18.649  1.00  0.00     0.046 C 
BRANCH  21  24
HETATM   24  O1  UNL     1      11.941  42.997 -18.634  1.00  0.00    -0.390 OA
HETATM   25  H12 UNL     1      11.289  43.276 -17.968  1.00  0.00     0.210 HD
ENDBRANCH  21  24
ENDBRANCH   5  21
BRANCH  17  26
HETATM   26  C22 UNL     1      16.770  44.473 -20.366  1.00  0.00     0.014 C 
BRANCH  26  27
HETATM   27  C23 UNL     1      16.225  45.568 -19.413  1.00  0.00    -0.022 C 
HETATM   28  C24 UNL     1      17.312  46.573 -19.011  1.00  0.00     0.009 C 
HETATM   29  C25 UNL     1      15.517  45.040 -18.170  1.00  0.00     0.009 C 
ENDBRANCH  26  27
ENDBRANCH  17  26
BRANCH  12  30
HETATM   30  C15 UNL     1      14.757  45.098 -26.352  1.00  0.00     0.275 C 
HETATM   31  O3  UNL     1      13.927  46.003 -26.401  1.00  0.00    -0.301 OA
ENDBRANCH  12  30
BRANCH  13  32
HETATM   32  O4  UNL     1      17.389  46.160 -26.862  1.00  0.00    -0.359 OA
HETATM   33  H21 UNL     1      16.587  46.098 -27.434  1.00  0.00     0.217 HD
ENDBRANCH  13  32
BRANCH  15  34
HETATM   34  O6  UNL     1      18.791  45.047 -22.403  1.00  0.00    -0.359 OA
HETATM   35  H23 UNL     1      19.634  45.395 -22.777  1.00  0.00     0.217 HD
ENDBRANCH  15  34
BRANCH  14  36
HETATM   36  C18 UNL     1      19.440  46.116 -24.986  1.00  0.00     0.275 C 
HETATM   37  O5  UNL     1      19.576  47.152 -25.634  1.00  0.00    -0.301 OA
ENDBRANCH  14  36
TORSDOF 8
ENDMDL
