MODEL 1
REMARK minimizedAffinity -10.4355021
REMARK CNNscore 0.40535289
REMARK CNNaffinity 7.36545563
REMARK  6 active torsions:
REMARK  status: ('A' for Active; 'I' for Inactive)
REMARK    1  A    between atoms: C5_6  and  O2_7 
REMARK    2  A    between atoms: C6_8  and  O3_10 
REMARK    3  A    between atoms: C15_19  and  C16_20 
REMARK    4  A    between atoms: C43_49  and  O7_50 
REMARK    5  A    between atoms: C44_51  and  C45_52 
REMARK    6  A    between atoms: C45_52  and  O8_53 
ROOT
HETATM    1  C1  UNL     1       2.055   7.051   6.590  1.00  0.00     0.013 C 
HETATM    2  C2  UNL     1       1.537   7.055   8.036  1.00  0.00     0.023 C 
HETATM    3  C3  UNL     1       1.515   8.494   8.583  1.00  0.00     0.167 C 
HETATM    4  O1  UNL     1       2.644   8.647   9.478  1.00  0.00    -0.373 OA
HETATM    5  C4  UNL     1       3.409   7.425   9.478  1.00  0.00     0.160 C 
HETATM    6  C5  UNL     1       4.267   7.255  10.766  1.00  0.00     0.181 C 
HETATM    7  C6  UNL     1       3.641   7.311  12.223  1.00  0.00     0.087 C 
HETATM    8  C7  UNL     1       2.792   6.053  12.418  1.00  0.00     0.049 C 
HETATM    9  C8  UNL     1       2.923   8.662  12.616  1.00  0.00     0.034 C 
HETATM   10  C9  UNL     1       3.882   9.867  12.618  1.00  0.00     0.012 C 
HETATM   11  C10 UNL     1       3.050  11.038  13.107  1.00  0.00     0.044 C 
HETATM   12  C11 UNL     1       2.331  10.516  14.354  1.00  0.00     0.094 C 
HETATM   13  O4  UNL     1       3.198  10.538  15.507  1.00  0.00    -0.363 OA
HETATM   14  C12 UNL     1       3.790  11.747  15.955  1.00  0.00     0.263 C 
HETATM   15  C13 UNL     1       3.390  12.021  17.342  1.00  0.00    -0.080 C 
HETATM   16  C14 UNL     1       3.050  12.241  18.473  1.00  0.00    -0.093 C 
HETATM   17  C15 UNL     1       2.611  12.488  19.874  1.00  0.00     0.121 C 
HETATM   18  C22 UNL     1       1.167  13.049  19.936  1.00  0.00     0.190 C 
HETATM   19  O5  UNL     1       0.234  12.100  19.428  1.00  0.00    -0.384 OA
HETATM   20  C23 UNL     1      -1.060  12.593  19.080  1.00  0.00     0.122 C 
HETATM   21  C24 UNL     1      -1.886  11.334  18.796  1.00  0.00     0.033 C 
HETATM   22  C25 UNL     1      -1.306  10.513  17.616  1.00  0.00     0.013 C 
HETATM   23  C26 UNL     1      -1.120  11.337  16.320  1.00  0.00    -0.025 C 
HETATM   24  C27 UNL     1      -2.534  11.658  15.762  1.00  0.00     0.016 C 
HETATM   25  C28 UNL     1      -0.381  12.643  16.688  1.00  0.00     0.071 C 
HETATM   26  C29 UNL     1      -1.029  13.449  17.805  1.00  0.00     0.045 C 
HETATM   27  C30 UNL     1      -0.025  13.411  15.431  1.00  0.00     0.154 C 
HETATM   28  O6  UNL     1      -0.445  14.524  15.145  1.00  0.00    -0.293 OA
HETATM   29  C31 UNL     1       0.984  12.722  14.588  1.00  0.00     0.057 C 
HETATM   30  C32 UNL     1       1.012  11.378  14.692  1.00  0.00    -0.036 C 
HETATM   31  C33 UNL     1      -0.319  10.624  15.178  1.00  0.00     0.031 C 
HETATM   32  C34 UNL     1       0.162   9.195  15.271  1.00  0.00     0.000 C 
HETATM   33  C35 UNL     1      -0.079   7.921  16.032  1.00  0.00     0.006 C 
HETATM   34  C36 UNL     1       1.261   7.116  15.886  1.00  0.00     0.001 C 
HETATM   35  C37 UNL     1       2.470   7.874  15.187  1.00  0.00     0.014 C 
HETATM   36  C38 UNL     1       2.114   8.861  13.978  1.00  0.00     0.006 C 
HETATM   37  C39 UNL     1       0.595   8.834  13.803  1.00  0.00     0.014 C 
HETATM   38  C40 UNL     1      -0.147   7.653  13.131  1.00  0.00     0.100 C 
HETATM   39  C41 UNL     1      -0.179   7.862  11.667  1.00  0.00    -0.103 C 
HETATM   40  C42 UNL     1      -0.081   8.231  10.527  1.00  0.00    -0.072 C 
HETATM   41  C43 UNL     1       0.181   8.914   9.252  1.00  0.00     0.226 C 
HETATM   42  C44 UNL     1       2.437   6.326   9.041  1.00  0.00     0.047 C 
ENDROOT
BRANCH  17  43
HETATM   43  C16 UNL     1       2.818  11.258  20.752  1.00  0.00    -0.040 A 
HETATM   44  C17 UNL     1       1.776  10.342  20.983  1.00  0.00     0.008 A 
HETATM   45  C18 UNL     1       1.960   9.232  21.808  1.00  0.00     0.001 A 
HETATM   46  C19 UNL     1       3.195   9.016  22.411  1.00  0.00     0.000 A 
HETATM   47  C20 UNL     1       4.239   9.914  22.194  1.00  0.00     0.001 A 
HETATM   48  C21 UNL     1       4.056  11.027  21.369  1.00  0.00     0.008 A 
ENDBRANCH  17  43
BRANCH   7  49
HETATM   49  O3  UNL     1       4.774   7.157  13.119  1.00  0.00    -0.387 OA
HETATM   50  H12 UNL     1       5.530   7.558  12.644  1.00  0.00     0.210 HD
ENDBRANCH   7  49
BRANCH   6  51
HETATM   51  O2  UNL     1       5.359   8.202  10.716  1.00  0.00    -0.390 OA
HETATM   52  H8  UNL     1       5.058   8.965  10.188  1.00  0.00     0.210 HD
ENDBRANCH   6  51
BRANCH  42  53
HETATM   53  C45 UNL     1       3.115   5.066   8.513  1.00  0.00     0.172 C 
BRANCH  53  54
HETATM   54  O8  UNL     1       3.273   4.109   9.541  1.00  0.00    -0.400 OA
HETATM   55  H56 UNL     1       2.410   3.688   9.696  1.00  0.00     0.209 HD
ENDBRANCH  53  54
ENDBRANCH  42  53
BRANCH  41  56
HETATM   56  O7  UNL     1      -0.920   8.684   8.381  1.00  0.00    -0.381 OA
HETATM   57  H52 UNL     1      -0.952   9.434   7.769  1.00  0.00     0.211 HD
ENDBRANCH  41  56
TORSDOF 6
ENDMDL
MODEL 2
REMARK minimizedAffinity -6.70845938
REMARK CNNscore 0.355178624
REMARK CNNaffinity 7.06587219
REMARK  6 active torsions:
REMARK  status: ('A' for Active; 'I' for Inactive)
REMARK    1  A    between atoms: C5_6  and  O2_7 
REMARK    2  A    between atoms: C6_8  and  O3_10 
REMARK    3  A    between atoms: C15_19  and  C16_20 
REMARK    4  A    between atoms: C43_49  and  O7_50 
REMARK    5  A    between atoms: C44_51  and  C45_52 
REMARK    6  A    between atoms: C45_52  and  O8_53 
ROOT
HETATM    1  C1  UNL     1       4.210  14.484  -4.482  1.00  0.00     0.013 C 
HETATM    2  C2  UNL     1       3.617  15.491  -3.484  1.00  0.00     0.023 C 
HETATM    3  C3  UNL     1       3.774  14.962  -2.047  1.00  0.00     0.167 C 
HETATM    4  O1  UNL     1       2.483  14.474  -1.609  1.00  0.00    -0.373 OA
HETATM    5  C4  UNL     1       1.543  14.599  -2.696  1.00  0.00     0.160 C 
HETATM    6  C5  UNL     1       0.066  14.654  -2.207  1.00  0.00     0.181 C 
HETATM    7  C6  UNL     1      -0.443  15.714  -1.141  1.00  0.00     0.087 C 
HETATM    8  C7  UNL     1      -0.433  17.092  -1.807  1.00  0.00     0.049 C 
HETATM    9  C8  UNL     1       0.254  15.659   0.276  1.00  0.00     0.034 C 
HETATM   10  C9  UNL     1       0.024  14.320   1.000  1.00  0.00     0.012 C 
HETATM   11  C10 UNL     1       0.672  14.487   2.362  1.00  0.00     0.044 C 
HETATM   12  C11 UNL     1       0.162  15.835   2.878  1.00  0.00     0.094 C 
HETATM   13  O4  UNL     1      -1.166  15.720   3.427  1.00  0.00    -0.363 OA
HETATM   14  C12 UNL     1      -1.439  14.837   4.503  1.00  0.00     0.263 C 
HETATM   15  C13 UNL     1      -1.978  15.585   5.647  1.00  0.00    -0.080 C 
HETATM   16  C14 UNL     1      -2.410  16.208   6.579  1.00  0.00    -0.093 C 
HETATM   17  C15 UNL     1      -2.942  17.006   7.718  1.00  0.00     0.121 C 
HETATM   18  C22 UNL     1      -1.814  17.752   8.477  1.00  0.00     0.190 C 
HETATM   19  O5  UNL     1      -1.182  18.708   7.631  1.00  0.00    -0.384 OA
HETATM   20  C23 UNL     1       0.088  19.203   8.055  1.00  0.00     0.122 C 
HETATM   21  C24 UNL     1       0.394  20.352   7.088  1.00  0.00     0.033 C 
HETATM   22  C25 UNL     1       0.488  19.866   5.619  1.00  0.00     0.013 C 
HETATM   23  C26 UNL     1       1.493  18.708   5.413  1.00  0.00    -0.025 C 
HETATM   24  C27 UNL     1       2.921  19.289   5.601  1.00  0.00     0.016 C 
HETATM   25  C28 UNL     1       1.207  17.633   6.484  1.00  0.00     0.071 C 
HETATM   26  C29 UNL     1       1.195  18.147   7.916  1.00  0.00     0.045 C 
HETATM   27  C30 UNL     1       2.053  16.402   6.224  1.00  0.00     0.154 C 
HETATM   28  O6  UNL     1       2.908  15.964   6.981  1.00  0.00    -0.293 OA
HETATM   29  C31 UNL     1       1.683  15.688   4.975  1.00  0.00     0.057 C 
HETATM   30  C32 UNL     1       1.130  16.451   4.010  1.00  0.00    -0.036 C 
HETATM   31  C33 UNL     1       1.450  18.023   4.005  1.00  0.00     0.031 C 
HETATM   32  C34 UNL     1       0.569  18.505   2.876  1.00  0.00     0.000 C 
HETATM   33  C35 UNL     1      -0.205  19.711   2.422  1.00  0.00     0.006 C 
HETATM   34  C36 UNL     1      -1.293  19.135   1.446  1.00  0.00     0.001 C 
HETATM   35  C37 UNL     1      -1.389  17.552   1.348  1.00  0.00     0.014 C 
HETATM   36  C38 UNL     1      -0.020  16.729   1.429  1.00  0.00     0.006 C 
HETATM   37  C39 UNL     1       1.110  17.745   1.609  1.00  0.00     0.014 C 
HETATM   38  C40 UNL     1       1.638  18.619   0.447  1.00  0.00     0.100 C 
HETATM   39  C41 UNL     1       2.687  17.878  -0.288  1.00  0.00    -0.103 C 
HETATM   40  C42 UNL     1       3.492  17.101  -0.727  1.00  0.00    -0.072 C 
HETATM   41  C43 UNL     1       4.384  15.976  -1.045  1.00  0.00     0.226 C 
HETATM   42  C44 UNL     1       2.103  15.697  -3.604  1.00  0.00     0.047 C 
ENDROOT
BRANCH  17  43
HETATM   43  C16 UNL     1      -4.081  17.922   7.279  1.00  0.00    -0.040 A 
HETATM   44  C17 UNL     1      -4.093  18.510   6.001  1.00  0.00     0.008 A 
HETATM   45  C18 UNL     1      -5.121  19.368   5.612  1.00  0.00     0.001 A 
HETATM   46  C19 UNL     1      -6.161  19.646   6.493  1.00  0.00     0.000 A 
HETATM   47  C20 UNL     1      -6.165  19.072   7.764  1.00  0.00     0.001 A 
HETATM   48  C21 UNL     1      -5.134  18.214   8.156  1.00  0.00     0.008 A 
ENDBRANCH  17  43
BRANCH   7  49
HETATM   49  O3  UNL     1      -1.844  15.391  -0.937  1.00  0.00    -0.387 OA
HETATM   50  H12 UNL     1      -1.905  14.425  -1.078  1.00  0.00     0.210 HD
ENDBRANCH   7  49
BRANCH   6  51
HETATM   51  O2  UNL     1      -0.310  13.339  -1.738  1.00  0.00    -0.390 OA
HETATM   52  H8  UNL     1       0.502  12.901  -1.420  1.00  0.00     0.210 HD
ENDBRANCH   6  51
BRANCH  42  53
HETATM   53  C45 UNL     1       1.553  15.671  -5.026  1.00  0.00     0.172 C 
BRANCH  53  54
HETATM   54  O8  UNL     1       0.984  14.412  -5.325  1.00  0.00    -0.400 OA
HETATM   55  H56 UNL     1       0.114  14.365  -4.892  1.00  0.00     0.209 HD
ENDBRANCH  53  54
ENDBRANCH  42  53
BRANCH  41  56
HETATM   56  O7  UNL     1       5.615  16.497  -1.532  1.00  0.00    -0.381 OA
HETATM   57  H52 UNL     1       6.294  15.838  -1.331  1.00  0.00     0.211 HD
ENDBRANCH  41  56
TORSDOF 6
ENDMDL
MODEL 3
REMARK minimizedAffinity -7.08717632
REMARK CNNscore 0.269217074
REMARK CNNaffinity 6.36023092
REMARK  6 active torsions:
REMARK  status: ('A' for Active; 'I' for Inactive)
REMARK    1  A    between atoms: C5_6  and  O2_7 
REMARK    2  A    between atoms: C6_8  and  O3_10 
REMARK    3  A    between atoms: C15_19  and  C16_20 
REMARK    4  A    between atoms: C43_49  and  O7_50 
REMARK    5  A    between atoms: C44_51  and  C45_52 
REMARK    6  A    between atoms: C45_52  and  O8_53 
ROOT
HETATM    1  C1  UNL     1      -4.681  18.855  10.484  1.00  0.00     0.013 C 
HETATM    2  C2  UNL     1      -3.886  19.134   9.199  1.00  0.00     0.023 C 
HETATM    3  C3  UNL     1      -3.760  17.845   8.368  1.00  0.00     0.167 C 
HETATM    4  O1  UNL     1      -2.414  17.335   8.536  1.00  0.00    -0.373 OA
HETATM    5  C4  UNL     1      -1.710  18.180   9.469  1.00  0.00     0.160 C 
HETATM    6  C5  UNL     1      -0.164  18.095   9.303  1.00  0.00     0.181 C 
HETATM    7  C6  UNL     1       0.564  18.367   7.919  1.00  0.00     0.087 C 
HETATM    8  C7  UNL     1       0.441  19.861   7.610  1.00  0.00     0.049 C 
HETATM    9  C8  UNL     1       0.164  17.410   6.728  1.00  0.00     0.034 C 
HETATM   10  C9  UNL     1       0.514  15.937   7.005  1.00  0.00     0.012 C 
HETATM   11  C10 UNL     1       0.154  15.195   5.731  1.00  0.00     0.044 C 
HETATM   12  C11 UNL     1       0.777  16.023   4.604  1.00  0.00     0.094 C 
HETATM   13  O4  UNL     1       2.186  15.750   4.468  1.00  0.00    -0.363 OA
HETATM   14  C12 UNL     1       2.655  14.438   4.204  1.00  0.00     0.263 C 
HETATM   15  C13 UNL     1       3.424  14.419   2.952  1.00  0.00    -0.080 C 
HETATM   16  C14 UNL     1       4.043  14.412   1.922  1.00  0.00    -0.093 C 
HETATM   17  C15 UNL     1       4.804  14.434   0.642  1.00  0.00     0.121 C 
HETATM   18  C22 UNL     1       3.861  14.459  -0.589  1.00  0.00     0.190 C 
HETATM   19  O5  UNL     1       3.088  15.655  -0.609  1.00  0.00    -0.384 OA
HETATM   20  C23 UNL     1       1.935  15.662  -1.452  1.00  0.00     0.122 C 
HETATM   21  C24 UNL     1       1.460  17.119  -1.438  1.00  0.00     0.033 C 
HETATM   22  C25 UNL     1       1.067  17.589  -0.015  1.00  0.00     0.013 C 
HETATM   23  C26 UNL     1       0.024  16.676   0.673  1.00  0.00    -0.025 C 
HETATM   24  C27 UNL     1      -1.330  16.874  -0.065  1.00  0.00     0.016 C 
HETATM   25  C28 UNL     1       0.501  15.215   0.530  1.00  0.00     0.071 C 
HETATM   26  C29 UNL     1       0.808  14.780  -0.896  1.00  0.00     0.045 C 
HETATM   27  C30 UNL     1      -0.398  14.293   1.330  1.00  0.00     0.154 C 
HETATM   28  O6  UNL     1      -1.091  13.403   0.857  1.00  0.00    -0.293 OA
HETATM   29  C31 UNL     1      -0.296  14.501   2.797  1.00  0.00     0.057 C 
HETATM   30  C32 UNL     1       0.064  15.741   3.187  1.00  0.00    -0.036 C 
HETATM   31  C33 UNL     1      -0.226  16.966   2.192  1.00  0.00     0.031 C 
HETATM   32  C34 UNL     1       0.418  18.114   2.933  1.00  0.00     0.000 C 
HETATM   33  C35 UNL     1       1.104  19.430   2.694  1.00  0.00     0.006 C 
HETATM   34  C36 UNL     1       1.966  19.664   3.986  1.00  0.00     0.001 C 
HETATM   35  C37 UNL     1       2.017  18.467   5.029  1.00  0.00     0.014 C 
HETATM   36  C38 UNL     1       0.679  17.613   5.230  1.00  0.00     0.006 C 
HETATM   37  C39 UNL     1      -0.377  18.196   4.289  1.00  0.00     0.014 C 
HETATM   38  C40 UNL     1      -1.114  19.524   4.582  1.00  0.00     0.100 C 
HETATM   39  C41 UNL     1      -2.299  19.253   5.424  1.00  0.00    -0.103 C 
HETATM   40  C42 UNL     1      -3.188  18.805   6.098  1.00  0.00    -0.072 C 
HETATM   41  C43 UNL     1      -4.142  17.996   6.873  1.00  0.00     0.226 C 
HETATM   42  C44 UNL     1      -2.423  19.533   9.425  1.00  0.00     0.047 C 
ENDROOT
BRANCH  17  43
HETATM   43  C16 UNL     1       5.845  15.549   0.628  1.00  0.00    -0.040 A 
HETATM   44  C17 UNL     1       6.183  16.248   1.801  1.00  0.00     0.008 A 
HETATM   45  C18 UNL     1       7.116  17.285   1.780  1.00  0.00     0.001 A 
HETATM   46  C19 UNL     1       7.733  17.636   0.583  1.00  0.00     0.000 A 
HETATM   47  C20 UNL     1       7.409  16.954  -0.589  1.00  0.00     0.001 A 
HETATM   48  C21 UNL     1       6.474  15.916  -0.570  1.00  0.00     0.008 A 
ENDBRANCH  17  43
BRANCH   7  49
HETATM   49  O3  UNL     1       1.973  18.141   8.191  1.00  0.00    -0.387 OA
HETATM   50  H12 UNL     1       1.990  17.458   8.891  1.00  0.00     0.210 HD
ENDBRANCH   7  49
BRANCH   6  51
HETATM   51  O2  UNL     1       0.279  16.807   9.790  1.00  0.00    -0.390 OA
HETATM   52  H8  UNL     1      -0.460  16.182   9.668  1.00  0.00     0.210 HD
ENDBRANCH   6  51
BRANCH  42  53
HETATM   53  C45 UNL     1      -2.170  20.413  10.644  1.00  0.00     0.172 C 
BRANCH  53  54
HETATM   54  O8  UNL     1      -1.677  19.648  11.726  1.00  0.00    -0.400 OA
HETATM   55  H56 UNL     1      -0.738  19.456  11.557  1.00  0.00     0.209 HD
ENDBRANCH  53  54
ENDBRANCH  42  53
BRANCH  41  56
HETATM   56  O7  UNL     1      -5.437  18.567   6.733  1.00  0.00    -0.381 OA
HETATM   57  H52 UNL     1      -6.072  17.848   6.856  1.00  0.00     0.211 HD
ENDBRANCH  41  56
TORSDOF 6
ENDMDL
MODEL 4
REMARK minimizedAffinity -7.74450541
REMARK CNNscore 0.2446962
REMARK CNNaffinity 6.38687134
REMARK  6 active torsions:
REMARK  status: ('A' for Active; 'I' for Inactive)
REMARK    1  A    between atoms: C5_6  and  O2_7 
REMARK    2  A    between atoms: C6_8  and  O3_10 
REMARK    3  A    between atoms: C15_19  and  C16_20 
REMARK    4  A    between atoms: C43_49  and  O7_50 
REMARK    5  A    between atoms: C44_51  and  C45_52 
REMARK    6  A    between atoms: C45_52  and  O8_53 
ROOT
HETATM    1  C1  UNL     1      -7.417  18.795   4.992  1.00  0.00     0.013 C 
HETATM    2  C2  UNL     1      -6.233  17.842   4.767  1.00  0.00     0.023 C 
HETATM    3  C3  UNL     1      -4.953  18.651   4.488  1.00  0.00     0.167 C 
HETATM    4  O1  UNL     1      -4.682  18.578   3.067  1.00  0.00    -0.373 OA
HETATM    5  C4  UNL     1      -5.740  17.835   2.428  1.00  0.00     0.160 C 
HETATM    6  C5  UNL     1      -5.300  17.215   1.069  1.00  0.00     0.181 C 
HETATM    7  C6  UNL     1      -4.034  16.266   0.933  1.00  0.00     0.087 C 
HETATM    8  C7  UNL     1      -4.362  14.943   1.626  1.00  0.00     0.049 C 
HETATM    9  C8  UNL     1      -2.647  16.902   1.342  1.00  0.00     0.034 C 
HETATM   10  C9  UNL     1      -2.260  18.104   0.462  1.00  0.00     0.012 C 
HETATM   11  C10 UNL     1      -0.876  18.513   0.931  1.00  0.00     0.044 C 
HETATM   12  C11 UNL     1      -0.079  17.208   0.992  1.00  0.00     0.094 C 
HETATM   13  O4  UNL     1       0.386  16.815  -0.315  1.00  0.00    -0.363 OA
HETATM   14  C12 UNL     1       1.219  17.668  -1.083  1.00  0.00     0.263 C 
HETATM   15  C13 UNL     1       2.487  16.993  -1.392  1.00  0.00    -0.080 C 
HETATM   16  C14 UNL     1       3.523  16.435  -1.631  1.00  0.00    -0.093 C 
HETATM   17  C15 UNL     1       4.798  15.719  -1.911  1.00  0.00     0.121 C 
HETATM   18  C22 UNL     1       5.746  15.724  -0.683  1.00  0.00     0.190 C 
HETATM   19  O5  UNL     1       5.165  15.013   0.406  1.00  0.00    -0.384 OA
HETATM   20  C23 UNL     1       5.732  15.238   1.697  1.00  0.00     0.122 C 
HETATM   21  C24 UNL     1       5.068  14.188   2.595  1.00  0.00     0.033 C 
HETATM   22  C25 UNL     1       3.530  14.371   2.663  1.00  0.00     0.013 C 
HETATM   23  C26 UNL     1       3.094  15.794   3.085  1.00  0.00    -0.025 C 
HETATM   24  C27 UNL     1       3.457  15.969   4.586  1.00  0.00     0.016 C 
HETATM   25  C28 UNL     1       3.877  16.808   2.224  1.00  0.00     0.071 C 
HETATM   26  C29 UNL     1       5.388  16.631   2.245  1.00  0.00     0.045 C 
HETATM   27  C30 UNL     1       3.366  18.212   2.480  1.00  0.00     0.154 C 
HETATM   28  O6  UNL     1       4.028  19.126   2.952  1.00  0.00    -0.293 OA
HETATM   29  C31 UNL     1       1.975  18.426   2.006  1.00  0.00     0.057 C 
HETATM   30  C32 UNL     1       1.195  17.327   1.971  1.00  0.00    -0.036 C 
HETATM   31  C33 UNL     1       1.565  16.100   2.938  1.00  0.00     0.031 C 
HETATM   32  C34 UNL     1       0.550  15.066   2.511  1.00  0.00     0.000 C 
HETATM   33  C35 UNL     1       0.363  13.578   2.402  1.00  0.00     0.006 C 
HETATM   34  C36 UNL     1      -0.754  13.401   1.312  1.00  0.00     0.001 C 
HETATM   35  C37 UNL     1      -1.218  14.717   0.554  1.00  0.00     0.014 C 
HETATM   36  C38 UNL     1      -1.286  16.068   1.408  1.00  0.00     0.006 C 
HETATM   37  C39 UNL     1      -0.840  15.728   2.831  1.00  0.00     0.014 C 
HETATM   38  C40 UNL     1      -1.750  14.981   3.835  1.00  0.00     0.100 C 
HETATM   39  C41 UNL     1      -2.603  15.958   4.547  1.00  0.00    -0.103 C 
HETATM   40  C42 UNL     1      -3.184  16.914   4.987  1.00  0.00    -0.072 C 
HETATM   41  C43 UNL     1      -3.725  18.236   5.337  1.00  0.00     0.226 C 
HETATM   42  C44 UNL     1      -6.351  16.957   3.522  1.00  0.00     0.047 C 
ENDROOT
BRANCH  17  43
HETATM   43  C16 UNL     1       4.547  14.322  -2.472  1.00  0.00    -0.040 A 
HETATM   44  C17 UNL     1       5.214  13.197  -1.955  1.00  0.00     0.008 A 
HETATM   45  C18 UNL     1       5.003  11.925  -2.487  1.00  0.00     0.001 A 
HETATM   46  C19 UNL     1       4.112  11.757  -3.543  1.00  0.00     0.000 A 
HETATM   47  C20 UNL     1       3.442  12.861  -4.068  1.00  0.00     0.001 A 
HETATM   48  C21 UNL     1       3.655  14.136  -3.537  1.00  0.00     0.008 A 
ENDBRANCH  17  43
BRANCH   7  49
HETATM   49  O3  UNL     1      -3.956  15.954  -0.484  1.00  0.00    -0.387 OA
HETATM   50  H12 UNL     1      -4.318  16.741  -0.937  1.00  0.00     0.210 HD
ENDBRANCH   7  49
BRANCH   6  51
HETATM   51  O2  UNL     1      -5.160  18.281   0.102  1.00  0.00    -0.390 OA
HETATM   52  H8  UNL     1      -4.926  19.090   0.595  1.00  0.00     0.210 HD
ENDBRANCH   6  51
BRANCH  42  53
HETATM   53  C45 UNL     1      -7.757  16.457   3.209  1.00  0.00     0.172 C 
BRANCH  53  54
HETATM   54  O8  UNL     1      -8.223  15.588   4.223  1.00  0.00    -0.400 OA
HETATM   55  H56 UNL     1      -8.488  16.130   4.986  1.00  0.00     0.209 HD
ENDBRANCH  53  54
ENDBRANCH  42  53
BRANCH  41  56
HETATM   56  O7  UNL     1      -4.038  18.244   6.725  1.00  0.00    -0.381 OA
HETATM   57  H52 UNL     1      -3.973  19.164   7.019  1.00  0.00     0.211 HD
ENDBRANCH  41  56
TORSDOF 6
ENDMDL
MODEL 5
REMARK minimizedAffinity -7.54660177
REMARK CNNscore 0.229495019
REMARK CNNaffinity 6.49978781
REMARK  6 active torsions:
REMARK  status: ('A' for Active; 'I' for Inactive)
REMARK    1  A    between atoms: C5_6  and  O2_7 
REMARK    2  A    between atoms: C6_8  and  O3_10 
REMARK    3  A    between atoms: C15_19  and  C16_20 
REMARK    4  A    between atoms: C43_49  and  O7_50 
REMARK    5  A    between atoms: C44_51  and  C45_52 
REMARK    6  A    between atoms: C45_52  and  O8_53 
ROOT
HETATM    1  C1  UNL     1       6.017  15.000  -8.402  1.00  0.00     0.013 C 
HETATM    2  C2  UNL     1       5.274  15.696  -7.252  1.00  0.00     0.023 C 
HETATM    3  C3  UNL     1       6.058  15.525  -5.938  1.00  0.00     0.167 C 
HETATM    4  O1  UNL     1       5.382  14.517  -5.145  1.00  0.00    -0.373 OA
HETATM    5  C4  UNL     1       4.269  13.999  -5.901  1.00  0.00     0.160 C 
HETATM    6  C5  UNL     1       3.172  13.368  -4.994  1.00  0.00     0.181 C 
HETATM    7  C6  UNL     1       2.487  14.162  -3.802  1.00  0.00     0.087 C 
HETATM    8  C7  UNL     1       1.598  15.248  -4.412  1.00  0.00     0.049 C 
HETATM    9  C8  UNL     1       3.454  14.663  -2.658  1.00  0.00     0.034 C 
HETATM   10  C9  UNL     1       4.160  13.507  -1.927  1.00  0.00     0.012 C 
HETATM   11  C10 UNL     1       4.957  14.166  -0.816  1.00  0.00     0.044 C 
HETATM   12  C11 UNL     1       3.975  15.129  -0.144  1.00  0.00     0.094 C 
HETATM   13  O4  UNL     1       3.105  14.436   0.773  1.00  0.00    -0.363 OA
HETATM   14  C12 UNL     1       3.630  13.695   1.863  1.00  0.00     0.263 C 
HETATM   15  C13 UNL     1       3.103  14.219   3.131  1.00  0.00    -0.080 C 
HETATM   16  C14 UNL     1       2.673  14.661   4.162  1.00  0.00    -0.093 C 
HETATM   17  C15 UNL     1       2.126  15.231   5.424  1.00  0.00     0.121 C 
HETATM   18  C22 UNL     1       2.851  16.541   5.828  1.00  0.00     0.190 C 
HETATM   19  O5  UNL     1       2.639  17.557   4.853  1.00  0.00    -0.384 OA
HETATM   20  C23 UNL     1       3.521  18.679   4.889  1.00  0.00     0.122 C 
HETATM   21  C24 UNL     1       2.912  19.678   3.900  1.00  0.00     0.033 C 
HETATM   22  C25 UNL     1       2.854  19.108   2.460  1.00  0.00     0.013 C 
HETATM   23  C26 UNL     1       4.220  18.599   1.939  1.00  0.00    -0.025 C 
HETATM   24  C27 UNL     1       5.123  19.842   1.706  1.00  0.00     0.016 C 
HETATM   25  C28 UNL     1       4.834  17.688   3.024  1.00  0.00     0.071 C 
HETATM   26  C29 UNL     1       4.933  18.318   4.406  1.00  0.00     0.045 C 
HETATM   27  C30 UNL     1       6.095  17.030   2.499  1.00  0.00     0.154 C 
HETATM   28  O6  UNL     1       7.217  17.194   2.957  1.00  0.00    -0.293 OA
HETATM   29  C31 UNL     1       5.838  16.062   1.402  1.00  0.00     0.057 C 
HETATM   30  C32 UNL     1       4.736  16.299   0.661  1.00  0.00    -0.036 C 
HETATM   31  C33 UNL     1       4.171  17.799   0.594  1.00  0.00     0.031 C 
HETATM   32  C34 UNL     1       2.908  17.608  -0.212  1.00  0.00     0.000 C 
HETATM   33  C35 UNL     1       1.530  18.182  -0.389  1.00  0.00     0.006 C 
HETATM   34  C36 UNL     1       0.692  17.006  -1.009  1.00  0.00     0.001 C 
HETATM   35  C37 UNL     1       1.416  15.596  -1.106  1.00  0.00     0.014 C 
HETATM   36  C38 UNL     1       2.978  15.597  -1.454  1.00  0.00     0.006 C 
HETATM   37  C39 UNL     1       3.409  17.057  -1.597  1.00  0.00     0.014 C 
HETATM   38  C40 UNL     1       3.073  17.908  -2.845  1.00  0.00     0.100 C 
HETATM   39  C41 UNL     1       4.116  17.704  -3.875  1.00  0.00    -0.103 C 
HETATM   40  C42 UNL     1       5.059  17.388  -4.550  1.00  0.00    -0.072 C 
HETATM   41  C43 UNL     1       6.286  16.835  -5.142  1.00  0.00     0.226 C 
HETATM   42  C44 UNL     1       3.908  15.091  -6.912  1.00  0.00     0.047 C 
ENDROOT
BRANCH  17  43
HETATM   43  C16 UNL     1       0.608  15.375   5.363  1.00  0.00    -0.040 A 
HETATM   44  C17 UNL     1      -0.141  14.773   4.336  1.00  0.00     0.008 A 
HETATM   45  C18 UNL     1      -1.526  14.929   4.267  1.00  0.00     0.001 A 
HETATM   46  C19 UNL     1      -2.185  15.685   5.231  1.00  0.00     0.000 A 
HETATM   47  C20 UNL     1      -1.458  16.288   6.256  1.00  0.00     0.001 A 
HETATM   48  C21 UNL     1      -0.071  16.135   6.325  1.00  0.00     0.008 A 
ENDBRANCH  17  43
BRANCH   7  49
HETATM   49  O3  UNL     1       1.574  13.208  -3.198  1.00  0.00    -0.387 OA
HETATM   50  H12 UNL     1       1.993  12.334  -3.334  1.00  0.00     0.210 HD
ENDBRANCH   7  49
BRANCH   6  51
HETATM   51  O2  UNL     1       3.680  12.122  -4.461  1.00  0.00    -0.390 OA
HETATM   52  H8  UNL     1       4.650  12.204  -4.409  1.00  0.00     0.210 HD
ENDBRANCH   6  51
BRANCH  42  53
HETATM   53  C45 UNL     1       3.101  14.594  -8.106  1.00  0.00     0.172 C 
BRANCH  53  54
HETATM   54  O8  UNL     1       3.948  14.043  -9.095  1.00  0.00    -0.400 OA
HETATM   55  H56 UNL     1       4.222  13.159  -8.798  1.00  0.00     0.209 HD
ENDBRANCH  53  54
ENDBRANCH  42  53
BRANCH  41  56
HETATM   56  O7  UNL     1       6.882  17.833  -5.962  1.00  0.00    -0.381 OA
HETATM   57  H52 UNL     1       7.831  17.642  -5.986  1.00  0.00     0.211 HD
ENDBRANCH  41  56
TORSDOF 6
ENDMDL
MODEL 6
REMARK minimizedAffinity -7.19715261
REMARK CNNscore 0.22716549
REMARK CNNaffinity 5.98740721
REMARK  6 active torsions:
REMARK  status: ('A' for Active; 'I' for Inactive)
REMARK    1  A    between atoms: C5_6  and  O2_7 
REMARK    2  A    between atoms: C6_8  and  O3_10 
REMARK    3  A    between atoms: C15_19  and  C16_20 
REMARK    4  A    between atoms: C43_49  and  O7_50 
REMARK    5  A    between atoms: C44_51  and  C45_52 
REMARK    6  A    between atoms: C45_52  and  O8_53 
ROOT
HETATM    1  C1  UNL     1     -18.704   9.555  12.419  1.00  0.00     0.013 C 
HETATM    2  C2  UNL     1     -17.550   9.279  13.395  1.00  0.00     0.023 C 
HETATM    3  C3  UNL     1     -17.737  10.107  14.679  1.00  0.00     0.167 C 
HETATM    4  O1  UNL     1     -16.811  11.220  14.629  1.00  0.00    -0.373 OA
HETATM    5  C4  UNL     1     -16.105  11.184  13.372  1.00  0.00     0.160 C 
HETATM    6  C5  UNL     1     -14.744  11.936  13.428  1.00  0.00     0.181 C 
HETATM    7  C6  UNL     1     -13.625  11.600  14.503  1.00  0.00     0.087 C 
HETATM    8  C7  UNL     1     -13.045  10.225  14.163  1.00  0.00     0.049 C 
HETATM    9  C8  UNL     1     -14.040  11.787  16.016  1.00  0.00     0.034 C 
HETATM   10  C9  UNL     1     -14.403  13.243  16.357  1.00  0.00     0.012 C 
HETATM   11  C10 UNL     1     -14.675  13.247  17.850  1.00  0.00     0.044 C 
HETATM   12  C11 UNL     1     -13.493  12.495  18.467  1.00  0.00     0.094 C 
HETATM   13  O4  UNL     1     -12.334  13.345  18.587  1.00  0.00    -0.363 OA
HETATM   14  C12 UNL     1     -12.383  14.547  19.340  1.00  0.00     0.263 C 
HETATM   15  C13 UNL     1     -11.382  14.511  20.414  1.00  0.00    -0.080 C 
HETATM   16  C14 UNL     1     -10.566  14.467  21.295  1.00  0.00    -0.093 C 
HETATM   17  C15 UNL     1      -9.548  14.384  22.378  1.00  0.00     0.121 C 
HETATM   18  C22 UNL     1     -10.030  13.501  23.559  1.00  0.00     0.190 C 
HETATM   19  O5  UNL     1     -10.218  12.153  23.137  1.00  0.00    -0.384 OA
HETATM   20  C23 UNL     1     -10.996  11.314  23.991  1.00  0.00     0.122 C 
HETATM   21  C24 UNL     1     -10.827   9.909  23.405  1.00  0.00     0.033 C 
HETATM   22  C25 UNL     1     -11.364   9.816  21.954  1.00  0.00     0.013 C 
HETATM   23  C26 UNL     1     -12.830  10.288  21.804  1.00  0.00    -0.025 C 
HETATM   24  C27 UNL     1     -13.734   9.233  22.499  1.00  0.00     0.016 C 
HETATM   25  C28 UNL     1     -12.964  11.656  22.509  1.00  0.00     0.071 C 
HETATM   26  C29 UNL     1     -12.487  11.678  23.955  1.00  0.00     0.045 C 
HETATM   27  C30 UNL     1     -14.337  12.242  22.251  1.00  0.00     0.154 C 
HETATM   28  O6  UNL     1     -15.176  12.476  23.110  1.00  0.00    -0.293 OA
HETATM   29  C31 UNL     1     -14.559  12.613  20.829  1.00  0.00     0.057 C 
HETATM   30  C32 UNL     1     -13.848  11.909  19.925  1.00  0.00    -0.036 C 
HETATM   31  C33 UNL     1     -13.340  10.442  20.331  1.00  0.00     0.031 C 
HETATM   32  C34 UNL     1     -12.513  10.066  19.124  1.00  0.00     0.000 C 
HETATM   33  C35 UNL     1     -11.317   9.246  18.729  1.00  0.00     0.006 C 
HETATM   34  C36 UNL     1     -10.817   9.900  17.391  1.00  0.00     0.001 C 
HETATM   35  C37 UNL     1     -11.536  11.246  16.949  1.00  0.00     0.014 C 
HETATM   36  C38 UNL     1     -13.105  11.367  17.240  1.00  0.00     0.006 C 
HETATM   37  C39 UNL     1     -13.539  10.074  17.932  1.00  0.00     0.014 C 
HETATM   38  C40 UNL     1     -13.726   8.741  17.169  1.00  0.00     0.100 C 
HETATM   39  C41 UNL     1     -15.098   8.676  16.621  1.00  0.00    -0.103 C 
HETATM   40  C42 UNL     1     -16.238   8.841  16.276  1.00  0.00    -0.072 C 
HETATM   41  C43 UNL     1     -17.607   9.301  15.997  1.00  0.00     0.226 C 
HETATM   42  C44 UNL     1     -16.171   9.729  12.901  1.00  0.00     0.047 C 
ENDROOT
BRANCH  17  43
HETATM   43  C16 UNL     1      -8.183  13.972  21.835  1.00  0.00    -0.040 A 
HETATM   44  C17 UNL     1      -7.181  13.468  22.685  1.00  0.00     0.008 A 
HETATM   45  C18 UNL     1      -5.925  13.117  22.190  1.00  0.00     0.001 A 
HETATM   46  C19 UNL     1      -5.652  13.257  20.833  1.00  0.00     0.000 A 
HETATM   47  C20 UNL     1      -6.634  13.755  19.976  1.00  0.00     0.001 A 
HETATM   48  C21 UNL     1      -7.892  14.109  20.471  1.00  0.00     0.008 A 
ENDBRANCH  17  43
BRANCH   7  49
HETATM   49  O3  UNL     1     -12.558  12.548  14.236  1.00  0.00    -0.387 OA
HETATM   50  H12 UNL     1     -13.007  13.345  13.889  1.00  0.00     0.210 HD
ENDBRANCH   7  49
BRANCH   6  51
HETATM   51  O2  UNL     1     -15.008  13.357  13.495  1.00  0.00    -0.390 OA
HETATM   52  H8  UNL     1     -15.873  13.471  13.930  1.00  0.00     0.210 HD
ENDBRANCH   6  51
BRANCH  42  53
HETATM   53  C45 UNL     1     -15.922   9.544  11.408  1.00  0.00     0.172 C 
BRANCH  53  54
HETATM   54  O8  UNL     1     -15.937   8.175  11.058  1.00  0.00    -0.400 OA
HETATM   55  H56 UNL     1     -16.864   7.881  11.031  1.00  0.00     0.209 HD
ENDBRANCH  53  54
ENDBRANCH  42  53
BRANCH  41  56
HETATM   56  O7  UNL     1     -18.471   8.171  15.990  1.00  0.00    -0.381 OA
HETATM   57  H52 UNL     1     -19.351   8.493  16.235  1.00  0.00     0.211 HD
ENDBRANCH  41  56
TORSDOF 6
ENDMDL
MODEL 7
REMARK minimizedAffinity -8.09826851
REMARK CNNscore 0.215072468
REMARK CNNaffinity 6.4465065
REMARK  6 active torsions:
REMARK  status: ('A' for Active; 'I' for Inactive)
REMARK    1  A    between atoms: C5_6  and  O2_7 
REMARK    2  A    between atoms: C6_8  and  O3_10 
REMARK    3  A    between atoms: C15_19  and  C16_20 
REMARK    4  A    between atoms: C43_49  and  O7_50 
REMARK    5  A    between atoms: C44_51  and  C45_52 
REMARK    6  A    between atoms: C45_52  and  O8_53 
ROOT
HETATM    1  C1  UNL     1     -13.340  16.049  19.844  1.00  0.00     0.013 C 
HETATM    2  C2  UNL     1     -12.890  14.656  20.310  1.00  0.00     0.023 C 
HETATM    3  C3  UNL     1     -14.113  13.736  20.476  1.00  0.00     0.167 C 
HETATM    4  O1  UNL     1     -14.387  13.611  21.893  1.00  0.00    -0.373 OA
HETATM    5  C4  UNL     1     -13.461  14.442  22.622  1.00  0.00     0.160 C 
HETATM    6  C5  UNL     1     -13.272  13.979  24.096  1.00  0.00     0.181 C 
HETATM    7  C6  UNL     1     -12.838  12.500  24.478  1.00  0.00     0.087 C 
HETATM    8  C7  UNL     1     -11.379  12.316  24.054  1.00  0.00     0.049 C 
HETATM    9  C8  UNL     1     -13.814  11.350  24.011  1.00  0.00     0.034 C 
HETATM   10  C9  UNL     1     -15.212  11.461  24.645  1.00  0.00     0.012 C 
HETATM   11  C10 UNL     1     -15.967  10.236  24.164  1.00  0.00     0.044 C 
HETATM   12  C11 UNL     1     -15.011   9.065  24.405  1.00  0.00     0.094 C 
HETATM   13  O4  UNL     1     -15.032   8.644  25.785  1.00  0.00    -0.363 OA
HETATM   14  C12 UNL     1     -16.235   8.213  26.400  1.00  0.00     0.263 C 
HETATM   15  C13 UNL     1     -16.084   6.838  26.895  1.00  0.00    -0.080 C 
HETATM   16  C14 UNL     1     -15.953   5.710  27.289  1.00  0.00    -0.093 C 
HETATM   17  C15 UNL     1     -15.762   4.313  27.764  1.00  0.00     0.121 C 
HETATM   18  C22 UNL     1     -15.864   3.289  26.604  1.00  0.00     0.190 C 
HETATM   19  O5  UNL     1     -14.820   3.493  25.657  1.00  0.00    -0.384 OA
HETATM   20  C23 UNL     1     -14.987   2.889  24.374  1.00  0.00     0.122 C 
HETATM   21  C24 UNL     1     -13.636   3.085  23.679  1.00  0.00     0.033 C 
HETATM   22  C25 UNL     1     -13.283   4.584  23.507  1.00  0.00     0.013 C 
HETATM   23  C26 UNL     1     -14.382   5.401  22.786  1.00  0.00    -0.025 C 
HETATM   24  C27 UNL     1     -14.399   4.950  21.299  1.00  0.00     0.016 C 
HETATM   25  C28 UNL     1     -15.734   5.077  23.458  1.00  0.00     0.071 C 
HETATM   26  C29 UNL     1     -16.067   3.594  23.540  1.00  0.00     0.045 C 
HETATM   27  C30 UNL     1     -16.821   5.975  22.900  1.00  0.00     0.154 C 
HETATM   28  O6  UNL     1     -17.803   5.589  22.282  1.00  0.00    -0.293 OA
HETATM   29  C31 UNL     1     -16.641   7.405  23.257  1.00  0.00     0.057 C 
HETATM   30  C32 UNL     1     -15.370   7.796  23.480  1.00  0.00    -0.036 C 
HETATM   31  C33 UNL     1     -14.185   6.954  22.800  1.00  0.00     0.031 C 
HETATM   32  C34 UNL     1     -12.965   7.629  23.383  1.00  0.00     0.000 C 
HETATM   33  C35 UNL     1     -11.544   7.346  23.782  1.00  0.00     0.006 C 
HETATM   34  C36 UNL     1     -11.203   8.461  24.835  1.00  0.00     0.001 C 
HETATM   35  C37 UNL     1     -12.403   9.398  25.288  1.00  0.00     0.014 C 
HETATM   36  C38 UNL     1     -13.481   9.797  24.176  1.00  0.00     0.006 C 
HETATM   37  C39 UNL     1     -13.061   9.114  22.873  1.00  0.00     0.014 C 
HETATM   38  C40 UNL     1     -11.890   9.627  22.002  1.00  0.00     0.100 C 
HETATM   39  C41 UNL     1     -12.386  10.662  21.069  1.00  0.00    -0.103 C 
HETATM   40  C42 UNL     1     -13.002  11.464  20.418  1.00  0.00    -0.072 C 
HETATM   41  C43 UNL     1     -13.985  12.354  19.784  1.00  0.00     0.226 C 
HETATM   42  C44 UNL     1     -12.250  14.621  21.702  1.00  0.00     0.047 C 
ENDROOT
BRANCH  17  43
HETATM   43  C16 UNL     1     -14.484   4.169  28.585  1.00  0.00    -0.040 A 
HETATM   44  C17 UNL     1     -13.415   3.373  28.136  1.00  0.00     0.008 A 
HETATM   45  C18 UNL     1     -12.258   3.221  28.902  1.00  0.00     0.001 A 
HETATM   46  C19 UNL     1     -12.149   3.871  30.127  1.00  0.00     0.000 A 
HETATM   47  C20 UNL     1     -13.200   4.664  30.587  1.00  0.00     0.001 A 
HETATM   48  C21 UNL     1     -14.360   4.815  29.822  1.00  0.00     0.008 A 
ENDBRANCH  17  43
BRANCH   7  49
HETATM   49  O3  UNL     1     -12.825  12.482  25.930  1.00  0.00    -0.387 OA
HETATM   50  H12 UNL     1     -13.515  13.122  26.198  1.00  0.00     0.210 HD
ENDBRANCH   7  49
BRANCH   6  51
HETATM   51  O2  UNL     1     -14.478  14.289  24.832  1.00  0.00    -0.390 OA
HETATM   52  H8  UNL     1     -15.218  14.272  24.196  1.00  0.00     0.210 HD
ENDBRANCH   6  51
BRANCH  42  53
HETATM   53  C45 UNL     1     -11.377  15.823  22.047  1.00  0.00     0.172 C 
BRANCH  53  54
HETATM   54  O8  UNL     1     -10.588  15.563  23.191  1.00  0.00    -0.400 OA
HETATM   55  H56 UNL     1      -9.850  14.989  22.924  1.00  0.00     0.209 HD
ENDBRANCH  53  54
ENDBRANCH  42  53
BRANCH  41  56
HETATM   56  O7  UNL     1     -13.643  12.502  18.411  1.00  0.00    -0.381 OA
HETATM   57  H52 UNL     1     -14.465  12.700  17.940  1.00  0.00     0.211 HD
ENDBRANCH  41  56
TORSDOF 6
ENDMDL
MODEL 8
REMARK minimizedAffinity -7.98894882
REMARK CNNscore 0.20725809
REMARK CNNaffinity 6.45242929
REMARK  6 active torsions:
REMARK  status: ('A' for Active; 'I' for Inactive)
REMARK    1  A    between atoms: C5_6  and  O2_7 
REMARK    2  A    between atoms: C6_8  and  O3_10 
REMARK    3  A    between atoms: C15_19  and  C16_20 
REMARK    4  A    between atoms: C43_49  and  O7_50 
REMARK    5  A    between atoms: C44_51  and  C45_52 
REMARK    6  A    between atoms: C45_52  and  O8_53 
ROOT
HETATM    1  C1  UNL     1      -9.145 -11.992  13.638  1.00  0.00     0.013 C 
HETATM    2  C2  UNL     1     -10.514 -11.300  13.550  1.00  0.00     0.023 C 
HETATM    3  C3  UNL     1     -10.341  -9.852  13.058  1.00  0.00     0.167 C 
HETATM    4  O1  UNL     1     -10.489  -8.973  14.200  1.00  0.00    -0.373 OA
HETATM    5  C4  UNL     1     -10.676  -9.774  15.384  1.00  0.00     0.160 C 
HETATM    6  C5  UNL     1     -11.392  -8.996  16.527  1.00  0.00     0.181 C 
HETATM    7  C6  UNL     1     -12.795  -8.281  16.326  1.00  0.00     0.087 C 
HETATM    8  C7  UNL     1     -13.858  -9.370  16.170  1.00  0.00     0.049 C 
HETATM    9  C8  UNL     1     -12.842  -7.147  15.227  1.00  0.00     0.034 C 
HETATM   10  C9  UNL     1     -11.909  -5.966  15.550  1.00  0.00     0.012 C 
HETATM   11  C10 UNL     1     -12.160  -4.949  14.452  1.00  0.00     0.044 C 
HETATM   12  C11 UNL     1     -13.684  -4.833  14.363  1.00  0.00     0.094 C 
HETATM   13  O4  UNL     1     -14.207  -3.975  15.397  1.00  0.00    -0.363 OA
HETATM   14  C12 UNL     1     -13.785  -2.626  15.512  1.00  0.00     0.263 C 
HETATM   15  C13 UNL     1     -14.940  -1.725  15.398  1.00  0.00    -0.080 C 
HETATM   16  C14 UNL     1     -15.889  -0.996  15.293  1.00  0.00    -0.093 C 
HETATM   17  C15 UNL     1     -17.084  -0.118  15.159  1.00  0.00     0.121 C 
HETATM   18  C22 UNL     1     -17.526   0.035  13.681  1.00  0.00     0.190 C 
HETATM   19  O5  UNL     1     -17.938  -1.218  13.144  1.00  0.00    -0.384 OA
HETATM   20  C23 UNL     1     -18.018  -1.314  11.722  1.00  0.00     0.122 C 
HETATM   21  C24 UNL     1     -18.693  -2.666  11.467  1.00  0.00     0.033 C 
HETATM   22  C25 UNL     1     -17.857  -3.847  12.022  1.00  0.00     0.013 C 
HETATM   23  C26 UNL     1     -16.398  -3.869  11.508  1.00  0.00    -0.025 C 
HETATM   24  C27 UNL     1     -16.439  -4.247  10.001  1.00  0.00     0.016 C 
HETATM   25  C28 UNL     1     -15.808  -2.454  11.689  1.00  0.00     0.071 C 
HETATM   26  C29 UNL     1     -16.630  -1.335  11.065  1.00  0.00     0.045 C 
HETATM   27  C30 UNL     1     -14.329  -2.460  11.356  1.00  0.00     0.154 C 
HETATM   28  O6  UNL     1     -13.810  -1.827  10.446  1.00  0.00    -0.293 OA
HETATM   29  C31 UNL     1     -13.515  -3.250  12.314  1.00  0.00     0.057 C 
HETATM   30  C32 UNL     1     -14.160  -4.258  12.935  1.00  0.00    -0.036 C 
HETATM   31  C33 UNL     1     -15.449  -4.892  12.220  1.00  0.00     0.031 C 
HETATM   32  C34 UNL     1     -15.923  -5.871  13.268  1.00  0.00     0.000 C 
HETATM   33  C35 UNL     1     -17.175  -6.519  13.790  1.00  0.00     0.006 C 
HETATM   34  C36 UNL     1     -16.817  -6.937  15.261  1.00  0.00     0.001 C 
HETATM   35  C37 UNL     1     -15.411  -6.446  15.814  1.00  0.00     0.014 C 
HETATM   36  C38 UNL     1     -14.189  -6.414  14.782  1.00  0.00     0.006 C 
HETATM   37  C39 UNL     1     -14.727  -6.880  13.428  1.00  0.00     0.014 C 
HETATM   38  C40 UNL     1     -15.025  -8.365  13.115  1.00  0.00     0.100 C 
HETATM   39  C41 UNL     1     -13.792  -9.023  12.630  1.00  0.00    -0.103 C 
HETATM   40  C42 UNL     1     -12.690  -9.341  12.271  1.00  0.00    -0.072 C 
HETATM   41  C43 UNL     1     -11.274  -9.448  11.888  1.00  0.00     0.226 C 
HETATM   42  C44 UNL     1     -11.226 -11.117  14.895  1.00  0.00     0.047 C 
ENDROOT
BRANCH  17  43
HETATM   43  C16 UNL     1     -18.214  -0.563  16.083  1.00  0.00    -0.040 A 
HETATM   44  C17 UNL     1     -18.062  -1.665  16.943  1.00  0.00     0.008 A 
HETATM   45  C18 UNL     1     -19.106  -2.087  17.767  1.00  0.00     0.001 A 
HETATM   46  C19 UNL     1     -20.319  -1.406  17.750  1.00  0.00     0.000 A 
HETATM   47  C20 UNL     1     -20.487  -0.310  16.903  1.00  0.00     0.001 A 
HETATM   48  C21 UNL     1     -19.443   0.111  16.076  1.00  0.00     0.008 A 
ENDBRANCH  17  43
BRANCH   7  49
HETATM   49  O3  UNL     1     -13.073  -7.646  17.602  1.00  0.00    -0.387 OA
HETATM   50  H12 UNL     1     -12.195  -7.419  17.970  1.00  0.00     0.210 HD
ENDBRANCH   7  49
BRANCH   6  51
HETATM   51  O2  UNL     1     -10.470  -8.018  17.062  1.00  0.00    -0.390 OA
HETATM   52  H8  UNL     1      -9.858  -7.773  16.343  1.00  0.00     0.210 HD
ENDBRANCH   6  51
BRANCH  42  53
HETATM   53  C45 UNL     1     -11.050 -12.262  15.886  1.00  0.00     0.172 C 
BRANCH  53  54
HETATM   54  O8  UNL     1     -11.187 -11.804  17.217  1.00  0.00    -0.400 OA
HETATM   55  H56 UNL     1     -12.134 -11.676  17.396  1.00  0.00     0.209 HD
ENDBRANCH  53  54
ENDBRANCH  42  53
BRANCH  41  56
HETATM   56  O7  UNL     1     -11.165 -10.368  10.808  1.00  0.00    -0.381 OA
HETATM   57  H52 UNL     1     -10.375 -10.118  10.309  1.00  0.00     0.211 HD
ENDBRANCH  41  56
TORSDOF 6
ENDMDL
MODEL 9
REMARK minimizedAffinity -8.30308819
REMARK CNNscore 0.203984261
REMARK CNNaffinity 6.53717613
REMARK  6 active torsions:
REMARK  status: ('A' for Active; 'I' for Inactive)
REMARK    1  A    between atoms: C5_6  and  O2_7 
REMARK    2  A    between atoms: C6_8  and  O3_10 
REMARK    3  A    between atoms: C15_19  and  C16_20 
REMARK    4  A    between atoms: C43_49  and  O7_50 
REMARK    5  A    between atoms: C44_51  and  C45_52 
REMARK    6  A    between atoms: C45_52  and  O8_53 
ROOT
HETATM    1  C1  UNL     1       5.729  12.172  -6.056  1.00  0.00     0.013 C 
HETATM    2  C2  UNL     1       5.447  13.016  -4.804  1.00  0.00     0.023 C 
HETATM    3  C3  UNL     1       4.257  12.424  -4.027  1.00  0.00     0.167 C 
HETATM    4  O1  UNL     1       3.100  13.258  -4.281  1.00  0.00    -0.373 OA
HETATM    5  C4  UNL     1       3.468  14.292  -5.216  1.00  0.00     0.160 C 
HETATM    6  C5  UNL     1       2.534  15.535  -5.131  1.00  0.00     0.181 C 
HETATM    7  C6  UNL     1       2.278  16.321  -3.776  1.00  0.00     0.087 C 
HETATM    8  C7  UNL     1       3.570  17.054  -3.407  1.00  0.00     0.049 C 
HETATM    9  C8  UNL     1       1.633  15.484  -2.602  1.00  0.00     0.034 C 
HETATM   10  C9  UNL     1       0.231  14.953  -2.950  1.00  0.00     0.012 C 
HETATM   11  C10 UNL     1      -0.262  14.269  -1.688  1.00  0.00     0.044 C 
HETATM   12  C11 UNL     1       0.018  15.271  -0.564  1.00  0.00     0.094 C 
HETATM   13  O4  UNL     1      -0.996  16.295  -0.509  1.00  0.00    -0.363 OA
HETATM   14  C12 UNL     1      -2.361  15.964  -0.317  1.00  0.00     0.263 C 
HETATM   15  C13 UNL     1      -2.875  16.619   0.894  1.00  0.00    -0.080 C 
HETATM   16  C14 UNL     1      -3.281  17.153   1.891  1.00  0.00    -0.093 C 
HETATM   17  C15 UNL     1      -3.758  17.826   3.131  1.00  0.00     0.121 C 
HETATM   18  C22 UNL     1      -3.288  17.082   4.408  1.00  0.00     0.190 C 
HETATM   19  O5  UNL     1      -1.867  17.101   4.510  1.00  0.00    -0.384 OA
HETATM   20  C23 UNL     1      -1.274  16.164   5.409  1.00  0.00     0.122 C 
HETATM   21  C24 UNL     1       0.201  16.575   5.473  1.00  0.00     0.033 C 
HETATM   22  C25 UNL     1       0.891  16.478   4.089  1.00  0.00     0.013 C 
HETATM   23  C26 UNL     1       0.748  15.089   3.421  1.00  0.00    -0.025 C 
HETATM   24  C27 UNL     1       1.618  14.089   4.232  1.00  0.00     0.016 C 
HETATM   25  C28 UNL     1      -0.739  14.680   3.486  1.00  0.00     0.071 C 
HETATM   26  C29 UNL     1      -1.353  14.725   4.878  1.00  0.00     0.045 C 
HETATM   27  C30 UNL     1      -0.963  13.404   2.699  1.00  0.00     0.154 C 
HETATM   28  O6  UNL     1      -1.348  12.344   3.173  1.00  0.00    -0.293 OA
HETATM   29  C31 UNL     1      -0.761  13.573   1.237  1.00  0.00     0.057 C 
HETATM   30  C32 UNL     1       0.094  14.551   0.876  1.00  0.00    -0.036 C 
HETATM   31  C33 UNL     1       1.216  15.010   1.928  1.00  0.00     0.031 C 
HETATM   32  C34 UNL     1       1.858  16.165   1.198  1.00  0.00     0.000 C 
HETATM   33  C35 UNL     1       2.560  17.471   1.451  1.00  0.00     0.006 C 
HETATM   34  C36 UNL     1       2.354  18.290   0.127  1.00  0.00     0.001 C 
HETATM   35  C37 UNL     1       1.391  17.647  -0.961  1.00  0.00     0.014 C 
HETATM   36  C38 UNL     1       1.431  16.057  -1.126  1.00  0.00     0.006 C 
HETATM   37  C39 UNL     1       2.444  15.521  -0.112  1.00  0.00     0.014 C 
HETATM   38  C40 UNL     1       3.972  15.638  -0.319  1.00  0.00     0.100 C 
HETATM   39  C41 UNL     1       4.451  14.483  -1.111  1.00  0.00    -0.103 C 
HETATM   40  C42 UNL     1       4.607  13.480  -1.756  1.00  0.00    -0.072 C 
HETATM   41  C43 UNL     1       4.507  12.222  -2.510  1.00  0.00     0.226 C 
HETATM   42  C44 UNL     1       4.985  14.449  -5.087  1.00  0.00     0.047 C 
ENDROOT
BRANCH  17  43
HETATM   43  C16 UNL     1      -3.406  19.310   3.134  1.00  0.00    -0.040 A 
HETATM   44  C17 UNL     1      -3.424  20.062   4.324  1.00  0.00     0.008 A 
HETATM   45  C18 UNL     1      -3.129  21.425   4.320  1.00  0.00     0.001 A 
HETATM   46  C19 UNL     1      -2.802  22.059   3.125  1.00  0.00     0.000 A 
HETATM   47  C20 UNL     1      -2.780  21.329   1.937  1.00  0.00     0.001 A 
HETATM   48  C21 UNL     1      -3.078  19.964   1.939  1.00  0.00     0.008 A 
ENDBRANCH  17  43
BRANCH   7  49
HETATM   49  O3  UNL     1       1.327  17.362  -4.126  1.00  0.00    -0.387 OA
HETATM   50  H12 UNL     1       0.791  16.984  -4.851  1.00  0.00     0.210 HD
ENDBRANCH   7  49
BRANCH   6  51
HETATM   51  O2  UNL     1       1.246  15.180  -5.687  1.00  0.00    -0.390 OA
HETATM   52  H8  UNL     1       1.127  14.221  -5.550  1.00  0.00     0.210 HD
ENDBRANCH   6  51
BRANCH  42  53
HETATM   53  C45 UNL     1       5.647  15.122  -6.285  1.00  0.00     0.172 C 
BRANCH  53  54
HETATM   54  O8  UNL     1       6.703  15.966  -5.871  1.00  0.00    -0.400 OA
HETATM   55  H56 UNL     1       7.467  15.407  -5.649  1.00  0.00     0.209 HD
ENDBRANCH  53  54
ENDBRANCH  42  53
BRANCH  41  56
HETATM   56  O7  UNL     1       5.689  11.463  -2.285  1.00  0.00    -0.381 OA
HETATM   57  H52 UNL     1       5.449  10.533  -2.403  1.00  0.00     0.211 HD
ENDBRANCH  41  56
TORSDOF 6
ENDMDL
