MODEL 1
REMARK minimizedAffinity -9.88759422
REMARK  1 active torsions:
REMARK  status: ('A' for Active; 'I' for Inactive)
REMARK    1  A    between atoms: C22_26  and  O5_27 
ROOT
HETATM    1  C1  UNL     1       0.985  12.876  15.254  1.00  0.00     0.014 C 
HETATM    2  C2  UNL     1       0.703  11.658  14.760  1.00  0.00    -0.085 C 
HETATM    3  C3  UNL     1       1.828  10.696  14.433  1.00  0.00     0.035 C 
HETATM    4  C4  UNL     1       1.668   9.391  15.212  1.00  0.00     0.025 C 
HETATM    5  C5  UNL     1       0.277   8.782  15.016  1.00  0.00     0.055 C 
HETATM    6  C6  UNL     1       0.106   8.118  13.630  1.00  0.00     0.021 C 
HETATM    7  C7  UNL     1      -1.221   7.346  13.479  1.00  0.00     0.014 C 
HETATM    8  C8  UNL     1      -2.457   8.113  14.055  1.00  0.00    -0.001 C 
HETATM    9  C9  UNL     1      -2.837   9.145  12.947  1.00  0.00     0.019 C 
HETATM   10  C10 UNL     1      -2.033   8.845  15.404  1.00  0.00     0.112 C 
HETATM   11  O1  UNL     1      -1.422   7.818  16.269  1.00  0.00    -0.305 OA
HETATM   12  C11 UNL     1      -0.069   7.751  16.056  1.00  0.00     0.269 C 
HETATM   13  O2  UNL     1       0.681   6.957  16.592  1.00  0.00    -0.264 OA
HETATM   14  C12 UNL     1      -0.830   9.804  15.342  1.00  0.00     0.050 C 
HETATM   15  C13 UNL     1      -0.707  11.096  14.507  1.00  0.00     0.018 C 
HETATM   16  C14 UNL     1      -1.828  12.099  14.787  1.00  0.00     0.015 C 
HETATM   17  C15 UNL     1      -3.192   9.361  16.214  1.00  0.00     0.187 A 
HETATM   18  O3  UNL     1      -4.186  10.163  15.585  1.00  0.00    -0.372 OA
HETATM   19  C16 UNL     1      -4.599   8.841  15.969  1.00  0.00     0.160 A 
HETATM   20  C17 UNL     1      -4.948   7.974  14.772  1.00  0.00     0.035 C 
HETATM   21  C18 UNL     1      -6.343   7.252  14.874  1.00  0.00    -0.023 C 
HETATM   22  C19 UNL     1      -6.449   6.287  16.086  1.00  0.00     0.016 C 
HETATM   23  C20 UNL     1      -7.456   8.329  15.029  1.00  0.00     0.096 C 
HETATM   24  C21 UNL     1      -8.849   7.766  14.857  1.00  0.00     0.183 C 
HETATM   25  O4  UNL     1      -9.848   8.311  15.331  1.00  0.00    -0.290 OA
HETATM   26  C22 UNL     1      -9.043   6.522  14.053  1.00  0.00     0.114 C 
HETATM   27  C23 UNL     1      -8.009   5.929  13.428  1.00  0.00    -0.042 C 
HETATM   28  C24 UNL     1      -8.219   4.712  12.565  1.00  0.00     0.047 C 
HETATM   29  C25 UNL     1      -6.603   6.520  13.511  1.00  0.00     0.026 C 
HETATM   30  C26 UNL     1      -5.454   5.550  13.163  1.00  0.00     0.011 C 
HETATM   31  C27 UNL     1      -4.096   6.266  13.084  1.00  0.00     0.011 C 
HETATM   32  C28 UNL     1      -3.716   7.094  14.347  1.00  0.00    -0.027 C 
HETATM   33  C29 UNL     1      -3.369   6.057  15.458  1.00  0.00     0.016 C 
ENDROOT
BRANCH  26  34
HETATM   34  O5  UNL     1     -10.335   6.040  13.967  1.00  0.00    -0.357 OA
HETATM   35  H27 UNL     1     -10.877   6.681  14.476  1.00  0.00     0.218 HD
ENDBRANCH  26  34
TORSDOF 1
ENDMDL
MODEL 2
REMARK minimizedAffinity -9.58080578
REMARK  1 active torsions:
REMARK  status: ('A' for Active; 'I' for Inactive)
REMARK    1  A    between atoms: C22_26  and  O5_27 
ROOT
HETATM    1  C1  UNL     1      -5.140   3.062  11.395  1.00  0.00     0.014 C 
HETATM    2  C2  UNL     1      -4.076   3.533  12.068  1.00  0.00    -0.085 C 
HETATM    3  C3  UNL     1      -2.716   2.893  11.874  1.00  0.00     0.035 C 
HETATM    4  C4  UNL     1      -1.695   3.926  11.395  1.00  0.00     0.025 C 
HETATM    5  C5  UNL     1      -1.660   5.152  12.309  1.00  0.00     0.055 C 
HETATM    6  C6  UNL     1      -0.937   4.878  13.648  1.00  0.00     0.021 C 
HETATM    7  C7  UNL     1      -0.734   6.145  14.507  1.00  0.00     0.014 C 
HETATM    8  C8  UNL     1      -1.994   7.070  14.558  1.00  0.00    -0.001 C 
HETATM    9  C9  UNL     1      -2.934   6.406  15.613  1.00  0.00     0.019 C 
HETATM   10  C10 UNL     1      -2.675   7.103  13.119  1.00  0.00     0.112 C 
HETATM   11  O1  UNL     1      -1.617   7.468  12.159  1.00  0.00    -0.305 OA
HETATM   12  C11 UNL     1      -0.997   6.345  11.674  1.00  0.00     0.269 C 
HETATM   13  O2  UNL     1      -0.052   6.348  10.908  1.00  0.00    -0.264 OA
HETATM   14  C12 UNL     1      -3.068   5.754  12.490  1.00  0.00     0.050 C 
HETATM   15  C13 UNL     1      -4.084   4.729  13.037  1.00  0.00     0.018 C 
HETATM   16  C14 UNL     1      -5.473   5.326  13.266  1.00  0.00     0.015 C 
HETATM   17  C15 UNL     1      -3.708   8.186  12.952  1.00  0.00     0.187 A 
HETATM   18  O3  UNL     1      -4.743   8.323  13.920  1.00  0.00    -0.372 OA
HETATM   19  C16 UNL     1      -3.753   9.365  13.909  1.00  0.00     0.160 A 
HETATM   20  C17 UNL     1      -2.941   9.403  15.191  1.00  0.00     0.035 C 
HETATM   21  C18 UNL     1      -2.845  10.825  15.861  1.00  0.00    -0.023 C 
HETATM   22  C19 UNL     1      -2.170  11.888  14.952  1.00  0.00     0.016 C 
HETATM   23  C20 UNL     1      -4.282  11.325  16.187  1.00  0.00     0.096 C 
HETATM   24  C21 UNL     1      -4.292  12.546  17.078  1.00  0.00     0.183 C 
HETATM   25  O4  UNL     1      -5.244  13.330  17.119  1.00  0.00    -0.290 OA
HETATM   26  C22 UNL     1      -3.128  12.809  17.977  1.00  0.00     0.114 C 
HETATM   27  C23 UNL     1      -2.099  11.945  18.053  1.00  0.00    -0.042 C 
HETATM   28  C24 UNL     1      -0.959  12.179  19.009  1.00  0.00     0.047 C 
HETATM   29  C25 UNL     1      -2.097  10.658  17.230  1.00  0.00     0.026 C 
HETATM   30  C26 UNL     1      -0.717   9.992  17.043  1.00  0.00     0.011 C 
HETATM   31  C27 UNL     1      -0.825   8.614  16.373  1.00  0.00     0.011 C 
HETATM   32  C28 UNL     1      -1.599   8.600  15.021  1.00  0.00    -0.027 C 
HETATM   33  C29 UNL     1      -0.669   9.292  13.981  1.00  0.00     0.016 C 
ENDROOT
BRANCH  26  34
HETATM   34  O5  UNL     1      -3.185  13.962  18.736  1.00  0.00    -0.357 OA
HETATM   35  H27 UNL     1      -4.049  14.370  18.511  1.00  0.00     0.218 HD
ENDBRANCH  26  34
TORSDOF 1
ENDMDL
MODEL 3
REMARK minimizedAffinity -9.5066328
REMARK  1 active torsions:
REMARK  status: ('A' for Active; 'I' for Inactive)
REMARK    1  A    between atoms: C22_26  and  O5_27 
ROOT
HETATM    1  C1  UNL     1      -4.096   2.543  11.818  1.00  0.00     0.014 C 
HETATM    2  C2  UNL     1      -4.405   3.815  12.124  1.00  0.00    -0.085 C 
HETATM    3  C3  UNL     1      -5.858   4.233  12.239  1.00  0.00     0.035 C 
HETATM    4  C4  UNL     1      -6.146   4.812  13.624  1.00  0.00     0.025 C 
HETATM    5  C5  UNL     1      -5.166   5.930  13.984  1.00  0.00     0.055 C 
HETATM    6  C6  UNL     1      -5.465   7.250  13.236  1.00  0.00     0.021 C 
HETATM    7  C7  UNL     1      -4.602   8.437  13.716  1.00  0.00     0.014 C 
HETATM    8  C8  UNL     1      -3.098   8.067  13.929  1.00  0.00    -0.001 C 
HETATM    9  C9  UNL     1      -2.476   8.089  12.498  1.00  0.00     0.019 C 
HETATM   10  C10 UNL     1      -3.004   6.615  14.576  1.00  0.00     0.112 C 
HETATM   11  O1  UNL     1      -3.864   6.629  15.774  1.00  0.00    -0.305 OA
HETATM   12  C11 UNL     1      -5.141   6.242  15.456  1.00  0.00     0.269 C 
HETATM   13  O2  UNL     1      -6.073   6.214  16.237  1.00  0.00    -0.264 OA
HETATM   14  C12 UNL     1      -3.705   5.462  13.834  1.00  0.00     0.050 C 
HETATM   15  C13 UNL     1      -3.395   4.939  12.415  1.00  0.00     0.018 C 
HETATM   16  C14 UNL     1      -1.936   4.516  12.239  1.00  0.00     0.015 C 
HETATM   17  C15 UNL     1      -1.641   6.266  15.110  1.00  0.00     0.187 A 
HETATM   18  O3  UNL     1      -0.497   6.440  14.281  1.00  0.00    -0.372 OA
HETATM   19  C16 UNL     1      -0.616   7.354  15.384  1.00  0.00     0.160 A 
HETATM   20  C17 UNL     1      -0.812   8.788  14.927  1.00  0.00     0.035 C 
HETATM   21  C18 UNL     1       0.165   9.826  15.596  1.00  0.00    -0.023 C 
HETATM   22  C19 UNL     1       0.022   9.896  17.141  1.00  0.00     0.016 C 
HETATM   23  C20 UNL     1       1.631   9.414  15.275  1.00  0.00     0.096 C 
HETATM   24  C21 UNL     1       2.635  10.487  15.631  1.00  0.00     0.183 C 
HETATM   25  O4  UNL     1       3.823  10.238  15.852  1.00  0.00    -0.290 OA
HETATM   26  C22 UNL     1       2.196  11.914  15.685  1.00  0.00     0.114 C 
HETATM   27  C23 UNL     1       0.938  12.268  15.363  1.00  0.00    -0.042 C 
HETATM   28  C24 UNL     1       0.517  13.714  15.355  1.00  0.00     0.047 C 
HETATM   29  C25 UNL     1      -0.078  11.218  14.917  1.00  0.00     0.026 C 
HETATM   30  C26 UNL     1      -1.558  11.644  15.015  1.00  0.00     0.011 C 
HETATM   31  C27 UNL     1      -2.501  10.614  14.373  1.00  0.00     0.011 C 
HETATM   32  C28 UNL     1      -2.340   9.158  14.902  1.00  0.00    -0.027 C 
HETATM   33  C29 UNL     1      -2.934   9.152  16.343  1.00  0.00     0.016 C 
ENDROOT
BRANCH  26  34
HETATM   34  O5  UNL     1       3.154  12.839  16.054  1.00  0.00    -0.357 OA
HETATM   35  H27 UNL     1       3.972  12.315  16.190  1.00  0.00     0.218 HD
ENDBRANCH  26  34
TORSDOF 1
ENDMDL
MODEL 4
REMARK minimizedAffinity -9.04195881
REMARK  1 active torsions:
REMARK  status: ('A' for Active; 'I' for Inactive)
REMARK    1  A    between atoms: C22_26  and  O5_27 
ROOT
HETATM    1  C1  UNL     1       5.831   6.208  11.008  1.00  0.00     0.014 C 
HETATM    2  C2  UNL     1       4.525   6.462  10.812  1.00  0.00    -0.085 C 
HETATM    3  C3  UNL     1       3.811   5.865   9.615  1.00  0.00     0.035 C 
HETATM    4  C4  UNL     1       2.622   5.016  10.063  1.00  0.00     0.025 C 
HETATM    5  C5  UNL     1       1.691   5.795  10.995  1.00  0.00     0.055 C 
HETATM    6  C6  UNL     1       0.824   6.832  10.244  1.00  0.00     0.021 C 
HETATM    7  C7  UNL     1      -0.245   7.501  11.134  1.00  0.00     0.014 C 
HETATM    8  C8  UNL     1       0.290   7.913  12.545  1.00  0.00    -0.001 C 
HETATM    9  C9  UNL     1       1.049   9.256  12.307  1.00  0.00     0.019 C 
HETATM   10  C10 UNL     1       1.275   6.782  13.080  1.00  0.00     0.112 C 
HETATM   11  O1  UNL     1       0.541   5.505  12.991  1.00  0.00    -0.305 OA
HETATM   12  C11 UNL     1       0.758   4.909  11.775  1.00  0.00     0.269 C 
HETATM   13  O2  UNL     1       0.236   3.873  11.406  1.00  0.00    -0.264 OA
HETATM   14  C12 UNL     1       2.466   6.397  12.184  1.00  0.00     0.050 C 
HETATM   15  C13 UNL     1       3.627   7.308  11.731  1.00  0.00     0.018 C 
HETATM   16  C14 UNL     1       4.376   7.950  12.901  1.00  0.00     0.015 C 
HETATM   17  C15 UNL     1       1.617   6.905  14.541  1.00  0.00     0.187 A 
HETATM   18  O3  UNL     1       2.078   8.151  15.051  1.00  0.00    -0.372 OA
HETATM   19  C16 UNL     1       0.761   7.752  15.467  1.00  0.00     0.160 A 
HETATM   20  C17 UNL     1      -0.316   8.689  14.947  1.00  0.00     0.035 C 
HETATM   21  C18 UNL     1      -1.317   9.206  16.047  1.00  0.00    -0.023 C 
HETATM   22  C19 UNL     1      -2.108   8.065  16.743  1.00  0.00     0.016 C 
HETATM   23  C20 UNL     1      -0.512   9.960  17.144  1.00  0.00     0.096 C 
HETATM   24  C21 UNL     1      -1.397  10.732  18.097  1.00  0.00     0.183 C 
HETATM   25  O4  UNL     1      -1.036  11.041  19.235  1.00  0.00    -0.290 OA
HETATM   26  C22 UNL     1      -2.749  11.178  17.645  1.00  0.00     0.114 C 
HETATM   27  C23 UNL     1      -3.169  10.958  16.385  1.00  0.00    -0.042 C 
HETATM   28  C24 UNL     1      -4.506  11.466  15.914  1.00  0.00     0.047 C 
HETATM   29  C25 UNL     1      -2.266  10.256  15.372  1.00  0.00     0.026 C 
HETATM   30  C26 UNL     1      -2.986   9.662  14.143  1.00  0.00     0.011 C 
HETATM   31  C27 UNL     1      -1.996   9.146  13.087  1.00  0.00     0.011 C 
HETATM   32  C28 UNL     1      -0.940   8.130  13.616  1.00  0.00    -0.027 C 
HETATM   33  C29 UNL     1      -1.711   6.802  13.882  1.00  0.00     0.016 C 
ENDROOT
BRANCH  26  34
HETATM   34  O5  UNL     1      -3.520  11.845  18.577  1.00  0.00    -0.357 OA
HETATM   35  H27 UNL     1      -2.958  11.896  19.380  1.00  0.00     0.218 HD
ENDBRANCH  26  34
TORSDOF 1
ENDMDL
MODEL 5
REMARK minimizedAffinity -8.94938278
REMARK  1 active torsions:
REMARK  status: ('A' for Active; 'I' for Inactive)
REMARK    1  A    between atoms: C22_26  and  O5_27 
ROOT
HETATM    1  C1  UNL     1      -0.235  14.113  16.500  1.00  0.00     0.014 C 
HETATM    2  C2  UNL     1       0.188  13.037  15.813  1.00  0.00    -0.085 C 
HETATM    3  C3  UNL     1       1.672  12.812  15.602  1.00  0.00     0.035 C 
HETATM    4  C4  UNL     1       2.100  11.457  16.167  1.00  0.00     0.025 C 
HETATM    5  C5  UNL     1       1.232  10.319  15.624  1.00  0.00     0.055 C 
HETATM    6  C6  UNL     1       1.574   9.953  14.161  1.00  0.00     0.021 C 
HETATM    7  C7  UNL     1       0.838   8.695  13.654  1.00  0.00     0.014 C 
HETATM    8  C8  UNL     1      -0.672   8.650  14.063  1.00  0.00    -0.001 C 
HETATM    9  C9  UNL     1      -1.390   9.583  13.037  1.00  0.00     0.019 C 
HETATM   10  C10 UNL     1      -0.826   9.201  15.549  1.00  0.00     0.112 C 
HETATM   11  O1  UNL     1       0.115   8.432  16.385  1.00  0.00    -0.305 OA
HETATM   12  C11 UNL     1       1.334   9.058  16.440  1.00  0.00     0.269 C 
HETATM   13  O2  UNL     1       2.314   8.622  17.012  1.00  0.00    -0.264 OA
HETATM   14  C12 UNL     1      -0.266  10.604  15.847  1.00  0.00     0.050 C 
HETATM   15  C13 UNL     1      -0.713  11.941  15.218  1.00  0.00     0.018 C 
HETATM   16  C14 UNL     1      -2.209  12.214  15.390  1.00  0.00     0.015 C 
HETATM   17  C15 UNL     1      -2.171   8.929  16.169  1.00  0.00     0.187 A 
HETATM   18  O3  UNL     1      -3.354   9.276  15.458  1.00  0.00    -0.372 OA
HETATM   19  C16 UNL     1      -3.090   7.869  15.587  1.00  0.00     0.160 A 
HETATM   20  C17 UNL     1      -2.822   7.208  14.247  1.00  0.00     0.035 C 
HETATM   21  C18 UNL     1      -3.670   5.908  13.979  1.00  0.00    -0.023 C 
HETATM   22  C19 UNL     1      -3.414   4.783  15.018  1.00  0.00     0.016 C 
HETATM   23  C20 UNL     1      -5.182   6.274  14.041  1.00  0.00     0.096 C 
HETATM   24  C21 UNL     1      -6.076   5.168  13.527  1.00  0.00     0.183 C 
HETATM   25  O4  UNL     1      -7.260   5.066  13.856  1.00  0.00    -0.290 OA
HETATM   26  C22 UNL     1      -5.530   4.175  12.553  1.00  0.00     0.114 C 
HETATM   27  C23 UNL     1      -4.275   4.284  12.079  1.00  0.00    -0.042 C 
HETATM   28  C24 UNL     1      -3.750   3.319  11.048  1.00  0.00     0.047 C 
HETATM   29  C25 UNL     1      -3.373   5.438  12.513  1.00  0.00     0.026 C 
HETATM   30  C26 UNL     1      -1.862   5.221  12.283  1.00  0.00     0.011 C 
HETATM   31  C27 UNL     1      -1.046   6.492  12.565  1.00  0.00     0.011 C 
HETATM   32  C28 UNL     1      -1.276   7.122  13.971  1.00  0.00    -0.027 C 
HETATM   33  C29 UNL     1      -0.584   6.169  14.992  1.00  0.00     0.016 C 
ENDROOT
BRANCH  26  34
HETATM   34  O5  UNL     1      -6.389   3.170  12.153  1.00  0.00    -0.357 OA
HETATM   35  H27 UNL     1      -7.232   3.358  12.619  1.00  0.00     0.218 HD
ENDBRANCH  26  34
TORSDOF 1
ENDMDL
MODEL 6
REMARK minimizedAffinity -8.54462433
REMARK  1 active torsions:
REMARK  status: ('A' for Active; 'I' for Inactive)
REMARK    1  A    between atoms: C22_26  and  O5_27 
ROOT
HETATM    1  C1  UNL     1      -3.717   4.131  13.080  1.00  0.00     0.014 C 
HETATM    2  C2  UNL     1      -2.738   5.015  13.338  1.00  0.00    -0.085 C 
HETATM    3  C3  UNL     1      -1.441   4.956  12.556  1.00  0.00     0.035 C 
HETATM    4  C4  UNL     1      -1.176   6.284  11.845  1.00  0.00     0.025 C 
HETATM    5  C5  UNL     1      -1.243   7.466  12.814  1.00  0.00     0.055 C 
HETATM    6  C6  UNL     1       0.003   7.565  13.724  1.00  0.00     0.021 C 
HETATM    7  C7  UNL     1       0.039   8.847  14.582  1.00  0.00     0.014 C 
HETATM    8  C8  UNL     1      -1.341   9.201  15.228  1.00  0.00    -0.001 C 
HETATM    9  C9  UNL     1      -1.446   8.272  16.478  1.00  0.00     0.019 C 
HETATM   10  C10 UNL     1      -2.501   8.894  14.182  1.00  0.00     0.112 C 
HETATM   11  O1  UNL     1      -2.146   9.601  12.937  1.00  0.00    -0.305 OA
HETATM   12  C11 UNL     1      -1.400   8.792  12.119  1.00  0.00     0.269 C 
HETATM   13  O2  UNL     1      -0.923   9.131  11.052  1.00  0.00    -0.264 OA
HETATM   14  C12 UNL     1      -2.571   7.471  13.598  1.00  0.00     0.050 C 
HETATM   15  C13 UNL     1      -2.807   6.156  14.370  1.00  0.00     0.018 C 
HETATM   16  C14 UNL     1      -4.098   6.166  15.190  1.00  0.00     0.015 C 
HETATM   17  C15 UNL     1      -3.839   9.472  14.560  1.00  0.00     0.187 A 
HETATM   18  O3  UNL     1      -4.362   9.235  15.863  1.00  0.00    -0.372 OA
HETATM   19  C16 UNL     1      -3.938  10.582  15.593  1.00  0.00     0.160 A 
HETATM   20  C17 UNL     1      -2.759  10.998  16.454  1.00  0.00     0.035 C 
HETATM   21  C18 UNL     1      -2.947  12.372  17.199  1.00  0.00    -0.023 C 
HETATM   22  C19 UNL     1      -3.156  13.571  16.233  1.00  0.00     0.016 C 
HETATM   23  C20 UNL     1      -4.202  12.279  18.114  1.00  0.00     0.096 C 
HETATM   24  C21 UNL     1      -4.315  13.438  19.078  1.00  0.00     0.183 C 
HETATM   25  O4  UNL     1      -5.387  13.783  19.579  1.00  0.00    -0.290 OA
HETATM   26  C22 UNL     1      -3.082  14.182  19.480  1.00  0.00     0.114 C 
HETATM   27  C23 UNL     1      -1.867  13.799  19.046  1.00  0.00    -0.042 C 
HETATM   28  C24 UNL     1      -0.620  14.510  19.504  1.00  0.00     0.047 C 
HETATM   29  C25 UNL     1      -1.709  12.580  18.139  1.00  0.00     0.026 C 
HETATM   30  C26 UNL     1      -0.383  12.505  17.353  1.00  0.00     0.011 C 
HETATM   31  C27 UNL     1      -0.221  11.166  16.617  1.00  0.00     0.011 C 
HETATM   32  C28 UNL     1      -1.406  10.783  15.681  1.00  0.00    -0.027 C 
HETATM   33  C29 UNL     1      -1.313  11.736  14.452  1.00  0.00     0.016 C 
ENDROOT
BRANCH  26  34
HETATM   34  O5  UNL     1      -3.260  15.253  20.333  1.00  0.00    -0.357 OA
HETATM   35  H27 UNL     1      -4.225  15.276  20.512  1.00  0.00     0.218 HD
ENDBRANCH  26  34
TORSDOF 1
ENDMDL
MODEL 7
REMARK minimizedAffinity -8.23126316
REMARK  1 active torsions:
REMARK  status: ('A' for Active; 'I' for Inactive)
REMARK    1  A    between atoms: C22_26  and  O5_27 
ROOT
HETATM    1  C1  UNL     1       3.700   9.053  14.154  1.00  0.00     0.014 C 
HETATM    2  C2  UNL     1       2.546   9.305  14.796  1.00  0.00    -0.085 C 
HETATM    3  C3  UNL     1       2.401  10.569  15.620  1.00  0.00     0.035 C 
HETATM    4  C4  UNL     1       1.223  11.407  15.122  1.00  0.00     0.025 C 
HETATM    5  C5  UNL     1      -0.065  10.583  15.047  1.00  0.00     0.055 C 
HETATM    6  C6  UNL     1      -0.685  10.316  16.437  1.00  0.00     0.021 C 
HETATM    7  C7  UNL     1      -2.073   9.643  16.373  1.00  0.00     0.014 C 
HETATM    8  C8  UNL     1      -2.154   8.484  15.326  1.00  0.00    -0.001 C 
HETATM    9  C9  UNL     1      -1.502   7.258  16.039  1.00  0.00     0.019 C 
HETATM   10  C10 UNL     1      -1.334   8.898  14.025  1.00  0.00     0.112 C 
HETATM   11  O1  UNL     1      -1.845  10.215  13.604  1.00  0.00    -0.305 OA
HETATM   12  C11 UNL     1      -1.127  11.223  14.194  1.00  0.00     0.269 C 
HETATM   13  O2  UNL     1      -1.363  12.410  14.070  1.00  0.00    -0.264 OA
HETATM   14  C12 UNL     1       0.140   9.301  14.216  1.00  0.00     0.050 C 
HETATM   15  C13 UNL     1       1.287   8.422  14.758  1.00  0.00     0.018 C 
HETATM   16  C14 UNL     1       1.469   7.123  13.971  1.00  0.00     0.015 C 
HETATM   17  C15 UNL     1      -1.582   8.012  12.834  1.00  0.00     0.187 A 
HETATM   18  O3  UNL     1      -1.477   6.599  12.976  1.00  0.00    -0.372 OA
HETATM   19  C16 UNL     1      -2.805   7.112  12.781  1.00  0.00     0.160 A 
HETATM   20  C17 UNL     1      -3.696   6.880  13.988  1.00  0.00     0.035 C 
HETATM   21  C18 UNL     1      -5.085   6.217  13.657  1.00  0.00    -0.023 C 
HETATM   22  C19 UNL     1      -5.959   7.069  12.697  1.00  0.00     0.016 C 
HETATM   23  C20 UNL     1      -4.834   4.842  12.973  1.00  0.00     0.096 C 
HETATM   24  C21 UNL     1      -6.087   4.001  12.865  1.00  0.00     0.183 C 
HETATM   25  O4  UNL     1      -6.214   3.106  12.027  1.00  0.00    -0.290 OA
HETATM   26  C22 UNL     1      -7.207   4.226  13.828  1.00  0.00     0.114 C 
HETATM   27  C23 UNL     1      -7.096   5.121  14.827  1.00  0.00    -0.042 C 
HETATM   28  C24 UNL     1      -8.202   5.298  15.835  1.00  0.00     0.047 C 
HETATM   29  C25 UNL     1      -5.812   5.926  15.016  1.00  0.00     0.026 C 
HETATM   30  C26 UNL     1      -5.950   7.205  15.869  1.00  0.00     0.011 C 
HETATM   31  C27 UNL     1      -4.589   7.851  16.169  1.00  0.00     0.011 C 
HETATM   32  C28 UNL     1      -3.713   8.150  14.917  1.00  0.00    -0.027 C 
HETATM   33  C29 UNL     1      -4.387   9.354  14.193  1.00  0.00     0.016 C 
ENDROOT
BRANCH  26  34
HETATM   34  O5  UNL     1      -8.336   3.450  13.650  1.00  0.00    -0.357 OA
HETATM   35  H27 UNL     1      -8.126   2.871  12.886  1.00  0.00     0.218 HD
ENDBRANCH  26  34
TORSDOF 1
ENDMDL
MODEL 8
REMARK minimizedAffinity -8.1880331
REMARK  1 active torsions:
REMARK  status: ('A' for Active; 'I' for Inactive)
REMARK    1  A    between atoms: C22_26  and  O5_27 
ROOT
HETATM    1  C1  UNL     1      -4.343   4.581  12.633  1.00  0.00     0.014 C 
HETATM    2  C2  UNL     1      -3.831   5.798  12.887  1.00  0.00    -0.085 C 
HETATM    3  C3  UNL     1      -4.694   6.858  13.541  1.00  0.00     0.035 C 
HETATM    4  C4  UNL     1      -4.058   7.347  14.842  1.00  0.00     0.025 C 
HETATM    5  C5  UNL     1      -2.610   7.793  14.631  1.00  0.00     0.055 C 
HETATM    6  C6  UNL     1      -2.505   9.164  13.923  1.00  0.00     0.021 C 
HETATM    7  C7  UNL     1      -1.064   9.714  13.859  1.00  0.00     0.014 C 
HETATM    8  C8  UNL     1      -0.001   8.633  13.474  1.00  0.00    -0.001 C 
HETATM    9  C9  UNL     1      -0.108   8.505  11.922  1.00  0.00     0.019 C 
HETATM   10  C10 UNL     1      -0.370   7.260  14.191  1.00  0.00     0.112 C 
HETATM   11  O1  UNL     1      -0.526   7.561  15.627  1.00  0.00    -0.305 OA
HETATM   12  C11 UNL     1      -1.827   7.887  15.913  1.00  0.00     0.269 C 
HETATM   13  O2  UNL     1      -2.233   8.233  17.006  1.00  0.00    -0.264 OA
HETATM   14  C12 UNL     1      -1.780   6.689  13.947  1.00  0.00     0.050 C 
HETATM   15  C13 UNL     1      -2.386   6.242  12.600  1.00  0.00     0.018 C 
HETATM   16  C14 UNL     1      -1.546   5.180  11.887  1.00  0.00     0.015 C 
HETATM   17  C15 UNL     1       0.727   6.230  14.151  1.00  0.00     0.187 A 
HETATM   18  O3  UNL     1       1.346   5.912  12.910  1.00  0.00    -0.372 OA
HETATM   19  C16 UNL     1       2.159   6.638  13.847  1.00  0.00     0.160 A 
HETATM   20  C17 UNL     1       2.519   8.025  13.345  1.00  0.00     0.035 C 
HETATM   21  C18 UNL     1       4.054   8.368  13.423  1.00  0.00    -0.023 C 
HETATM   22  C19 UNL     1       4.620   8.328  14.869  1.00  0.00     0.016 C 
HETATM   23  C20 UNL     1       4.845   7.330  12.577  1.00  0.00     0.096 C 
HETATM   24  C21 UNL     1       6.287   7.726  12.356  1.00  0.00     0.183 C 
HETATM   25  O4  UNL     1       7.168   6.904  12.095  1.00  0.00    -0.290 OA
HETATM   26  C22 UNL     1       6.670   9.169  12.418  1.00  0.00     0.114 C 
HETATM   27  C23 UNL     1       5.743  10.127  12.605  1.00  0.00    -0.042 C 
HETATM   28  C24 UNL     1       6.123  11.584  12.601  1.00  0.00     0.047 C 
HETATM   29  C25 UNL     1       4.265   9.767  12.745  1.00  0.00     0.026 C 
HETATM   30  C26 UNL     1       3.378  10.850  13.395  1.00  0.00     0.011 C 
HETATM   31  C27 UNL     1       1.885  10.493  13.327  1.00  0.00     0.011 C 
HETATM   32  C28 UNL     1       1.516   9.097  13.910  1.00  0.00    -0.027 C 
HETATM   33  C29 UNL     1       1.656   9.222  15.457  1.00  0.00     0.016 C 
ENDROOT
BRANCH  26  34
HETATM   34  O5  UNL     1       8.010   9.458  12.245  1.00  0.00    -0.357 OA
HETATM   35  H27 UNL     1       8.438   8.588  12.092  1.00  0.00     0.218 HD
ENDBRANCH  26  34
TORSDOF 1
ENDMDL
MODEL 9
REMARK minimizedAffinity -8.15169239
REMARK  1 active torsions:
REMARK  status: ('A' for Active; 'I' for Inactive)
REMARK    1  A    between atoms: C22_26  and  O5_27 
ROOT
HETATM    1  C1  UNL     1      -4.342  13.811  18.700  1.00  0.00     0.014 C 
HETATM    2  C2  UNL     1      -3.212  13.484  18.050  1.00  0.00    -0.085 C 
HETATM    3  C3  UNL     1      -1.920  14.208  18.369  1.00  0.00     0.035 C 
HETATM    4  C4  UNL     1      -0.842  13.221  18.817  1.00  0.00     0.025 C 
HETATM    5  C5  UNL     1      -0.664  12.084  17.808  1.00  0.00     0.055 C 
HETATM    6  C6  UNL     1       0.098  12.527  16.538  1.00  0.00     0.021 C 
HETATM    7  C7  UNL     1       0.444  11.359  15.590  1.00  0.00     0.014 C 
HETATM    8  C8  UNL     1      -0.731  10.346  15.396  1.00  0.00    -0.001 C 
HETATM    9  C9  UNL     1      -1.671  11.022  14.349  1.00  0.00     0.019 C 
HETATM   10  C10 UNL     1      -1.475  10.136  16.788  1.00  0.00     0.112 C 
HETATM   11  O1  UNL     1      -0.438   9.774  17.772  1.00  0.00    -0.305 OA
HETATM   12  C11 UNL     1       0.064  10.897  18.379  1.00  0.00     0.269 C 
HETATM   13  O2  UNL     1       0.969  10.901  19.193  1.00  0.00    -0.264 OA
HETATM   14  C12 UNL     1      -2.007  11.392  17.503  1.00  0.00     0.050 C 
HETATM   15  C13 UNL     1      -3.076  12.379  16.988  1.00  0.00     0.018 C 
HETATM   16  C14 UNL     1      -4.400  11.697  16.635  1.00  0.00     0.015 C 
HETATM   17  C15 UNL     1      -2.423   8.967  16.810  1.00  0.00     0.187 A 
HETATM   18  O3  UNL     1      -3.396   8.833  15.779  1.00  0.00    -0.372 OA
HETATM   19  C16 UNL     1      -2.325   7.874  15.759  1.00  0.00     0.160 A 
HETATM   20  C17 UNL     1      -1.453   8.009  14.524  1.00  0.00     0.035 C 
HETATM   21  C18 UNL     1      -1.209   6.662  13.746  1.00  0.00    -0.023 C 
HETATM   22  C19 UNL     1      -0.494   5.581  14.601  1.00  0.00     0.016 C 
HETATM   23  C20 UNL     1      -2.583   6.082  13.304  1.00  0.00     0.096 C 
HETATM   24  C21 UNL     1      -2.451   4.944  12.316  1.00  0.00     0.183 C 
HETATM   25  O4  UNL     1      -3.332   4.095  12.160  1.00  0.00    -0.290 OA
HETATM   26  C22 UNL     1      -1.228   4.850  11.463  1.00  0.00     0.114 C 
HETATM   27  C23 UNL     1      -0.271   5.795  11.514  1.00  0.00    -0.042 C 
HETATM   28  C24 UNL     1       0.929   5.733  10.605  1.00  0.00     0.047 C 
HETATM   29  C25 UNL     1      -0.413   7.003  12.438  1.00  0.00     0.026 C 
HETATM   30  C26 UNL     1       0.897   7.756  12.753  1.00  0.00     0.011 C 
HETATM   31  C27 UNL     1       0.644   9.059  13.527  1.00  0.00     0.011 C 
HETATM   32  C28 UNL     1      -0.192   8.897  14.831  1.00  0.00    -0.027 C 
HETATM   33  C29 UNL     1       0.743   8.192  15.860  1.00  0.00     0.016 C 
ENDROOT
BRANCH  26  34
HETATM   34  O5  UNL     1      -1.154   3.766  10.610  1.00  0.00    -0.357 OA
HETATM   35  H27 UNL     1      -1.991   3.274  10.755  1.00  0.00     0.218 HD
ENDBRANCH  26  34
TORSDOF 1
ENDMDL
