MODEL 1
REMARK minimizedAffinity -9.83091545
REMARK  8 active torsions:
REMARK  status: ('A' for Active; 'I' for Inactive)
REMARK    1  A    between atoms: C2_2  and  C3_3 
REMARK    2  A    between atoms: C2_2  and  C29_30 
REMARK    3  A    between atoms: C3_3  and  C4_4 
REMARK    4  A    between atoms: C4_4  and  C5_5 
REMARK    5  A    between atoms: C5_5  and  C7_7 
REMARK    6  A    between atoms: C29_30  and  C31_32 
REMARK    7  A    between atoms: C31_32  and  O2_33 
REMARK    8  A    between atoms: O2_33  and  C32_34 
ROOT
HETATM    1  C7  UNL     1       0.272   7.654  11.665  1.00  0.00    -0.002 C 
HETATM    2  C8  UNL     1      -0.096   6.383  10.890  1.00  0.00     0.006 C 
HETATM    3  C9  UNL     1      -0.557   5.378  11.927  1.00  0.00     0.011 C 
HETATM    4  C10 UNL     1      -1.254   6.179  13.064  1.00  0.00    -0.032 C 
HETATM    5  C11 UNL     1      -0.757   5.587  14.403  1.00  0.00     0.016 C 
HETATM    6  C12 UNL     1      -2.821   6.014  12.929  1.00  0.00     0.004 C 
HETATM    7  C13 UNL     1      -3.363   4.618  13.277  1.00  0.00     0.007 C 
HETATM    8  C14 UNL     1      -4.867   4.573  13.036  1.00  0.00     0.007 C 
HETATM    9  C15 UNL     1      -5.656   5.465  14.020  1.00  0.00     0.010 C 
HETATM   10  C16 UNL     1      -7.189   5.498  13.683  1.00  0.00     0.018 C 
HETATM   11  C17 UNL     1      -7.812   4.107  13.950  1.00  0.00     0.023 C 
HETATM   12  C18 UNL     1      -7.489   5.878  12.221  1.00  0.00     0.023 C 
HETATM   13  C19 UNL     1      -7.927   6.498  14.586  1.00  0.00     0.135 C 
HETATM   14  O1  UNL     1      -9.131   6.386  14.836  1.00  0.00    -0.297 OA
HETATM   15  C20 UNL     1      -7.153   7.646  15.179  1.00  0.00     0.080 C 
HETATM   16  C21 UNL     1      -5.994   8.017  14.279  1.00  0.00     0.018 C 
HETATM   17  C22 UNL     1      -5.012   6.865  14.178  1.00  0.00    -0.026 A 
HETATM   18  C23 UNL     1      -3.851   6.954  15.151  1.00  0.00     0.021 A 
HETATM   19  C24 UNL     1      -3.570   7.120  13.675  1.00  0.00    -0.027 A 
HETATM   20  C25 UNL     1      -3.227   8.515  13.179  1.00  0.00     0.011 C 
HETATM   21  C26 UNL     1      -1.995   8.532  12.280  1.00  0.00     0.011 C 
HETATM   22  C27 UNL     1      -0.792   7.695  12.830  1.00  0.00    -0.032 C 
HETATM   23  C28 UNL     1      -0.318   8.406  14.111  1.00  0.00     0.016 C 
ENDROOT
BRANCH   1  24
HETATM   24  C5  UNL     1       1.810   7.782  11.919  1.00  0.00    -0.014 C 
HETATM   25  C6  UNL     1       2.380   9.195  12.018  1.00  0.00     0.010 C 
BRANCH  24  26
HETATM   26  C4  UNL     1       2.621   6.790  11.036  1.00  0.00     0.009 C 
BRANCH  26  27
HETATM   27  C3  UNL     1       3.665   7.396  10.089  1.00  0.00     0.034 C 
BRANCH  27  28
HETATM   28  C2  UNL     1       3.098   7.689   8.708  1.00  0.00    -0.083 C 
HETATM   29  C1  UNL     1       3.296   8.899   8.153  1.00  0.00     0.015 C 
BRANCH  28  30
HETATM   30  C29 UNL     1       2.328   6.556   8.020  1.00  0.00     0.034 C 
HETATM   31  C30 UNL     1       1.929   6.879   6.573  1.00  0.00     0.017 C 
BRANCH  30  32
HETATM   32  C31 UNL     1       3.114   5.228   8.049  1.00  0.00     0.187 C 
BRANCH  32  33
HETATM   33  O2  UNL     1       3.066   4.541   6.785  1.00  0.00    -0.321 OA
BRANCH  33  34
HETATM   34  C32 UNL     1       3.957   3.525   6.633  1.00  0.00     0.254 C 
HETATM   35  C33 UNL     1       3.488   2.589   5.562  1.00  0.00     0.126 C 
HETATM   36  O3  UNL     1       4.991   3.382   7.271  1.00  0.00    -0.266 OA
ENDBRANCH  33  34
ENDBRANCH  32  33
ENDBRANCH  30  32
ENDBRANCH  28  30
ENDBRANCH  27  28
ENDBRANCH  26  27
ENDBRANCH  24  26
ENDBRANCH   1  24
TORSDOF 8
ENDMDL
MODEL 2
REMARK minimizedAffinity -9.58528042
REMARK  8 active torsions:
REMARK  status: ('A' for Active; 'I' for Inactive)
REMARK    1  A    between atoms: C2_2  and  C3_3 
REMARK    2  A    between atoms: C2_2  and  C29_30 
REMARK    3  A    between atoms: C3_3  and  C4_4 
REMARK    4  A    between atoms: C4_4  and  C5_5 
REMARK    5  A    between atoms: C5_5  and  C7_7 
REMARK    6  A    between atoms: C29_30  and  C31_32 
REMARK    7  A    between atoms: C31_32  and  O2_33 
REMARK    8  A    between atoms: O2_33  and  C32_34 
ROOT
HETATM    1  C7  UNL     1       0.135   8.041  12.032  1.00  0.00    -0.002 C 
HETATM    2  C8  UNL     1       0.309   7.168  10.783  1.00  0.00     0.006 C 
HETATM    3  C9  UNL     1       0.246   5.732  11.263  1.00  0.00     0.011 C 
HETATM    4  C10 UNL     1      -0.738   5.694  12.468  1.00  0.00    -0.032 C 
HETATM    5  C11 UNL     1      -0.086   4.807  13.554  1.00  0.00     0.016 C 
HETATM    6  C12 UNL     1      -2.114   5.076  11.995  1.00  0.00     0.004 C 
HETATM    7  C13 UNL     1      -2.081   3.569  11.688  1.00  0.00     0.007 C 
HETATM    8  C14 UNL     1      -3.444   3.118  11.175  1.00  0.00     0.007 C 
HETATM    9  C15 UNL     1      -4.543   3.189  12.258  1.00  0.00     0.010 C 
HETATM   10  C16 UNL     1      -5.959   2.834  11.682  1.00  0.00     0.018 C 
HETATM   11  C17 UNL     1      -6.002   1.338  11.288  1.00  0.00     0.023 C 
HETATM   12  C18 UNL     1      -6.343   3.661  10.440  1.00  0.00     0.023 C 
HETATM   13  C19 UNL     1      -7.051   3.047  12.742  1.00  0.00     0.135 C 
HETATM   14  O1  UNL     1      -8.124   2.436  12.705  1.00  0.00    -0.297 OA
HETATM   15  C20 UNL     1      -6.799   4.031  13.853  1.00  0.00     0.080 C 
HETATM   16  C21 UNL     1      -5.850   5.115  13.388  1.00  0.00     0.018 C 
HETATM   17  C22 UNL     1      -4.496   4.523  13.045  1.00  0.00    -0.026 A 
HETATM   18  C23 UNL     1      -3.487   4.589  14.177  1.00  0.00     0.021 A 
HETATM   19  C24 UNL     1      -3.252   5.440  12.950  1.00  0.00    -0.027 A 
HETATM   20  C25 UNL     1      -3.464   6.939  13.085  1.00  0.00     0.011 C 
HETATM   21  C26 UNL     1      -2.310   7.750  12.502  1.00  0.00     0.011 C 
HETATM   22  C27 UNL     1      -0.892   7.226  12.909  1.00  0.00    -0.032 C 
HETATM   23  C28 UNL     1      -0.765   7.453  14.427  1.00  0.00     0.016 C 
ENDROOT
BRANCH   1  24
HETATM   24  C5  UNL     1       1.496   8.569  12.594  1.00  0.00    -0.014 C 
HETATM   25  C6  UNL     1       1.429   9.684  13.635  1.00  0.00     0.010 C 
BRANCH  24  26
HETATM   26  C4  UNL     1       2.545   8.768  11.461  1.00  0.00     0.009 C 
BRANCH  26  27
HETATM   27  C3  UNL     1       3.973   8.284  11.743  1.00  0.00     0.034 C 
BRANCH  27  28
HETATM   28  C2  UNL     1       4.350   7.066  10.914  1.00  0.00    -0.083 C 
HETATM   29  C1  UNL     1       5.540   6.469  11.114  1.00  0.00     0.015 C 
BRANCH  28  30
HETATM   30  C29 UNL     1       3.320   6.582   9.886  1.00  0.00     0.034 C 
HETATM   31  C30 UNL     1       3.292   7.427   8.605  1.00  0.00     0.017 C 
BRANCH  30  32
HETATM   32  C31 UNL     1       3.533   5.099   9.516  1.00  0.00     0.187 C 
BRANCH  32  33
HETATM   33  O2  UNL     1       3.280   4.845   8.122  1.00  0.00    -0.321 OA
BRANCH  33  34
HETATM   34  C32 UNL     1       4.034   3.866   7.555  1.00  0.00     0.254 C 
HETATM   35  C33 UNL     1       3.653   3.695   6.117  1.00  0.00     0.126 C 
HETATM   36  O3  UNL     1       4.897   3.212   8.124  1.00  0.00    -0.266 OA
ENDBRANCH  33  34
ENDBRANCH  32  33
ENDBRANCH  30  32
ENDBRANCH  28  30
ENDBRANCH  27  28
ENDBRANCH  26  27
ENDBRANCH  24  26
ENDBRANCH   1  24
TORSDOF 8
ENDMDL
MODEL 3
REMARK minimizedAffinity -8.93255997
REMARK  8 active torsions:
REMARK  status: ('A' for Active; 'I' for Inactive)
REMARK    1  A    between atoms: C2_2  and  C3_3 
REMARK    2  A    between atoms: C2_2  and  C29_30 
REMARK    3  A    between atoms: C3_3  and  C4_4 
REMARK    4  A    between atoms: C4_4  and  C5_5 
REMARK    5  A    between atoms: C5_5  and  C7_7 
REMARK    6  A    between atoms: C29_30  and  C31_32 
REMARK    7  A    between atoms: C31_32  and  O2_33 
REMARK    8  A    between atoms: O2_33  and  C32_34 
ROOT
HETATM    1  C7  UNL     1      -5.003   7.066  13.854  1.00  0.00    -0.002 C 
HETATM    2  C8  UNL     1      -4.881   8.406  13.119  1.00  0.00     0.006 C 
HETATM    3  C9  UNL     1      -3.549   8.996  13.537  1.00  0.00     0.011 C 
HETATM    4  C10 UNL     1      -2.573   7.807  13.764  1.00  0.00    -0.032 C 
HETATM    5  C11 UNL     1      -1.797   8.102  15.069  1.00  0.00     0.016 C 
HETATM    6  C12 UNL     1      -1.582   7.707  12.536  1.00  0.00     0.004 C 
HETATM    7  C13 UNL     1      -0.540   8.835  12.446  1.00  0.00     0.007 C 
HETATM    8  C14 UNL     1       0.299   8.662  11.185  1.00  0.00     0.007 C 
HETATM    9  C15 UNL     1       1.202   7.410  11.237  1.00  0.00     0.010 C 
HETATM   10  C16 UNL     1       1.970   7.184   9.886  1.00  0.00     0.018 C 
HETATM   11  C17 UNL     1       3.008   8.313   9.680  1.00  0.00     0.023 C 
HETATM   12  C18 UNL     1       1.049   7.158   8.652  1.00  0.00     0.023 C 
HETATM   13  C19 UNL     1       2.751   5.860   9.914  1.00  0.00     0.135 C 
HETATM   14  O1  UNL     1       3.749   5.677   9.212  1.00  0.00    -0.297 OA
HETATM   15  C20 UNL     1       2.277   4.761  10.828  1.00  0.00     0.080 C 
HETATM   16  C21 UNL     1       0.783   4.865  11.043  1.00  0.00     0.018 C 
HETATM   17  C22 UNL     1       0.437   6.163  11.747  1.00  0.00    -0.026 A 
HETATM   18  C23 UNL     1       0.309   6.036  13.254  1.00  0.00     0.021 A 
HETATM   19  C24 UNL     1      -0.935   6.323  12.445  1.00  0.00    -0.027 A 
HETATM   20  C25 UNL     1      -1.946   5.200  12.289  1.00  0.00     0.011 C 
HETATM   21  C26 UNL     1      -3.375   5.651  12.576  1.00  0.00     0.011 C 
HETATM   22  C27 UNL     1      -3.523   6.521  13.870  1.00  0.00    -0.032 C 
HETATM   23  C28 UNL     1      -3.189   5.595  15.054  1.00  0.00     0.016 C 
ENDROOT
BRANCH   1  24
HETATM   24  C5  UNL     1      -5.882   7.163  15.144  1.00  0.00    -0.014 C 
HETATM   25  C6  UNL     1      -5.819   5.986  16.116  1.00  0.00     0.010 C 
BRANCH  24  26
HETATM   26  C4  UNL     1      -7.309   7.696  14.826  1.00  0.00     0.009 C 
BRANCH  26  27
HETATM   27  C3  UNL     1      -8.477   6.722  15.029  1.00  0.00     0.034 C 
BRANCH  27  28
HETATM   28  C2  UNL     1      -9.384   6.637  13.811  1.00  0.00    -0.083 C 
HETATM   29  C1  UNL     1     -10.443   7.462  13.715  1.00  0.00     0.015 C 
BRANCH  28  30
HETATM   30  C29 UNL     1      -9.017   5.599  12.745  1.00  0.00     0.034 C 
HETATM   31  C30 UNL     1      -9.220   6.101  11.308  1.00  0.00     0.017 C 
BRANCH  30  32
HETATM   32  C31 UNL     1      -7.568   5.095  12.910  1.00  0.00     0.187 C 
BRANCH  32  33
HETATM   33  O2  UNL     1      -7.510   3.814  13.565  1.00  0.00    -0.321 OA
BRANCH  33  34
HETATM   34  C32 UNL     1      -7.248   2.751  12.757  1.00  0.00     0.254 C 
HETATM   35  C33 UNL     1      -5.986   2.992  11.988  1.00  0.00     0.126 C 
HETATM   36  O3  UNL     1      -7.934   1.743  12.660  1.00  0.00    -0.266 OA
ENDBRANCH  33  34
ENDBRANCH  32  33
ENDBRANCH  30  32
ENDBRANCH  28  30
ENDBRANCH  27  28
ENDBRANCH  26  27
ENDBRANCH  24  26
ENDBRANCH   1  24
TORSDOF 8
ENDMDL
MODEL 4
REMARK minimizedAffinity -8.86688328
REMARK  8 active torsions:
REMARK  status: ('A' for Active; 'I' for Inactive)
REMARK    1  A    between atoms: C2_2  and  C3_3 
REMARK    2  A    between atoms: C2_2  and  C29_30 
REMARK    3  A    between atoms: C3_3  and  C4_4 
REMARK    4  A    between atoms: C4_4  and  C5_5 
REMARK    5  A    between atoms: C5_5  and  C7_7 
REMARK    6  A    between atoms: C29_30  and  C31_32 
REMARK    7  A    between atoms: C31_32  and  O2_33 
REMARK    8  A    between atoms: O2_33  and  C32_34 
ROOT
HETATM    1  C7  UNL     1      -0.254   7.634  12.173  1.00  0.00    -0.002 C 
HETATM    2  C8  UNL     1      -0.528   6.405  11.296  1.00  0.00     0.006 C 
HETATM    3  C9  UNL     1      -1.099   5.349  12.220  1.00  0.00     0.011 C 
HETATM    4  C10 UNL     1      -1.923   6.090  13.311  1.00  0.00    -0.032 C 
HETATM    5  C11 UNL     1      -1.578   5.429  14.665  1.00  0.00     0.016 C 
HETATM    6  C12 UNL     1      -3.464   5.937  12.992  1.00  0.00     0.004 C 
HETATM    7  C13 UNL     1      -4.036   4.525  13.204  1.00  0.00     0.007 C 
HETATM    8  C14 UNL     1      -5.503   4.497  12.793  1.00  0.00     0.007 C 
HETATM    9  C15 UNL     1      -6.401   5.337  13.727  1.00  0.00     0.010 C 
HETATM   10  C16 UNL     1      -7.887   5.391  13.221  1.00  0.00     0.018 C 
HETATM   11  C17 UNL     1      -8.531   3.990  13.343  1.00  0.00     0.023 C 
HETATM   12  C18 UNL     1      -8.022   5.847  11.756  1.00  0.00     0.023 C 
HETATM   13  C19 UNL     1      -8.726   6.345  14.087  1.00  0.00     0.135 C 
HETATM   14  O1  UNL     1      -9.950   6.221  14.193  1.00  0.00    -0.297 OA
HETATM   15  C20 UNL     1      -8.028   7.458  14.821  1.00  0.00     0.080 C 
HETATM   16  C21 UNL     1      -6.776   7.873  14.079  1.00  0.00     0.018 C 
HETATM   17  C22 UNL     1      -5.784   6.726  14.029  1.00  0.00    -0.026 A 
HETATM   18  C23 UNL     1      -4.741   6.761  15.130  1.00  0.00     0.021 A 
HETATM   19  C24 UNL     1      -4.296   7.004  13.706  1.00  0.00    -0.027 A 
HETATM   20  C25 UNL     1      -3.905   8.422  13.325  1.00  0.00     0.011 C 
HETATM   21  C26 UNL     1      -2.579   8.483  12.573  1.00  0.00     0.011 C 
HETATM   22  C27 UNL     1      -1.442   7.616  13.210  1.00  0.00    -0.032 C 
HETATM   23  C28 UNL     1      -1.119   8.258  14.572  1.00  0.00     0.016 C 
ENDROOT
BRANCH   1  24
HETATM   24  C5  UNL     1       1.244   7.745  12.605  1.00  0.00    -0.014 C 
HETATM   25  C6  UNL     1       1.925   9.097  12.403  1.00  0.00     0.010 C 
BRANCH  24  26
HETATM   26  C4  UNL     1       2.066   6.504  12.148  1.00  0.00     0.009 C 
BRANCH  26  27
HETATM   27  C3  UNL     1       1.938   6.088  10.677  1.00  0.00     0.034 C 
BRANCH  27  28
HETATM   28  C2  UNL     1       3.190   6.399   9.872  1.00  0.00    -0.083 C 
HETATM   29  C1  UNL     1       3.882   5.392   9.307  1.00  0.00     0.015 C 
BRANCH  28  30
HETATM   30  C29 UNL     1       3.585   7.875   9.748  1.00  0.00     0.034 C 
HETATM   31  C30 UNL     1       5.029   8.160  10.186  1.00  0.00     0.017 C 
BRANCH  30  32
HETATM   32  C31 UNL     1       3.372   8.407   8.315  1.00  0.00     0.187 C 
BRANCH  32  33
HETATM   33  O2  UNL     1       2.060   8.972   8.135  1.00  0.00    -0.321 OA
BRANCH  33  34
HETATM   34  C32 UNL     1       1.107   8.116   7.677  1.00  0.00     0.254 C 
HETATM   35  C33 UNL     1       1.699   7.188   6.662  1.00  0.00     0.126 C 
HETATM   36  O3  UNL     1      -0.063   8.097   8.031  1.00  0.00    -0.266 OA
ENDBRANCH  33  34
ENDBRANCH  32  33
ENDBRANCH  30  32
ENDBRANCH  28  30
ENDBRANCH  27  28
ENDBRANCH  26  27
ENDBRANCH  24  26
ENDBRANCH   1  24
TORSDOF 8
ENDMDL
MODEL 5
REMARK minimizedAffinity -8.85871792
REMARK  8 active torsions:
REMARK  status: ('A' for Active; 'I' for Inactive)
REMARK    1  A    between atoms: C2_2  and  C3_3 
REMARK    2  A    between atoms: C2_2  and  C29_30 
REMARK    3  A    between atoms: C3_3  and  C4_4 
REMARK    4  A    between atoms: C4_4  and  C5_5 
REMARK    5  A    between atoms: C5_5  and  C7_7 
REMARK    6  A    between atoms: C29_30  and  C31_32 
REMARK    7  A    between atoms: C31_32  and  O2_33 
REMARK    8  A    between atoms: O2_33  and  C32_34 
ROOT
HETATM    1  C7  UNL     1       0.212   7.901  11.510  1.00  0.00    -0.002 C 
HETATM    2  C8  UNL     1      -0.205   6.696  10.658  1.00  0.00     0.006 C 
HETATM    3  C9  UNL     1      -0.558   5.592  11.636  1.00  0.00     0.011 C 
HETATM    4  C10 UNL     1      -1.163   6.273  12.897  1.00  0.00    -0.032 C 
HETATM    5  C11 UNL     1      -0.540   5.576  14.129  1.00  0.00     0.016 C 
HETATM    6  C12 UNL     1      -2.732   6.086  12.885  1.00  0.00     0.004 C 
HETATM    7  C13 UNL     1      -3.220   4.652  13.151  1.00  0.00     0.007 C 
HETATM    8  C14 UNL     1      -4.740   4.596  13.039  1.00  0.00     0.007 C 
HETATM    9  C15 UNL     1      -5.450   5.378  14.165  1.00  0.00     0.010 C 
HETATM   10  C16 UNL     1      -7.008   5.407  13.967  1.00  0.00     0.018 C 
HETATM   11  C17 UNL     1      -7.585   3.984  14.160  1.00  0.00     0.023 C 
HETATM   12  C18 UNL     1      -7.442   5.908  12.577  1.00  0.00     0.023 C 
HETATM   13  C19 UNL     1      -7.678   6.306  15.018  1.00  0.00     0.135 C 
HETATM   14  O1  UNL     1      -8.853   6.144  15.361  1.00  0.00    -0.297 OA
HETATM   15  C20 UNL     1      -6.871   7.413  15.642  1.00  0.00     0.080 C 
HETATM   16  C21 UNL     1      -5.802   7.889  14.682  1.00  0.00     0.018 C 
HETATM   17  C22 UNL     1      -4.816   6.773  14.392  1.00  0.00    -0.026 A 
HETATM   18  C23 UNL     1      -3.574   6.801  15.264  1.00  0.00     0.021 A 
HETATM   19  C24 UNL     1      -3.428   7.104  13.790  1.00  0.00    -0.027 A 
HETATM   20  C25 UNL     1      -3.151   8.545  13.394  1.00  0.00     0.011 C 
HETATM   21  C26 UNL     1      -2.004   8.670  12.397  1.00  0.00     0.011 C 
HETATM   22  C27 UNL     1      -0.745   7.814  12.762  1.00  0.00    -0.032 C 
HETATM   23  C28 UNL     1      -0.169   8.419  14.056  1.00  0.00     0.016 C 
ENDROOT
BRANCH   1  24
HETATM   24  C5  UNL     1       1.764   8.040  11.640  1.00  0.00    -0.014 C 
HETATM   25  C6  UNL     1       2.289   9.253  12.406  1.00  0.00     0.010 C 
BRANCH  24  26
HETATM   26  C4  UNL     1       2.481   7.735  10.293  1.00  0.00     0.009 C 
BRANCH  26  27
HETATM   27  C3  UNL     1       3.694   6.796  10.348  1.00  0.00     0.034 C 
BRANCH  27  28
HETATM   28  C2  UNL     1       4.969   7.515  10.762  1.00  0.00    -0.083 C 
HETATM   29  C1  UNL     1       5.236   8.735  10.259  1.00  0.00     0.015 C 
BRANCH  28  30
HETATM   30  C29 UNL     1       5.882   6.787  11.755  1.00  0.00     0.034 C 
HETATM   31  C30 UNL     1       6.997   5.977  11.079  1.00  0.00     0.017 C 
BRANCH  30  32
HETATM   32  C31 UNL     1       6.506   7.760  12.779  1.00  0.00     0.187 C 
BRANCH  32  33
HETATM   33  O2  UNL     1       7.944   7.688  12.789  1.00  0.00    -0.321 OA
BRANCH  33  34
HETATM   34  C32 UNL     1       8.534   7.877  14.000  1.00  0.00     0.254 C 
HETATM   35  C33 UNL     1      10.022   7.928  13.841  1.00  0.00     0.126 C 
HETATM   36  O3  UNL     1       7.949   7.988  15.068  1.00  0.00    -0.266 OA
ENDBRANCH  33  34
ENDBRANCH  32  33
ENDBRANCH  30  32
ENDBRANCH  28  30
ENDBRANCH  27  28
ENDBRANCH  26  27
ENDBRANCH  24  26
ENDBRANCH   1  24
TORSDOF 8
ENDMDL
MODEL 6
REMARK minimizedAffinity -8.72121525
REMARK  8 active torsions:
REMARK  status: ('A' for Active; 'I' for Inactive)
REMARK    1  A    between atoms: C2_2  and  C3_3 
REMARK    2  A    between atoms: C2_2  and  C29_30 
REMARK    3  A    between atoms: C3_3  and  C4_4 
REMARK    4  A    between atoms: C4_4  and  C5_5 
REMARK    5  A    between atoms: C5_5  and  C7_7 
REMARK    6  A    between atoms: C29_30  and  C31_32 
REMARK    7  A    between atoms: C31_32  and  O2_33 
REMARK    8  A    between atoms: O2_33  and  C32_34 
ROOT
HETATM    1  C7  UNL     1      -2.287  10.276  14.361  1.00  0.00    -0.002 C 
HETATM    2  C8  UNL     1      -1.056   9.652  13.691  1.00  0.00     0.006 C 
HETATM    3  C9  UNL     1      -0.860   8.301  14.350  1.00  0.00     0.011 C 
HETATM    4  C10 UNL     1      -2.272   7.759  14.713  1.00  0.00    -0.032 C 
HETATM    5  C11 UNL     1      -2.176   7.170  16.140  1.00  0.00     0.016 C 
HETATM    6  C12 UNL     1      -2.681   6.640  13.674  1.00  0.00     0.004 C 
HETATM    7  C13 UNL     1      -1.899   5.321  13.795  1.00  0.00     0.007 C 
HETATM    8  C14 UNL     1      -2.336   4.360  12.695  1.00  0.00     0.007 C 
HETATM    9  C15 UNL     1      -3.791   3.874  12.872  1.00  0.00     0.010 C 
HETATM   10  C16 UNL     1      -4.261   2.980  11.670  1.00  0.00     0.018 C 
HETATM   11  C17 UNL     1      -3.480   1.644  11.676  1.00  0.00     0.023 C 
HETATM   12  C18 UNL     1      -4.055   3.641  10.294  1.00  0.00     0.023 C 
HETATM   13  C19 UNL     1      -5.751   2.625  11.800  1.00  0.00     0.135 C 
HETATM   14  O1  UNL     1      -6.229   1.614  11.277  1.00  0.00    -0.297 OA
HETATM   15  C20 UNL     1      -6.646   3.543  12.589  1.00  0.00     0.080 C 
HETATM   16  C21 UNL     1      -6.116   4.960  12.543  1.00  0.00     0.018 C 
HETATM   17  C22 UNL     1      -4.755   5.038  13.209  1.00  0.00    -0.026 A 
HETATM   18  C23 UNL     1      -4.802   5.458  14.667  1.00  0.00     0.021 A 
HETATM   19  C24 UNL     1      -4.193   6.408  13.661  1.00  0.00    -0.027 A 
HETATM   20  C25 UNL     1      -4.986   7.654  13.304  1.00  0.00     0.011 C 
HETATM   21  C26 UNL     1      -4.139   8.922  13.349  1.00  0.00     0.011 C 
HETATM   22  C27 UNL     1      -3.231   9.039  14.619  1.00  0.00    -0.032 C 
HETATM   23  C28 UNL     1      -4.182   9.194  15.820  1.00  0.00     0.016 C 
ENDROOT
BRANCH   1  24
HETATM   24  C5  UNL     1      -1.911  11.302  15.480  1.00  0.00    -0.014 C 
HETATM   25  C6  UNL     1      -1.269  12.613  15.031  1.00  0.00     0.010 C 
BRANCH  24  26
HETATM   26  C4  UNL     1      -1.233  10.602  16.694  1.00  0.00     0.009 C 
BRANCH  26  27
HETATM   27  C3  UNL     1       0.259  10.885  16.915  1.00  0.00     0.034 C 
BRANCH  27  28
HETATM   28  C2  UNL     1       0.610  11.040  18.387  1.00  0.00    -0.083 C 
HETATM   29  C1  UNL     1      -0.364  11.308  19.277  1.00  0.00     0.015 C 
BRANCH  28  30
HETATM   30  C29 UNL     1       2.085  10.866  18.770  1.00  0.00     0.034 C 
HETATM   31  C30 UNL     1       2.979  12.019  18.292  1.00  0.00     0.017 C 
BRANCH  30  32
HETATM   32  C31 UNL     1       2.264  10.677  20.291  1.00  0.00     0.187 C 
BRANCH  32  33
HETATM   33  O2  UNL     1       2.572   9.313  20.635  1.00  0.00    -0.321 OA
BRANCH  33  34
HETATM   34  C32 UNL     1       2.377   8.976  21.939  1.00  0.00     0.254 C 
HETATM   35  C33 UNL     1       2.966  10.024  22.832  1.00  0.00     0.126 C 
HETATM   36  O3  UNL     1       1.809   7.969  22.337  1.00  0.00    -0.266 OA
ENDBRANCH  33  34
ENDBRANCH  32  33
ENDBRANCH  30  32
ENDBRANCH  28  30
ENDBRANCH  27  28
ENDBRANCH  26  27
ENDBRANCH  24  26
ENDBRANCH   1  24
TORSDOF 8
ENDMDL
MODEL 7
REMARK minimizedAffinity -8.63252831
REMARK  8 active torsions:
REMARK  status: ('A' for Active; 'I' for Inactive)
REMARK    1  A    between atoms: C2_2  and  C3_3 
REMARK    2  A    between atoms: C2_2  and  C29_30 
REMARK    3  A    between atoms: C3_3  and  C4_4 
REMARK    4  A    between atoms: C4_4  and  C5_5 
REMARK    5  A    between atoms: C5_5  and  C7_7 
REMARK    6  A    between atoms: C29_30  and  C31_32 
REMARK    7  A    between atoms: C31_32  and  O2_33 
REMARK    8  A    between atoms: O2_33  and  C32_34 
ROOT
HETATM    1  C7  UNL     1       0.158   8.240  12.271  1.00  0.00    -0.002 C 
HETATM    2  C8  UNL     1       0.431   7.348  11.053  1.00  0.00     0.006 C 
HETATM    3  C9  UNL     1       0.379   5.920  11.558  1.00  0.00     0.011 C 
HETATM    4  C10 UNL     1      -0.673   5.877  12.702  1.00  0.00    -0.032 C 
HETATM    5  C11 UNL     1      -0.064   5.030  13.844  1.00  0.00     0.016 C 
HETATM    6  C12 UNL     1      -2.001   5.210  12.161  1.00  0.00     0.004 C 
HETATM    7  C13 UNL     1      -1.907   3.699  11.888  1.00  0.00     0.007 C 
HETATM    8  C14 UNL     1      -3.223   3.199  11.304  1.00  0.00     0.007 C 
HETATM    9  C15 UNL     1      -4.387   3.259  12.318  1.00  0.00     0.010 C 
HETATM   10  C16 UNL     1      -5.756   2.851  11.665  1.00  0.00     0.018 C 
HETATM   11  C17 UNL     1      -5.733   1.347  11.300  1.00  0.00     0.023 C 
HETATM   12  C18 UNL     1      -6.087   3.642  10.385  1.00  0.00     0.023 C 
HETATM   13  C19 UNL     1      -6.916   3.052  12.653  1.00  0.00     0.135 C 
HETATM   14  O1  UNL     1      -7.966   2.410  12.564  1.00  0.00    -0.297 OA
HETATM   15  C20 UNL     1      -6.758   4.064  13.756  1.00  0.00     0.080 C 
HETATM   16  C21 UNL     1      -5.814   5.166  13.327  1.00  0.00     0.018 C 
HETATM   17  C22 UNL     1      -4.426   4.608  13.078  1.00  0.00    -0.026 A 
HETATM   18  C23 UNL     1      -3.489   4.725  14.266  1.00  0.00     0.021 A 
HETATM   19  C24 UNL     1      -3.205   5.559  13.038  1.00  0.00    -0.027 A 
HETATM   20  C25 UNL     1      -3.466   7.053  13.129  1.00  0.00     0.011 C 
HETATM   21  C26 UNL     1      -2.303   7.886  12.599  1.00  0.00     0.011 C 
HETATM   22  C27 UNL     1      -0.897   7.412  13.102  1.00  0.00    -0.032 C 
HETATM   23  C28 UNL     1      -0.869   7.671  14.619  1.00  0.00     0.016 C 
ENDROOT
BRANCH   1  24
HETATM   24  C5  UNL     1       1.467   8.818  12.902  1.00  0.00    -0.014 C 
HETATM   25  C6  UNL     1       1.325  10.067  13.769  1.00  0.00     0.010 C 
BRANCH  24  26
HETATM   26  C4  UNL     1       2.636   8.841  11.875  1.00  0.00     0.009 C 
BRANCH  26  27
HETATM   27  C3  UNL     1       4.034   8.494  12.405  1.00  0.00     0.034 C 
BRANCH  27  28
HETATM   28  C2  UNL     1       4.704   7.390  11.601  1.00  0.00    -0.083 C 
HETATM   29  C1  UNL     1       4.151   6.984  10.443  1.00  0.00     0.015 C 
BRANCH  28  30
HETATM   30  C29 UNL     1       6.001   6.806  12.173  1.00  0.00     0.034 C 
HETATM   31  C30 UNL     1       6.918   6.193  11.105  1.00  0.00     0.017 C 
BRANCH  30  32
HETATM   32  C31 UNL     1       6.791   7.853  12.986  1.00  0.00     0.187 C 
BRANCH  32  33
HETATM   33  O2  UNL     1       7.531   7.256  14.067  1.00  0.00    -0.321 OA
BRANCH  33  34
HETATM   34  C32 UNL     1       8.785   7.745  14.263  1.00  0.00     0.254 C 
HETATM   35  C33 UNL     1       8.888   8.356  15.627  1.00  0.00     0.126 C 
HETATM   36  O3  UNL     1       9.702   7.703  13.454  1.00  0.00    -0.266 OA
ENDBRANCH  33  34
ENDBRANCH  32  33
ENDBRANCH  30  32
ENDBRANCH  28  30
ENDBRANCH  27  28
ENDBRANCH  26  27
ENDBRANCH  24  26
ENDBRANCH   1  24
TORSDOF 8
ENDMDL
MODEL 8
REMARK minimizedAffinity -8.63233376
REMARK  8 active torsions:
REMARK  status: ('A' for Active; 'I' for Inactive)
REMARK    1  A    between atoms: C2_2  and  C3_3 
REMARK    2  A    between atoms: C2_2  and  C29_30 
REMARK    3  A    between atoms: C3_3  and  C4_4 
REMARK    4  A    between atoms: C4_4  and  C5_5 
REMARK    5  A    between atoms: C5_5  and  C7_7 
REMARK    6  A    between atoms: C29_30  and  C31_32 
REMARK    7  A    between atoms: C31_32  and  O2_33 
REMARK    8  A    between atoms: O2_33  and  C32_34 
ROOT
HETATM    1  C7  UNL     1       0.010   7.802  15.320  1.00  0.00    -0.002 C 
HETATM    2  C8  UNL     1      -0.957   8.726  16.070  1.00  0.00     0.006 C 
HETATM    3  C9  UNL     1      -1.951   9.220  15.038  1.00  0.00     0.011 C 
HETATM    4  C10 UNL     1      -2.150   8.073  14.007  1.00  0.00    -0.032 C 
HETATM    5  C11 UNL     1      -2.135   8.721  12.603  1.00  0.00     0.016 C 
HETATM    6  C12 UNL     1      -3.536   7.365  14.279  1.00  0.00     0.004 C 
HETATM    7  C13 UNL     1      -4.777   8.201  13.922  1.00  0.00     0.007 C 
HETATM    8  C14 UNL     1      -6.040   7.436  14.299  1.00  0.00     0.007 C 
HETATM    9  C15 UNL     1      -6.257   6.176  13.432  1.00  0.00     0.010 C 
HETATM   10  C16 UNL     1      -7.496   5.339  13.910  1.00  0.00     0.018 C 
HETATM   11  C17 UNL     1      -8.797   6.133  13.643  1.00  0.00     0.023 C 
HETATM   12  C18 UNL     1      -7.458   4.986  15.409  1.00  0.00     0.023 C 
HETATM   13  C19 UNL     1      -7.606   4.024  13.123  1.00  0.00     0.135 C 
HETATM   14  O1  UNL     1      -8.683   3.438  12.981  1.00  0.00    -0.297 OA
HETATM   15  C20 UNL     1      -6.360   3.441  12.512  1.00  0.00     0.080 C 
HETATM   16  C21 UNL     1      -5.143   3.844  13.315  1.00  0.00     0.018 C 
HETATM   17  C22 UNL     1      -4.956   5.349  13.275  1.00  0.00    -0.026 A 
HETATM   18  C23 UNL     1      -3.993   5.826  12.204  1.00  0.00     0.021 A 
HETATM   19  C24 UNL     1      -3.589   5.970  13.653  1.00  0.00    -0.027 A 
HETATM   20  C25 UNL     1      -2.507   5.039  14.175  1.00  0.00     0.011 C 
HETATM   21  C26 UNL     1      -1.424   5.777  14.956  1.00  0.00     0.011 C 
HETATM   22  C27 UNL     1      -0.915   7.085  14.262  1.00  0.00    -0.032 C 
HETATM   23  C28 UNL     1      -0.197   6.641  12.974  1.00  0.00     0.016 C 
ENDROOT
BRANCH   1  24
HETATM   24  C5  UNL     1       1.346   8.514  14.931  1.00  0.00    -0.014 C 
HETATM   25  C6  UNL     1       1.231   9.866  14.229  1.00  0.00     0.010 C 
BRANCH  24  26
HETATM   26  C4  UNL     1       2.366   7.518  14.307  1.00  0.00     0.009 C 
BRANCH  26  27
HETATM   27  C3  UNL     1       2.713   7.713  12.825  1.00  0.00     0.034 C 
BRANCH  27  28
HETATM   28  C2  UNL     1       4.213   7.733  12.575  1.00  0.00    -0.083 C 
HETATM   29  C1  UNL     1       5.029   8.307  13.478  1.00  0.00     0.015 C 
BRANCH  28  30
HETATM   30  C29 UNL     1       4.708   7.072  11.283  1.00  0.00     0.034 C 
HETATM   31  C30 UNL     1       6.009   6.278  11.463  1.00  0.00     0.017 C 
BRANCH  30  32
HETATM   32  C31 UNL     1       3.633   6.157  10.658  1.00  0.00     0.187 C 
BRANCH  32  33
HETATM   33  O2  UNL     1       2.938   6.799   9.573  1.00  0.00    -0.321 OA
BRANCH  33  34
HETATM   34  C32 UNL     1       2.876   6.091   8.413  1.00  0.00     0.254 C 
HETATM   35  C33 UNL     1       2.118   6.867   7.381  1.00  0.00     0.126 C 
HETATM   36  O3  UNL     1       3.359   4.983   8.228  1.00  0.00    -0.266 OA
ENDBRANCH  33  34
ENDBRANCH  32  33
ENDBRANCH  30  32
ENDBRANCH  28  30
ENDBRANCH  27  28
ENDBRANCH  26  27
ENDBRANCH  24  26
ENDBRANCH   1  24
TORSDOF 8
ENDMDL
MODEL 9
REMARK minimizedAffinity -8.48798466
REMARK  8 active torsions:
REMARK  status: ('A' for Active; 'I' for Inactive)
REMARK    1  A    between atoms: C2_2  and  C3_3 
REMARK    2  A    between atoms: C2_2  and  C29_30 
REMARK    3  A    between atoms: C3_3  and  C4_4 
REMARK    4  A    between atoms: C4_4  and  C5_5 
REMARK    5  A    between atoms: C5_5  and  C7_7 
REMARK    6  A    between atoms: C29_30  and  C31_32 
REMARK    7  A    between atoms: C31_32  and  O2_33 
REMARK    8  A    between atoms: O2_33  and  C32_34 
ROOT
HETATM    1  C7  UNL     1       0.360   8.076  11.780  1.00  0.00    -0.002 C 
HETATM    2  C8  UNL     1       0.590   7.089  10.629  1.00  0.00     0.006 C 
HETATM    3  C9  UNL     1       0.525   5.705  11.245  1.00  0.00     0.011 C 
HETATM    4  C10 UNL     1      -0.502   5.770  12.410  1.00  0.00    -0.032 C 
HETATM    5  C11 UNL     1       0.118   5.002  13.601  1.00  0.00     0.016 C 
HETATM    6  C12 UNL     1      -1.853   5.089  11.950  1.00  0.00     0.004 C 
HETATM    7  C13 UNL     1      -1.792   3.560  11.793  1.00  0.00     0.007 C 
HETATM    8  C14 UNL     1      -3.130   3.042  11.278  1.00  0.00     0.007 C 
HETATM    9  C15 UNL     1      -4.269   3.201  12.308  1.00  0.00     0.010 C 
HETATM   10  C16 UNL     1      -5.659   2.771  11.718  1.00  0.00     0.018 C 
HETATM   11  C17 UNL     1      -5.670   1.243  11.470  1.00  0.00     0.023 C 
HETATM   12  C18 UNL     1      -6.005   3.467  10.389  1.00  0.00     0.023 C 
HETATM   13  C19 UNL     1      -6.792   3.070  12.712  1.00  0.00     0.135 C 
HETATM   14  O1  UNL     1      -7.856   2.442  12.696  1.00  0.00    -0.297 OA
HETATM   15  C20 UNL     1      -6.592   4.160  13.730  1.00  0.00     0.080 C 
HETATM   16  C21 UNL     1      -5.639   5.207  13.197  1.00  0.00     0.018 C 
HETATM   17  C22 UNL     1      -4.266   4.605  12.963  1.00  0.00    -0.026 A 
HETATM   18  C23 UNL     1      -3.301   4.795  14.118  1.00  0.00     0.021 A 
HETATM   19  C24 UNL     1      -3.031   5.527  12.823  1.00  0.00    -0.027 A 
HETATM   20  C25 UNL     1      -3.263   7.029  12.804  1.00  0.00     0.011 C 
HETATM   21  C26 UNL     1      -2.098   7.796  12.187  1.00  0.00     0.011 C 
HETATM   22  C27 UNL     1      -0.690   7.335  12.695  1.00  0.00    -0.032 C 
HETATM   23  C28 UNL     1      -0.623   7.710  14.187  1.00  0.00     0.016 C 
ENDROOT
BRANCH   1  24
HETATM   24  C5  UNL     1       1.693   8.676  12.337  1.00  0.00    -0.014 C 
HETATM   25  C6  UNL     1       2.922   8.587  11.435  1.00  0.00     0.010 C 
BRANCH  24  26
HETATM   26  C4  UNL     1       1.921   8.281  13.825  1.00  0.00     0.009 C 
BRANCH  26  27
HETATM   27  C3  UNL     1       3.374   8.100  14.282  1.00  0.00     0.034 C 
BRANCH  27  28
HETATM   28  C2  UNL     1       3.800   9.147  15.299  1.00  0.00    -0.083 C 
HETATM   29  C1  UNL     1       2.905   9.605  16.195  1.00  0.00     0.015 C 
BRANCH  28  30
HETATM   30  C29 UNL     1       5.259   9.616  15.242  1.00  0.00     0.034 C 
HETATM   31  C30 UNL     1       5.572  10.760  16.217  1.00  0.00     0.017 C 
BRANCH  30  32
HETATM   32  C31 UNL     1       6.245   8.453  15.484  1.00  0.00     0.187 C 
BRANCH  32  33
HETATM   33  O2  UNL     1       7.303   8.818  16.388  1.00  0.00    -0.321 OA
BRANCH  33  34
HETATM   34  C32 UNL     1       8.502   8.215  16.166  1.00  0.00     0.254 C 
HETATM   35  C33 UNL     1       8.908   8.396  14.736  1.00  0.00     0.126 C 
HETATM   36  O3  UNL     1       9.160   7.609  17.000  1.00  0.00    -0.266 OA
ENDBRANCH  33  34
ENDBRANCH  32  33
ENDBRANCH  30  32
ENDBRANCH  28  30
ENDBRANCH  27  28
ENDBRANCH  26  27
ENDBRANCH  24  26
ENDBRANCH   1  24
TORSDOF 8
ENDMDL
