MODEL 1
REMARK minimizedAffinity -7.59550095
REMARK CNNscore 0.812203526
REMARK CNNaffinity 6.82538605
REMARK  11 active torsions:
REMARK  status: ('A' for Active; 'I' for Inactive)
REMARK    1  A    between atoms: C2_2  and  C3_3 
REMARK    2  A    between atoms: C2_2  and  C9_12 
REMARK    3  A    between atoms: C3_3  and  C4_4 
REMARK    4  A    between atoms: C4_4  and  O1_5 
REMARK    5  A    between atoms: C4_4  and  C5_6 
REMARK    6  A    between atoms: C5_6  and  O2_7 
REMARK    7  A    between atoms: C5_6  and  C6_8 
REMARK    8  A    between atoms: C6_8  and  O3_11 
REMARK    9  A    between atoms: C15_18  and  O4_19 
REMARK   10  A    between atoms: C22_27  and  C24_29 
REMARK   11  A    between atoms: C24_29  and  O6_30 
ROOT
HETATM    1  C9  UNL     1       5.318  55.942  -8.106  1.00  0.00    -0.002 C 
HETATM    2  C10 UNL     1       6.152  55.037  -9.055  1.00  0.00     0.006 C 
HETATM    3  C11 UNL     1       5.168  54.240  -9.926  1.00  0.00     0.011 C 
HETATM    4  C12 UNL     1       3.800  54.918  -9.718  1.00  0.00    -0.030 C 
HETATM    5  C13 UNL     1       3.754  56.130 -10.696  1.00  0.00     0.016 C 
HETATM    6  C14 UNL     1       2.566  53.992  -9.948  1.00  0.00     0.032 C 
HETATM    7  C15 UNL     1       2.273  53.624 -11.418  1.00  0.00     0.124 C 
HETATM    8  C16 UNL     1       1.094  52.648 -11.495  1.00  0.00     0.038 C 
HETATM    9  C17 UNL     1      -0.211  53.344 -11.092  1.00  0.00     0.015 C 
HETATM   10  C18 UNL     1      -0.111  54.109  -9.766  1.00  0.00    -0.026 A 
HETATM   11  C19 UNL     1      -1.313  55.026  -9.520  1.00  0.00     0.018 C 
HETATM   12  C20 UNL     1      -2.513  54.710 -10.401  1.00  0.00     0.080 C 
HETATM   13  C21 UNL     1      -2.677  53.220 -10.576  1.00  0.00     0.137 C 
HETATM   14  O5  UNL     1      -3.769  52.680 -10.390  1.00  0.00    -0.297 OA
HETATM   15  C22 UNL     1      -1.482  52.429 -11.123  1.00  0.00     0.042 C 
HETATM   16  C23 UNL     1      -1.330  51.148 -10.283  1.00  0.00     0.026 C 
HETATM   17  C25 UNL     1       0.473  53.455  -8.535  1.00  0.00     0.021 A 
HETATM   18  C26 UNL     1       1.292  54.523  -9.233  1.00  0.00    -0.025 A 
HETATM   19  C27 UNL     1       1.397  55.889  -8.549  1.00  0.00     0.011 C 
HETATM   20  C28 UNL     1       2.723  56.231  -7.850  1.00  0.00     0.011 C 
HETATM   21  C29 UNL     1       3.893  55.302  -8.193  1.00  0.00    -0.032 C 
HETATM   22  C30 UNL     1       3.832  54.075  -7.233  1.00  0.00     0.016 C 
ENDROOT
BRANCH   1  23
HETATM   23  C2  UNL     1       6.007  56.123  -6.720  1.00  0.00    -0.011 C 
HETATM   24  C1  UNL     1       5.932  57.574  -6.224  1.00  0.00     0.010 C 
BRANCH  23  25
HETATM   25  C3  UNL     1       7.499  55.689  -6.778  1.00  0.00     0.039 C 
BRANCH  25  26
HETATM   26  C4  UNL     1       8.286  55.971  -5.483  1.00  0.00     0.150 C 
BRANCH  26  27
HETATM   27  O1  UNL     1       8.554  54.696  -4.883  1.00  0.00    -0.393 OA
HETATM   28  H8  UNL     1       9.504  54.675  -4.625  1.00  0.00     0.210 HD
ENDBRANCH  26  27
BRANCH  26  29
HETATM   29  C5  UNL     1       9.583  56.805  -5.690  1.00  0.00     0.180 C 
BRANCH  29  30
HETATM   30  O2  UNL     1      10.716  55.920  -5.672  1.00  0.00    -0.390 OA
HETATM   31  H10 UNL     1      10.888  55.718  -4.731  1.00  0.00     0.210 HD
ENDBRANCH  29  30
BRANCH  29  32
HETATM   32  C6  UNL     1       9.816  57.908  -4.613  1.00  0.00     0.079 C 
HETATM   33  C7  UNL     1      11.313  58.175  -4.421  1.00  0.00     0.048 C 
HETATM   34  C8  UNL     1       9.094  59.215  -4.947  1.00  0.00     0.048 C 
BRANCH  32  35
HETATM   35  O3  UNL     1       9.311  57.400  -3.363  1.00  0.00    -0.388 OA
HETATM   36  H17 UNL     1       9.407  58.106  -2.693  1.00  0.00     0.210 HD
ENDBRANCH  32  35
ENDBRANCH  29  32
ENDBRANCH  26  29
ENDBRANCH  25  26
ENDBRANCH  23  25
ENDBRANCH   1  23
BRANCH   7  37
HETATM   37  O4  UNL     1       3.400  52.996 -12.026  1.00  0.00    -0.395 OA
HETATM   38  H28 UNL     1       3.614  52.199 -11.514  1.00  0.00     0.210 HD
ENDBRANCH   7  37
BRANCH  15  39
HETATM   39  C24 UNL     1      -1.850  52.074 -12.584  1.00  0.00     0.181 C 
BRANCH  39  40
HETATM   40  O6  UNL     1      -2.981  52.798 -13.061  1.00  0.00    -0.400 OA
HETATM   41  H41 UNL     1      -2.851  53.742 -12.834  1.00  0.00     0.209 HD
ENDBRANCH  39  40
ENDBRANCH  15  39
TORSDOF 11
ENDMDL
MODEL 2
REMARK minimizedAffinity -10.4855528
REMARK CNNscore 0.803312361
REMARK CNNaffinity 7.50480986
REMARK  11 active torsions:
REMARK  status: ('A' for Active; 'I' for Inactive)
REMARK    1  A    between atoms: C2_2  and  C3_3 
REMARK    2  A    between atoms: C2_2  and  C9_12 
REMARK    3  A    between atoms: C3_3  and  C4_4 
REMARK    4  A    between atoms: C4_4  and  O1_5 
REMARK    5  A    between atoms: C4_4  and  C5_6 
REMARK    6  A    between atoms: C5_6  and  O2_7 
REMARK    7  A    between atoms: C5_6  and  C6_8 
REMARK    8  A    between atoms: C6_8  and  O3_11 
REMARK    9  A    between atoms: C15_18  and  O4_19 
REMARK   10  A    between atoms: C22_27  and  C24_29 
REMARK   11  A    between atoms: C24_29  and  O6_30 
ROOT
HETATM    1  C9  UNL     1      -3.932  50.470 -24.782  1.00  0.00    -0.002 C 
HETATM    2  C10 UNL     1      -5.248  49.872 -24.212  1.00  0.00     0.006 C 
HETATM    3  C11 UNL     1      -5.112  49.814 -22.682  1.00  0.00     0.011 C 
HETATM    4  C12 UNL     1      -3.877  50.675 -22.352  1.00  0.00    -0.030 C 
HETATM    5  C13 UNL     1      -4.369  52.153 -22.298  1.00  0.00     0.016 C 
HETATM    6  C14 UNL     1      -3.151  50.301 -21.023  1.00  0.00     0.032 C 
HETATM    7  C15 UNL     1      -3.892  50.687 -19.726  1.00  0.00     0.124 C 
HETATM    8  C16 UNL     1      -3.115  50.188 -18.503  1.00  0.00     0.038 C 
HETATM    9  C17 UNL     1      -1.803  50.965 -18.343  1.00  0.00     0.015 C 
HETATM   10  C18 UNL     1      -0.974  51.034 -19.632  1.00  0.00    -0.026 A 
HETATM   11  C19 UNL     1       0.177  52.041 -19.542  1.00  0.00     0.018 C 
HETATM   12  C20 UNL     1       0.510  52.462 -18.118  1.00  0.00     0.080 C 
HETATM   13  C21 UNL     1       0.406  51.292 -17.171  1.00  0.00     0.137 C 
HETATM   14  O5  UNL     1       1.319  51.036 -16.383  1.00  0.00    -0.297 OA
HETATM   15  C22 UNL     1      -0.921  50.524 -17.126  1.00  0.00     0.042 C 
HETATM   16  C23 UNL     1      -0.603  49.018 -17.119  1.00  0.00     0.026 C 
HETATM   17  C25 UNL     1      -0.688  49.789 -20.439  1.00  0.00     0.021 A 
HETATM   18  C26 UNL     1      -1.676  50.793 -21.000  1.00  0.00    -0.025 A 
HETATM   19  C27 UNL     1      -1.213  51.654 -22.178  1.00  0.00     0.011 C 
HETATM   20  C28 UNL     1      -1.756  51.300 -23.572  1.00  0.00     0.011 C 
HETATM   21  C29 UNL     1      -2.946  50.333 -23.575  1.00  0.00    -0.032 C 
HETATM   22  C30 UNL     1      -2.384  48.878 -23.547  1.00  0.00     0.016 C 
ENDROOT
BRANCH   1  23
HETATM   23  C2  UNL     1      -3.562  49.854 -26.165  1.00  0.00    -0.011 C 
HETATM   24  C1  UNL     1      -3.956  48.373 -26.259  1.00  0.00     0.010 C 
BRANCH  23  25
HETATM   25  C3  UNL     1      -2.039  49.988 -26.446  1.00  0.00     0.039 C 
BRANCH  25  26
HETATM   26  C4  UNL     1      -1.695  50.981 -27.574  1.00  0.00     0.150 C 
BRANCH  26  27
HETATM   27  O1  UNL     1      -2.802  50.961 -28.487  1.00  0.00    -0.393 OA
HETATM   28  H8  UNL     1      -3.043  51.893 -28.693  1.00  0.00     0.210 HD
ENDBRANCH  26  27
BRANCH  26  29
HETATM   29  C5  UNL     1      -1.369  52.421 -27.083  1.00  0.00     0.180 C 
BRANCH  29  30
HETATM   30  O2  UNL     1      -2.039  53.369 -27.931  1.00  0.00    -0.390 OA
HETATM   31  H10 UNL     1      -1.505  53.428 -28.747  1.00  0.00     0.210 HD
ENDBRANCH  29  30
BRANCH  29  32
HETATM   32  C6  UNL     1       0.151  52.768 -27.079  1.00  0.00     0.079 C 
HETATM   33  C7  UNL     1       0.808  52.323 -25.767  1.00  0.00     0.048 C 
HETATM   34  C8  UNL     1       0.895  52.154 -28.267  1.00  0.00     0.048 C 
BRANCH  32  35
HETATM   35  O3  UNL     1       0.264  54.202 -27.146  1.00  0.00    -0.388 OA
HETATM   36  H17 UNL     1       1.216  54.425 -27.195  1.00  0.00     0.210 HD
ENDBRANCH  32  35
ENDBRANCH  29  32
ENDBRANCH  26  29
ENDBRANCH  25  26
ENDBRANCH  23  25
ENDBRANCH   1  23
BRANCH   7  37
HETATM   37  O4  UNL     1      -5.193  50.104 -19.683  1.00  0.00    -0.395 OA
HETATM   38  H28 UNL     1      -5.094  49.139 -19.742  1.00  0.00     0.210 HD
ENDBRANCH   7  37
BRANCH  15  39
HETATM   39  C24 UNL     1      -1.598  50.938 -15.797  1.00  0.00     0.181 C 
BRANCH  39  40
HETATM   40  O6  UNL     1      -2.996  51.172 -15.937  1.00  0.00    -0.400 OA
HETATM   41  H41 UNL     1      -3.379  50.420 -16.434  1.00  0.00     0.209 HD
ENDBRANCH  39  40
ENDBRANCH  15  39
TORSDOF 11
ENDMDL
MODEL 3
REMARK minimizedAffinity -7.7536006
REMARK CNNscore 0.625885069
REMARK CNNaffinity 5.5807929
REMARK  11 active torsions:
REMARK  status: ('A' for Active; 'I' for Inactive)
REMARK    1  A    between atoms: C2_2  and  C3_3 
REMARK    2  A    between atoms: C2_2  and  C9_12 
REMARK    3  A    between atoms: C3_3  and  C4_4 
REMARK    4  A    between atoms: C4_4  and  O1_5 
REMARK    5  A    between atoms: C4_4  and  C5_6 
REMARK    6  A    between atoms: C5_6  and  O2_7 
REMARK    7  A    between atoms: C5_6  and  C6_8 
REMARK    8  A    between atoms: C6_8  and  O3_11 
REMARK    9  A    between atoms: C15_18  and  O4_19 
REMARK   10  A    between atoms: C22_27  and  C24_29 
REMARK   11  A    between atoms: C24_29  and  O6_30 
ROOT
HETATM    1  C9  UNL     1       6.099  67.232 -35.941  1.00  0.00    -0.002 C 
HETATM    2  C10 UNL     1       6.897  68.561 -36.049  1.00  0.00     0.006 C 
HETATM    3  C11 UNL     1       6.135  69.488 -37.008  1.00  0.00     0.011 C 
HETATM    4  C12 UNL     1       4.750  68.837 -37.188  1.00  0.00    -0.030 C 
HETATM    5  C13 UNL     1       3.883  69.301 -35.978  1.00  0.00     0.016 C 
HETATM    6  C14 UNL     1       4.030  69.180 -38.529  1.00  0.00     0.032 C 
HETATM    7  C15 UNL     1       3.481  70.617 -38.643  1.00  0.00     0.124 C 
HETATM    8  C16 UNL     1       2.879  70.846 -40.033  1.00  0.00     0.038 C 
HETATM    9  C17 UNL     1       1.600  70.019 -40.210  1.00  0.00     0.015 C 
HETATM   10  C18 UNL     1       1.770  68.543 -39.832  1.00  0.00    -0.026 A 
HETATM   11  C19 UNL     1       0.435  67.798 -39.737  1.00  0.00     0.018 C 
HETATM   12  C20 UNL     1      -0.720  68.529 -40.405  1.00  0.00     0.080 C 
HETATM   13  C21 UNL     1      -0.273  69.193 -41.684  1.00  0.00     0.137 C 
HETATM   14  O5  UNL     1      -0.908  69.038 -42.729  1.00  0.00    -0.297 OA
HETATM   15  C22 UNL     1       0.909  70.169 -41.608  1.00  0.00     0.042 C 
HETATM   16  C23 UNL     1       1.850  69.873 -42.789  1.00  0.00     0.026 C 
HETATM   17  C25 UNL     1       2.931  67.734 -40.364  1.00  0.00     0.021 A 
HETATM   18  C26 UNL     1       2.947  68.129 -38.900  1.00  0.00    -0.025 A 
HETATM   19  C27 UNL     1       2.662  67.031 -37.871  1.00  0.00     0.011 C 
HETATM   20  C28 UNL     1       3.856  66.478 -37.076  1.00  0.00     0.011 C 
HETATM   21  C29 UNL     1       5.140  67.311 -37.174  1.00  0.00    -0.032 C 
HETATM   22  C30 UNL     1       5.916  66.852 -38.446  1.00  0.00     0.016 C 
ENDROOT
BRANCH   1  23
HETATM   23  C2  UNL     1       7.037  66.001 -35.761  1.00  0.00    -0.011 C 
HETATM   24  C1  UNL     1       8.063  65.888 -36.897  1.00  0.00     0.010 C 
BRANCH  23  25
HETATM   25  C3  UNL     1       6.219  64.681 -35.689  1.00  0.00     0.039 C 
BRANCH  25  26
HETATM   26  C4  UNL     1       6.743  63.675 -34.646  1.00  0.00     0.150 C 
BRANCH  26  27
HETATM   27  O1  UNL     1       7.521  64.429 -33.705  1.00  0.00    -0.393 OA
HETATM   28  H8  UNL     1       7.249  64.159 -32.799  1.00  0.00     0.210 HD
ENDBRANCH  26  27
BRANCH  26  29
HETATM   29  C5  UNL     1       5.632  62.838 -33.947  1.00  0.00     0.180 C 
BRANCH  29  30
HETATM   30  O2  UNL     1       5.061  61.928 -34.902  1.00  0.00    -0.390 OA
HETATM   31  H10 UNL     1       4.446  62.457 -35.447  1.00  0.00     0.210 HD
ENDBRANCH  29  30
BRANCH  29  32
HETATM   32  C6  UNL     1       4.475  63.688 -33.340  1.00  0.00     0.079 C 
HETATM   33  C7  UNL     1       3.796  62.939 -32.187  1.00  0.00     0.048 C 
HETATM   34  C8  UNL     1       4.948  65.062 -32.859  1.00  0.00     0.048 C 
BRANCH  32  35
HETATM   35  O3  UNL     1       3.487  63.867 -34.371  1.00  0.00    -0.388 OA
HETATM   36  H17 UNL     1       2.781  64.443 -34.013  1.00  0.00     0.210 HD
ENDBRANCH  32  35
ENDBRANCH  29  32
ENDBRANCH  26  29
ENDBRANCH  25  26
ENDBRANCH  23  25
ENDBRANCH   1  23
BRANCH   7  37
HETATM   37  O4  UNL     1       4.515  71.581 -38.452  1.00  0.00    -0.395 OA
HETATM   38  H28 UNL     1       5.200  71.426 -39.124  1.00  0.00     0.210 HD
ENDBRANCH   7  37
BRANCH  15  39
HETATM   39  C24 UNL     1       0.292  71.581 -41.751  1.00  0.00     0.181 C 
BRANCH  39  40
HETATM   40  O6  UNL     1      -1.133  71.570 -41.722  1.00  0.00    -0.400 OA
HETATM   41  H41 UNL     1      -1.413  71.019 -40.963  1.00  0.00     0.209 HD
ENDBRANCH  39  40
ENDBRANCH  15  39
TORSDOF 11
ENDMDL
MODEL 4
REMARK minimizedAffinity -8.80202198
REMARK CNNscore 0.459845692
REMARK CNNaffinity 6.43736076
REMARK  11 active torsions:
REMARK  status: ('A' for Active; 'I' for Inactive)
REMARK    1  A    between atoms: C2_2  and  C3_3 
REMARK    2  A    between atoms: C2_2  and  C9_12 
REMARK    3  A    between atoms: C3_3  and  C4_4 
REMARK    4  A    between atoms: C4_4  and  O1_5 
REMARK    5  A    between atoms: C4_4  and  C5_6 
REMARK    6  A    between atoms: C5_6  and  O2_7 
REMARK    7  A    between atoms: C5_6  and  C6_8 
REMARK    8  A    between atoms: C6_8  and  O3_11 
REMARK    9  A    between atoms: C15_18  and  O4_19 
REMARK   10  A    between atoms: C22_27  and  C24_29 
REMARK   11  A    between atoms: C24_29  and  O6_30 
ROOT
HETATM    1  C9  UNL     1      -3.824  49.445 -24.591  1.00  0.00    -0.002 C 
HETATM    2  C10 UNL     1      -5.159  48.876 -24.033  1.00  0.00     0.006 C 
HETATM    3  C11 UNL     1      -5.095  48.952 -22.499  1.00  0.00     0.011 C 
HETATM    4  C12 UNL     1      -3.887  49.856 -22.187  1.00  0.00    -0.030 C 
HETATM    5  C13 UNL     1      -4.399  51.325 -22.283  1.00  0.00     0.016 C 
HETATM    6  C14 UNL     1      -3.221  49.608 -20.799  1.00  0.00     0.032 C 
HETATM    7  C15 UNL     1      -4.027  50.091 -19.575  1.00  0.00     0.124 C 
HETATM    8  C16 UNL     1      -3.304  49.711 -18.279  1.00  0.00     0.038 C 
HETATM    9  C17 UNL     1      -2.010  50.519 -18.126  1.00  0.00     0.015 C 
HETATM   10  C18 UNL     1      -1.121  50.491 -19.376  1.00  0.00    -0.026 A 
HETATM   11  C19 UNL     1       0.012  51.519 -19.319  1.00  0.00     0.018 C 
HETATM   12  C20 UNL     1       0.273  52.064 -17.923  1.00  0.00     0.080 C 
HETATM   13  C21 UNL     1       0.137  50.978 -16.884  1.00  0.00     0.137 C 
HETATM   14  O5  UNL     1       1.015  50.804 -16.037  1.00  0.00    -0.297 OA
HETATM   15  C22 UNL     1      -1.182  50.196 -16.836  1.00  0.00     0.042 C 
HETATM   16  C23 UNL     1      -0.847  48.702 -16.685  1.00  0.00     0.026 C 
HETATM   17  C25 UNL     1      -0.783  49.185 -20.059  1.00  0.00     0.021 A 
HETATM   18  C26 UNL     1      -1.755  50.123 -20.750  1.00  0.00    -0.025 A 
HETATM   19  C27 UNL     1      -1.246  50.888 -21.974  1.00  0.00     0.011 C 
HETATM   20  C28 UNL     1      -1.719  50.408 -23.356  1.00  0.00     0.011 C 
HETATM   21  C29 UNL     1      -2.895  49.425 -23.332  1.00  0.00    -0.032 C 
HETATM   22  C30 UNL     1      -2.319  47.987 -23.153  1.00  0.00     0.016 C 
ENDROOT
BRANCH   1  23
HETATM   23  C2  UNL     1      -3.382  48.718 -25.897  1.00  0.00    -0.011 C 
HETATM   24  C1  UNL     1      -1.913  48.995 -26.241  1.00  0.00     0.010 C 
BRANCH  23  25
HETATM   25  C3  UNL     1      -4.270  49.145 -27.099  1.00  0.00     0.039 C 
BRANCH  25  26
HETATM   26  C4  UNL     1      -5.104  47.998 -27.702  1.00  0.00     0.150 C 
BRANCH  26  27
HETATM   27  O1  UNL     1      -6.420  48.113 -27.142  1.00  0.00    -0.393 OA
HETATM   28  H8  UNL     1      -7.072  48.034 -27.876  1.00  0.00     0.210 HD
ENDBRANCH  26  27
BRANCH  26  29
HETATM   29  C5  UNL     1      -5.132  47.973 -29.258  1.00  0.00     0.180 C 
BRANCH  29  30
HETATM   30  O2  UNL     1      -4.786  49.277 -29.753  1.00  0.00    -0.390 OA
HETATM   31  H10 UNL     1      -5.590  49.826 -29.657  1.00  0.00     0.210 HD
ENDBRANCH  29  30
BRANCH  29  32
HETATM   32  C6  UNL     1      -6.509  47.574 -29.869  1.00  0.00     0.079 C 
HETATM   33  C7  UNL     1      -6.419  47.475 -31.396  1.00  0.00     0.048 C 
HETATM   34  C8  UNL     1      -7.047  46.261 -29.295  1.00  0.00     0.048 C 
BRANCH  32  35
HETATM   35  O3  UNL     1      -7.436  48.633 -29.565  1.00  0.00    -0.388 OA
HETATM   36  H17 UNL     1      -8.316  48.366 -29.901  1.00  0.00     0.210 HD
ENDBRANCH  32  35
ENDBRANCH  29  32
ENDBRANCH  26  29
ENDBRANCH  25  26
ENDBRANCH  23  25
ENDBRANCH   1  23
BRANCH   7  37
HETATM   37  O4  UNL     1      -5.322  49.494 -19.543  1.00  0.00    -0.395 OA
HETATM   38  H28 UNL     1      -5.209  48.529 -19.514  1.00  0.00     0.210 HD
ENDBRANCH   7  37
BRANCH  15  39
HETATM   39  C24 UNL     1      -1.926  50.711 -15.580  1.00  0.00     0.181 C 
BRANCH  39  40
HETATM   40  O6  UNL     1      -3.096  51.459 -15.898  1.00  0.00    -0.400 OA
HETATM   41  H41 UNL     1      -3.608  50.950 -16.560  1.00  0.00     0.209 HD
ENDBRANCH  39  40
ENDBRANCH  15  39
TORSDOF 11
ENDMDL
MODEL 5
REMARK minimizedAffinity -9.23792362
REMARK CNNscore 0.459223807
REMARK CNNaffinity 6.83443975
REMARK  11 active torsions:
REMARK  status: ('A' for Active; 'I' for Inactive)
REMARK    1  A    between atoms: C2_2  and  C3_3 
REMARK    2  A    between atoms: C2_2  and  C9_12 
REMARK    3  A    between atoms: C3_3  and  C4_4 
REMARK    4  A    between atoms: C4_4  and  O1_5 
REMARK    5  A    between atoms: C4_4  and  C5_6 
REMARK    6  A    between atoms: C5_6  and  O2_7 
REMARK    7  A    between atoms: C5_6  and  C6_8 
REMARK    8  A    between atoms: C6_8  and  O3_11 
REMARK    9  A    between atoms: C15_18  and  O4_19 
REMARK   10  A    between atoms: C22_27  and  C24_29 
REMARK   11  A    between atoms: C24_29  and  O6_30 
ROOT
HETATM    1  C9  UNL     1      -0.113  51.244 -21.559  1.00  0.00    -0.002 C 
HETATM    2  C10 UNL     1       0.020  51.848 -20.133  1.00  0.00     0.006 C 
HETATM    3  C11 UNL     1      -1.116  51.271 -19.273  1.00  0.00     0.011 C 
HETATM    4  C12 UNL     1      -1.691  50.099 -20.093  1.00  0.00    -0.030 C 
HETATM    5  C13 UNL     1      -0.782  48.867 -19.800  1.00  0.00     0.016 C 
HETATM    6  C14 UNL     1      -3.181  49.753 -19.790  1.00  0.00     0.032 C 
HETATM    7  C15 UNL     1      -3.445  49.066 -18.434  1.00  0.00     0.124 C 
HETATM    8  C16 UNL     1      -4.949  48.861 -18.226  1.00  0.00     0.038 C 
HETATM    9  C17 UNL     1      -5.491  47.814 -19.206  1.00  0.00     0.015 C 
HETATM   10  C18 UNL     1      -5.086  48.072 -20.662  1.00  0.00    -0.026 A 
HETATM   11  C19 UNL     1      -5.384  46.882 -21.579  1.00  0.00     0.018 C 
HETATM   12  C20 UNL     1      -6.354  45.876 -20.978  1.00  0.00     0.080 C 
HETATM   13  C21 UNL     1      -7.447  46.574 -20.206  1.00  0.00     0.137 C 
HETATM   14  O5  UNL     1      -8.632  46.293 -20.398  1.00  0.00    -0.297 OA
HETATM   15  C22 UNL     1      -7.029  47.537 -19.088  1.00  0.00     0.042 C 
HETATM   16  C23 UNL     1      -7.887  48.809 -19.205  1.00  0.00     0.026 C 
HETATM   17  C25 UNL     1      -5.261  49.437 -21.287  1.00  0.00     0.021 A 
HETATM   18  C26 UNL     1      -3.854  48.978 -20.957  1.00  0.00    -0.025 A 
HETATM   19  C27 UNL     1      -2.956  48.566 -22.127  1.00  0.00     0.011 C 
HETATM   20  C28 UNL     1      -1.851  49.548 -22.552  1.00  0.00     0.011 C 
HETATM   21  C29 UNL     1      -1.571  50.677 -21.554  1.00  0.00    -0.032 C 
HETATM   22  C30 UNL     1      -2.565  51.841 -21.851  1.00  0.00     0.016 C 
ENDROOT
BRANCH   1  23
HETATM   23  C2  UNL     1       0.327  52.254 -22.662  1.00  0.00    -0.011 C 
HETATM   24  C1  UNL     1       0.998  53.500 -22.069  1.00  0.00     0.010 C 
BRANCH  23  25
HETATM   25  C3  UNL     1      -0.887  52.700 -23.525  1.00  0.00     0.039 C 
BRANCH  25  26
HETATM   26  C4  UNL     1      -0.781  52.301 -25.010  1.00  0.00     0.150 C 
BRANCH  26  27
HETATM   27  O1  UNL     1      -1.914  52.882 -25.671  1.00  0.00    -0.393 OA
HETATM   28  H8  UNL     1      -1.595  53.325 -26.490  1.00  0.00     0.210 HD
ENDBRANCH  26  27
BRANCH  26  29
HETATM   29  C5  UNL     1       0.561  52.706 -25.688  1.00  0.00     0.180 C 
BRANCH  29  30
HETATM   30  O2  UNL     1       0.396  53.982 -26.328  1.00  0.00    -0.390 OA
HETATM   31  H10 UNL     1      -0.079  53.807 -27.165  1.00  0.00     0.210 HD
ENDBRANCH  29  30
BRANCH  29  32
HETATM   32  C6  UNL     1       1.071  51.692 -26.757  1.00  0.00     0.079 C 
HETATM   33  C7  UNL     1       0.839  52.231 -28.173  1.00  0.00     0.048 C 
HETATM   34  C8  UNL     1       2.548  51.339 -26.571  1.00  0.00     0.048 C 
BRANCH  32  35
HETATM   35  O3  UNL     1       0.283  50.495 -26.623  1.00  0.00    -0.388 OA
HETATM   36  H17 UNL     1       0.631  49.835 -27.256  1.00  0.00     0.210 HD
ENDBRANCH  32  35
ENDBRANCH  29  32
ENDBRANCH  26  29
ENDBRANCH  25  26
ENDBRANCH  23  25
ENDBRANCH   1  23
BRANCH   7  37
HETATM   37  O4  UNL     1      -2.959  49.858 -17.352  1.00  0.00    -0.395 OA
HETATM   38  H28 UNL     1      -3.404  50.721 -17.386  1.00  0.00     0.210 HD
ENDBRANCH   7  37
BRANCH  15  39
HETATM   39  C24 UNL     1      -7.339  46.798 -17.764  1.00  0.00     0.181 C 
BRANCH  39  40
HETATM   40  O6  UNL     1      -7.835  47.665 -16.748  1.00  0.00    -0.400 OA
HETATM   41  H41 UNL     1      -8.540  48.218 -17.143  1.00  0.00     0.209 HD
ENDBRANCH  39  40
ENDBRANCH  15  39
TORSDOF 11
ENDMDL
MODEL 6
REMARK minimizedAffinity -8.83386612
REMARK CNNscore 0.451257944
REMARK CNNaffinity 6.76326609
REMARK  11 active torsions:
REMARK  status: ('A' for Active; 'I' for Inactive)
REMARK    1  A    between atoms: C2_2  and  C3_3 
REMARK    2  A    between atoms: C2_2  and  C9_12 
REMARK    3  A    between atoms: C3_3  and  C4_4 
REMARK    4  A    between atoms: C4_4  and  O1_5 
REMARK    5  A    between atoms: C4_4  and  C5_6 
REMARK    6  A    between atoms: C5_6  and  O2_7 
REMARK    7  A    between atoms: C5_6  and  C6_8 
REMARK    8  A    between atoms: C6_8  and  O3_11 
REMARK    9  A    between atoms: C15_18  and  O4_19 
REMARK   10  A    between atoms: C22_27  and  C24_29 
REMARK   11  A    between atoms: C24_29  and  O6_30 
ROOT
HETATM    1  C9  UNL     1      -1.421  50.217 -22.484  1.00  0.00    -0.002 C 
HETATM    2  C10 UNL     1      -0.688  49.997 -21.131  1.00  0.00     0.006 C 
HETATM    3  C11 UNL     1      -1.717  49.464 -20.122  1.00  0.00     0.011 C 
HETATM    4  C12 UNL     1      -2.943  49.063 -20.966  1.00  0.00    -0.030 C 
HETATM    5  C13 UNL     1      -2.659  47.628 -21.504  1.00  0.00     0.016 C 
HETATM    6  C14 UNL     1      -4.304  49.093 -20.204  1.00  0.00     0.032 C 
HETATM    7  C15 UNL     1      -4.517  47.964 -19.174  1.00  0.00     0.124 C 
HETATM    8  C16 UNL     1      -5.848  48.160 -18.441  1.00  0.00     0.038 C 
HETATM    9  C17 UNL     1      -7.028  47.928 -19.392  1.00  0.00     0.015 C 
HETATM   10  C18 UNL     1      -6.913  48.706 -20.709  1.00  0.00    -0.026 A 
HETATM   11  C19 UNL     1      -7.934  48.251 -21.756  1.00  0.00     0.018 C 
HETATM   12  C20 UNL     1      -9.080  47.436 -21.177  1.00  0.00     0.080 C 
HETATM   13  C21 UNL     1      -9.510  47.982 -19.838  1.00  0.00     0.137 C 
HETATM   14  O5  UNL     1     -10.699  48.206 -19.601  1.00  0.00    -0.297 OA
HETATM   15  C22 UNL     1      -8.442  48.117 -18.745  1.00  0.00     0.042 C 
HETATM   16  C23 UNL     1      -8.623  49.486 -18.065  1.00  0.00     0.026 C 
HETATM   17  C25 UNL     1      -6.589  50.182 -20.712  1.00  0.00     0.021 A 
HETATM   18  C26 UNL     1      -5.515  49.214 -21.170  1.00  0.00    -0.025 A 
HETATM   19  C27 UNL     1      -5.217  49.153 -22.671  1.00  0.00     0.011 C 
HETATM   20  C28 UNL     1      -3.924  49.823 -23.164  1.00  0.00     0.011 C 
HETATM   21  C29 UNL     1      -2.927  50.195 -22.061  1.00  0.00    -0.032 C 
HETATM   22  C30 UNL     1      -3.317  51.602 -21.513  1.00  0.00     0.016 C 
ENDROOT
BRANCH   1  23
HETATM   23  C2  UNL     1      -0.848  51.437 -23.265  1.00  0.00    -0.011 C 
HETATM   24  C1  UNL     1      -0.042  52.376 -22.358  1.00  0.00     0.010 C 
BRANCH  23  25
HETATM   25  C3  UNL     1      -1.987  52.249 -23.944  1.00  0.00     0.039 C 
BRANCH  25  26
HETATM   26  C4  UNL     1      -1.939  52.229 -25.484  1.00  0.00     0.150 C 
BRANCH  26  27
HETATM   27  O1  UNL     1      -3.147  52.858 -25.938  1.00  0.00    -0.393 OA
HETATM   28  H8  UNL     1      -2.907  53.509 -26.637  1.00  0.00     0.210 HD
ENDBRANCH  26  27
BRANCH  26  29
HETATM   29  C5  UNL     1      -0.670  52.893 -26.095  1.00  0.00     0.180 C 
BRANCH  29  30
HETATM   30  O2  UNL     1      -1.074  53.845 -27.093  1.00  0.00    -0.390 OA
HETATM   31  H10 UNL     1      -1.296  53.324 -27.891  1.00  0.00     0.210 HD
ENDBRANCH  29  30
BRANCH  29  32
HETATM   32  C6  UNL     1       0.322  51.890 -26.757  1.00  0.00     0.079 C 
HETATM   33  C7  UNL     1       1.682  51.922 -26.049  1.00  0.00     0.048 C 
HETATM   34  C8  UNL     1      -0.219  50.458 -26.779  1.00  0.00     0.048 C 
BRANCH  32  35
HETATM   35  O3  UNL     1       0.538  52.330 -28.111  1.00  0.00    -0.388 OA
HETATM   36  H17 UNL     1       1.120  51.677 -28.549  1.00  0.00     0.210 HD
ENDBRANCH  32  35
ENDBRANCH  29  32
ENDBRANCH  26  29
ENDBRANCH  25  26
ENDBRANCH  23  25
ENDBRANCH   1  23
BRANCH   7  37
HETATM   37  O4  UNL     1      -3.478  47.954 -18.197  1.00  0.00    -0.395 OA
HETATM   38  H28 UNL     1      -3.472  48.820 -17.754  1.00  0.00     0.210 HD
ENDBRANCH   7  37
BRANCH  15  39
HETATM   39  C24 UNL     1      -8.727  46.975 -17.740  1.00  0.00     0.181 C 
BRANCH  39  40
HETATM   40  O6  UNL     1      -8.616  47.390 -16.382  1.00  0.00    -0.400 OA
HETATM   41  H41 UNL     1      -9.114  48.228 -16.282  1.00  0.00     0.209 HD
ENDBRANCH  39  40
ENDBRANCH  15  39
TORSDOF 11
ENDMDL
MODEL 7
REMARK minimizedAffinity -7.82533312
REMARK CNNscore 0.447640419
REMARK CNNaffinity 5.67184782
REMARK  11 active torsions:
REMARK  status: ('A' for Active; 'I' for Inactive)
REMARK    1  A    between atoms: C2_2  and  C3_3 
REMARK    2  A    between atoms: C2_2  and  C9_12 
REMARK    3  A    between atoms: C3_3  and  C4_4 
REMARK    4  A    between atoms: C4_4  and  O1_5 
REMARK    5  A    between atoms: C4_4  and  C5_6 
REMARK    6  A    between atoms: C5_6  and  O2_7 
REMARK    7  A    between atoms: C5_6  and  C6_8 
REMARK    8  A    between atoms: C6_8  and  O3_11 
REMARK    9  A    between atoms: C15_18  and  O4_19 
REMARK   10  A    between atoms: C22_27  and  C24_29 
REMARK   11  A    between atoms: C24_29  and  O6_30 
ROOT
HETATM    1  C9  UNL     1       4.238  66.001 -36.946  1.00  0.00    -0.002 C 
HETATM    2  C10 UNL     1       3.201  65.715 -35.825  1.00  0.00     0.006 C 
HETATM    3  C11 UNL     1       1.953  66.563 -36.114  1.00  0.00     0.011 C 
HETATM    4  C12 UNL     1       2.134  67.073 -37.557  1.00  0.00    -0.030 C 
HETATM    5  C13 UNL     1       1.633  65.933 -38.495  1.00  0.00     0.016 C 
HETATM    6  C14 UNL     1       1.389  68.404 -37.882  1.00  0.00     0.032 C 
HETATM    7  C15 UNL     1      -0.146  68.298 -38.005  1.00  0.00     0.124 C 
HETATM    8  C16 UNL     1      -0.756  69.684 -38.239  1.00  0.00     0.038 C 
HETATM    9  C17 UNL     1      -0.378  70.213 -39.627  1.00  0.00     0.015 C 
HETATM   10  C18 UNL     1       1.124  70.127 -39.925  1.00  0.00    -0.026 A 
HETATM   11  C19 UNL     1       1.450  70.384 -41.399  1.00  0.00     0.018 C 
HETATM   12  C20 UNL     1       0.318  71.047 -42.169  1.00  0.00     0.080 C 
HETATM   13  C21 UNL     1      -0.379  72.083 -41.320  1.00  0.00     0.137 C 
HETATM   14  O5  UNL     1      -0.583  73.218 -41.753  1.00  0.00    -0.297 OA
HETATM   15  C22 UNL     1      -0.942  71.635 -39.965  1.00  0.00     0.042 C 
HETATM   16  C23 UNL     1      -0.573  72.701 -38.918  1.00  0.00     0.026 C 
HETATM   17  C25 UNL     1       2.143  70.639 -38.933  1.00  0.00     0.021 A 
HETATM   18  C26 UNL     1       2.005  69.139 -39.105  1.00  0.00    -0.025 A 
HETATM   19  C27 UNL     1       3.119  68.412 -39.864  1.00  0.00     0.011 C 
HETATM   20  C28 UNL     1       4.115  67.583 -39.036  1.00  0.00     0.011 C 
HETATM   21  C29 UNL     1       3.689  67.319 -37.587  1.00  0.00    -0.032 C 
HETATM   22  C30 UNL     1       4.149  68.531 -36.721  1.00  0.00     0.016 C 
ENDROOT
BRANCH   1  23
HETATM   23  C2  UNL     1       5.702  65.945 -36.415  1.00  0.00    -0.011 C 
HETATM   24  C1  UNL     1       6.623  66.924 -37.155  1.00  0.00     0.010 C 
BRANCH  23  25
HETATM   25  C3  UNL     1       6.287  64.510 -36.543  1.00  0.00     0.039 C 
BRANCH  25  26
HETATM   26  C4  UNL     1       5.750  63.517 -35.493  1.00  0.00     0.150 C 
BRANCH  26  27
HETATM   27  O1  UNL     1       5.437  62.308 -36.198  1.00  0.00    -0.393 OA
HETATM   28  H8  UNL     1       5.818  61.554 -35.692  1.00  0.00     0.210 HD
ENDBRANCH  26  27
BRANCH  26  29
HETATM   29  C5  UNL     1       6.715  63.265 -34.298  1.00  0.00     0.180 C 
BRANCH  29  30
HETATM   30  O2  UNL     1       7.671  64.337 -34.233  1.00  0.00    -0.390 OA
HETATM   31  H10 UNL     1       8.334  64.150 -34.926  1.00  0.00     0.210 HD
ENDBRANCH  29  30
BRANCH  29  32
HETATM   32  C6  UNL     1       7.501  61.921 -34.381  1.00  0.00     0.079 C 
HETATM   33  C7  UNL     1       6.559  60.759 -34.717  1.00  0.00     0.048 C 
HETATM   34  C8  UNL     1       8.644  61.974 -35.398  1.00  0.00     0.048 C 
BRANCH  32  35
HETATM   35  O3  UNL     1       8.048  61.662 -33.075  1.00  0.00    -0.388 OA
HETATM   36  H17 UNL     1       8.585  60.847 -33.132  1.00  0.00     0.210 HD
ENDBRANCH  32  35
ENDBRANCH  29  32
ENDBRANCH  26  29
ENDBRANCH  25  26
ENDBRANCH  23  25
ENDBRANCH   1  23
BRANCH   7  37
HETATM   37  O4  UNL     1      -0.722  67.763 -36.815  1.00  0.00    -0.395 OA
HETATM   38  H28 UNL     1      -0.481  68.345 -36.074  1.00  0.00     0.210 HD
ENDBRANCH   7  37
BRANCH  15  39
HETATM   39  C24 UNL     1      -2.477  71.572 -40.152  1.00  0.00     0.181 C 
BRANCH  39  40
HETATM   40  O6  UNL     1      -2.899  70.422 -40.881  1.00  0.00    -0.400 OA
HETATM   41  H41 UNL     1      -2.448  69.641 -40.499  1.00  0.00     0.209 HD
ENDBRANCH  39  40
ENDBRANCH  15  39
TORSDOF 11
ENDMDL
MODEL 8
REMARK minimizedAffinity -7.30851603
REMARK CNNscore 0.44289881
REMARK CNNaffinity 5.87978172
REMARK  11 active torsions:
REMARK  status: ('A' for Active; 'I' for Inactive)
REMARK    1  A    between atoms: C2_2  and  C3_3 
REMARK    2  A    between atoms: C2_2  and  C9_12 
REMARK    3  A    between atoms: C3_3  and  C4_4 
REMARK    4  A    between atoms: C4_4  and  O1_5 
REMARK    5  A    between atoms: C4_4  and  C5_6 
REMARK    6  A    between atoms: C5_6  and  O2_7 
REMARK    7  A    between atoms: C5_6  and  C6_8 
REMARK    8  A    between atoms: C6_8  and  O3_11 
REMARK    9  A    between atoms: C15_18  and  O4_19 
REMARK   10  A    between atoms: C22_27  and  C24_29 
REMARK   11  A    between atoms: C24_29  and  O6_30 
ROOT
HETATM    1  C9  UNL     1      -9.520  47.298 -29.740  1.00  0.00    -0.002 C 
HETATM    2  C10 UNL     1      -8.963  48.266 -28.660  1.00  0.00     0.006 C 
HETATM    3  C11 UNL     1      -9.822  48.102 -27.396  1.00  0.00     0.011 C 
HETATM    4  C12 UNL     1     -10.647  46.821 -27.629  1.00  0.00    -0.030 C 
HETATM    5  C13 UNL     1      -9.734  45.626 -27.220  1.00  0.00     0.016 C 
HETATM    6  C14 UNL     1     -11.997  46.758 -26.852  1.00  0.00     0.032 C 
HETATM    7  C15 UNL     1     -11.882  46.527 -25.331  1.00  0.00     0.124 C 
HETATM    8  C16 UNL     1     -13.268  46.572 -24.680  1.00  0.00     0.038 C 
HETATM    9  C17 UNL     1     -14.105  45.360 -25.107  1.00  0.00     0.015 C 
HETATM   10  C18 UNL     1     -14.127  45.137 -26.624  1.00  0.00    -0.026 A 
HETATM   11  C19 UNL     1     -14.716  43.778 -27.015  1.00  0.00     0.018 C 
HETATM   12  C20 UNL     1     -15.505  43.112 -25.898  1.00  0.00     0.080 C 
HETATM   13  C21 UNL     1     -16.306  44.128 -25.121  1.00  0.00     0.137 C 
HETATM   14  O5  UNL     1     -17.504  43.947 -24.896  1.00  0.00    -0.297 OA
HETATM   15  C22 UNL     1     -15.552  45.315 -24.508  1.00  0.00     0.042 C 
HETATM   16  C23 UNL     1     -16.365  46.592 -24.782  1.00  0.00     0.026 C 
HETATM   17  C25 UNL     1     -14.430  46.275 -27.572  1.00  0.00     0.021 A 
HETATM   18  C26 UNL     1     -13.003  45.766 -27.500  1.00  0.00    -0.025 A 
HETATM   19  C27 UNL     1     -12.494  44.931 -28.678  1.00  0.00     0.011 C 
HETATM   20  C28 UNL     1     -11.526  45.609 -29.662  1.00  0.00     0.011 C 
HETATM   21  C29 UNL     1     -10.933  46.936 -29.174  1.00  0.00    -0.032 C 
HETATM   22  C30 UNL     1     -11.932  48.075 -29.543  1.00  0.00     0.016 C 
ENDROOT
BRANCH   1  23
HETATM   23  C2  UNL     1      -9.384  47.888 -31.176  1.00  0.00    -0.011 C 
HETATM   24  C1  UNL     1      -9.884  46.912 -32.250  1.00  0.00     0.010 C 
BRANCH  23  25
HETATM   25  C3  UNL     1      -7.907  48.263 -31.486  1.00  0.00     0.039 C 
BRANCH  25  26
HETATM   26  C4  UNL     1      -6.877  47.248 -30.953  1.00  0.00     0.150 C 
BRANCH  26  27
HETATM   27  O1  UNL     1      -7.154  46.002 -31.609  1.00  0.00    -0.393 OA
HETATM   28  H8  UNL     1      -6.302  45.635 -31.938  1.00  0.00     0.210 HD
ENDBRANCH  26  27
BRANCH  26  29
HETATM   29  C5  UNL     1      -5.394  47.685 -31.133  1.00  0.00     0.180 C 
BRANCH  29  30
HETATM   30  O2  UNL     1      -5.271  49.076 -30.792  1.00  0.00    -0.390 OA
HETATM   31  H10 UNL     1      -5.607  49.575 -31.563  1.00  0.00     0.210 HD
ENDBRANCH  29  30
BRANCH  29  32
HETATM   32  C6  UNL     1      -4.838  47.491 -32.576  1.00  0.00     0.079 C 
HETATM   33  C7  UNL     1      -4.202  46.104 -32.732  1.00  0.00     0.048 C 
HETATM   34  C8  UNL     1      -5.910  47.695 -33.649  1.00  0.00     0.048 C 
BRANCH  32  35
HETATM   35  O3  UNL     1      -3.793  48.462 -32.768  1.00  0.00    -0.388 OA
HETATM   36  H17 UNL     1      -3.473  48.380 -33.689  1.00  0.00     0.210 HD
ENDBRANCH  32  35
ENDBRANCH  29  32
ENDBRANCH  26  29
ENDBRANCH  25  26
ENDBRANCH  23  25
ENDBRANCH   1  23
BRANCH   7  37
HETATM   37  O4  UNL     1     -11.079  47.533 -24.716  1.00  0.00    -0.395 OA
HETATM   38  H28 UNL     1     -11.486  48.396 -24.897  1.00  0.00     0.210 HD
ENDBRANCH   7  37
BRANCH  15  39
HETATM   39  C24 UNL     1     -15.492  45.030 -22.988  1.00  0.00     0.181 C 
BRANCH  39  40
HETATM   40  O6  UNL     1     -15.831  46.167 -22.197  1.00  0.00    -0.400 OA
HETATM   41  H41 UNL     1     -16.654  46.552 -22.563  1.00  0.00     0.209 HD
ENDBRANCH  39  40
ENDBRANCH  15  39
TORSDOF 11
ENDMDL
MODEL 9
REMARK minimizedAffinity -9.1352129
REMARK CNNscore 0.43009901
REMARK CNNaffinity 6.47681761
REMARK  11 active torsions:
REMARK  status: ('A' for Active; 'I' for Inactive)
REMARK    1  A    between atoms: C2_2  and  C3_3 
REMARK    2  A    between atoms: C2_2  and  C9_12 
REMARK    3  A    between atoms: C3_3  and  C4_4 
REMARK    4  A    between atoms: C4_4  and  O1_5 
REMARK    5  A    between atoms: C4_4  and  C5_6 
REMARK    6  A    between atoms: C5_6  and  O2_7 
REMARK    7  A    between atoms: C5_6  and  C6_8 
REMARK    8  A    between atoms: C6_8  and  O3_11 
REMARK    9  A    between atoms: C15_18  and  O4_19 
REMARK   10  A    between atoms: C22_27  and  C24_29 
REMARK   11  A    between atoms: C24_29  and  O6_30 
ROOT
HETATM    1  C9  UNL     1      -1.575  50.983 -22.665  1.00  0.00    -0.002 C 
HETATM    2  C10 UNL     1      -1.067  52.447 -22.778  1.00  0.00     0.006 C 
HETATM    3  C11 UNL     1      -0.431  52.827 -21.432  1.00  0.00     0.011 C 
HETATM    4  C12 UNL     1      -0.272  51.498 -20.668  1.00  0.00    -0.030 C 
HETATM    5  C13 UNL     1       1.058  50.857 -21.168  1.00  0.00     0.016 C 
HETATM    6  C14 UNL     1      -0.255  51.630 -19.114  1.00  0.00     0.032 C 
HETATM    7  C15 UNL     1       1.024  52.246 -18.510  1.00  0.00     0.124 C 
HETATM    8  C16 UNL     1       0.875  52.397 -16.993  1.00  0.00     0.038 C 
HETATM    9  C17 UNL     1       0.852  51.023 -16.313  1.00  0.00     0.015 C 
HETATM   10  C18 UNL     1      -0.141  50.044 -16.950  1.00  0.00    -0.026 A 
HETATM   11  C19 UNL     1       0.047  48.606 -16.458  1.00  0.00     0.018 C 
HETATM   12  C20 UNL     1       0.875  48.500 -15.186  1.00  0.00     0.080 C 
HETATM   13  C21 UNL     1       0.552  49.626 -14.235  1.00  0.00     0.137 C 
HETATM   14  O5  UNL     1       0.295  49.397 -13.051  1.00  0.00    -0.297 OA
HETATM   15  C22 UNL     1       0.688  51.063 -14.756  1.00  0.00     0.042 C 
HETATM   16  C23 UNL     1      -0.545  51.858 -14.293  1.00  0.00     0.026 C 
HETATM   17  C25 UNL     1      -1.569  50.456 -17.227  1.00  0.00     0.021 A 
HETATM   18  C26 UNL     1      -0.630  50.298 -18.407  1.00  0.00    -0.025 A 
HETATM   19  C27 UNL     1      -0.819  49.067 -19.298  1.00  0.00     0.011 C 
HETATM   20  C28 UNL     1      -1.480  49.281 -20.670  1.00  0.00     0.011 C 
HETATM   21  C29 UNL     1      -1.579  50.743 -21.119  1.00  0.00    -0.032 C 
HETATM   22  C30 UNL     1      -2.887  51.344 -20.519  1.00  0.00     0.016 C 
ENDROOT
BRANCH   1  23
HETATM   23  C2  UNL     1      -2.875  50.751 -23.493  1.00  0.00    -0.011 C 
HETATM   24  C1  UNL     1      -2.871  49.392 -24.206  1.00  0.00     0.010 C 
BRANCH  23  25
HETATM   25  C3  UNL     1      -3.069  51.874 -24.551  1.00  0.00     0.039 C 
BRANCH  25  26
HETATM   26  C4  UNL     1      -2.458  51.550 -25.928  1.00  0.00     0.150 C 
BRANCH  26  27
HETATM   27  O1  UNL     1      -3.555  51.238 -26.798  1.00  0.00    -0.393 OA
HETATM   28  H8  UNL     1      -3.427  51.734 -27.639  1.00  0.00     0.210 HD
ENDBRANCH  26  27
BRANCH  26  29
HETATM   29  C5  UNL     1      -1.553  52.675 -26.509  1.00  0.00     0.180 C 
BRANCH  29  30
HETATM   30  O2  UNL     1      -2.115  53.135 -27.750  1.00  0.00    -0.390 OA
HETATM   31  H10 UNL     1      -1.871  52.467 -28.421  1.00  0.00     0.210 HD
ENDBRANCH  29  30
BRANCH  29  32
HETATM   32  C6  UNL     1      -0.080  52.240 -26.777  1.00  0.00     0.079 C 
HETATM   33  C7  UNL     1       0.288  51.015 -25.932  1.00  0.00     0.048 C 
HETATM   34  C8  UNL     1       0.184  51.949 -28.256  1.00  0.00     0.048 C 
BRANCH  32  35
HETATM   35  O3  UNL     1       0.771  53.321 -26.354  1.00  0.00    -0.388 OA
HETATM   36  H17 UNL     1       1.694  53.076 -26.566  1.00  0.00     0.210 HD
ENDBRANCH  32  35
ENDBRANCH  29  32
ENDBRANCH  26  29
ENDBRANCH  25  26
ENDBRANCH  23  25
ENDBRANCH   1  23
BRANCH   7  37
HETATM   37  O4  UNL     1       1.279  53.540 -19.054  1.00  0.00    -0.395 OA
HETATM   38  H28 UNL     1       0.510  54.104 -18.866  1.00  0.00     0.210 HD
ENDBRANCH   7  37
BRANCH  15  39
HETATM   39  C24 UNL     1       1.970  51.625 -14.097  1.00  0.00     0.181 C 
BRANCH  39  40
HETATM   40  O6  UNL     1       1.696  52.570 -13.067  1.00  0.00    -0.400 OA
HETATM   41  H41 UNL     1       1.008  52.188 -12.484  1.00  0.00     0.209 HD
ENDBRANCH  39  40
ENDBRANCH  15  39
TORSDOF 11
ENDMDL
