MODEL 1
REMARK minimizedAffinity -7.9965148
REMARK CNNscore 0.656196415
REMARK CNNaffinity 7.05032873
REMARK  6 active torsions:
REMARK  status: ('A' for Active; 'I' for Inactive)
REMARK    1  A    between atoms: C2_2  and  C30_32 
REMARK    2  A    between atoms: C3_3  and  C4_4 
REMARK    3  A    between atoms: C4_4  and  C5_5 
REMARK    4  A    between atoms: C5_5  and  C6_6 
REMARK    5  A    between atoms: C6_6  and  C8_8 
REMARK    6  A    between atoms: C30_32  and  O4_34 
ROOT
HETATM    1  C8  UNL     1      -1.575  52.367 -10.559  1.00  0.00    -0.002 C 
HETATM    2  C9  UNL     1      -0.991  50.927 -10.488  1.00  0.00     0.007 C 
HETATM    3  C10 UNL     1       0.541  51.066 -10.375  1.00  0.00     0.015 C 
HETATM    4  C11 UNL     1       0.839  52.520 -10.786  1.00  0.00    -0.005 C 
HETATM    5  C12 UNL     1       0.858  52.565 -12.347  1.00  0.00     0.021 C 
HETATM    6  C13 UNL     1       2.142  53.185 -10.366  1.00  0.00    -0.000 C 
HETATM    7  C14 UNL     1       2.212  54.530 -10.164  1.00  0.00    -0.060 C 
HETATM    8  C15 UNL     1       0.967  55.408 -10.275  1.00  0.00     0.036 C 
HETATM    9  C16 UNL     1      -0.372  54.710 -10.599  1.00  0.00     0.015 C 
HETATM   10  C17 UNL     1      -0.382  53.257 -10.102  1.00  0.00    -0.028 C 
HETATM   11  C18 UNL     1      -0.291  53.272  -8.546  1.00  0.00     0.016 C 
HETATM   12  C19 UNL     1       3.563  55.222  -9.859  1.00  0.00    -0.014 C 
HETATM   13  C20 UNL     1       4.221  55.449 -11.245  1.00  0.00     0.020 C 
HETATM   14  C21 UNL     1       3.478  56.618  -9.168  1.00  0.00     0.021 C 
HETATM   15  C22 UNL     1       3.566  56.546  -7.652  1.00  0.00     0.080 C 
HETATM   16  C23 UNL     1       4.928  56.010  -7.259  1.00  0.00     0.135 C 
HETATM   17  O1  UNL     1       5.542  56.503  -6.312  1.00  0.00    -0.297 OA
HETATM   18  C24 UNL     1       5.493  54.832  -8.077  1.00  0.00     0.018 C 
HETATM   19  C25 UNL     1       6.674  55.348  -8.908  1.00  0.00     0.023 C 
HETATM   20  C26 UNL     1       6.028  53.791  -7.071  1.00  0.00     0.023 C 
HETATM   21  C27 UNL     1       4.324  54.224  -8.916  1.00  0.00     0.020 C 
HETATM   22  C28 UNL     1       4.640  52.928  -9.665  1.00  0.00     0.090 C 
HETATM   23  C29 UNL     1       3.387  52.344 -10.291  1.00  0.00     0.157 C 
HETATM   24  O2  UNL     1       3.408  51.202 -10.747  1.00  0.00    -0.293 OA
ENDROOT
BRANCH   1  25
HETATM   25  C6  UNL     1      -3.012  52.490  -9.969  1.00  0.00    -0.014 C 
HETATM   26  C7  UNL     1      -3.992  53.411 -10.706  1.00  0.00     0.010 C 
BRANCH  25  27
HETATM   27  C5  UNL     1      -3.647  51.101  -9.729  1.00  0.00     0.008 C 
BRANCH  27  28
HETATM   28  C4  UNL     1      -4.893  50.849 -10.585  1.00  0.00     0.028 C 
BRANCH  28  29
HETATM   29  C3  UNL     1      -5.232  49.383 -10.632  1.00  0.00    -0.013 C 
HETATM   30  C2  UNL     1      -6.449  48.805 -10.657  1.00  0.00     0.008 C 
HETATM   31  C1  UNL     1      -6.613  47.318 -10.796  1.00  0.00     0.055 C 
BRANCH  30  32
HETATM   32  C30 UNL     1      -7.735  49.535 -10.573  1.00  0.00     0.171 C 
HETATM   33  O3  UNL     1      -8.684  49.376 -11.322  1.00  0.00    -0.646 OA
BRANCH  32  34
HETATM   34  O4  UNL     1      -7.820  50.350  -9.510  1.00  0.00    -0.773 OA
HETATM   35  H44 UNL     1      -8.725  50.715  -9.574  1.00  0.00     0.167 HD
ENDBRANCH  32  34
ENDBRANCH  30  32
ENDBRANCH  28  29
ENDBRANCH  27  28
ENDBRANCH  25  27
ENDBRANCH   1  25
TORSDOF 6
ENDMDL
MODEL 2
REMARK minimizedAffinity -7.62963533
REMARK CNNscore 0.524234533
REMARK CNNaffinity 6.56924295
REMARK  6 active torsions:
REMARK  status: ('A' for Active; 'I' for Inactive)
REMARK    1  A    between atoms: C2_2  and  C30_32 
REMARK    2  A    between atoms: C3_3  and  C4_4 
REMARK    3  A    between atoms: C4_4  and  C5_5 
REMARK    4  A    between atoms: C5_5  and  C6_6 
REMARK    5  A    between atoms: C6_6  and  C8_8 
REMARK    6  A    between atoms: C30_32  and  O4_34 
ROOT
HETATM    1  C8  UNL     1      -1.383  52.475 -10.329  1.00  0.00    -0.002 C 
HETATM    2  C9  UNL     1      -0.823  51.035 -10.160  1.00  0.00     0.007 C 
HETATM    3  C10 UNL     1       0.706  51.159  -9.998  1.00  0.00     0.015 C 
HETATM    4  C11 UNL     1       1.040  52.586 -10.473  1.00  0.00    -0.005 C 
HETATM    5  C12 UNL     1       1.117  52.547 -12.033  1.00  0.00     0.021 C 
HETATM    6  C13 UNL     1       2.336  53.255 -10.041  1.00  0.00    -0.000 C 
HETATM    7  C14 UNL     1       2.419  54.608  -9.909  1.00  0.00    -0.060 C 
HETATM    8  C15 UNL     1       1.192  55.495 -10.112  1.00  0.00     0.036 C 
HETATM    9  C16 UNL     1      -0.144  54.797 -10.449  1.00  0.00     0.015 C 
HETATM   10  C17 UNL     1      -0.195  53.374  -9.876  1.00  0.00    -0.028 C 
HETATM   11  C18 UNL     1      -0.160  53.471  -8.321  1.00  0.00     0.016 C 
HETATM   12  C19 UNL     1       3.768  55.298  -9.590  1.00  0.00    -0.014 C 
HETATM   13  C20 UNL     1       4.479  55.442 -10.960  1.00  0.00     0.020 C 
HETATM   14  C21 UNL     1       3.678  56.730  -8.978  1.00  0.00     0.021 C 
HETATM   15  C22 UNL     1       3.709  56.738  -7.458  1.00  0.00     0.080 C 
HETATM   16  C23 UNL     1       5.048  56.206  -6.986  1.00  0.00     0.135 C 
HETATM   17  O1  UNL     1       5.633  56.742  -6.044  1.00  0.00    -0.297 OA
HETATM   18  C24 UNL     1       5.625  54.979  -7.719  1.00  0.00     0.018 C 
HETATM   19  C25 UNL     1       6.843  55.435  -8.531  1.00  0.00     0.023 C 
HETATM   20  C26 UNL     1       6.107  53.986  -6.640  1.00  0.00     0.023 C 
HETATM   21  C27 UNL     1       4.479  54.342  -8.567  1.00  0.00     0.020 C 
HETATM   22  C28 UNL     1       4.802  53.003  -9.234  1.00  0.00     0.090 C 
HETATM   23  C29 UNL     1       3.565  52.403  -9.875  1.00  0.00     0.157 C 
HETATM   24  O2  UNL     1       3.585  51.238 -10.269  1.00  0.00    -0.293 OA
ENDROOT
BRANCH   1  25
HETATM   25  C6  UNL     1      -2.839  52.649  -9.801  1.00  0.00    -0.014 C 
HETATM   26  C7  UNL     1      -3.675  53.776 -10.419  1.00  0.00     0.010 C 
BRANCH  25  27
HETATM   27  C5  UNL     1      -3.616  51.313  -9.835  1.00  0.00     0.008 C 
BRANCH  27  28
HETATM   28  C4  UNL     1      -4.388  51.094 -11.142  1.00  0.00     0.028 C 
BRANCH  28  29
HETATM   29  C3  UNL     1      -3.702  50.075 -12.012  1.00  0.00    -0.013 C 
HETATM   30  C2  UNL     1      -3.079  50.266 -13.192  1.00  0.00     0.008 C 
HETATM   31  C1  UNL     1      -2.360  49.147 -13.893  1.00  0.00     0.055 C 
BRANCH  30  32
HETATM   32  C30 UNL     1      -3.008  51.557 -13.913  1.00  0.00     0.171 C 
HETATM   33  O3  UNL     1      -3.694  51.864 -14.874  1.00  0.00    -0.646 OA
BRANCH  32  34
HETATM   34  O4  UNL     1      -2.168  52.440 -13.351  1.00  0.00    -0.773 OA
HETATM   35  H44 UNL     1      -2.268  53.237 -13.908  1.00  0.00     0.167 HD
ENDBRANCH  32  34
ENDBRANCH  30  32
ENDBRANCH  28  29
ENDBRANCH  27  28
ENDBRANCH  25  27
ENDBRANCH   1  25
TORSDOF 6
ENDMDL
MODEL 3
REMARK minimizedAffinity -7.09202957
REMARK CNNscore 0.40480566
REMARK CNNaffinity 6.344275
REMARK  6 active torsions:
REMARK  status: ('A' for Active; 'I' for Inactive)
REMARK    1  A    between atoms: C2_2  and  C30_32 
REMARK    2  A    between atoms: C3_3  and  C4_4 
REMARK    3  A    between atoms: C4_4  and  C5_5 
REMARK    4  A    between atoms: C5_5  and  C6_6 
REMARK    5  A    between atoms: C6_6  and  C8_8 
REMARK    6  A    between atoms: C30_32  and  O4_34 
ROOT
HETATM    1  C8  UNL     1       4.491  54.834  -8.387  1.00  0.00    -0.002 C 
HETATM    2  C9  UNL     1       3.935  56.279  -8.530  1.00  0.00     0.007 C 
HETATM    3  C10 UNL     1       4.664  57.150  -7.488  1.00  0.00     0.015 C 
HETATM    4  C11 UNL     1       5.308  56.147  -6.512  1.00  0.00    -0.005 C 
HETATM    5  C12 UNL     1       4.200  55.707  -5.504  1.00  0.00     0.021 C 
HETATM    6  C13 UNL     1       6.478  56.570  -5.637  1.00  0.00    -0.000 C 
HETATM    7  C14 UNL     1       7.422  55.671  -5.243  1.00  0.00    -0.060 C 
HETATM    8  C15 UNL     1       7.383  54.224  -5.731  1.00  0.00     0.036 C 
HETATM    9  C16 UNL     1       6.250  53.829  -6.702  1.00  0.00     0.015 C 
HETATM   10  C17 UNL     1       5.777  55.032  -7.532  1.00  0.00    -0.028 C 
HETATM   11  C18 UNL     1       6.957  55.494  -8.439  1.00  0.00     0.016 C 
HETATM   12  C19 UNL     1       8.543  56.073  -4.253  1.00  0.00    -0.014 C 
HETATM   13  C20 UNL     1       7.904  55.938  -2.846  1.00  0.00     0.020 C 
HETATM   14  C21 UNL     1       9.816  55.171  -4.255  1.00  0.00     0.021 C 
HETATM   15  C22 UNL     1      10.916  55.685  -5.172  1.00  0.00     0.080 C 
HETATM   16  C23 UNL     1      11.401  57.027  -4.659  1.00  0.00     0.135 C 
HETATM   17  O1  UNL     1      12.604  57.293  -4.655  1.00  0.00    -0.297 OA
HETATM   18  C24 UNL     1      10.338  58.028  -4.167  1.00  0.00     0.018 C 
HETATM   19  C25 UNL     1      10.464  58.151  -2.644  1.00  0.00     0.023 C 
HETATM   20  C26 UNL     1      10.675  59.399  -4.792  1.00  0.00     0.023 C 
HETATM   21  C27 UNL     1       8.943  57.534  -4.667  1.00  0.00     0.020 C 
HETATM   22  C28 UNL     1       7.770  58.488  -4.433  1.00  0.00     0.090 C 
HETATM   23  C29 UNL     1       6.513  57.980  -5.115  1.00  0.00     0.157 C 
HETATM   24  O2  UNL     1       5.533  58.717  -5.215  1.00  0.00    -0.293 OA
ENDROOT
BRANCH   1  25
HETATM   25  C6  UNL     1       4.460  54.015  -9.712  1.00  0.00    -0.014 C 
HETATM   26  C7  UNL     1       4.237  52.502  -9.592  1.00  0.00     0.010 C 
BRANCH  25  27
HETATM   27  C5  UNL     1       3.477  54.630 -10.735  1.00  0.00     0.008 C 
BRANCH  27  28
HETATM   28  C4  UNL     1       2.158  53.857 -10.849  1.00  0.00     0.028 C 
BRANCH  28  29
HETATM   29  C3  UNL     1       0.979  54.753 -10.582  1.00  0.00    -0.013 C 
HETATM   30  C2  UNL     1      -0.331  54.441 -10.602  1.00  0.00     0.008 C 
HETATM   31  C1  UNL     1      -1.385  55.441 -10.219  1.00  0.00     0.055 C 
BRANCH  30  32
HETATM   32  C30 UNL     1      -0.880  53.116 -10.971  1.00  0.00     0.171 C 
HETATM   33  O3  UNL     1      -1.076  52.196 -10.195  1.00  0.00    -0.646 OA
BRANCH  32  34
HETATM   34  O4  UNL     1      -1.253  53.030 -12.257  1.00  0.00    -0.773 OA
HETATM   35  H44 UNL     1      -1.627  52.129 -12.327  1.00  0.00     0.167 HD
ENDBRANCH  32  34
ENDBRANCH  30  32
ENDBRANCH  28  29
ENDBRANCH  27  28
ENDBRANCH  25  27
ENDBRANCH   1  25
TORSDOF 6
ENDMDL
MODEL 4
REMARK minimizedAffinity -7.31615114
REMARK CNNscore 0.317538083
REMARK CNNaffinity 6.37327051
REMARK  6 active torsions:
REMARK  status: ('A' for Active; 'I' for Inactive)
REMARK    1  A    between atoms: C2_2  and  C30_32 
REMARK    2  A    between atoms: C3_3  and  C4_4 
REMARK    3  A    between atoms: C4_4  and  C5_5 
REMARK    4  A    between atoms: C5_5  and  C6_6 
REMARK    5  A    between atoms: C6_6  and  C8_8 
REMARK    6  A    between atoms: C30_32  and  O4_34 
ROOT
HETATM    1  C8  UNL     1      -7.773  47.618 -19.820  1.00  0.00    -0.002 C 
HETATM    2  C9  UNL     1      -7.601  48.025 -18.329  1.00  0.00     0.007 C 
HETATM    3  C10 UNL     1      -6.128  48.438 -18.139  1.00  0.00     0.015 C 
HETATM    4  C11 UNL     1      -5.398  47.888 -19.379  1.00  0.00    -0.005 C 
HETATM    5  C12 UNL     1      -5.105  46.377 -19.110  1.00  0.00     0.021 C 
HETATM    6  C13 UNL     1      -4.058  48.470 -19.803  1.00  0.00    -0.000 C 
HETATM    7  C14 UNL     1      -3.677  48.479 -21.110  1.00  0.00    -0.060 C 
HETATM    8  C15 UNL     1      -4.615  47.978 -22.207  1.00  0.00     0.036 C 
HETATM    9  C16 UNL     1      -6.014  47.485 -21.778  1.00  0.00     0.015 C 
HETATM   10  C17 UNL     1      -6.485  48.179 -20.492  1.00  0.00    -0.028 C 
HETATM   11  C18 UNL     1      -6.656  49.699 -20.791  1.00  0.00     0.016 C 
HETATM   12  C19 UNL     1      -2.265  48.957 -21.527  1.00  0.00    -0.014 C 
HETATM   13  C20 UNL     1      -1.346  47.724 -21.323  1.00  0.00     0.020 C 
HETATM   14  C21 UNL     1      -2.100  49.398 -23.014  1.00  0.00     0.021 C 
HETATM   15  C22 UNL     1      -2.292  50.892 -23.224  1.00  0.00     0.080 C 
HETATM   16  C23 UNL     1      -1.201  51.640 -22.483  1.00  0.00     0.135 C 
HETATM   17  O1  UNL     1      -0.650  52.612 -23.002  1.00  0.00    -0.297 OA
HETATM   18  C24 UNL     1      -0.831  51.146 -21.071  1.00  0.00     0.018 C 
HETATM   19  C25 UNL     1       0.566  50.517 -21.135  1.00  0.00     0.023 C 
HETATM   20  C26 UNL     1      -0.762  52.386 -20.155  1.00  0.00     0.023 C 
HETATM   21  C27 UNL     1      -1.959  50.179 -20.589  1.00  0.00     0.020 C 
HETATM   22  C28 UNL     1      -1.868  49.716 -19.133  1.00  0.00     0.090 C 
HETATM   23  C29 UNL     1      -3.105  48.932 -18.735  1.00  0.00     0.157 C 
HETATM   24  O2  UNL     1      -3.304  48.666 -17.550  1.00  0.00    -0.293 OA
ENDROOT
BRANCH   1  25
HETATM   25  C6  UNL     1      -9.207  47.865 -20.377  1.00  0.00    -0.014 C 
HETATM   26  C7  UNL     1      -9.670  46.967 -21.531  1.00  0.00     0.010 C 
BRANCH  25  27
HETATM   27  C5  UNL     1     -10.259  47.881 -19.245  1.00  0.00     0.008 C 
BRANCH  27  28
HETATM   28  C4  UNL     1     -11.418  46.905 -19.480  1.00  0.00     0.028 C 
BRANCH  28  29
HETATM   29  C3  UNL     1     -12.588  47.229 -18.591  1.00  0.00    -0.013 C 
HETATM   30  C2  UNL     1     -13.683  47.959 -18.880  1.00  0.00     0.008 C 
HETATM   31  C1  UNL     1     -14.811  48.110 -17.899  1.00  0.00     0.055 C 
BRANCH  30  32
HETATM   32  C30 UNL     1     -13.915  48.666 -20.160  1.00  0.00     0.171 C 
HETATM   33  O3  UNL     1     -14.322  48.146 -21.186  1.00  0.00    -0.646 OA
BRANCH  32  34
HETATM   34  O4  UNL     1     -13.730  49.992 -20.082  1.00  0.00    -0.773 OA
HETATM   35  H44 UNL     1     -13.961  50.309 -20.978  1.00  0.00     0.167 HD
ENDBRANCH  32  34
ENDBRANCH  30  32
ENDBRANCH  28  29
ENDBRANCH  27  28
ENDBRANCH  25  27
ENDBRANCH   1  25
TORSDOF 6
ENDMDL
MODEL 5
REMARK minimizedAffinity -7.98021126
REMARK CNNscore 0.264193058
REMARK CNNaffinity 5.91493845
REMARK  6 active torsions:
REMARK  status: ('A' for Active; 'I' for Inactive)
REMARK    1  A    between atoms: C2_2  and  C30_32 
REMARK    2  A    between atoms: C3_3  and  C4_4 
REMARK    3  A    between atoms: C4_4  and  C5_5 
REMARK    4  A    between atoms: C5_5  and  C6_6 
REMARK    5  A    between atoms: C6_6  and  C8_8 
REMARK    6  A    between atoms: C30_32  and  O4_34 
ROOT
HETATM    1  C8  UNL     1      -8.546  47.694 -20.308  1.00  0.00    -0.002 C 
HETATM    2  C9  UNL     1      -8.461  48.873 -19.296  1.00  0.00     0.007 C 
HETATM    3  C10 UNL     1      -7.117  49.588 -19.547  1.00  0.00     0.015 C 
HETATM    4  C11 UNL     1      -6.292  48.598 -20.389  1.00  0.00    -0.005 C 
HETATM    5  C12 UNL     1      -5.661  47.565 -19.402  1.00  0.00     0.021 C 
HETATM    6  C13 UNL     1      -5.122  49.092 -21.227  1.00  0.00    -0.000 C 
HETATM    7  C14 UNL     1      -4.763  48.457 -22.377  1.00  0.00    -0.060 C 
HETATM    8  C15 UNL     1      -5.571  47.274 -22.908  1.00  0.00     0.036 C 
HETATM    9  C16 UNL     1      -6.818  46.845 -22.106  1.00  0.00     0.015 C 
HETATM   10  C17 UNL     1      -7.424  48.027 -21.335  1.00  0.00    -0.028 C 
HETATM   11  C18 UNL     1      -7.939  49.073 -22.370  1.00  0.00     0.016 C 
HETATM   12  C19 UNL     1      -3.499  48.883 -23.164  1.00  0.00    -0.014 C 
HETATM   13  C20 UNL     1      -2.323  48.158 -22.459  1.00  0.00     0.020 C 
HETATM   14  C21 UNL     1      -3.450  48.463 -24.665  1.00  0.00     0.021 C 
HETATM   15  C22 UNL     1      -3.977  49.533 -25.608  1.00  0.00     0.080 C 
HETATM   16  C23 UNL     1      -3.079  50.752 -25.525  1.00  0.00     0.135 C 
HETATM   17  O1  UNL     1      -2.767  51.365 -26.547  1.00  0.00    -0.297 OA
HETATM   18  C24 UNL     1      -2.596  51.187 -24.128  1.00  0.00     0.018 C 
HETATM   19  C25 UNL     1      -1.094  50.899 -24.029  1.00  0.00     0.023 C 
HETATM   20  C26 UNL     1      -2.803  52.713 -24.026  1.00  0.00     0.023 C 
HETATM   21  C27 UNL     1      -3.471  50.450 -23.064  1.00  0.00     0.020 C 
HETATM   22  C28 UNL     1      -3.266  50.883 -21.611  1.00  0.00     0.090 C 
HETATM   23  C29 UNL     1      -4.291  50.230 -20.702  1.00  0.00     0.157 C 
HETATM   24  O2  UNL     1      -4.415  50.621 -19.542  1.00  0.00    -0.293 OA
ENDROOT
BRANCH   1  25
HETATM   25  C6  UNL     1     -10.003  47.325 -20.719  1.00  0.00    -0.014 C 
HETATM   26  C7  UNL     1     -10.304  45.841 -20.960  1.00  0.00     0.010 C 
BRANCH  25  27
HETATM   27  C5  UNL     1     -11.038  47.940 -19.749  1.00  0.00     0.008 C 
BRANCH  27  28
HETATM   28  C4  UNL     1     -12.476  47.486 -20.029  1.00  0.00     0.028 C 
BRANCH  28  29
HETATM   29  C3  UNL     1     -13.471  48.507 -19.547  1.00  0.00    -0.013 C 
HETATM   30  C2  UNL     1     -14.344  48.407 -18.526  1.00  0.00     0.008 C 
HETATM   31  C1  UNL     1     -15.212  49.564 -18.115  1.00  0.00     0.055 C 
BRANCH  30  32
HETATM   32  C30 UNL     1     -14.542  47.197 -17.696  1.00  0.00     0.171 C 
HETATM   33  O3  UNL     1     -15.063  46.162 -18.076  1.00  0.00    -0.646 OA
BRANCH  32  34
HETATM   34  O4  UNL     1     -13.997  47.291 -16.474  1.00  0.00    -0.773 OA
HETATM   35  H44 UNL     1     -14.173  46.414 -16.077  1.00  0.00     0.167 HD
ENDBRANCH  32  34
ENDBRANCH  30  32
ENDBRANCH  28  29
ENDBRANCH  27  28
ENDBRANCH  25  27
ENDBRANCH   1  25
TORSDOF 6
ENDMDL
MODEL 6
REMARK minimizedAffinity -6.99711657
REMARK CNNscore 0.243623719
REMARK CNNaffinity 5.9280448
REMARK  6 active torsions:
REMARK  status: ('A' for Active; 'I' for Inactive)
REMARK    1  A    between atoms: C2_2  and  C30_32 
REMARK    2  A    between atoms: C3_3  and  C4_4 
REMARK    3  A    between atoms: C4_4  and  C5_5 
REMARK    4  A    between atoms: C5_5  and  C6_6 
REMARK    5  A    between atoms: C6_6  and  C8_8 
REMARK    6  A    between atoms: C30_32  and  O4_34 
ROOT
HETATM    1  C8  UNL     1       1.772  55.430  -9.973  1.00  0.00    -0.002 C 
HETATM    2  C9  UNL     1       2.997  55.630 -10.909  1.00  0.00     0.007 C 
HETATM    3  C10 UNL     1       4.262  55.467 -10.041  1.00  0.00     0.015 C 
HETATM    4  C11 UNL     1       3.764  55.581  -8.588  1.00  0.00    -0.005 C 
HETATM    5  C12 UNL     1       3.627  57.103  -8.265  1.00  0.00     0.021 C 
HETATM    6  C13 UNL     1       4.594  55.019  -7.445  1.00  0.00    -0.000 C 
HETATM    7  C14 UNL     1       4.005  54.558  -6.308  1.00  0.00    -0.060 C 
HETATM    8  C15 UNL     1       2.484  54.516  -6.171  1.00  0.00     0.036 C 
HETATM    9  C16 UNL     1       1.646  54.993  -7.378  1.00  0.00     0.015 C 
HETATM   10  C17 UNL     1       2.399  54.788  -8.700  1.00  0.00    -0.028 C 
HETATM   11  C18 UNL     1       2.601  53.258  -8.916  1.00  0.00     0.016 C 
HETATM   12  C19 UNL     1       4.854  54.100  -5.097  1.00  0.00    -0.014 C 
HETATM   13  C20 UNL     1       5.194  55.404  -4.329  1.00  0.00     0.020 C 
HETATM   14  C21 UNL     1       4.146  53.153  -4.080  1.00  0.00     0.021 C 
HETATM   15  C22 UNL     1       4.383  51.678  -4.364  1.00  0.00     0.080 C 
HETATM   16  C23 UNL     1       5.860  51.374  -4.202  1.00  0.00     0.135 C 
HETATM   17  O1  UNL     1       6.224  50.339  -3.644  1.00  0.00    -0.297 OA
HETATM   18  C24 UNL     1       6.864  52.396  -4.770  1.00  0.00     0.018 C 
HETATM   19  C25 UNL     1       7.559  53.090  -3.593  1.00  0.00     0.023 C 
HETATM   20  C26 UNL     1       7.927  51.603  -5.560  1.00  0.00     0.023 C 
HETATM   21  C27 UNL     1       6.086  53.357  -5.725  1.00  0.00     0.020 C 
HETATM   22  C28 UNL     1       6.939  54.338  -6.531  1.00  0.00     0.090 C 
HETATM   23  C29 UNL     1       6.094  55.087  -7.544  1.00  0.00     0.157 C 
HETATM   24  O2  UNL     1       6.641  55.757  -8.419  1.00  0.00    -0.293 OA
ENDROOT
BRANCH   1  25
HETATM   25  C6  UNL     1       0.518  54.851 -10.695  1.00  0.00    -0.014 C 
HETATM   26  C7  UNL     1       0.699  53.533 -11.458  1.00  0.00     0.010 C 
BRANCH  25  27
HETATM   27  C5  UNL     1      -0.695  54.766  -9.741  1.00  0.00     0.008 C 
BRANCH  27  28
HETATM   28  C4  UNL     1      -2.042  54.897 -10.461  1.00  0.00     0.028 C 
BRANCH  28  29
HETATM   29  C3  UNL     1      -2.931  53.718 -10.169  1.00  0.00    -0.013 C 
HETATM   30  C2  UNL     1      -3.494  52.857 -11.039  1.00  0.00     0.008 C 
HETATM   31  C1  UNL     1      -4.287  51.669 -10.570  1.00  0.00     0.055 C 
BRANCH  30  32
HETATM   32  C30 UNL     1      -3.392  52.955 -12.513  1.00  0.00     0.171 C 
HETATM   33  O3  UNL     1      -2.669  52.268 -13.214  1.00  0.00    -0.646 OA
BRANCH  32  34
HETATM   34  O4  UNL     1      -4.259  53.824 -13.053  1.00  0.00    -0.773 OA
HETATM   35  H44 UNL     1      -4.098  53.741 -14.014  1.00  0.00     0.167 HD
ENDBRANCH  32  34
ENDBRANCH  30  32
ENDBRANCH  28  29
ENDBRANCH  27  28
ENDBRANCH  25  27
ENDBRANCH   1  25
TORSDOF 6
ENDMDL
MODEL 7
REMARK minimizedAffinity -7.19616032
REMARK CNNscore 0.240569994
REMARK CNNaffinity 5.76586533
REMARK  6 active torsions:
REMARK  status: ('A' for Active; 'I' for Inactive)
REMARK    1  A    between atoms: C2_2  and  C30_32 
REMARK    2  A    between atoms: C3_3  and  C4_4 
REMARK    3  A    between atoms: C4_4  and  C5_5 
REMARK    4  A    between atoms: C5_5  and  C6_6 
REMARK    5  A    between atoms: C6_6  and  C8_8 
REMARK    6  A    between atoms: C30_32  and  O4_34 
ROOT
HETATM    1  C8  UNL     1     -15.327  45.639 -25.451  1.00  0.00    -0.002 C 
HETATM    2  C9  UNL     1     -15.313  44.086 -25.531  1.00  0.00     0.007 C 
HETATM    3  C10 UNL     1     -14.229  43.695 -26.557  1.00  0.00     0.015 C 
HETATM    4  C11 UNL     1     -13.930  44.992 -27.332  1.00  0.00    -0.005 C 
HETATM    5  C12 UNL     1     -15.037  45.144 -28.423  1.00  0.00     0.021 C 
HETATM    6  C13 UNL     1     -12.621  45.150 -28.089  1.00  0.00    -0.000 C 
HETATM    7  C14 UNL     1     -12.052  46.375 -28.264  1.00  0.00    -0.060 C 
HETATM    8  C15 UNL     1     -12.668  47.625 -27.637  1.00  0.00     0.036 C 
HETATM    9  C16 UNL     1     -13.941  47.441 -26.783  1.00  0.00     0.015 C 
HETATM   10  C17 UNL     1     -13.995  46.043 -26.150  1.00  0.00    -0.028 C 
HETATM   11  C18 UNL     1     -12.806  45.911 -25.152  1.00  0.00     0.016 C 
HETATM   12  C19 UNL     1     -10.786  46.550 -29.138  1.00  0.00    -0.014 C 
HETATM   13  C20 UNL     1     -11.314  46.647 -30.594  1.00  0.00     0.020 C 
HETATM   14  C21 UNL     1      -9.946  47.839 -28.880  1.00  0.00     0.021 C 
HETATM   15  C22 UNL     1      -8.812  47.630 -27.889  1.00  0.00     0.080 C 
HETATM   16  C23 UNL     1      -7.822  46.641 -28.471  1.00  0.00     0.135 C 
HETATM   17  O1  UNL     1      -6.610  46.829 -28.350  1.00  0.00    -0.297 OA
HETATM   18  C24 UNL     1      -8.391  45.406 -29.197  1.00  0.00     0.018 C 
HETATM   19  C25 UNL     1      -8.106  45.557 -30.696  1.00  0.00     0.023 C 
HETATM   20  C26 UNL     1      -7.618  44.174 -28.680  1.00  0.00     0.023 C 
HETATM   21  C27 UNL     1      -9.905  45.288 -28.831  1.00  0.00     0.020 C 
HETATM   22  C28 UNL     1     -10.614  44.020 -29.312  1.00  0.00     0.090 C 
HETATM   23  C29 UNL     1     -12.020  43.938 -28.747  1.00  0.00     0.157 C 
HETATM   24  O2  UNL     1     -12.659  42.891 -28.850  1.00  0.00    -0.293 OA
ENDROOT
BRANCH   1  25
HETATM   25  C6  UNL     1     -15.768  46.192 -24.063  1.00  0.00    -0.014 C 
HETATM   26  C7  UNL     1     -15.001  47.404 -23.520  1.00  0.00     0.010 C 
BRANCH  25  27
HETATM   27  C5  UNL     1     -17.292  46.446 -24.013  1.00  0.00     0.008 C 
BRANCH  27  28
HETATM   28  C4  UNL     1     -17.945  45.961 -22.713  1.00  0.00     0.028 C 
BRANCH  28  29
HETATM   29  C3  UNL     1     -17.168  46.423 -21.510  1.00  0.00    -0.013 C 
HETATM   30  C2  UNL     1     -17.626  46.703 -20.274  1.00  0.00     0.008 C 
HETATM   31  C1  UNL     1     -16.695  47.068 -19.152  1.00  0.00     0.055 C 
BRANCH  30  32
HETATM   32  C30 UNL     1     -19.051  46.669 -19.872  1.00  0.00     0.171 C 
HETATM   33  O3  UNL     1     -19.729  45.661 -19.772  1.00  0.00    -0.646 OA
BRANCH  32  34
HETATM   34  O4  UNL     1     -19.536  47.869 -19.517  1.00  0.00    -0.773 OA
HETATM   35  H44 UNL     1     -20.455  47.672 -19.243  1.00  0.00     0.167 HD
ENDBRANCH  32  34
ENDBRANCH  30  32
ENDBRANCH  28  29
ENDBRANCH  27  28
ENDBRANCH  25  27
ENDBRANCH   1  25
TORSDOF 6
ENDMDL
MODEL 8
REMARK minimizedAffinity -9.24402428
REMARK CNNscore 0.22106272
REMARK CNNaffinity 6.20798254
REMARK  6 active torsions:
REMARK  status: ('A' for Active; 'I' for Inactive)
REMARK    1  A    between atoms: C2_2  and  C30_32 
REMARK    2  A    between atoms: C3_3  and  C4_4 
REMARK    3  A    between atoms: C4_4  and  C5_5 
REMARK    4  A    between atoms: C5_5  and  C6_6 
REMARK    5  A    between atoms: C6_6  and  C8_8 
REMARK    6  A    between atoms: C30_32  and  O4_34 
ROOT
HETATM    1  C8  UNL     1      -1.693  51.405 -22.913  1.00  0.00    -0.002 C 
HETATM    2  C9  UNL     1      -2.780  52.244 -23.643  1.00  0.00     0.007 C 
HETATM    3  C10 UNL     1      -4.124  51.514 -23.444  1.00  0.00     0.015 C 
HETATM    4  C11 UNL     1      -3.742  50.099 -22.971  1.00  0.00    -0.005 C 
HETATM    5  C12 UNL     1      -3.376  49.270 -24.243  1.00  0.00     0.021 C 
HETATM    6  C13 UNL     1      -4.752  49.238 -22.229  1.00  0.00    -0.000 C 
HETATM    7  C14 UNL     1      -4.351  48.314 -21.313  1.00  0.00    -0.060 C 
HETATM    8  C15 UNL     1      -2.877  48.165 -20.939  1.00  0.00     0.036 C 
HETATM    9  C16 UNL     1      -1.869  49.115 -21.622  1.00  0.00     0.015 C 
HETATM   10  C17 UNL     1      -2.529  50.445 -22.016  1.00  0.00    -0.028 C 
HETATM   11  C18 UNL     1      -2.970  51.177 -20.713  1.00  0.00     0.016 C 
HETATM   12  C19 UNL     1      -5.368  47.353 -20.649  1.00  0.00    -0.014 C 
HETATM   13  C20 UNL     1      -5.545  46.193 -21.663  1.00  0.00     0.020 C 
HETATM   14  C21 UNL     1      -4.923  46.707 -19.301  1.00  0.00     0.021 C 
HETATM   15  C22 UNL     1      -5.384  47.486 -18.079  1.00  0.00     0.080 C 
HETATM   16  C23 UNL     1      -6.899  47.472 -18.025  1.00  0.00     0.135 C 
HETATM   17  O1  UNL     1      -7.482  47.312 -16.952  1.00  0.00    -0.297 OA
HETATM   18  C24 UNL     1      -7.661  47.678 -19.349  1.00  0.00     0.018 C 
HETATM   19  C25 UNL     1      -8.326  46.351 -19.731  1.00  0.00     0.023 C 
HETATM   20  C26 UNL     1      -8.771  48.717 -19.082  1.00  0.00     0.023 C 
HETATM   21  C27 UNL     1      -6.649  48.227 -20.406  1.00  0.00     0.020 C 
HETATM   22  C28 UNL     1      -7.250  48.667 -21.743  1.00  0.00     0.090 C 
HETATM   23  C29 UNL     1      -6.203  49.342 -22.611  1.00  0.00     0.157 C 
HETATM   24  O2  UNL     1      -6.550  49.947 -23.625  1.00  0.00    -0.293 OA
ENDROOT
BRANCH   1  25
HETATM   25  C6  UNL     1      -0.499  52.253 -22.380  1.00  0.00    -0.014 C 
HETATM   26  C7  UNL     1       0.046  51.895 -20.992  1.00  0.00     0.010 C 
BRANCH  25  27
HETATM   27  C5  UNL     1       0.650  52.324 -23.413  1.00  0.00     0.008 C 
BRANCH  27  28
HETATM   28  C4  UNL     1       0.307  53.173 -24.643  1.00  0.00     0.028 C 
BRANCH  28  29
HETATM   29  C3  UNL     1       0.519  52.396 -25.914  1.00  0.00    -0.013 C 
HETATM   30  C2  UNL     1       0.147  52.723 -27.167  1.00  0.00     0.008 C 
HETATM   31  C1  UNL     1       0.520  51.871 -28.348  1.00  0.00     0.055 C 
BRANCH  30  32
HETATM   32  C30 UNL     1      -0.630  53.929 -27.532  1.00  0.00     0.171 C 
HETATM   33  O3  UNL     1      -0.225  55.077 -27.452  1.00  0.00    -0.646 OA
BRANCH  32  34
HETATM   34  O4  UNL     1      -1.829  53.653 -28.069  1.00  0.00    -0.773 OA
HETATM   35  H44 UNL     1      -2.189  54.535 -28.290  1.00  0.00     0.167 HD
ENDBRANCH  32  34
ENDBRANCH  30  32
ENDBRANCH  28  29
ENDBRANCH  27  28
ENDBRANCH  25  27
ENDBRANCH   1  25
TORSDOF 6
ENDMDL
MODEL 9
REMARK minimizedAffinity -7.10043907
REMARK CNNscore 0.212108448
REMARK CNNaffinity 5.75254393
REMARK  6 active torsions:
REMARK  status: ('A' for Active; 'I' for Inactive)
REMARK    1  A    between atoms: C2_2  and  C30_32 
REMARK    2  A    between atoms: C3_3  and  C4_4 
REMARK    3  A    between atoms: C4_4  and  C5_5 
REMARK    4  A    between atoms: C5_5  and  C6_6 
REMARK    5  A    between atoms: C6_6  and  C8_8 
REMARK    6  A    between atoms: C30_32  and  O4_34 
ROOT
HETATM    1  C8  UNL     1      -5.183  46.868 -19.520  1.00  0.00    -0.002 C 
HETATM    2  C9  UNL     1      -5.723  45.908 -20.618  1.00  0.00     0.007 C 
HETATM    3  C10 UNL     1      -5.576  46.638 -21.969  1.00  0.00     0.015 C 
HETATM    4  C11 UNL     1      -5.346  48.116 -21.599  1.00  0.00    -0.005 C 
HETATM    5  C12 UNL     1      -6.747  48.742 -21.309  1.00  0.00     0.021 C 
HETATM    6  C13 UNL     1      -4.700  49.065 -22.596  1.00  0.00    -0.000 C 
HETATM    7  C14 UNL     1      -3.957  50.127 -22.176  1.00  0.00    -0.060 C 
HETATM    8  C15 UNL     1      -3.681  50.356 -20.691  1.00  0.00     0.036 C 
HETATM    9  C16 UNL     1      -4.255  49.328 -19.692  1.00  0.00     0.015 C 
HETATM   10  C17 UNL     1      -4.407  47.943 -20.338  1.00  0.00    -0.028 C 
HETATM   11  C18 UNL     1      -2.987  47.415 -20.703  1.00  0.00     0.016 C 
HETATM   12  C19 UNL     1      -3.403  51.162 -23.185  1.00  0.00    -0.014 C 
HETATM   13  C20 UNL     1      -4.574  52.148 -23.433  1.00  0.00     0.020 C 
HETATM   14  C21 UNL     1      -2.193  52.017 -22.696  1.00  0.00     0.021 C 
HETATM   15  C22 UNL     1      -0.845  51.431 -23.085  1.00  0.00     0.080 C 
HETATM   16  C23 UNL     1      -0.723  51.428 -24.596  1.00  0.00     0.135 C 
HETATM   17  O1  UNL     1       0.339  51.744 -25.135  1.00  0.00    -0.297 OA
HETATM   18  C24 UNL     1      -1.962  51.007 -25.410  1.00  0.00     0.018 C 
HETATM   19  C25 UNL     1      -2.512  52.247 -26.122  1.00  0.00     0.023 C 
HETATM   20  C26 UNL     1      -1.485  50.005 -26.483  1.00  0.00     0.023 C 
HETATM   21  C27 UNL     1      -2.967  50.316 -24.434  1.00  0.00     0.020 C 
HETATM   22  C28 UNL     1      -4.190  49.665 -25.082  1.00  0.00     0.090 C 
HETATM   23  C29 UNL     1      -4.992  48.880 -24.059  1.00  0.00     0.157 C 
HETATM   24  O2  UNL     1      -5.883  48.119 -24.436  1.00  0.00    -0.293 OA
ENDROOT
BRANCH   1  25
HETATM   25  C6  UNL     1      -4.583  46.133 -18.284  1.00  0.00    -0.014 C 
HETATM   26  C7  UNL     1      -4.953  46.679 -16.900  1.00  0.00     0.010 C 
BRANCH  25  27
HETATM   27  C5  UNL     1      -4.837  44.609 -18.353  1.00  0.00     0.008 C 
BRANCH  27  28
HETATM   28  C4  UNL     1      -3.548  43.782 -18.428  1.00  0.00     0.028 C 
BRANCH  28  29
HETATM   29  C3  UNL     1      -3.338  42.989 -17.167  1.00  0.00    -0.013 C 
HETATM   30  C2  UNL     1      -2.677  41.826 -17.009  1.00  0.00     0.008 C 
HETATM   31  C1  UNL     1      -2.480  41.208 -15.653  1.00  0.00     0.055 C 
BRANCH  30  32
HETATM   32  C30 UNL     1      -2.065  41.045 -18.108  1.00  0.00     0.171 C 
HETATM   33  O3  UNL     1      -0.909  41.148 -18.485  1.00  0.00    -0.646 OA
BRANCH  32  34
HETATM   34  O4  UNL     1      -2.879  40.108 -18.619  1.00  0.00    -0.773 OA
HETATM   35  H44 UNL     1      -2.323  39.661 -19.288  1.00  0.00     0.167 HD
ENDBRANCH  32  34
ENDBRANCH  30  32
ENDBRANCH  28  29
ENDBRANCH  27  28
ENDBRANCH  25  27
ENDBRANCH   1  25
TORSDOF 6
ENDMDL
