MODEL 1
REMARK minimizedAffinity -7.04703617
REMARK CNNscore 0.720461845
REMARK CNNaffinity 6.69891214
REMARK  7 active torsions:
REMARK  status: ('A' for Active; 'I' for Inactive)
REMARK    1  A    between atoms: C2_2  and  C4_4 
REMARK    2  A    between atoms: C7_7  and  O1_9 
REMARK    3  A    between atoms: C9_10  and  C10_11 
REMARK    4  A    between atoms: C11_12  and  C12_13 
REMARK    5  A    between atoms: C14_15  and  C15_16 
REMARK    6  A    between atoms: C24_26  and  C26_28 
REMARK    7  A    between atoms: C29_32  and  O4_34 
ROOT
HETATM    1  C15 UNL     1     -16.199   0.222  28.391  1.00  0.00     0.149 C 
HETATM    2  C16 UNL     1     -15.884   0.497  26.921  1.00  0.00     0.054 C 
HETATM    3  C17 UNL     1     -15.254   1.905  26.907  1.00  0.00     0.050 C 
HETATM    4  C18 UNL     1     -14.482   1.796  28.248  1.00  0.00     0.272 C 
HETATM    5  O2  UNL     1     -13.261   1.067  28.163  1.00  0.00    -0.360 OA
HETATM    6  C19 UNL     1     -12.142   1.856  27.813  1.00  0.00     0.171 C 
HETATM    7  C20 UNL     1     -11.906   1.834  26.313  1.00  0.00     0.027 C 
HETATM    8  C21 UNL     1     -13.083   1.323  25.486  1.00  0.00     0.012 C 
HETATM    9  C22 UNL     1     -14.402   2.121  25.596  1.00  0.00     0.032 C 
HETATM   10  C23 UNL     1     -14.194   3.604  25.220  1.00  0.00    -0.066 C 
HETATM   11  C24 UNL     1     -13.960   4.058  23.962  1.00  0.00    -0.021 C 
HETATM   12  C25 UNL     1     -13.741   5.501  23.603  1.00  0.00     0.052 C 
HETATM   13  C27 UNL     1     -14.323   4.550  26.388  1.00  0.00     0.038 C 
HETATM   14  C28 UNL     1     -15.688   4.446  27.063  1.00  0.00     0.042 C 
HETATM   15  C29 UNL     1     -16.353   3.050  26.975  1.00  0.00     0.067 C 
HETATM   16  C30 UNL     1     -17.344   3.022  25.788  1.00  0.00     0.047 C 
HETATM   17  O5  UNL     1     -15.312   1.048  29.150  1.00  0.00    -0.351 OA
ENDROOT
BRANCH   1  18
HETATM   18  C14 UNL     1     -16.054  -1.234  28.761  1.00  0.00     0.011 C 
HETATM   19  C12 UNL     1     -16.586  -1.894  29.814  1.00  0.00    -0.064 C 
HETATM   20  C13 UNL     1     -17.529  -1.251  30.799  1.00  0.00     0.048 C 
BRANCH  19  21
HETATM   21  C11 UNL     1     -16.260  -3.312  29.990  1.00  0.00     0.003 C 
HETATM   22  C10 UNL     1     -15.288  -3.986  29.354  1.00  0.00    -0.018 C 
BRANCH  22  23
HETATM   23  C9  UNL     1     -14.904  -5.457  29.479  1.00  0.00     0.050 C 
HETATM   24  C4  UNL     1     -13.548  -5.882  28.840  1.00  0.00     0.024 C 
HETATM   25  C5  UNL     1     -13.941  -6.197  27.388  1.00  0.00     0.013 C 
HETATM   26  C6  UNL     1     -15.360  -6.763  27.429  1.00  0.00     0.039 C 
HETATM   27  C7  UNL     1     -15.929  -6.432  28.820  1.00  0.00     0.062 C 
HETATM   28  C8  UNL     1     -17.375  -5.940  28.743  1.00  0.00     0.046 C 
BRANCH  24  29
HETATM   29  C2  UNL     1     -12.830  -6.995  29.610  1.00  0.00    -0.088 C 
HETATM   30  C1  UNL     1     -12.701  -8.268  29.200  1.00  0.00     0.014 C 
HETATM   31  C3  UNL     1     -12.202  -6.563  30.913  1.00  0.00     0.043 C 
ENDBRANCH  24  29
BRANCH  27  32
HETATM   32  O1  UNL     1     -15.964  -7.637  29.603  1.00  0.00    -0.390 OA
HETATM   33  H14 UNL     1     -16.518  -8.284  29.135  1.00  0.00     0.210 HD
ENDBRANCH  27  32
ENDBRANCH  22  23
ENDBRANCH  19  21
ENDBRANCH   1  18
BRANCH  15  34
HETATM   34  O4  UNL     1     -17.175   2.922  28.140  1.00  0.00    -0.389 OA
HETATM   35  H44 UNL     1     -17.814   3.655  28.157  1.00  0.00     0.210 HD
ENDBRANCH  15  34
BRANCH  11  36
HETATM   36  C26 UNL     1     -13.895   3.149  22.777  1.00  0.00     0.265 C 
HETATM   37  O3  UNL     1     -14.382   3.413  21.685  1.00  0.00    -0.302 OA
ENDBRANCH  11  36
TORSDOF 7
ENDMDL
MODEL 2
REMARK minimizedAffinity -6.96298504
REMARK CNNscore 0.410019934
REMARK CNNaffinity 5.79836226
REMARK  7 active torsions:
REMARK  status: ('A' for Active; 'I' for Inactive)
REMARK    1  A    between atoms: C2_2  and  C4_4 
REMARK    2  A    between atoms: C7_7  and  O1_9 
REMARK    3  A    between atoms: C9_10  and  C10_11 
REMARK    4  A    between atoms: C11_12  and  C12_13 
REMARK    5  A    between atoms: C14_15  and  C15_16 
REMARK    6  A    between atoms: C24_26  and  C26_28 
REMARK    7  A    between atoms: C29_32  and  O4_34 
ROOT
HETATM    1  C15 UNL     1       0.556  11.771  18.942  1.00  0.00     0.149 C 
HETATM    2  C16 UNL     1       2.074  11.946  18.917  1.00  0.00     0.054 C 
HETATM    3  C17 UNL     1       2.466  12.224  20.383  1.00  0.00     0.050 C 
HETATM    4  C18 UNL     1       1.427  11.287  21.052  1.00  0.00     0.272 C 
HETATM    5  O2  UNL     1       1.788   9.909  21.042  1.00  0.00    -0.360 OA
HETATM    6  C19 UNL     1       2.567   9.509  22.151  1.00  0.00     0.171 C 
HETATM    7  C20 UNL     1       4.050   9.589  21.835  1.00  0.00     0.027 C 
HETATM    8  C21 UNL     1       4.399  10.411  20.597  1.00  0.00     0.012 C 
HETATM    9  C22 UNL     1       3.992  11.901  20.622  1.00  0.00     0.032 C 
HETATM   10  C23 UNL     1       4.604  12.631  21.838  1.00  0.00    -0.066 C 
HETATM   11  C24 UNL     1       5.920  12.931  21.978  1.00  0.00    -0.021 C 
HETATM   12  C25 UNL     1       6.515  13.625  23.171  1.00  0.00     0.052 C 
HETATM   13  C27 UNL     1       3.587  13.042  22.874  1.00  0.00     0.038 C 
HETATM   14  C28 UNL     1       2.516  13.962  22.293  1.00  0.00     0.042 C 
HETATM   15  C29 UNL     1       2.211  13.738  20.791  1.00  0.00     0.067 C 
HETATM   16  C30 UNL     1       3.019  14.747  19.942  1.00  0.00     0.047 C 
HETATM   17  O5  UNL     1       0.222  11.371  20.274  1.00  0.00    -0.351 OA
ENDROOT
BRANCH   1  18
HETATM   18  C14 UNL     1       0.062  10.772  17.923  1.00  0.00     0.011 C 
HETATM   19  C12 UNL     1      -1.199  10.574  17.480  1.00  0.00    -0.064 C 
HETATM   20  C13 UNL     1      -2.367  11.426  17.907  1.00  0.00     0.048 C 
BRANCH  19  21
HETATM   21  C11 UNL     1      -1.441   9.500  16.512  1.00  0.00     0.003 C 
HETATM   22  C10 UNL     1      -2.628   8.936  16.233  1.00  0.00    -0.018 C 
BRANCH  22  23
HETATM   23  C9  UNL     1      -2.947   7.813  15.253  1.00  0.00     0.050 C 
HETATM   24  C4  UNL     1      -2.007   7.677  14.017  1.00  0.00     0.024 C 
HETATM   25  C5  UNL     1      -2.647   8.633  12.997  1.00  0.00     0.013 C 
HETATM   26  C6  UNL     1      -4.155   8.589  13.239  1.00  0.00     0.039 C 
HETATM   27  C7  UNL     1      -4.365   7.922  14.611  1.00  0.00     0.062 C 
HETATM   28  C8  UNL     1      -5.426   8.647  15.440  1.00  0.00     0.046 C 
BRANCH  24  29
HETATM   29  C2  UNL     1      -1.801   6.229  13.560  1.00  0.00    -0.088 C 
HETATM   30  C1  UNL     1      -1.847   5.147  14.356  1.00  0.00     0.014 C 
HETATM   31  C3  UNL     1      -1.565   6.057  12.079  1.00  0.00     0.043 C 
ENDBRANCH  24  29
BRANCH  27  32
HETATM   32  O1  UNL     1      -4.865   6.591  14.406  1.00  0.00    -0.390 OA
HETATM   33  H14 UNL     1      -5.698   6.655  13.909  1.00  0.00     0.210 HD
ENDBRANCH  27  32
ENDBRANCH  22  23
ENDBRANCH  19  21
ENDBRANCH   1  18
BRANCH  15  34
HETATM   34  O4  UNL     1       0.843  14.112  20.598  1.00  0.00    -0.389 OA
HETATM   35  H44 UNL     1       0.725  15.034  20.884  1.00  0.00     0.210 HD
ENDBRANCH  15  34
BRANCH  11  36
HETATM   36  C26 UNL     1       6.938  12.595  20.936  1.00  0.00     0.265 C 
HETATM   37  O3  UNL     1       8.139  12.503  21.157  1.00  0.00    -0.302 OA
ENDBRANCH  11  36
TORSDOF 7
ENDMDL
MODEL 3
REMARK minimizedAffinity -7.73005199
REMARK CNNscore 0.388417661
REMARK CNNaffinity 6.17885256
REMARK  7 active torsions:
REMARK  status: ('A' for Active; 'I' for Inactive)
REMARK    1  A    between atoms: C2_2  and  C4_4 
REMARK    2  A    between atoms: C7_7  and  O1_9 
REMARK    3  A    between atoms: C9_10  and  C10_11 
REMARK    4  A    between atoms: C11_12  and  C12_13 
REMARK    5  A    between atoms: C14_15  and  C15_16 
REMARK    6  A    between atoms: C24_26  and  C26_28 
REMARK    7  A    between atoms: C29_32  and  O4_34 
ROOT
HETATM    1  C15 UNL     1      -1.643   8.825  14.674  1.00  0.00     0.149 C 
HETATM    2  C16 UNL     1      -1.759  10.346  14.768  1.00  0.00     0.054 C 
HETATM    3  C17 UNL     1      -1.826  10.647  16.279  1.00  0.00     0.050 C 
HETATM    4  C18 UNL     1      -0.852   9.536  16.751  1.00  0.00     0.272 C 
HETATM    5  O2  UNL     1       0.526   9.855  16.579  1.00  0.00    -0.360 OA
HETATM    6  C19 UNL     1       1.099  10.544  17.672  1.00  0.00     0.171 C 
HETATM    7  C20 UNL     1       1.038  12.047  17.463  1.00  0.00     0.027 C 
HETATM    8  C21 UNL     1       0.075  12.504  16.371  1.00  0.00     0.012 C 
HETATM    9  C22 UNL     1      -1.414  12.142  16.569  1.00  0.00     0.032 C 
HETATM   10  C23 UNL     1      -1.953  12.694  17.907  1.00  0.00    -0.066 C 
HETATM   11  C24 UNL     1      -2.179  14.006  18.169  1.00  0.00    -0.021 C 
HETATM   12  C25 UNL     1      -2.686  14.541  19.478  1.00  0.00     0.052 C 
HETATM   13  C27 UNL     1      -2.265  11.623  18.923  1.00  0.00     0.038 C 
HETATM   14  C28 UNL     1      -3.295  10.622  18.404  1.00  0.00     0.042 C 
HETATM   15  C29 UNL     1      -3.283  10.413  16.869  1.00  0.00     0.067 C 
HETATM   16  C30 UNL     1      -4.361  11.307  16.216  1.00  0.00     0.047 C 
HETATM   17  O5  UNL     1      -1.085   8.390  15.917  1.00  0.00    -0.351 OA
ENDROOT
BRANCH   1  18
HETATM   18  C14 UNL     1      -0.808   8.370  13.502  1.00  0.00     0.011 C 
HETATM   19  C12 UNL     1      -1.056   7.371  12.627  1.00  0.00    -0.064 C 
HETATM   20  C13 UNL     1      -2.325   6.557  12.643  1.00  0.00     0.048 C 
BRANCH  19  21
HETATM   21  C11 UNL     1      -0.061   7.085  11.589  1.00  0.00     0.003 C 
HETATM   22  C10 UNL     1       0.895   7.923  11.155  1.00  0.00    -0.018 C 
BRANCH  22  23
HETATM   23  C9  UNL     1       1.948   7.695  10.077  1.00  0.00     0.050 C 
HETATM   24  C4  UNL     1       1.932   6.309   9.365  1.00  0.00     0.024 C 
HETATM   25  C5  UNL     1       2.811   5.446  10.285  1.00  0.00     0.013 C 
HETATM   26  C6  UNL     1       3.881   6.369  10.864  1.00  0.00     0.039 C 
HETATM   27  C7  UNL     1       3.416   7.811  10.596  1.00  0.00     0.062 C 
HETATM   28  C8  UNL     1       3.632   8.715  11.810  1.00  0.00     0.046 C 
BRANCH  24  29
HETATM   29  C2  UNL     1       2.341   6.372   7.890  1.00  0.00    -0.088 C 
HETATM   30  C1  UNL     1       2.984   5.402   7.218  1.00  0.00     0.014 C 
HETATM   31  C3  UNL     1       1.932   7.634   7.171  1.00  0.00     0.043 C 
ENDBRANCH  24  29
BRANCH  27  32
HETATM   32  O1  UNL     1       4.219   8.368   9.542  1.00  0.00    -0.390 OA
HETATM   33  H14 UNL     1       5.148   8.339   9.824  1.00  0.00     0.210 HD
ENDBRANCH  27  32
ENDBRANCH  22  23
ENDBRANCH  19  21
ENDBRANCH   1  18
BRANCH  15  34
HETATM   34  O4  UNL     1      -3.733   9.073  16.642  1.00  0.00    -0.389 OA
HETATM   35  H44 UNL     1      -4.614   8.965  17.042  1.00  0.00     0.210 HD
ENDBRANCH  15  34
BRANCH  11  36
HETATM   36  C26 UNL     1      -1.942  15.082  17.157  1.00  0.00     0.265 C 
HETATM   37  O3  UNL     1      -2.761  15.417  16.311  1.00  0.00    -0.302 OA
ENDBRANCH  11  36
TORSDOF 7
ENDMDL
MODEL 4
REMARK minimizedAffinity -6.45661211
REMARK CNNscore 0.370912135
REMARK CNNaffinity 6.09782219
REMARK  7 active torsions:
REMARK  status: ('A' for Active; 'I' for Inactive)
REMARK    1  A    between atoms: C2_2  and  C4_4 
REMARK    2  A    between atoms: C7_7  and  O1_9 
REMARK    3  A    between atoms: C9_10  and  C10_11 
REMARK    4  A    between atoms: C11_12  and  C12_13 
REMARK    5  A    between atoms: C14_15  and  C15_16 
REMARK    6  A    between atoms: C24_26  and  C26_28 
REMARK    7  A    between atoms: C29_32  and  O4_34 
ROOT
HETATM    1  C15 UNL     1     -13.302  13.091   0.845  1.00  0.00     0.149 C 
HETATM    2  C16 UNL     1     -12.777  12.312  -0.361  1.00  0.00     0.054 C 
HETATM    3  C17 UNL     1     -14.023  12.029  -1.224  1.00  0.00     0.050 C 
HETATM    4  C18 UNL     1     -14.767  13.363  -0.952  1.00  0.00     0.272 C 
HETATM    5  O2  UNL     1     -14.284  14.468  -1.712  1.00  0.00    -0.360 OA
HETATM    6  C19 UNL     1     -14.903  14.611  -2.975  1.00  0.00     0.171 C 
HETATM    7  C20 UNL     1     -14.105  13.907  -4.058  1.00  0.00     0.027 C 
HETATM    8  C21 UNL     1     -13.070  12.909  -3.546  1.00  0.00     0.012 C 
HETATM    9  C22 UNL     1     -13.610  11.722  -2.716  1.00  0.00     0.032 C 
HETATM   10  C23 UNL     1     -14.664  10.917  -3.507  1.00  0.00    -0.066 C 
HETATM   11  C24 UNL     1     -14.391  10.121  -4.571  1.00  0.00    -0.021 C 
HETATM   12  C25 UNL     1     -15.422   9.352  -5.350  1.00  0.00     0.052 C 
HETATM   13  C27 UNL     1     -16.063  11.048  -2.959  1.00  0.00     0.038 C 
HETATM   14  C28 UNL     1     -16.155  10.597  -1.504  1.00  0.00     0.042 C 
HETATM   15  C29 UNL     1     -14.858  10.792  -0.679  1.00  0.00     0.067 C 
HETATM   16  C30 UNL     1     -14.055   9.471  -0.657  1.00  0.00     0.047 C 
HETATM   17  O5  UNL     1     -14.521  13.708   0.420  1.00  0.00    -0.351 OA
ENDROOT
BRANCH   1  18
HETATM   18  C14 UNL     1     -12.316  14.110   1.362  1.00  0.00     0.011 C 
HETATM   19  C12 UNL     1     -11.365  14.785   0.679  1.00  0.00    -0.064 C 
HETATM   20  C13 UNL     1     -11.185  14.672  -0.814  1.00  0.00     0.048 C 
BRANCH  19  21
HETATM   21  C11 UNL     1     -10.487  15.697   1.417  1.00  0.00     0.003 C 
HETATM   22  C10 UNL     1     -10.421  15.827   2.752  1.00  0.00    -0.018 C 
BRANCH  22  23
HETATM   23  C9  UNL     1      -9.544  16.760   3.580  1.00  0.00     0.050 C 
HETATM   24  C4  UNL     1      -8.278  16.130   4.236  1.00  0.00     0.024 C 
HETATM   25  C5  UNL     1      -8.819  15.593   5.571  1.00  0.00     0.013 C 
HETATM   26  C6  UNL     1      -9.924  16.551   6.015  1.00  0.00     0.039 C 
HETATM   27  C7  UNL     1     -10.285  17.410   4.790  1.00  0.00     0.062 C 
HETATM   28  C8  UNL     1     -11.798  17.583   4.641  1.00  0.00     0.046 C 
BRANCH  24  29
HETATM   29  C2  UNL     1      -7.088  17.092   4.318  1.00  0.00    -0.088 C 
HETATM   30  C1  UNL     1      -6.364  17.343   5.422  1.00  0.00     0.014 C 
HETATM   31  C3  UNL     1      -6.718  17.757   3.014  1.00  0.00     0.043 C 
ENDBRANCH  24  29
BRANCH  27  32
HETATM   32  O1  UNL     1      -9.754  18.732   4.980  1.00  0.00    -0.390 OA
HETATM   33  H14 UNL     1     -10.136  19.096   5.797  1.00  0.00     0.210 HD
ENDBRANCH  27  32
ENDBRANCH  22  23
ENDBRANCH  19  21
ENDBRANCH   1  18
BRANCH  15  34
HETATM   34  O4  UNL     1     -15.270  10.992   0.678  1.00  0.00    -0.389 OA
HETATM   35  H44 UNL     1     -15.799  10.227   0.962  1.00  0.00     0.210 HD
ENDBRANCH  15  34
BRANCH  11  36
HETATM   36  C26 UNL     1     -13.004   9.920  -5.092  1.00  0.00     0.265 C 
HETATM   37  O3  UNL     1     -12.181   9.175  -4.577  1.00  0.00    -0.302 OA
ENDBRANCH  11  36
TORSDOF 7
ENDMDL
MODEL 5
REMARK minimizedAffinity -8.59063721
REMARK CNNscore 0.326738566
REMARK CNNaffinity 6.09085226
REMARK  7 active torsions:
REMARK  status: ('A' for Active; 'I' for Inactive)
REMARK    1  A    between atoms: C2_2  and  C4_4 
REMARK    2  A    between atoms: C7_7  and  O1_9 
REMARK    3  A    between atoms: C9_10  and  C10_11 
REMARK    4  A    between atoms: C11_12  and  C12_13 
REMARK    5  A    between atoms: C14_15  and  C15_16 
REMARK    6  A    between atoms: C24_26  and  C26_28 
REMARK    7  A    between atoms: C29_32  and  O4_34 
ROOT
HETATM    1  C15 UNL     1      -2.353   9.718  14.483  1.00  0.00     0.149 C 
HETATM    2  C16 UNL     1      -1.568   9.562  15.785  1.00  0.00     0.054 C 
HETATM    3  C17 UNL     1      -1.403  10.999  16.323  1.00  0.00     0.050 C 
HETATM    4  C18 UNL     1      -2.783  11.545  15.870  1.00  0.00     0.272 C 
HETATM    5  O2  UNL     1      -3.867  11.172  16.717  1.00  0.00    -0.360 OA
HETATM    6  C19 UNL     1      -4.090  12.063  17.791  1.00  0.00     0.171 C 
HETATM    7  C20 UNL     1      -3.356  11.609  19.040  1.00  0.00     0.027 C 
HETATM    8  C21 UNL     1      -2.268  10.565  18.801  1.00  0.00     0.012 C 
HETATM    9  C22 UNL     1      -1.105  10.982  17.873  1.00  0.00     0.032 C 
HETATM   10  C23 UNL     1      -0.404  12.257  18.391  1.00  0.00    -0.066 C 
HETATM   11  C24 UNL     1       0.384  12.314  19.495  1.00  0.00    -0.021 C 
HETATM   12  C25 UNL     1       1.050  13.560  20.005  1.00  0.00     0.052 C 
HETATM   13  C27 UNL     1      -0.627  13.468  17.519  1.00  0.00     0.038 C 
HETATM   14  C28 UNL     1      -0.147  13.243  16.088  1.00  0.00     0.042 C 
HETATM   15  C29 UNL     1      -0.220  11.774  15.601  1.00  0.00     0.067 C 
HETATM   16  C30 UNL     1       1.158  11.098  15.782  1.00  0.00     0.047 C 
HETATM   17  O5  UNL     1      -3.073  10.949  14.596  1.00  0.00    -0.351 OA
ENDROOT
BRANCH   1  18
HETATM   18  C14 UNL     1      -3.280   8.557  14.214  1.00  0.00     0.011 C 
HETATM   19  C12 UNL     1      -3.092   7.502  13.391  1.00  0.00    -0.064 C 
HETATM   20  C13 UNL     1      -1.814   7.269  12.627  1.00  0.00     0.048 C 
BRANCH  19  21
HETATM   21  C11 UNL     1      -4.169   6.516  13.259  1.00  0.00     0.003 C 
HETATM   22  C10 UNL     1      -4.966   6.076  14.246  1.00  0.00    -0.018 C 
BRANCH  22  23
HETATM   23  C9  UNL     1      -6.091   5.048  14.181  1.00  0.00     0.050 C 
HETATM   24  C4  UNL     1      -6.770   4.842  12.794  1.00  0.00     0.024 C 
HETATM   25  C5  UNL     1      -7.868   5.918  12.791  1.00  0.00     0.013 C 
HETATM   26  C6  UNL     1      -8.345   6.063  14.236  1.00  0.00     0.039 C 
HETATM   27  C7  UNL     1      -7.294   5.372  15.121  1.00  0.00     0.062 C 
HETATM   28  C8  UNL     1      -6.971   6.194  16.370  1.00  0.00     0.046 C 
BRANCH  24  29
HETATM   29  C2  UNL     1      -7.224   3.401  12.542  1.00  0.00    -0.088 C 
HETATM   30  C1  UNL     1      -8.479   2.943  12.686  1.00  0.00     0.014 C 
HETATM   31  C3  UNL     1      -6.139   2.469  12.058  1.00  0.00     0.043 C 
ENDBRANCH  24  29
BRANCH  27  32
HETATM   32  O1  UNL     1      -7.835   4.129  15.597  1.00  0.00    -0.390 OA
HETATM   33  H14 UNL     1      -8.648   4.323  16.093  1.00  0.00     0.210 HD
ENDBRANCH  27  32
ENDBRANCH  22  23
ENDBRANCH  19  21
ENDBRANCH   1  18
BRANCH  15  34
HETATM   34  O4  UNL     1      -0.416  11.830  14.183  1.00  0.00    -0.389 OA
HETATM   35  H44 UNL     1       0.314  12.335  13.785  1.00  0.00     0.210 HD
ENDBRANCH  15  34
BRANCH  11  36
HETATM   36  C26 UNL     1       0.676  11.113  20.337  1.00  0.00     0.265 C 
HETATM   37  O3  UNL     1       1.529  10.279  20.066  1.00  0.00    -0.302 OA
ENDBRANCH  11  36
TORSDOF 7
ENDMDL
MODEL 6
REMARK minimizedAffinity -7.68497324
REMARK CNNscore 0.309745461
REMARK CNNaffinity 6.1923728
REMARK  7 active torsions:
REMARK  status: ('A' for Active; 'I' for Inactive)
REMARK    1  A    between atoms: C2_2  and  C4_4 
REMARK    2  A    between atoms: C7_7  and  O1_9 
REMARK    3  A    between atoms: C9_10  and  C10_11 
REMARK    4  A    between atoms: C11_12  and  C12_13 
REMARK    5  A    between atoms: C14_15  and  C15_16 
REMARK    6  A    between atoms: C24_26  and  C26_28 
REMARK    7  A    between atoms: C29_32  and  O4_34 
ROOT
HETATM    1  C15 UNL     1      -1.990   9.466  16.628  1.00  0.00     0.149 C 
HETATM    2  C16 UNL     1      -2.556  10.270  17.798  1.00  0.00     0.054 C 
HETATM    3  C17 UNL     1      -2.129  11.727  17.521  1.00  0.00     0.050 C 
HETATM    4  C18 UNL     1      -2.269  11.690  15.977  1.00  0.00     0.272 C 
HETATM    5  O2  UNL     1      -3.608  11.816  15.506  1.00  0.00    -0.360 OA
HETATM    6  C19 UNL     1      -4.027  13.151  15.313  1.00  0.00     0.171 C 
HETATM    7  C20 UNL     1      -4.731  13.688  16.546  1.00  0.00     0.027 C 
HETATM    8  C21 UNL     1      -4.512  12.871  17.816  1.00  0.00     0.012 C 
HETATM    9  C22 UNL     1      -3.053  12.737  18.307  1.00  0.00     0.032 C 
HETATM   10  C23 UNL     1      -2.411  14.121  18.543  1.00  0.00    -0.066 C 
HETATM   11  C24 UNL     1      -2.734  14.961  19.559  1.00  0.00    -0.021 C 
HETATM   12  C25 UNL     1      -2.119  16.316  19.775  1.00  0.00     0.052 C 
HETATM   13  C27 UNL     1      -1.324  14.462  17.554  1.00  0.00     0.038 C 
HETATM   14  C28 UNL     1      -0.194  13.436  17.566  1.00  0.00     0.042 C 
HETATM   15  C29 UNL     1      -0.624  11.999  17.950  1.00  0.00     0.067 C 
HETATM   16  C30 UNL     1      -0.362  11.764  19.455  1.00  0.00     0.047 C 
HETATM   17  O5  UNL     1      -1.835  10.390  15.547  1.00  0.00    -0.351 OA
ENDROOT
BRANCH   1  18
HETATM   18  C14 UNL     1      -2.866   8.299  16.238  1.00  0.00     0.011 C 
HETATM   19  C12 UNL     1      -2.539   7.203  15.519  1.00  0.00    -0.064 C 
HETATM   20  C13 UNL     1      -1.140   6.924  15.031  1.00  0.00     0.048 C 
BRANCH  19  21
HETATM   21  C11 UNL     1      -3.585   6.219  15.227  1.00  0.00     0.003 C 
HETATM   22  C10 UNL     1      -4.890   6.480  15.044  1.00  0.00    -0.018 C 
BRANCH  22  23
HETATM   23  C9  UNL     1      -6.028   5.509  14.752  1.00  0.00     0.050 C 
HETATM   24  C4  UNL     1      -6.476   5.385  13.264  1.00  0.00     0.024 C 
HETATM   25  C5  UNL     1      -7.515   6.509  13.128  1.00  0.00     0.013 C 
HETATM   26  C6  UNL     1      -8.218   6.624  14.479  1.00  0.00     0.039 C 
HETATM   27  C7  UNL     1      -7.356   5.853  15.495  1.00  0.00     0.062 C 
HETATM   28  C8  UNL     1      -7.213   6.614  16.814  1.00  0.00     0.046 C 
BRANCH  24  29
HETATM   29  C2  UNL     1      -6.938   3.976  12.879  1.00  0.00    -0.088 C 
HETATM   30  C1  UNL     1      -8.213   3.550  12.865  1.00  0.00     0.014 C 
HETATM   31  C3  UNL     1      -5.834   3.039  12.452  1.00  0.00     0.043 C 
ENDBRANCH  24  29
BRANCH  27  32
HETATM   32  O1  UNL     1      -8.018   4.620  15.821  1.00  0.00    -0.390 OA
HETATM   33  H14 UNL     1      -8.893   4.834  16.185  1.00  0.00     0.210 HD
ENDBRANCH  27  32
ENDBRANCH  22  23
ENDBRANCH  19  21
ENDBRANCH   1  18
BRANCH  15  34
HETATM   34  O4  UNL     1       0.281  11.115  17.279  1.00  0.00    -0.389 OA
HETATM   35  H44 UNL     1       1.191  11.333  17.548  1.00  0.00     0.210 HD
ENDBRANCH  15  34
BRANCH  11  36
HETATM   36  C26 UNL     1      -3.759  14.618  20.593  1.00  0.00     0.265 C 
HETATM   37  O3  UNL     1      -4.063  15.352  21.524  1.00  0.00    -0.302 OA
ENDBRANCH  11  36
TORSDOF 7
ENDMDL
MODEL 7
REMARK minimizedAffinity -6.52649021
REMARK CNNscore 0.306111634
REMARK CNNaffinity 5.84078407
REMARK  7 active torsions:
REMARK  status: ('A' for Active; 'I' for Inactive)
REMARK    1  A    between atoms: C2_2  and  C4_4 
REMARK    2  A    between atoms: C7_7  and  O1_9 
REMARK    3  A    between atoms: C9_10  and  C10_11 
REMARK    4  A    between atoms: C11_12  and  C12_13 
REMARK    5  A    between atoms: C14_15  and  C15_16 
REMARK    6  A    between atoms: C24_26  and  C26_28 
REMARK    7  A    between atoms: C29_32  and  O4_34 
ROOT
HETATM    1  C15 UNL     1     -12.573  10.028  21.344  1.00  0.00     0.149 C 
HETATM    2  C16 UNL     1     -11.097  10.375  21.154  1.00  0.00     0.054 C 
HETATM    3  C17 UNL     1     -11.067  11.910  21.002  1.00  0.00     0.050 C 
HETATM    4  C18 UNL     1     -12.205  12.236  22.004  1.00  0.00     0.272 C 
HETATM    5  O2  UNL     1     -11.810  12.196  23.372  1.00  0.00    -0.360 OA
HETATM    6  C19 UNL     1     -11.301  13.421  23.860  1.00  0.00     0.171 C 
HETATM    7  C20 UNL     1      -9.788  13.471  23.739  1.00  0.00     0.027 C 
HETATM    8  C21 UNL     1      -9.184  12.423  22.809  1.00  0.00     0.012 C 
HETATM    9  C22 UNL     1      -9.630  12.475  21.330  1.00  0.00     0.032 C 
HETATM   10  C23 UNL     1      -9.340  13.857  20.705  1.00  0.00    -0.066 C 
HETATM   11  C24 UNL     1      -8.103  14.327  20.406  1.00  0.00    -0.021 C 
HETATM   12  C25 UNL     1      -7.824  15.680  19.813  1.00  0.00     0.052 C 
HETATM   13  C27 UNL     1     -10.583  14.654  20.395  1.00  0.00     0.038 C 
HETATM   14  C28 UNL     1     -11.516  13.916  19.438  1.00  0.00     0.042 C 
HETATM   15  C29 UNL     1     -11.454  12.371  19.532  1.00  0.00     0.067 C 
HETATM   16  C30 UNL     1     -10.501  11.824  18.445  1.00  0.00     0.047 C 
HETATM   17  O5  UNL     1     -13.196  11.206  21.863  1.00  0.00    -0.351 OA
ENDROOT
BRANCH   1  18
HETATM   18  C14 UNL     1     -12.785   8.842  22.254  1.00  0.00     0.011 C 
HETATM   19  C12 UNL     1     -12.008   8.410  23.272  1.00  0.00    -0.064 C 
HETATM   20  C13 UNL     1     -10.771   9.139  23.731  1.00  0.00     0.048 C 
BRANCH  19  21
HETATM   21  C11 UNL     1     -12.402   7.193  23.987  1.00  0.00     0.003 C 
HETATM   22  C10 UNL     1     -13.200   6.220  23.516  1.00  0.00    -0.018 C 
BRANCH  22  23
HETATM   23  C9  UNL     1     -13.658   4.941  24.207  1.00  0.00     0.050 C 
HETATM   24  C4  UNL     1     -12.908   3.631  23.821  1.00  0.00     0.024 C 
HETATM   25  C5  UNL     1     -13.689   3.144  22.590  1.00  0.00     0.013 C 
HETATM   26  C6  UNL     1     -15.146   3.552  22.803  1.00  0.00     0.039 C 
HETATM   27  C7  UNL     1     -15.155   4.585  23.943  1.00  0.00     0.062 C 
HETATM   28  C8  UNL     1     -16.084   5.761  23.639  1.00  0.00     0.046 C 
BRANCH  24  29
HETATM   29  C2  UNL     1     -12.771   2.639  24.981  1.00  0.00    -0.088 C 
HETATM   30  C1  UNL     1     -13.339   2.772  26.191  1.00  0.00     0.014 C 
HETATM   31  C3  UNL     1     -11.950   1.410  24.673  1.00  0.00     0.043 C 
ENDBRANCH  24  29
BRANCH  27  32
HETATM   32  O1  UNL     1     -15.680   3.962  25.127  1.00  0.00    -0.390 OA
HETATM   33  H14 UNL     1     -16.576   3.643  24.927  1.00  0.00     0.210 HD
ENDBRANCH  27  32
ENDBRANCH  22  23
ENDBRANCH  19  21
ENDBRANCH   1  18
BRANCH  15  34
HETATM   34  O4  UNL     1     -12.750  11.893  19.155  1.00  0.00    -0.389 OA
HETATM   35  H44 UNL     1     -12.959  12.220  18.263  1.00  0.00     0.210 HD
ENDBRANCH  15  34
BRANCH  11  36
HETATM   36  C26 UNL     1      -6.860  13.530  20.640  1.00  0.00     0.265 C 
HETATM   37  O3  UNL     1      -5.986  13.363  19.799  1.00  0.00    -0.302 OA
ENDBRANCH  11  36
TORSDOF 7
ENDMDL
MODEL 8
REMARK minimizedAffinity -7.20131254
REMARK CNNscore 0.303913146
REMARK CNNaffinity 5.20334148
REMARK  7 active torsions:
REMARK  status: ('A' for Active; 'I' for Inactive)
REMARK    1  A    between atoms: C2_2  and  C4_4 
REMARK    2  A    between atoms: C7_7  and  O1_9 
REMARK    3  A    between atoms: C9_10  and  C10_11 
REMARK    4  A    between atoms: C11_12  and  C12_13 
REMARK    5  A    between atoms: C14_15  and  C15_16 
REMARK    6  A    between atoms: C24_26  and  C26_28 
REMARK    7  A    between atoms: C29_32  and  O4_34 
ROOT
HETATM    1  C15 UNL     1      16.973  -3.550   9.016  1.00  0.00     0.149 C 
HETATM    2  C16 UNL     1      16.483  -3.773   7.586  1.00  0.00     0.054 C 
HETATM    3  C17 UNL     1      15.941  -5.217   7.572  1.00  0.00     0.050 C 
HETATM    4  C18 UNL     1      15.348  -5.225   9.006  1.00  0.00     0.272 C 
HETATM    5  O2  UNL     1      14.086  -4.574   9.121  1.00  0.00    -0.360 OA
HETATM    6  C19 UNL     1      12.979  -5.417   8.873  1.00  0.00     0.171 C 
HETATM    7  C20 UNL     1      12.546  -5.338   7.419  1.00  0.00     0.027 C 
HETATM    8  C21 UNL     1      13.571  -4.711   6.478  1.00  0.00     0.012 C 
HETATM    9  C22 UNL     1      14.937  -5.424   6.372  1.00  0.00     0.032 C 
HETATM   10  C23 UNL     1      14.769  -6.898   5.942  1.00  0.00    -0.066 C 
HETATM   11  C24 UNL     1      14.399  -7.304   4.701  1.00  0.00    -0.021 C 
HETATM   12  C25 UNL     1      14.219  -8.739   4.290  1.00  0.00     0.052 C 
HETATM   13  C27 UNL     1      15.107  -7.889   7.028  1.00  0.00     0.038 C 
HETATM   14  C28 UNL     1      16.541  -7.729   7.526  1.00  0.00     0.042 C 
HETATM   15  C29 UNL     1      17.105  -6.289   7.432  1.00  0.00     0.067 C 
HETATM   16  C30 UNL     1      17.927  -6.138   6.132  1.00  0.00     0.047 C 
HETATM   17  O5  UNL     1      16.244  -4.469   9.835  1.00  0.00    -0.351 OA
ENDROOT
BRANCH   1  18
HETATM   18  C14 UNL     1      16.792  -2.126   9.485  1.00  0.00     0.011 C 
HETATM   19  C12 UNL     1      17.561  -1.048   9.219  1.00  0.00    -0.064 C 
HETATM   20  C13 UNL     1      18.750  -1.090   8.293  1.00  0.00     0.048 C 
BRANCH  19  21
HETATM   21  C11 UNL     1      17.206   0.235   9.834  1.00  0.00     0.003 C 
HETATM   22  C10 UNL     1      16.213   0.444  10.714  1.00  0.00    -0.018 C 
BRANCH  22  23
HETATM   23  C9  UNL     1      15.782   1.746  11.379  1.00  0.00     0.050 C 
HETATM   24  C4  UNL     1      15.549   2.967  10.438  1.00  0.00     0.024 C 
HETATM   25  C5  UNL     1      16.952   3.585  10.330  1.00  0.00     0.013 C 
HETATM   26  C6  UNL     1      17.640   3.352  11.674  1.00  0.00     0.039 C 
HETATM   27  C7  UNL     1      16.810   2.291  12.419  1.00  0.00     0.062 C 
HETATM   28  C8  UNL     1      17.697   1.248  13.100  1.00  0.00     0.046 C 
BRANCH  24  29
HETATM   29  C2  UNL     1      14.426   3.897  10.909  1.00  0.00    -0.088 C 
HETATM   30  C1  UNL     1      13.253   3.500  11.431  1.00  0.00     0.014 C 
HETATM   31  C3  UNL     1      14.729   5.371  10.788  1.00  0.00     0.043 C 
ENDBRANCH  24  29
BRANCH  27  32
HETATM   32  O1  UNL     1      16.078   2.935  13.474  1.00  0.00    -0.390 OA
HETATM   33  H14 UNL     1      16.717   3.368  14.065  1.00  0.00     0.210 HD
ENDBRANCH  27  32
ENDBRANCH  22  23
ENDBRANCH  19  21
ENDBRANCH   1  18
BRANCH  15  34
HETATM   34  O4  UNL     1      18.065  -6.164   8.488  1.00  0.00    -0.389 OA
HETATM   35  H44 UNL     1      18.742  -6.854   8.380  1.00  0.00     0.210 HD
ENDBRANCH  15  34
BRANCH  11  36
HETATM   36  C26 UNL     1      14.124  -6.344   3.588  1.00  0.00     0.265 C 
HETATM   37  O3  UNL     1      13.007  -5.944   3.289  1.00  0.00    -0.302 OA
ENDBRANCH  11  36
TORSDOF 7
ENDMDL
MODEL 9
REMARK minimizedAffinity -7.59463501
REMARK CNNscore 0.299968004
REMARK CNNaffinity 5.86259794
REMARK  7 active torsions:
REMARK  status: ('A' for Active; 'I' for Inactive)
REMARK    1  A    between atoms: C2_2  and  C4_4 
REMARK    2  A    between atoms: C7_7  and  O1_9 
REMARK    3  A    between atoms: C9_10  and  C10_11 
REMARK    4  A    between atoms: C11_12  and  C12_13 
REMARK    5  A    between atoms: C14_15  and  C15_16 
REMARK    6  A    between atoms: C24_26  and  C26_28 
REMARK    7  A    between atoms: C29_32  and  O4_34 
ROOT
HETATM    1  C15 UNL     1     -13.704  -9.617  29.211  1.00  0.00     0.149 C 
HETATM    2  C16 UNL     1     -14.217  -8.265  28.717  1.00  0.00     0.054 C 
HETATM    3  C17 UNL     1     -14.434  -7.431  29.997  1.00  0.00     0.050 C 
HETATM    4  C18 UNL     1     -13.228  -7.979  30.803  1.00  0.00     0.272 C 
HETATM    5  O2  UNL     1     -11.974  -7.407  30.442  1.00  0.00    -0.360 OA
HETATM    6  C19 UNL     1     -11.655  -6.226  31.149  1.00  0.00     0.171 C 
HETATM    7  C20 UNL     1     -12.095  -4.993  30.380  1.00  0.00     0.027 C 
HETATM    8  C21 UNL     1     -13.090  -5.260  29.254  1.00  0.00     0.012 C 
HETATM    9  C22 UNL     1     -14.441  -5.889  29.662  1.00  0.00     0.032 C 
HETATM   10  C23 UNL     1     -15.169  -5.022  30.713  1.00  0.00    -0.066 C 
HETATM   11  C24 UNL     1     -15.742  -3.818  30.460  1.00  0.00    -0.021 C 
HETATM   12  C25 UNL     1     -16.434  -2.969  31.489  1.00  0.00     0.052 C 
HETATM   13  C27 UNL     1     -15.240  -5.658  32.079  1.00  0.00     0.038 C 
HETATM   14  C28 UNL     1     -15.947  -7.010  32.047  1.00  0.00     0.042 C 
HETATM   15  C29 UNL     1     -15.806  -7.787  30.714  1.00  0.00     0.067 C 
HETATM   16  C30 UNL     1     -17.047  -7.528  29.830  1.00  0.00     0.047 C 
HETATM   17  O5  UNL     1     -13.114  -9.377  30.491  1.00  0.00    -0.351 OA
ENDROOT
BRANCH   1  18
HETATM   18  C14 UNL     1     -12.723 -10.257  28.259  1.00  0.00     0.011 C 
HETATM   19  C12 UNL     1     -12.430 -11.567  28.105  1.00  0.00    -0.064 C 
HETATM   20  C13 UNL     1     -13.140 -12.665  28.856  1.00  0.00     0.048 C 
BRANCH  19  21
HETATM   21  C11 UNL     1     -11.395 -11.945  27.138  1.00  0.00     0.003 C 
HETATM   22  C10 UNL     1     -10.569 -13.000  27.233  1.00  0.00    -0.018 C 
BRANCH  22  23
HETATM   23  C9  UNL     1      -9.468 -13.442  26.275  1.00  0.00     0.050 C 
HETATM   24  C4  UNL     1      -9.845 -13.518  24.765  1.00  0.00     0.024 C 
HETATM   25  C5  UNL     1     -10.415 -14.938  24.628  1.00  0.00     0.013 C 
HETATM   26  C6  UNL     1      -9.645 -15.818  25.613  1.00  0.00     0.039 C 
HETATM   27  C7  UNL     1      -8.909 -14.868  26.574  1.00  0.00     0.062 C 
HETATM   28  C8  UNL     1      -9.005 -15.339  28.026  1.00  0.00     0.046 C 
BRANCH  24  29
HETATM   29  C2  UNL     1      -8.691 -13.151  23.826  1.00  0.00    -0.088 C 
HETATM   30  C1  UNL     1      -7.812 -12.154  24.024  1.00  0.00     0.014 C 
HETATM   31  C3  UNL     1      -8.552 -14.038  22.612  1.00  0.00     0.043 C 
ENDBRANCH  24  29
BRANCH  27  32
HETATM   32  O1  UNL     1      -7.509 -14.875  26.248  1.00  0.00    -0.390 OA
HETATM   33  H14 UNL     1      -7.185 -15.787  26.331  1.00  0.00     0.210 HD
ENDBRANCH  27  32
ENDBRANCH  22  23
ENDBRANCH  19  21
ENDBRANCH   1  18
BRANCH  15  34
HETATM   34  O4  UNL     1     -15.880  -9.177  31.049  1.00  0.00    -0.389 OA
HETATM   35  H44 UNL     1     -16.720  -9.346  31.509  1.00  0.00     0.210 HD
ENDBRANCH  15  34
BRANCH  11  36
HETATM   36  C26 UNL     1     -15.745  -3.197  29.100  1.00  0.00     0.265 C 
HETATM   37  O3  UNL     1     -15.674  -1.992  28.898  1.00  0.00    -0.302 OA
ENDBRANCH  11  36
TORSDOF 7
ENDMDL
