MODEL 1
REMARK minimizedAffinity -9.76087952
REMARK  7 active torsions:
REMARK  status: ('A' for Active; 'I' for Inactive)
REMARK    1  A    between atoms: C2_2  and  C4_4 
REMARK    2  A    between atoms: C4_4  and  C6_6 
REMARK    3  A    between atoms: C6_6  and  O1_7 
REMARK    4  A    between atoms: C6_6  and  C7_8 
REMARK    5  A    between atoms: C7_8  and  C8_9 
REMARK    6  A    between atoms: C8_9  and  C10_11 
REMARK    7  A    between atoms: C16_17  and  O2_18 
ROOT
HETATM    1  C10 UNL     1      -1.005  49.415 -17.957  1.00  0.00    -0.002 C 
HETATM    2  C11 UNL     1      -2.154  48.373 -18.070  1.00  0.00     0.006 C 
HETATM    3  C12 UNL     1      -2.643  48.373 -19.525  1.00  0.00     0.011 C 
HETATM    4  C13 UNL     1      -1.579  49.160 -20.315  1.00  0.00    -0.030 C 
HETATM    5  C14 UNL     1      -0.437  48.154 -20.656  1.00  0.00     0.016 C 
HETATM    6  C15 UNL     1      -2.100  49.842 -21.617  1.00  0.00     0.032 C 
HETATM    7  C16 UNL     1      -2.430  48.872 -22.770  1.00  0.00     0.124 C 
HETATM    8  C17 UNL     1      -2.957  49.629 -23.989  1.00  0.00     0.038 C 
HETATM    9  C18 UNL     1      -1.847  50.481 -24.610  1.00  0.00     0.012 C 
HETATM   10  C19 UNL     1      -2.271  51.258 -25.898  1.00  0.00     0.018 C 
HETATM   11  C20 UNL     1      -2.716  50.270 -26.997  1.00  0.00     0.023 C 
HETATM   12  C21 UNL     1      -3.412  52.261 -25.673  1.00  0.00     0.023 C 
HETATM   13  C22 UNL     1      -1.047  52.039 -26.414  1.00  0.00     0.135 C 
HETATM   14  O3  UNL     1      -0.734  52.068 -27.606  1.00  0.00    -0.297 OA
HETATM   15  C23 UNL     1      -0.277  52.870 -25.413  1.00  0.00     0.080 C 
HETATM   16  C24 UNL     1       0.093  52.034 -24.199  1.00  0.00     0.018 C 
HETATM   17  C25 UNL     1      -1.147  51.392 -23.591  1.00  0.00    -0.026 A 
HETATM   18  C26 UNL     1      -1.920  52.227 -22.605  1.00  0.00     0.021 A 
HETATM   19  C27 UNL     1      -1.178  51.004 -22.084  1.00  0.00    -0.025 A 
HETATM   20  C28 UNL     1       0.102  51.250 -21.279  1.00  0.00     0.011 C 
HETATM   21  C29 UNL     1       0.074  50.975 -19.767  1.00  0.00     0.011 C 
HETATM   22  C30 UNL     1      -1.183  50.261 -19.263  1.00  0.00    -0.032 C 
HETATM   23  C31 UNL     1      -2.291  51.334 -19.031  1.00  0.00     0.016 C 
ENDROOT
BRANCH   1  24
HETATM   24  C8  UNL     1      -0.985  50.121 -16.567  1.00  0.00    -0.011 C 
HETATM   25  C9  UNL     1      -2.364  50.684 -16.198  1.00  0.00     0.010 C 
BRANCH  24  26
HETATM   26  C7  UNL     1       0.062  51.278 -16.541  1.00  0.00     0.037 C 
BRANCH  26  27
HETATM   27  C6  UNL     1       0.796  51.404 -15.192  1.00  0.00     0.126 C 
BRANCH  27  28
HETATM   28  C4  UNL     1       2.333  51.169 -15.255  1.00  0.00     0.038 C 
HETATM   29  C5  UNL     1       2.977  51.064 -13.865  1.00  0.00     0.017 C 
BRANCH  28  30
HETATM   30  C2  UNL     1       3.054  52.137 -16.192  1.00  0.00    -0.087 C 
HETATM   31  C1  UNL     1       4.372  52.368 -16.054  1.00  0.00     0.014 C 
HETATM   32  C3  UNL     1       2.265  52.856 -17.255  1.00  0.00     0.043 C 
ENDBRANCH  28  30
ENDBRANCH  27  28
BRANCH  27  33
HETATM   33  O1  UNL     1       0.539  52.695 -14.634  1.00  0.00    -0.395 OA
HETATM   34  H11 UNL     1       0.929  52.712 -13.743  1.00  0.00     0.210 HD
ENDBRANCH  27  33
ENDBRANCH  26  27
ENDBRANCH  24  26
ENDBRANCH   1  24
BRANCH   7  35
HETATM   35  O2  UNL     1      -3.427  47.931 -22.376  1.00  0.00    -0.395 OA
HETATM   36  H28 UNL     1      -4.225  48.426 -22.126  1.00  0.00     0.210 HD
ENDBRANCH   7  35
TORSDOF 7
ENDMDL
MODEL 2
REMARK minimizedAffinity -9.59828186
REMARK  7 active torsions:
REMARK  status: ('A' for Active; 'I' for Inactive)
REMARK    1  A    between atoms: C2_2  and  C4_4 
REMARK    2  A    between atoms: C4_4  and  C6_6 
REMARK    3  A    between atoms: C6_6  and  O1_7 
REMARK    4  A    between atoms: C6_6  and  C7_8 
REMARK    5  A    between atoms: C7_8  and  C8_9 
REMARK    6  A    between atoms: C8_9  and  C10_11 
REMARK    7  A    between atoms: C16_17  and  O2_18 
ROOT
HETATM    1  C10 UNL     1      -3.881  50.705 -24.579  1.00  0.00    -0.002 C 
HETATM    2  C11 UNL     1      -5.062  49.870 -24.005  1.00  0.00     0.006 C 
HETATM    3  C12 UNL     1      -4.838  49.725 -22.492  1.00  0.00     0.011 C 
HETATM    4  C13 UNL     1      -3.726  50.733 -22.145  1.00  0.00    -0.030 C 
HETATM    5  C14 UNL     1      -4.419  52.117 -21.951  1.00  0.00     0.016 C 
HETATM    6  C15 UNL     1      -2.885  50.373 -20.882  1.00  0.00     0.032 C 
HETATM    7  C16 UNL     1      -3.630  50.529 -19.540  1.00  0.00     0.124 C 
HETATM    8  C17 UNL     1      -2.735  50.128 -18.367  1.00  0.00     0.038 C 
HETATM    9  C18 UNL     1      -1.589  51.129 -18.202  1.00  0.00     0.012 C 
HETATM   10  C19 UNL     1      -0.643  50.837 -16.993  1.00  0.00     0.018 C 
HETATM   11  C20 UNL     1      -1.437  50.875 -15.670  1.00  0.00     0.023 C 
HETATM   12  C21 UNL     1       0.073  49.479 -17.076  1.00  0.00     0.023 C 
HETATM   13  C22 UNL     1       0.433  51.938 -16.946  1.00  0.00     0.135 C 
HETATM   14  O3  UNL     1       0.770  52.491 -15.896  1.00  0.00    -0.297 OA
HETATM   15  C23 UNL     1       1.154  52.265 -18.234  1.00  0.00     0.080 C 
HETATM   16  C24 UNL     1       0.157  52.536 -19.348  1.00  0.00     0.018 C 
HETATM   17  C25 UNL     1      -0.807  51.367 -19.502  1.00  0.00    -0.026 A 
HETATM   18  C26 UNL     1      -0.351  50.231 -20.377  1.00  0.00     0.021 A 
HETATM   19  C27 UNL     1      -1.506  51.093 -20.865  1.00  0.00    -0.025 A 
HETATM   20  C28 UNL     1      -1.216  52.078 -22.003  1.00  0.00     0.011 C 
HETATM   21  C29 UNL     1      -1.807  51.780 -23.390  1.00  0.00     0.011 C 
HETATM   22  C30 UNL     1      -2.822  50.634 -23.428  1.00  0.00    -0.032 C 
HETATM   23  C31 UNL     1      -2.035  49.292 -23.538  1.00  0.00     0.016 C 
ENDROOT
BRANCH   1  24
HETATM   24  C8  UNL     1      -3.495  50.261 -26.024  1.00  0.00    -0.011 C 
HETATM   25  C9  UNL     1      -3.471  48.732 -26.159  1.00  0.00     0.010 C 
BRANCH  24  26
HETATM   26  C7  UNL     1      -2.102  50.832 -26.431  1.00  0.00     0.037 C 
BRANCH  26  27
HETATM   27  C6  UNL     1      -2.148  52.319 -26.835  1.00  0.00     0.126 C 
BRANCH  27  28
HETATM   28  C4  UNL     1      -0.759  53.011 -26.954  1.00  0.00     0.038 C 
HETATM   29  C5  UNL     1      -0.677  53.979 -28.143  1.00  0.00     0.017 C 
BRANCH  28  30
HETATM   30  C2  UNL     1       0.412  52.032 -26.879  1.00  0.00    -0.087 C 
HETATM   31  C1  UNL     1       0.885  51.621 -25.690  1.00  0.00     0.014 C 
HETATM   32  C3  UNL     1       1.053  51.555 -28.157  1.00  0.00     0.043 C 
ENDBRANCH  28  30
ENDBRANCH  27  28
BRANCH  27  33
HETATM   33  O1  UNL     1      -2.848  52.450 -28.075  1.00  0.00    -0.395 OA
HETATM   34  H11 UNL     1      -2.949  53.400 -28.255  1.00  0.00     0.210 HD
ENDBRANCH  27  33
ENDBRANCH  26  27
ENDBRANCH  24  26
ENDBRANCH   1  24
BRANCH   7  35
HETATM   35  O2  UNL     1      -4.794  49.704 -19.504  1.00  0.00    -0.395 OA
HETATM   36  H28 UNL     1      -4.511  48.781 -19.616  1.00  0.00     0.210 HD
ENDBRANCH   7  35
TORSDOF 7
ENDMDL
MODEL 3
REMARK minimizedAffinity -9.51345158
REMARK  7 active torsions:
REMARK  status: ('A' for Active; 'I' for Inactive)
REMARK    1  A    between atoms: C2_2  and  C4_4 
REMARK    2  A    between atoms: C4_4  and  C6_6 
REMARK    3  A    between atoms: C6_6  and  O1_7 
REMARK    4  A    between atoms: C6_6  and  C7_8 
REMARK    5  A    between atoms: C7_8  and  C8_9 
REMARK    6  A    between atoms: C8_9  and  C10_11 
REMARK    7  A    between atoms: C16_17  and  O2_18 
ROOT
HETATM    1  C10 UNL     1       0.054  51.125 -21.034  1.00  0.00    -0.002 C 
HETATM    2  C11 UNL     1      -0.048  51.661 -19.577  1.00  0.00     0.006 C 
HETATM    3  C12 UNL     1      -1.336  51.094 -18.961  1.00  0.00     0.011 C 
HETATM    4  C13 UNL     1      -1.801  49.989 -19.929  1.00  0.00    -0.030 C 
HETATM    5  C14 UNL     1      -1.006  48.700 -19.554  1.00  0.00     0.016 C 
HETATM    6  C15 UNL     1      -3.333  49.700 -19.907  1.00  0.00     0.032 C 
HETATM    7  C16 UNL     1      -3.840  48.986 -18.636  1.00  0.00     0.124 C 
HETATM    8  C17 UNL     1      -5.353  48.772 -18.696  1.00  0.00     0.038 C 
HETATM    9  C18 UNL     1      -5.706  47.754 -19.783  1.00  0.00     0.012 C 
HETATM   10  C19 UNL     1      -7.230  47.425 -19.892  1.00  0.00     0.018 C 
HETATM   11  C20 UNL     1      -7.744  46.827 -18.565  1.00  0.00     0.023 C 
HETATM   12  C21 UNL     1      -8.107  48.639 -20.234  1.00  0.00     0.023 C 
HETATM   13  C22 UNL     1      -7.418  46.374 -21.003  1.00  0.00     0.135 C 
HETATM   14  O3  UNL     1      -8.150  45.392 -20.868  1.00  0.00    -0.297 OA
HETATM   15  C23 UNL     1      -6.743  46.635 -22.331  1.00  0.00     0.080 C 
HETATM   16  C24 UNL     1      -5.269  46.943 -22.128  1.00  0.00     0.018 C 
HETATM   17  C25 UNL     1      -5.092  48.096 -21.149  1.00  0.00    -0.026 A 
HETATM   18  C26 UNL     1      -5.158  49.485 -21.728  1.00  0.00     0.021 A 
HETATM   19  C27 UNL     1      -3.818  48.990 -21.202  1.00  0.00    -0.025 A 
HETATM   20  C28 UNL     1      -2.753  48.616 -22.238  1.00  0.00     0.011 C 
HETATM   21  C29 UNL     1      -1.531  49.536 -22.388  1.00  0.00     0.011 C 
HETATM   22  C30 UNL     1      -1.401  50.619 -21.314  1.00  0.00    -0.032 C 
HETATM   23  C31 UNL     1      -2.292  51.829 -21.732  1.00  0.00     0.016 C 
ENDROOT
BRANCH   1  24
HETATM   24  C8  UNL     1       0.720  52.158 -21.995  1.00  0.00    -0.011 C 
HETATM   25  C9  UNL     1       0.934  53.514 -21.309  1.00  0.00     0.010 C 
BRANCH  24  26
HETATM   26  C7  UNL     1      -0.143  52.364 -23.278  1.00  0.00     0.037 C 
BRANCH  26  27
HETATM   27  C6  UNL     1       0.699  52.608 -24.545  1.00  0.00     0.126 C 
BRANCH  27  28
HETATM   28  C4  UNL     1       0.099  52.022 -25.856  1.00  0.00     0.038 C 
HETATM   29  C5  UNL     1      -0.883  50.871 -25.598  1.00  0.00     0.017 C 
BRANCH  28  30
HETATM   30  C2  UNL     1       1.154  51.701 -26.913  1.00  0.00    -0.087 C 
HETATM   31  C1  UNL     1       0.849  51.751 -28.222  1.00  0.00     0.014 C 
HETATM   32  C3  UNL     1       2.536  51.295 -26.472  1.00  0.00     0.043 C 
ENDBRANCH  28  30
ENDBRANCH  27  28
BRANCH  27  33
HETATM   33  O1  UNL     1       0.910  54.013 -24.710  1.00  0.00    -0.395 OA
HETATM   34  H11 UNL     1       1.523  54.132 -25.454  1.00  0.00     0.210 HD
ENDBRANCH  27  33
ENDBRANCH  26  27
ENDBRANCH  24  26
ENDBRANCH   1  24
BRANCH   7  35
HETATM   35  O2  UNL     1      -3.554  49.756 -17.470  1.00  0.00    -0.395 OA
HETATM   36  H28 UNL     1      -3.997  50.617 -17.561  1.00  0.00     0.210 HD
ENDBRANCH   7  35
TORSDOF 7
ENDMDL
MODEL 4
REMARK minimizedAffinity -9.4698
REMARK  7 active torsions:
REMARK  status: ('A' for Active; 'I' for Inactive)
REMARK    1  A    between atoms: C2_2  and  C4_4 
REMARK    2  A    between atoms: C4_4  and  C6_6 
REMARK    3  A    between atoms: C6_6  and  O1_7 
REMARK    4  A    between atoms: C6_6  and  C7_8 
REMARK    5  A    between atoms: C7_8  and  C8_9 
REMARK    6  A    between atoms: C8_9  and  C10_11 
REMARK    7  A    between atoms: C16_17  and  O2_18 
ROOT
HETATM    1  C10 UNL     1      -0.317  50.818 -21.628  1.00  0.00    -0.002 C 
HETATM    2  C11 UNL     1      -0.693  50.610 -20.134  1.00  0.00     0.006 C 
HETATM    3  C12 UNL     1      -2.049  49.891 -20.089  1.00  0.00     0.011 C 
HETATM    4  C13 UNL     1      -2.299  49.399 -21.528  1.00  0.00    -0.030 C 
HETATM    5  C14 UNL     1      -1.539  48.044 -21.677  1.00  0.00     0.016 C 
HETATM    6  C15 UNL     1      -3.800  49.217 -21.909  1.00  0.00     0.032 C 
HETATM    7  C16 UNL     1      -4.499  48.017 -21.235  1.00  0.00     0.124 C 
HETATM    8  C17 UNL     1      -5.970  47.939 -21.647  1.00  0.00     0.038 C 
HETATM    9  C18 UNL     1      -6.090  47.574 -23.129  1.00  0.00     0.012 C 
HETATM   10  C19 UNL     1      -7.559  47.417 -23.639  1.00  0.00     0.018 C 
HETATM   11  C20 UNL     1      -8.278  46.294 -22.863  1.00  0.00     0.023 C 
HETATM   12  C21 UNL     1      -8.402  48.695 -23.512  1.00  0.00     0.023 C 
HETATM   13  C22 UNL     1      -7.512  47.026 -25.129  1.00  0.00     0.135 C 
HETATM   14  O3  UNL     1      -8.223  46.137 -25.603  1.00  0.00    -0.297 OA
HETATM   15  C23 UNL     1      -6.623  47.844 -26.037  1.00  0.00     0.080 C 
HETATM   16  C24 UNL     1      -5.219  47.940 -25.463  1.00  0.00     0.018 C 
HETATM   17  C25 UNL     1      -5.257  48.485 -24.042  1.00  0.00    -0.026 A 
HETATM   18  C26 UNL     1      -5.267  49.984 -23.897  1.00  0.00     0.021 A 
HETATM   19  C27 UNL     1      -4.025  49.228 -23.447  1.00  0.00    -0.025 A 
HETATM   20  C28 UNL     1      -2.781  49.329 -24.336  1.00  0.00     0.011 C 
HETATM   21  C29 UNL     1      -1.584  50.143 -23.822  1.00  0.00     0.011 C 
HETATM   22  C30 UNL     1      -1.683  50.584 -22.359  1.00  0.00    -0.032 C 
HETATM   23  C31 UNL     1      -2.526  51.895 -22.302  1.00  0.00     0.016 C 
ENDROOT
BRANCH   1  24
HETATM   24  C8  UNL     1       0.472  52.145 -21.857  1.00  0.00    -0.011 C 
HETATM   25  C9  UNL     1       0.459  53.034 -20.606  1.00  0.00     0.010 C 
BRANCH  24  26
HETATM   26  C7  UNL     1      -0.116  52.945 -23.060  1.00  0.00     0.037 C 
BRANCH  26  27
HETATM   27  C6  UNL     1       0.910  53.197 -24.183  1.00  0.00     0.126 C 
BRANCH  27  28
HETATM   28  C4  UNL     1       0.380  52.947 -25.625  1.00  0.00     0.038 C 
HETATM   29  C5  UNL     1      -1.149  53.054 -25.723  1.00  0.00     0.017 C 
BRANCH  28  30
HETATM   30  C2  UNL     1       0.946  51.680 -26.265  1.00  0.00    -0.087 C 
HETATM   31  C1  UNL     1       0.124  50.720 -26.724  1.00  0.00     0.014 C 
HETATM   32  C3  UNL     1       2.440  51.504 -26.350  1.00  0.00     0.043 C 
ENDBRANCH  28  30
ENDBRANCH  27  28
BRANCH  27  33
HETATM   33  O1  UNL     1       1.398  54.537 -24.085  1.00  0.00    -0.395 OA
HETATM   34  H11 UNL     1       2.111  54.637 -24.738  1.00  0.00     0.210 HD
ENDBRANCH  27  33
ENDBRANCH  26  27
ENDBRANCH  24  26
ENDBRANCH   1  24
BRANCH   7  35
HETATM   35  O2  UNL     1      -4.449  48.131 -19.814  1.00  0.00    -0.395 OA
HETATM   36  H28 UNL     1      -4.898  48.955 -19.562  1.00  0.00     0.210 HD
ENDBRANCH   7  35
TORSDOF 7
ENDMDL
MODEL 5
REMARK minimizedAffinity -9.45339108
REMARK  7 active torsions:
REMARK  status: ('A' for Active; 'I' for Inactive)
REMARK    1  A    between atoms: C2_2  and  C4_4 
REMARK    2  A    between atoms: C4_4  and  C6_6 
REMARK    3  A    between atoms: C6_6  and  O1_7 
REMARK    4  A    between atoms: C6_6  and  C7_8 
REMARK    5  A    between atoms: C7_8  and  C8_9 
REMARK    6  A    between atoms: C8_9  and  C10_11 
REMARK    7  A    between atoms: C16_17  and  O2_18 
ROOT
HETATM    1  C10 UNL     1      -2.067  51.724 -22.564  1.00  0.00    -0.002 C 
HETATM    2  C11 UNL     1      -3.116  52.507 -23.403  1.00  0.00     0.006 C 
HETATM    3  C12 UNL     1      -4.461  51.779 -23.266  1.00  0.00     0.011 C 
HETATM    4  C13 UNL     1      -4.270  50.782 -22.106  1.00  0.00    -0.030 C 
HETATM    5  C14 UNL     1      -4.518  51.575 -20.786  1.00  0.00     0.016 C 
HETATM    6  C15 UNL     1      -5.195  49.527 -22.160  1.00  0.00     0.032 C 
HETATM    7  C16 UNL     1      -6.682  49.804 -21.854  1.00  0.00     0.124 C 
HETATM    8  C17 UNL     1      -7.510  48.523 -21.958  1.00  0.00     0.038 C 
HETATM    9  C18 UNL     1      -7.139  47.554 -20.833  1.00  0.00     0.012 C 
HETATM   10  C19 UNL     1      -7.968  46.230 -20.820  1.00  0.00     0.018 C 
HETATM   11  C20 UNL     1      -9.469  46.540 -20.637  1.00  0.00     0.023 C 
HETATM   12  C21 UNL     1      -7.811  45.383 -22.093  1.00  0.00     0.023 C 
HETATM   13  C22 UNL     1      -7.499  45.379 -19.624  1.00  0.00     0.135 C 
HETATM   14  O3  UNL     1      -8.287  44.805 -18.870  1.00  0.00    -0.297 OA
HETATM   15  C23 UNL     1      -6.010  45.181 -19.450  1.00  0.00     0.080 C 
HETATM   16  C24 UNL     1      -5.288  46.519 -19.474  1.00  0.00     0.018 C 
HETATM   17  C25 UNL     1      -5.628  47.289 -20.742  1.00  0.00    -0.026 A 
HETATM   18  C26 UNL     1      -4.798  46.979 -21.960  1.00  0.00     0.021 A 
HETATM   19  C27 UNL     1      -4.640  48.347 -21.314  1.00  0.00    -0.025 A 
HETATM   20  C28 UNL     1      -3.359  48.602 -20.513  1.00  0.00     0.011 C 
HETATM   21  C29 UNL     1      -2.314  49.563 -21.100  1.00  0.00     0.011 C 
HETATM   22  C30 UNL     1      -2.776  50.346 -22.332  1.00  0.00    -0.032 C 
HETATM   23  C31 UNL     1      -2.567  49.445 -23.587  1.00  0.00     0.016 C 
ENDROOT
BRANCH   1  24
HETATM   24  C8  UNL     1      -0.646  51.771 -23.206  1.00  0.00    -0.011 C 
HETATM   25  C9  UNL     1       0.438  52.074 -22.162  1.00  0.00     0.010 C 
BRANCH  24  26
HETATM   26  C7  UNL     1      -0.579  52.844 -24.337  1.00  0.00     0.037 C 
BRANCH  26  27
HETATM   27  C6  UNL     1       0.735  52.798 -25.142  1.00  0.00     0.126 C 
BRANCH  27  28
HETATM   28  C4  UNL     1       0.960  51.491 -25.958  1.00  0.00     0.038 C 
HETATM   29  C5  UNL     1       2.431  51.278 -26.344  1.00  0.00     0.017 C 
BRANCH  28  30
HETATM   30  C2  UNL     1      -0.008  51.335 -27.129  1.00  0.00    -0.087 C 
HETATM   31  C1  UNL     1       0.327  51.772 -28.356  1.00  0.00     0.014 C 
HETATM   32  C3  UNL     1      -1.359  50.714 -26.888  1.00  0.00     0.043 C 
ENDBRANCH  28  30
ENDBRANCH  27  28
BRANCH  27  33
HETATM   33  O1  UNL     1       0.786  53.920 -26.026  1.00  0.00    -0.395 OA
HETATM   34  H11 UNL     1       1.663  53.922 -26.447  1.00  0.00     0.210 HD
ENDBRANCH  27  33
ENDBRANCH  26  27
ENDBRANCH  24  26
ENDBRANCH   1  24
BRANCH   7  35
HETATM   35  O2  UNL     1      -7.225  50.751 -22.773  1.00  0.00    -0.395 OA
HETATM   36  H28 UNL     1      -7.137  50.384 -23.669  1.00  0.00     0.210 HD
ENDBRANCH   7  35
TORSDOF 7
ENDMDL
MODEL 6
REMARK minimizedAffinity -9.15711308
REMARK  7 active torsions:
REMARK  status: ('A' for Active; 'I' for Inactive)
REMARK    1  A    between atoms: C2_2  and  C4_4 
REMARK    2  A    between atoms: C4_4  and  C6_6 
REMARK    3  A    between atoms: C6_6  and  O1_7 
REMARK    4  A    between atoms: C6_6  and  C7_8 
REMARK    5  A    between atoms: C7_8  and  C8_9 
REMARK    6  A    between atoms: C8_9  and  C10_11 
REMARK    7  A    between atoms: C16_17  and  O2_18 
ROOT
HETATM    1  C10 UNL     1      -2.109  50.782 -22.238  1.00  0.00    -0.002 C 
HETATM    2  C11 UNL     1      -1.586  52.224 -22.496  1.00  0.00     0.006 C 
HETATM    3  C12 UNL     1      -0.780  52.656 -21.262  1.00  0.00     0.011 C 
HETATM    4  C13 UNL     1      -0.562  51.367 -20.444  1.00  0.00    -0.030 C 
HETATM    5  C14 UNL     1       0.680  50.651 -21.057  1.00  0.00     0.016 C 
HETATM    6  C15 UNL     1      -0.354  51.588 -18.915  1.00  0.00     0.032 C 
HETATM    7  C16 UNL     1       1.000  52.221 -18.529  1.00  0.00     0.124 C 
HETATM    8  C17 UNL     1       1.099  52.422 -17.017  1.00  0.00     0.038 C 
HETATM    9  C18 UNL     1       1.174  51.071 -16.301  1.00  0.00     0.012 C 
HETATM   10  C19 UNL     1       1.330  51.168 -14.750  1.00  0.00     0.018 C 
HETATM   11  C20 UNL     1       2.631  51.915 -14.388  1.00  0.00     0.023 C 
HETATM   12  C21 UNL     1       0.164  51.883 -14.049  1.00  0.00     0.023 C 
HETATM   13  C22 UNL     1       1.419  49.737 -14.184  1.00  0.00     0.135 C 
HETATM   14  O3  UNL     1       2.245  49.414 -13.328  1.00  0.00    -0.297 OA
HETATM   15  C23 UNL     1       0.379  48.740 -14.643  1.00  0.00     0.080 C 
HETATM   16  C24 UNL     1       0.299  48.714 -16.160  1.00  0.00     0.018 C 
HETATM   17  C25 UNL     1       0.046  50.111 -16.708  1.00  0.00    -0.026 A 
HETATM   18  C26 UNL     1      -1.391  50.555 -16.781  1.00  0.00     0.021 A 
HETATM   19  C27 UNL     1      -0.650  50.306 -18.087  1.00  0.00    -0.025 A 
HETATM   20  C28 UNL     1      -1.009  49.036 -18.867  1.00  0.00     0.011 C 
HETATM   21  C29 UNL     1      -1.789  49.187 -20.182  1.00  0.00     0.011 C 
HETATM   22  C30 UNL     1      -1.927  50.625 -20.690  1.00  0.00    -0.032 C 
HETATM   23  C31 UNL     1      -3.139  51.284 -19.963  1.00  0.00     0.016 C 
ENDROOT
BRANCH   1  24
HETATM   24  C8  UNL     1      -3.506  50.538 -22.888  1.00  0.00    -0.011 C 
HETATM   25  C9  UNL     1      -3.804  49.041 -23.044  1.00  0.00     0.010 C 
BRANCH  24  26
HETATM   26  C7  UNL     1      -3.601  51.226 -24.285  1.00  0.00     0.037 C 
BRANCH  26  27
HETATM   27  C6  UNL     1      -2.225  51.498 -24.924  1.00  0.00     0.126 C 
BRANCH  27  28
HETATM   28  C4  UNL     1      -1.660  50.334 -25.790  1.00  0.00     0.038 C 
HETATM   29  C5  UNL     1      -0.315  50.678 -26.444  1.00  0.00     0.017 C 
BRANCH  28  30
HETATM   30  C2  UNL     1      -2.684  49.756 -26.765  1.00  0.00    -0.087 C 
HETATM   31  C1  UNL     1      -3.151  48.505 -26.604  1.00  0.00     0.014 C 
HETATM   32  C3  UNL     1      -3.144  50.593 -27.930  1.00  0.00     0.043 C 
ENDBRANCH  28  30
ENDBRANCH  27  28
BRANCH  27  33
HETATM   33  O1  UNL     1      -2.299  52.684 -25.719  1.00  0.00    -0.395 OA
HETATM   34  H11 UNL     1      -1.400  52.887 -26.027  1.00  0.00     0.210 HD
ENDBRANCH  27  33
ENDBRANCH  26  27
ENDBRANCH  24  26
ENDBRANCH   1  24
BRANCH   7  35
HETATM   35  O2  UNL     1       1.164  53.494 -19.151  1.00  0.00    -0.395 OA
HETATM   36  H28 UNL     1       0.437  54.069 -18.856  1.00  0.00     0.210 HD
ENDBRANCH   7  35
TORSDOF 7
ENDMDL
MODEL 7
REMARK minimizedAffinity -9.10070515
REMARK  7 active torsions:
REMARK  status: ('A' for Active; 'I' for Inactive)
REMARK    1  A    between atoms: C2_2  and  C4_4 
REMARK    2  A    between atoms: C4_4  and  C6_6 
REMARK    3  A    between atoms: C6_6  and  O1_7 
REMARK    4  A    between atoms: C6_6  and  C7_8 
REMARK    5  A    between atoms: C7_8  and  C8_9 
REMARK    6  A    between atoms: C8_9  and  C10_11 
REMARK    7  A    between atoms: C16_17  and  O2_18 
ROOT
HETATM    1  C10 UNL     1      -1.242  50.821 -17.352  1.00  0.00    -0.002 C 
HETATM    2  C11 UNL     1       0.272  51.164 -17.250  1.00  0.00     0.006 C 
HETATM    3  C12 UNL     1       0.752  51.579 -18.648  1.00  0.00     0.011 C 
HETATM    4  C13 UNL     1      -0.530  51.790 -19.475  1.00  0.00    -0.030 C 
HETATM    5  C14 UNL     1      -1.028  53.237 -19.172  1.00  0.00     0.016 C 
HETATM    6  C15 UNL     1      -0.359  51.593 -21.013  1.00  0.00     0.032 C 
HETATM    7  C16 UNL     1       0.441  52.704 -21.724  1.00  0.00     0.124 C 
HETATM    8  C17 UNL     1       0.579  52.409 -23.218  1.00  0.00     0.038 C 
HETATM    9  C18 UNL     1      -0.782  52.517 -23.911  1.00  0.00     0.012 C 
HETATM   10  C19 UNL     1      -0.742  52.283 -25.456  1.00  0.00     0.018 C 
HETATM   11  C20 UNL     1       0.166  53.332 -26.133  1.00  0.00     0.023 C 
HETATM   12  C21 UNL     1      -0.239  50.889 -25.862  1.00  0.00     0.023 C 
HETATM   13  C22 UNL     1      -2.171  52.451 -26.006  1.00  0.00     0.135 C 
HETATM   14  O3  UNL     1      -2.415  53.090 -27.031  1.00  0.00    -0.297 OA
HETATM   15  C23 UNL     1      -3.283  51.714 -25.295  1.00  0.00     0.080 C 
HETATM   16  C24 UNL     1      -3.245  52.002 -23.803  1.00  0.00     0.018 C 
HETATM   17  C25 UNL     1      -1.872  51.677 -23.229  1.00  0.00    -0.026 A 
HETATM   18  C26 UNL     1      -1.637  50.248 -22.817  1.00  0.00     0.021 A 
HETATM   19  C27 UNL     1      -1.712  51.307 -21.726  1.00  0.00    -0.025 A 
HETATM   20  C28 UNL     1      -2.978  51.341 -20.865  1.00  0.00     0.011 C 
HETATM   21  C29 UNL     1      -2.875  50.882 -19.402  1.00  0.00     0.011 C 
HETATM   22  C30 UNL     1      -1.449  50.652 -18.896  1.00  0.00    -0.032 C 
HETATM   23  C31 UNL     1      -1.009  49.216 -19.317  1.00  0.00     0.016 C 
ENDROOT
BRANCH   1  24
HETATM   24  C8  UNL     1      -1.652  49.672 -16.380  1.00  0.00    -0.011 C 
HETATM   25  C9  UNL     1      -3.145  49.338 -16.496  1.00  0.00     0.010 C 
BRANCH  24  26
HETATM   26  C7  UNL     1      -1.326  50.048 -14.901  1.00  0.00     0.037 C 
BRANCH  26  27
HETATM   27  C6  UNL     1      -2.395  50.949 -14.253  1.00  0.00     0.126 C 
BRANCH  27  28
HETATM   28  C4  UNL     1      -1.840  52.042 -13.293  1.00  0.00     0.038 C 
HETATM   29  C5  UNL     1      -0.307  52.040 -13.213  1.00  0.00     0.017 C 
BRANCH  28  30
HETATM   30  C2  UNL     1      -2.524  52.051 -11.927  1.00  0.00    -0.087 C 
HETATM   31  C1  UNL     1      -1.940  51.465 -10.867  1.00  0.00     0.014 C 
HETATM   32  C3  UNL     1      -3.877  52.698 -11.786  1.00  0.00     0.043 C 
ENDBRANCH  28  30
ENDBRANCH  27  28
BRANCH  27  33
HETATM   33  O1  UNL     1      -3.173  51.572 -15.278  1.00  0.00    -0.395 OA
HETATM   34  H11 UNL     1      -3.898  52.053 -14.844  1.00  0.00     0.210 HD
ENDBRANCH  27  33
ENDBRANCH  26  27
ENDBRANCH  24  26
ENDBRANCH   1  24
BRANCH   7  35
HETATM   35  O2  UNL     1       1.755  52.815 -21.178  1.00  0.00    -0.395 OA
HETATM   36  H28 UNL     1       2.203  51.960 -21.297  1.00  0.00     0.210 HD
ENDBRANCH   7  35
TORSDOF 7
ENDMDL
MODEL 8
REMARK minimizedAffinity -9.09342194
REMARK  7 active torsions:
REMARK  status: ('A' for Active; 'I' for Inactive)
REMARK    1  A    between atoms: C2_2  and  C4_4 
REMARK    2  A    between atoms: C4_4  and  C6_6 
REMARK    3  A    between atoms: C6_6  and  O1_7 
REMARK    4  A    between atoms: C6_6  and  C7_8 
REMARK    5  A    between atoms: C7_8  and  C8_9 
REMARK    6  A    between atoms: C8_9  and  C10_11 
REMARK    7  A    between atoms: C16_17  and  O2_18 
ROOT
HETATM    1  C10 UNL     1      -1.766  51.856 -22.491  1.00  0.00    -0.002 C 
HETATM    2  C11 UNL     1      -3.089  52.499 -22.996  1.00  0.00     0.006 C 
HETATM    3  C12 UNL     1      -4.250  51.612 -22.522  1.00  0.00     0.011 C 
HETATM    4  C13 UNL     1      -3.635  50.653 -21.484  1.00  0.00    -0.030 C 
HETATM    5  C14 UNL     1      -3.611  51.419 -20.125  1.00  0.00     0.016 C 
HETATM    6  C15 UNL     1      -4.382  49.294 -21.321  1.00  0.00     0.032 C 
HETATM    7  C16 UNL     1      -5.753  49.388 -20.620  1.00  0.00     0.124 C 
HETATM    8  C17 UNL     1      -6.418  48.014 -20.532  1.00  0.00     0.038 C 
HETATM    9  C18 UNL     1      -5.643  47.105 -19.575  1.00  0.00     0.012 C 
HETATM   10  C19 UNL     1      -6.272  45.689 -19.375  1.00  0.00     0.018 C 
HETATM   11  C20 UNL     1      -7.695  45.813 -18.788  1.00  0.00     0.023 C 
HETATM   12  C21 UNL     1      -6.364  44.860 -20.665  1.00  0.00     0.023 C 
HETATM   13  C22 UNL     1      -5.399  44.911 -18.372  1.00  0.00     0.135 C 
HETATM   14  O3  UNL     1      -5.880  44.248 -17.450  1.00  0.00    -0.297 OA
HETATM   15  C23 UNL     1      -3.906  44.899 -18.610  1.00  0.00     0.080 C 
HETATM   16  C24 UNL     1      -3.384  46.315 -18.791  1.00  0.00     0.018 C 
HETATM   17  C25 UNL     1      -4.144  47.029 -19.900  1.00  0.00    -0.026 A 
HETATM   18  C26 UNL     1      -3.642  46.815 -21.304  1.00  0.00     0.021 A 
HETATM   19  C27 UNL     1      -3.481  48.197 -20.687  1.00  0.00    -0.025 A 
HETATM   20  C28 UNL     1      -2.071  48.613 -20.253  1.00  0.00     0.011 C 
HETATM   21  C29 UNL     1      -1.347  49.691 -21.073  1.00  0.00     0.011 C 
HETATM   22  C30 UNL     1      -2.215  50.404 -22.114  1.00  0.00    -0.032 C 
HETATM   23  C31 UNL     1      -2.246  49.527 -23.403  1.00  0.00     0.016 C 
ENDROOT
BRANCH   1  24
HETATM   24  C8  UNL     1      -0.588  52.074 -23.489  1.00  0.00    -0.011 C 
HETATM   25  C9  UNL     1       0.682  52.550 -22.771  1.00  0.00     0.010 C 
BRANCH  24  26
HETATM   26  C7  UNL     1      -0.972  53.112 -24.590  1.00  0.00     0.037 C 
BRANCH  26  27
HETATM   27  C6  UNL     1       0.247  53.677 -25.345  1.00  0.00     0.126 C 
BRANCH  27  28
HETATM   28  C4  UNL     1       0.502  53.048 -26.746  1.00  0.00     0.038 C 
HETATM   29  C5  UNL     1      -0.680  53.236 -27.706  1.00  0.00     0.017 C 
BRANCH  28  30
HETATM   30  C2  UNL     1       1.011  51.609 -26.678  1.00  0.00    -0.087 C 
HETATM   31  C1  UNL     1       0.151  50.577 -26.716  1.00  0.00     0.014 C 
HETATM   32  C3  UNL     1       2.490  51.358 -26.536  1.00  0.00     0.043 C 
ENDBRANCH  28  30
ENDBRANCH  27  28
BRANCH  27  33
HETATM   33  O1  UNL     1       0.103  55.093 -25.483  1.00  0.00    -0.395 OA
HETATM   34  H11 UNL     1       0.926  55.434 -25.871  1.00  0.00     0.210 HD
ENDBRANCH  27  33
ENDBRANCH  26  27
ENDBRANCH  24  26
ENDBRANCH   1  24
BRANCH   7  35
HETATM   35  O2  UNL     1      -6.633  50.255 -21.334  1.00  0.00    -0.395 OA
HETATM   36  H28 UNL     1      -6.747  49.896 -22.230  1.00  0.00     0.210 HD
ENDBRANCH   7  35
TORSDOF 7
ENDMDL
MODEL 9
REMARK minimizedAffinity -9.02975559
REMARK  7 active torsions:
REMARK  status: ('A' for Active; 'I' for Inactive)
REMARK    1  A    between atoms: C2_2  and  C4_4 
REMARK    2  A    between atoms: C4_4  and  C6_6 
REMARK    3  A    between atoms: C6_6  and  O1_7 
REMARK    4  A    between atoms: C6_6  and  C7_8 
REMARK    5  A    between atoms: C7_8  and  C8_9 
REMARK    6  A    between atoms: C8_9  and  C10_11 
REMARK    7  A    between atoms: C16_17  and  O2_18 
ROOT
HETATM    1  C10 UNL     1      -3.218  50.480 -24.539  1.00  0.00    -0.002 C 
HETATM    2  C11 UNL     1      -4.359  51.526 -24.386  1.00  0.00     0.006 C 
HETATM    3  C12 UNL     1      -5.219  51.106 -23.185  1.00  0.00     0.011 C 
HETATM    4  C13 UNL     1      -4.402  50.023 -22.456  1.00  0.00    -0.030 C 
HETATM    5  C14 UNL     1      -3.396  50.769 -21.526  1.00  0.00     0.016 C 
HETATM    6  C15 UNL     1      -5.249  49.009 -21.626  1.00  0.00     0.032 C 
HETATM    7  C16 UNL     1      -5.878  49.589 -20.342  1.00  0.00     0.124 C 
HETATM    8  C17 UNL     1      -6.709  48.531 -19.614  1.00  0.00     0.038 C 
HETATM    9  C18 UNL     1      -5.802  47.437 -19.047  1.00  0.00     0.012 C 
HETATM   10  C19 UNL     1      -6.551  46.330 -18.237  1.00  0.00     0.018 C 
HETATM   11  C20 UNL     1      -7.278  46.953 -17.025  1.00  0.00     0.023 C 
HETATM   12  C21 UNL     1      -7.588  45.550 -19.060  1.00  0.00     0.023 C 
HETATM   13  C22 UNL     1      -5.507  45.326 -17.713  1.00  0.00     0.135 C 
HETATM   14  O3  UNL     1      -5.524  44.894 -16.559  1.00  0.00    -0.297 OA
HETATM   15  C23 UNL     1      -4.495  44.793 -18.702  1.00  0.00     0.080 C 
HETATM   16  C24 UNL     1      -3.817  45.937 -19.439  1.00  0.00     0.018 C 
HETATM   17  C25 UNL     1      -4.852  46.839 -20.096  1.00  0.00    -0.026 A 
HETATM   18  C26 UNL     1      -5.331  46.429 -21.463  1.00  0.00     0.021 A 
HETATM   19  C27 UNL     1      -4.481  47.686 -21.348  1.00  0.00    -0.025 A 
HETATM   20  C28 UNL     1      -3.031  47.601 -21.837  1.00  0.00     0.011 C 
HETATM   21  C29 UNL     1      -2.656  48.342 -23.130  1.00  0.00     0.011 C 
HETATM   22  C30 UNL     1      -3.736  49.282 -23.673  1.00  0.00    -0.032 C 
HETATM   23  C31 UNL     1      -4.737  48.436 -24.517  1.00  0.00     0.016 C 
ENDROOT
BRANCH   1  24
HETATM   24  C8  UNL     1      -2.825  50.252 -26.032  1.00  0.00    -0.011 C 
HETATM   25  C9  UNL     1      -2.822  48.761 -26.394  1.00  0.00     0.010 C 
BRANCH  24  26
HETATM   26  C7  UNL     1      -1.420  50.856 -26.339  1.00  0.00     0.037 C 
BRANCH  26  27
HETATM   27  C6  UNL     1      -1.383  52.393 -26.233  1.00  0.00     0.126 C 
BRANCH  27  28
HETATM   28  C4  UNL     1       0.013  53.035 -26.487  1.00  0.00     0.038 C 
HETATM   29  C5  UNL     1      -0.078  54.391 -27.202  1.00  0.00     0.017 C 
BRANCH  28  30
HETATM   30  C2  UNL     1       1.013  52.073 -27.125  1.00  0.00    -0.087 C 
HETATM   31  C1  UNL     1       0.913  51.747 -28.426  1.00  0.00     0.014 C 
HETATM   32  C3  UNL     1       2.098  51.469 -26.273  1.00  0.00     0.043 C 
ENDBRANCH  28  30
ENDBRANCH  27  28
BRANCH  27  33
HETATM   33  O1  UNL     1      -2.332  52.953 -27.144  1.00  0.00    -0.395 OA
HETATM   34  H11 UNL     1      -2.359  53.912 -26.986  1.00  0.00     0.210 HD
ENDBRANCH  27  33
ENDBRANCH  26  27
ENDBRANCH  24  26
ENDBRANCH   1  24
BRANCH   7  35
HETATM   35  O2  UNL     1      -6.738  50.687 -20.645  1.00  0.00    -0.395 OA
HETATM   36  H28 UNL     1      -7.438  50.365 -21.237  1.00  0.00     0.210 HD
ENDBRANCH   7  35
TORSDOF 7
ENDMDL
