MODEL 1
REMARK minimizedAffinity -7.39895058
REMARK CNNscore 0.833728194
REMARK CNNaffinity 7.39008474
REMARK  9 active torsions:
REMARK  status: ('A' for Active; 'I' for Inactive)
REMARK    1  A    between atoms: C2_2  and  C3_3 
REMARK    2  A    between atoms: C2_2  and  C9_12 
REMARK    3  A    between atoms: C3_3  and  C4_4 
REMARK    4  A    between atoms: C4_4  and  C5_5 
REMARK    5  A    between atoms: C5_5  and  O1_6 
REMARK    6  A    between atoms: C5_5  and  C6_7 
REMARK    7  A    between atoms: C6_7  and  O2_9 
REMARK    8  A    between atoms: C6_7  and  C8_10 
REMARK    9  A    between atoms: C8_10  and  O3_11 
ROOT
HETATM    1  C9  UNL     1      -1.862  52.336 -10.070  1.00  0.00    -0.002 C 
HETATM    2  C10 UNL     1      -1.194  50.940 -10.196  1.00  0.00     0.007 C 
HETATM    3  C11 UNL     1       0.296  51.119  -9.844  1.00  0.00     0.015 C 
HETATM    4  C12 UNL     1       0.386  52.496  -9.156  1.00  0.00    -0.005 C 
HETATM    5  C13 UNL     1      -0.021  52.287  -7.663  1.00  0.00     0.021 C 
HETATM    6  C14 UNL     1       1.711  53.248  -9.084  1.00  0.00    -0.000 C 
HETATM    7  C15 UNL     1       1.745  54.607  -9.050  1.00  0.00    -0.060 C 
HETATM    8  C16 UNL     1       0.450  55.425  -9.142  1.00  0.00     0.036 C 
HETATM    9  C17 UNL     1      -0.873  54.661  -9.350  1.00  0.00     0.015 C 
HETATM   10  C18 UNL     1      -0.647  53.311 -10.038  1.00  0.00    -0.028 C 
HETATM   11  C19 UNL     1      -0.132  53.578 -11.482  1.00  0.00     0.016 C 
HETATM   12  C20 UNL     1       3.071  55.414  -8.984  1.00  0.00    -0.014 C 
HETATM   13  C21 UNL     1       3.425  55.754 -10.450  1.00  0.00     0.020 C 
HETATM   14  C22 UNL     1       2.907  56.725  -8.173  1.00  0.00     0.021 C 
HETATM   15  C23 UNL     1       4.208  57.485  -7.975  1.00  0.00     0.080 C 
HETATM   16  C24 UNL     1       5.240  56.623  -7.291  1.00  0.00     0.135 C 
HETATM   17  O4  UNL     1       5.903  57.088  -6.362  1.00  0.00    -0.297 OA
HETATM   18  C25 UNL     1       5.503  55.225  -7.869  1.00  0.00     0.018 C 
HETATM   19  C26 UNL     1       6.203  54.389  -6.767  1.00  0.00     0.023 C 
HETATM   20  C27 UNL     1       6.502  55.369  -9.027  1.00  0.00     0.023 C 
HETATM   21  C28 UNL     1       4.140  54.541  -8.242  1.00  0.00     0.020 C 
HETATM   22  C29 UNL     1       4.299  53.195  -8.954  1.00  0.00     0.090 C 
HETATM   23  C30 UNL     1       2.982  52.457  -9.012  1.00  0.00     0.157 C 
HETATM   24  O5  UNL     1       2.974  51.228  -9.024  1.00  0.00    -0.293 OA
ENDROOT
BRANCH   1  25
HETATM   25  C2  UNL     1      -3.095  52.523 -11.007  1.00  0.00    -0.014 C 
HETATM   26  C1  UNL     1      -4.154  53.542 -10.567  1.00  0.00     0.010 C 
BRANCH  25  27
HETATM   27  C3  UNL     1      -3.755  51.170 -11.350  1.00  0.00     0.007 C 
BRANCH  27  28
HETATM   28  C4  UNL     1      -4.934  50.726 -10.469  1.00  0.00     0.035 C 
BRANCH  28  29
HETATM   29  C5  UNL     1      -5.707  49.451 -10.862  1.00  0.00     0.154 C 
BRANCH  29  30
HETATM   30  O1  UNL     1      -4.837  48.331 -10.679  1.00  0.00    -0.392 OA
HETATM   31  H10 UNL     1      -5.373  47.519 -10.780  1.00  0.00     0.210 HD
ENDBRANCH  29  30
BRANCH  29  32
HETATM   32  C6  UNL     1      -7.113  49.247 -10.199  1.00  0.00     0.101 C 
HETATM   33  C7  UNL     1      -8.092  48.573 -11.165  1.00  0.00     0.051 C 
BRANCH  32  34
HETATM   34  O2  UNL     1      -7.663  50.509  -9.787  1.00  0.00    -0.385 OA
HETATM   35  H14 UNL     1      -8.595  50.377  -9.548  1.00  0.00     0.210 HD
ENDBRANCH  32  34
BRANCH  32  36
HETATM   36  C8  UNL     1      -6.987  48.395  -8.916  1.00  0.00     0.204 C 
BRANCH  36  37
HETATM   37  O3  UNL     1      -7.747  48.990  -7.859  1.00  0.00    -0.398 OA
HETATM   38  H17 UNL     1      -8.622  49.195  -8.255  1.00  0.00     0.209 HD
ENDBRANCH  36  37
ENDBRANCH  32  36
ENDBRANCH  29  32
ENDBRANCH  28  29
ENDBRANCH  27  28
ENDBRANCH  25  27
ENDBRANCH   1  25
TORSDOF 9
ENDMDL
MODEL 2
REMARK minimizedAffinity -7.04079056
REMARK CNNscore 0.767106414
REMARK CNNaffinity 7.11316347
REMARK  9 active torsions:
REMARK  status: ('A' for Active; 'I' for Inactive)
REMARK    1  A    between atoms: C2_2  and  C3_3 
REMARK    2  A    between atoms: C2_2  and  C9_12 
REMARK    3  A    between atoms: C3_3  and  C4_4 
REMARK    4  A    between atoms: C4_4  and  C5_5 
REMARK    5  A    between atoms: C5_5  and  O1_6 
REMARK    6  A    between atoms: C5_5  and  C6_7 
REMARK    7  A    between atoms: C6_7  and  O2_9 
REMARK    8  A    between atoms: C6_7  and  C8_10 
REMARK    9  A    between atoms: C8_10  and  O3_11 
ROOT
HETATM    1  C9  UNL     1       4.031  56.375  -7.918  1.00  0.00    -0.002 C 
HETATM    2  C10 UNL     1       5.089  55.486  -8.627  1.00  0.00     0.007 C 
HETATM    3  C11 UNL     1       4.317  54.494  -9.520  1.00  0.00     0.015 C 
HETATM    4  C12 UNL     1       2.888  55.063  -9.616  1.00  0.00    -0.005 C 
HETATM    5  C13 UNL     1       2.910  56.162 -10.725  1.00  0.00     0.021 C 
HETATM    6  C14 UNL     1       1.714  54.167  -9.997  1.00  0.00    -0.000 C 
HETATM    7  C15 UNL     1       0.459  54.425  -9.542  1.00  0.00    -0.060 C 
HETATM    8  C16 UNL     1       0.198  55.594  -8.584  1.00  0.00     0.036 C 
HETATM    9  C17 UNL     1       1.411  56.413  -8.098  1.00  0.00     0.015 C 
HETATM   10  C18 UNL     1       2.703  55.590  -8.134  1.00  0.00    -0.028 C 
HETATM   11  C19 UNL     1       2.580  54.441  -7.093  1.00  0.00     0.016 C 
HETATM   12  C20 UNL     1      -0.764  53.535  -9.897  1.00  0.00    -0.014 C 
HETATM   13  C21 UNL     1      -0.891  52.518  -8.739  1.00  0.00     0.020 C 
HETATM   14  C22 UNL     1      -2.069  54.365 -10.004  1.00  0.00     0.021 C 
HETATM   15  C23 UNL     1      -3.268  53.557 -10.473  1.00  0.00     0.080 C 
HETATM   16  C24 UNL     1      -2.998  52.914 -11.810  1.00  0.00     0.135 C 
HETATM   17  O4  UNL     1      -3.854  52.967 -12.696  1.00  0.00    -0.297 OA
HETATM   18  C25 UNL     1      -1.698  52.111 -11.970  1.00  0.00     0.018 C 
HETATM   19  C26 UNL     1      -1.421  51.972 -13.489  1.00  0.00     0.023 C 
HETATM   20  C27 UNL     1      -1.943  50.696 -11.424  1.00  0.00     0.023 C 
HETATM   21  C28 UNL     1      -0.510  52.890 -11.303  1.00  0.00     0.020 C 
HETATM   22  C29 UNL     1       0.808  52.110 -11.288  1.00  0.00     0.090 C 
HETATM   23  C30 UNL     1       1.963  53.010 -10.917  1.00  0.00     0.157 C 
HETATM   24  O5  UNL     1       3.086  52.769 -11.354  1.00  0.00    -0.293 OA
ENDROOT
BRANCH   1  25
HETATM   25  C2  UNL     1       4.501  56.914  -6.530  1.00  0.00    -0.014 C 
HETATM   26  C1  UNL     1       3.615  57.972  -5.861  1.00  0.00     0.010 C 
BRANCH  25  27
HETATM   27  C3  UNL     1       5.970  57.385  -6.575  1.00  0.00     0.007 C 
BRANCH  27  28
HETATM   28  C4  UNL     1       6.763  57.321  -5.260  1.00  0.00     0.035 C 
BRANCH  28  29
HETATM   29  C5  UNL     1       8.255  57.710  -5.280  1.00  0.00     0.154 C 
BRANCH  29  30
HETATM   30  O1  UNL     1       8.356  59.098  -4.953  1.00  0.00    -0.392 OA
HETATM   31  H10 UNL     1       9.302  59.304  -4.816  1.00  0.00     0.210 HD
ENDBRANCH  29  30
BRANCH  29  32
HETATM   32  C6  UNL     1       9.230  56.813  -4.442  1.00  0.00     0.101 C 
HETATM   33  C7  UNL     1       8.468  55.732  -3.668  1.00  0.00     0.051 C 
BRANCH  32  34
HETATM   34  O2  UNL     1       9.973  57.615  -3.508  1.00  0.00    -0.385 OA
HETATM   35  H14 UNL     1      10.429  57.023  -2.887  1.00  0.00     0.210 HD
ENDBRANCH  32  34
BRANCH  32  36
HETATM   36  C8  UNL     1      10.278  56.146  -5.362  1.00  0.00     0.204 C 
BRANCH  36  37
HETATM   37  O3  UNL     1      11.579  56.672  -5.079  1.00  0.00    -0.398 OA
HETATM   38  H17 UNL     1      11.662  56.641  -4.101  1.00  0.00     0.209 HD
ENDBRANCH  36  37
ENDBRANCH  32  36
ENDBRANCH  29  32
ENDBRANCH  28  29
ENDBRANCH  27  28
ENDBRANCH  25  27
ENDBRANCH   1  25
TORSDOF 9
ENDMDL
MODEL 3
REMARK minimizedAffinity -6.87410784
REMARK CNNscore 0.725215375
REMARK CNNaffinity 7.01504469
REMARK  9 active torsions:
REMARK  status: ('A' for Active; 'I' for Inactive)
REMARK    1  A    between atoms: C2_2  and  C3_3 
REMARK    2  A    between atoms: C2_2  and  C9_12 
REMARK    3  A    between atoms: C3_3  and  C4_4 
REMARK    4  A    between atoms: C4_4  and  C5_5 
REMARK    5  A    between atoms: C5_5  and  O1_6 
REMARK    6  A    between atoms: C5_5  and  C6_7 
REMARK    7  A    between atoms: C6_7  and  O2_9 
REMARK    8  A    between atoms: C6_7  and  C8_10 
REMARK    9  A    between atoms: C8_10  and  O3_11 
ROOT
HETATM    1  C9  UNL     1      -1.688  52.061 -10.703  1.00  0.00    -0.002 C 
HETATM    2  C10 UNL     1      -1.008  50.669 -10.817  1.00  0.00     0.007 C 
HETATM    3  C11 UNL     1       0.460  50.848 -10.385  1.00  0.00     0.015 C 
HETATM    4  C12 UNL     1       0.509  52.214  -9.672  1.00  0.00    -0.005 C 
HETATM    5  C13 UNL     1       0.027  51.979  -8.206  1.00  0.00     0.021 C 
HETATM    6  C14 UNL     1       1.825  52.969  -9.520  1.00  0.00    -0.000 C 
HETATM    7  C15 UNL     1       1.852  54.328  -9.463  1.00  0.00    -0.060 C 
HETATM    8  C16 UNL     1       0.560  55.143  -9.609  1.00  0.00     0.036 C 
HETATM    9  C17 UNL     1      -0.747  54.377  -9.897  1.00  0.00     0.015 C 
HETATM   10  C18 UNL     1      -0.480  53.039 -10.593  1.00  0.00    -0.028 C 
HETATM   11  C19 UNL     1       0.107  53.331 -12.005  1.00  0.00     0.016 C 
HETATM   12  C20 UNL     1       3.170  55.138  -9.316  1.00  0.00    -0.014 C 
HETATM   13  C21 UNL     1       3.598  55.502 -10.756  1.00  0.00     0.020 C 
HETATM   14  C22 UNL     1       2.959  56.435  -8.494  1.00  0.00     0.021 C 
HETATM   15  C23 UNL     1       4.245  57.196  -8.218  1.00  0.00     0.080 C 
HETATM   16  C24 UNL     1       5.244  56.327  -7.495  1.00  0.00     0.135 C 
HETATM   17  O4  UNL     1       5.856  56.779  -6.525  1.00  0.00    -0.297 OA
HETATM   18  C25 UNL     1       5.542  54.938  -8.081  1.00  0.00     0.018 C 
HETATM   19  C26 UNL     1       6.187  54.087  -6.957  1.00  0.00     0.023 C 
HETATM   20  C27 UNL     1       6.599  55.105  -9.183  1.00  0.00     0.023 C 
HETATM   21  C28 UNL     1       4.203  54.257  -8.534  1.00  0.00     0.020 C 
HETATM   22  C29 UNL     1       4.404  52.922  -9.258  1.00  0.00     0.090 C 
HETATM   23  C30 UNL     1       3.095  52.181  -9.395  1.00  0.00     0.157 C 
HETATM   24  O5  UNL     1       3.092  50.953  -9.427  1.00  0.00    -0.293 OA
ENDROOT
BRANCH   1  25
HETATM   25  C2  UNL     1      -2.872  52.259 -11.699  1.00  0.00    -0.014 C 
HETATM   26  C1  UNL     1      -4.222  52.672 -11.100  1.00  0.00     0.010 C 
BRANCH  25  27
HETATM   27  C3  UNL     1      -3.041  51.036 -12.626  1.00  0.00     0.007 C 
BRANCH  27  28
HETATM   28  C4  UNL     1      -2.664  51.225 -14.105  1.00  0.00     0.035 C 
BRANCH  28  29
HETATM   29  C5  UNL     1      -2.079  50.023 -14.875  1.00  0.00     0.154 C 
BRANCH  29  30
HETATM   30  O1  UNL     1      -3.155  49.360 -15.544  1.00  0.00    -0.392 OA
HETATM   31  H10 UNL     1      -2.765  48.698 -16.150  1.00  0.00     0.210 HD
ENDBRANCH  29  30
BRANCH  29  32
HETATM   32  C6  UNL     1      -0.861  50.314 -15.816  1.00  0.00     0.101 C 
HETATM   33  C7  UNL     1       0.016  49.071 -15.996  1.00  0.00     0.051 C 
BRANCH  32  34
HETATM   34  O2  UNL     1      -0.054  51.377 -15.281  1.00  0.00    -0.385 OA
HETATM   35  H14 UNL     1       0.778  51.416 -15.780  1.00  0.00     0.210 HD
ENDBRANCH  32  34
BRANCH  32  36
HETATM   36  C8  UNL     1      -1.351  50.803 -17.198  1.00  0.00     0.204 C 
BRANCH  36  37
HETATM   37  O3  UNL     1      -0.410  50.428 -18.210  1.00  0.00    -0.398 OA
HETATM   38  H17 UNL     1      -0.214  49.481 -18.041  1.00  0.00     0.209 HD
ENDBRANCH  36  37
ENDBRANCH  32  36
ENDBRANCH  29  32
ENDBRANCH  28  29
ENDBRANCH  27  28
ENDBRANCH  25  27
ENDBRANCH   1  25
TORSDOF 9
ENDMDL
MODEL 4
REMARK minimizedAffinity -8.29752541
REMARK CNNscore 0.647284925
REMARK CNNaffinity 7.00113153
REMARK  9 active torsions:
REMARK  status: ('A' for Active; 'I' for Inactive)
REMARK    1  A    between atoms: C2_2  and  C3_3 
REMARK    2  A    between atoms: C2_2  and  C9_12 
REMARK    3  A    between atoms: C3_3  and  C4_4 
REMARK    4  A    between atoms: C4_4  and  C5_5 
REMARK    5  A    between atoms: C5_5  and  O1_6 
REMARK    6  A    between atoms: C5_5  and  C6_7 
REMARK    7  A    between atoms: C6_7  and  O2_9 
REMARK    8  A    between atoms: C6_7  and  C8_10 
REMARK    9  A    between atoms: C8_10  and  O3_11 
ROOT
HETATM    1  C9  UNL     1      -2.488  49.634 -21.963  1.00  0.00    -0.002 C 
HETATM    2  C10 UNL     1      -2.209  51.089 -22.430  1.00  0.00     0.007 C 
HETATM    3  C11 UNL     1      -1.388  51.771 -21.319  1.00  0.00     0.015 C 
HETATM    4  C12 UNL     1      -0.879  50.619 -20.428  1.00  0.00    -0.005 C 
HETATM    5  C13 UNL     1       0.394  50.038 -21.118  1.00  0.00     0.021 C 
HETATM    6  C14 UNL     1      -0.443  50.879 -18.990  1.00  0.00    -0.000 C 
HETATM    7  C15 UNL     1      -0.561  49.916 -18.037  1.00  0.00    -0.060 C 
HETATM    8  C16 UNL     1      -1.191  48.557 -18.370  1.00  0.00     0.036 C 
HETATM    9  C17 UNL     1      -1.752  48.351 -19.792  1.00  0.00     0.015 C 
HETATM   10  C18 UNL     1      -2.154  49.680 -20.442  1.00  0.00    -0.028 C 
HETATM   11  C19 UNL     1      -3.352  50.271 -19.644  1.00  0.00     0.016 C 
HETATM   12  C20 UNL     1      -0.137  50.139 -16.559  1.00  0.00    -0.014 C 
HETATM   13  C21 UNL     1      -1.419  50.586 -15.820  1.00  0.00     0.020 C 
HETATM   14  C22 UNL     1       0.406  48.838 -15.913  1.00  0.00     0.021 C 
HETATM   15  C23 UNL     1       0.950  49.037 -14.508  1.00  0.00     0.080 C 
HETATM   16  C24 UNL     1       2.045  50.074 -14.493  1.00  0.00     0.135 C 
HETATM   17  O4  UNL     1       3.085  49.853 -13.868  1.00  0.00    -0.297 OA
HETATM   18  C25 UNL     1       1.763  51.424 -15.169  1.00  0.00     0.018 C 
HETATM   19  C26 UNL     1       3.131  52.102 -15.443  1.00  0.00     0.023 C 
HETATM   20  C27 UNL     1       1.014  52.312 -14.164  1.00  0.00     0.023 C 
HETATM   21  C28 UNL     1       1.027  51.188 -16.535  1.00  0.00     0.020 C 
HETATM   22  C29 UNL     1       0.578  52.480 -17.225  1.00  0.00     0.090 C 
HETATM   23  C30 UNL     1       0.156  52.210 -18.650  1.00  0.00     0.157 C 
HETATM   24  O5  UNL     1       0.288  53.089 -19.500  1.00  0.00    -0.293 OA
ENDROOT
BRANCH   1  25
HETATM   25  C2  UNL     1      -3.809  49.037 -22.540  1.00  0.00    -0.014 C 
HETATM   26  C1  UNL     1      -4.494  47.942 -21.714  1.00  0.00     0.010 C 
BRANCH  25  27
HETATM   27  C3  UNL     1      -3.630  48.580 -24.004  1.00  0.00     0.007 C 
BRANCH  27  28
HETATM   28  C4  UNL     1      -4.835  48.758 -24.942  1.00  0.00     0.035 C 
BRANCH  28  29
HETATM   29  C5  UNL     1      -6.228  48.974 -24.317  1.00  0.00     0.154 C 
BRANCH  29  30
HETATM   30  O1  UNL     1      -6.477  50.382 -24.267  1.00  0.00    -0.392 OA
HETATM   31  H10 UNL     1      -7.414  50.509 -24.016  1.00  0.00     0.210 HD
ENDBRANCH  29  30
BRANCH  29  32
HETATM   32  C6  UNL     1      -7.415  48.166 -24.944  1.00  0.00     0.101 C 
HETATM   33  C7  UNL     1      -7.569  46.794 -24.281  1.00  0.00     0.051 C 
BRANCH  32  34
HETATM   34  O2  UNL     1      -7.206  47.978 -26.355  1.00  0.00    -0.385 OA
HETATM   35  H14 UNL     1      -7.853  47.331 -26.680  1.00  0.00     0.210 HD
ENDBRANCH  32  34
BRANCH  32  36
HETATM   36  C8  UNL     1      -8.737  48.955 -24.810  1.00  0.00     0.204 C 
BRANCH  36  37
HETATM   37  O3  UNL     1      -9.848  48.052 -24.828  1.00  0.00    -0.398 OA
HETATM   38  H17 UNL     1      -9.610  47.339 -24.196  1.00  0.00     0.209 HD
ENDBRANCH  36  37
ENDBRANCH  32  36
ENDBRANCH  29  32
ENDBRANCH  28  29
ENDBRANCH  27  28
ENDBRANCH  25  27
ENDBRANCH   1  25
TORSDOF 9
ENDMDL
MODEL 5
REMARK minimizedAffinity -8.7912426
REMARK CNNscore 0.399048984
REMARK CNNaffinity 6.90747499
REMARK  9 active torsions:
REMARK  status: ('A' for Active; 'I' for Inactive)
REMARK    1  A    between atoms: C2_2  and  C3_3 
REMARK    2  A    between atoms: C2_2  and  C9_12 
REMARK    3  A    between atoms: C3_3  and  C4_4 
REMARK    4  A    between atoms: C4_4  and  C5_5 
REMARK    5  A    between atoms: C5_5  and  O1_6 
REMARK    6  A    between atoms: C5_5  and  C6_7 
REMARK    7  A    between atoms: C6_7  and  O2_9 
REMARK    8  A    between atoms: C6_7  and  C8_10 
REMARK    9  A    between atoms: C8_10  and  O3_11 
ROOT
HETATM    1  C9  UNL     1      -2.604  50.114 -22.043  1.00  0.00    -0.002 C 
HETATM    2  C10 UNL     1      -2.186  51.547 -22.472  1.00  0.00     0.007 C 
HETATM    3  C11 UNL     1      -1.298  52.114 -21.347  1.00  0.00     0.015 C 
HETATM    4  C12 UNL     1      -0.902  50.895 -20.490  1.00  0.00    -0.005 C 
HETATM    5  C13 UNL     1       0.306  50.211 -21.203  1.00  0.00     0.021 C 
HETATM    6  C14 UNL     1      -0.439  51.071 -19.048  1.00  0.00    -0.000 C 
HETATM    7  C15 UNL     1      -0.648  50.098 -18.121  1.00  0.00    -0.060 C 
HETATM    8  C16 UNL     1      -1.409  48.817 -18.488  1.00  0.00     0.036 C 
HETATM    9  C17 UNL     1      -1.991  48.706 -19.912  1.00  0.00     0.015 C 
HETATM   10  C18 UNL     1      -2.263  50.084 -20.523  1.00  0.00    -0.028 C 
HETATM   11  C19 UNL     1      -3.396  50.768 -19.703  1.00  0.00     0.016 C 
HETATM   12  C20 UNL     1      -0.200  50.238 -16.640  1.00  0.00    -0.014 C 
HETATM   13  C21 UNL     1      -1.431  50.788 -15.882  1.00  0.00     0.020 C 
HETATM   14  C22 UNL     1       0.215  48.873 -16.033  1.00  0.00     0.021 C 
HETATM   15  C23 UNL     1       0.779  48.979 -14.626  1.00  0.00     0.080 C 
HETATM   16  C24 UNL     1       1.971  49.904 -14.588  1.00  0.00     0.135 C 
HETATM   17  O4  UNL     1       2.986  49.566 -13.975  1.00  0.00    -0.297 OA
HETATM   18  C25 UNL     1       1.820  51.293 -15.226  1.00  0.00     0.018 C 
HETATM   19  C26 UNL     1       3.247  51.842 -15.489  1.00  0.00     0.023 C 
HETATM   20  C27 UNL     1       1.164  52.221 -14.194  1.00  0.00     0.023 C 
HETATM   21  C28 UNL     1       1.060  51.168 -16.594  1.00  0.00     0.020 C 
HETATM   22  C29 UNL     1       0.738  52.515 -17.247  1.00  0.00     0.090 C 
HETATM   23  C30 UNL     1       0.288  52.328 -18.676  1.00  0.00     0.157 C 
HETATM   24  O5  UNL     1       0.503  53.212 -19.502  1.00  0.00    -0.293 OA
ENDROOT
BRANCH   1  25
HETATM   25  C2  UNL     1      -3.978  49.664 -22.629  1.00  0.00    -0.014 C 
HETATM   26  C1  UNL     1      -5.106  49.393 -21.625  1.00  0.00     0.010 C 
BRANCH  25  27
HETATM   27  C3  UNL     1      -3.817  48.473 -23.598  1.00  0.00     0.007 C 
BRANCH  27  28
HETATM   28  C4  UNL     1      -2.840  48.656 -24.771  1.00  0.00     0.035 C 
BRANCH  28  29
HETATM   29  C5  UNL     1      -3.391  49.179 -26.112  1.00  0.00     0.154 C 
BRANCH  29  30
HETATM   30  O1  UNL     1      -4.820  49.175 -26.036  1.00  0.00    -0.392 OA
HETATM   31  H10 UNL     1      -5.160  49.648 -26.822  1.00  0.00     0.210 HD
ENDBRANCH  29  30
BRANCH  29  32
HETATM   32  C6  UNL     1      -2.811  50.540 -26.631  1.00  0.00     0.101 C 
HETATM   33  C7  UNL     1      -3.064  50.719 -28.131  1.00  0.00     0.051 C 
BRANCH  32  34
HETATM   34  O2  UNL     1      -1.396  50.609 -26.387  1.00  0.00    -0.385 OA
HETATM   35  H14 UNL     1      -1.036  51.370 -26.871  1.00  0.00     0.210 HD
ENDBRANCH  32  34
BRANCH  32  36
HETATM   36  C8  UNL     1      -3.437  51.724 -25.858  1.00  0.00     0.204 C 
BRANCH  36  37
HETATM   37  O3  UNL     1      -2.951  52.962 -26.386  1.00  0.00    -0.398 OA
HETATM   38  H17 UNL     1      -3.043  52.880 -27.360  1.00  0.00     0.209 HD
ENDBRANCH  36  37
ENDBRANCH  32  36
ENDBRANCH  29  32
ENDBRANCH  28  29
ENDBRANCH  27  28
ENDBRANCH  25  27
ENDBRANCH   1  25
TORSDOF 9
ENDMDL
MODEL 6
REMARK minimizedAffinity -9.78190231
REMARK CNNscore 0.367491961
REMARK CNNaffinity 7.04588175
REMARK  9 active torsions:
REMARK  status: ('A' for Active; 'I' for Inactive)
REMARK    1  A    between atoms: C2_2  and  C3_3 
REMARK    2  A    between atoms: C2_2  and  C9_12 
REMARK    3  A    between atoms: C3_3  and  C4_4 
REMARK    4  A    between atoms: C4_4  and  C5_5 
REMARK    5  A    between atoms: C5_5  and  O1_6 
REMARK    6  A    between atoms: C5_5  and  C6_7 
REMARK    7  A    between atoms: C6_7  and  O2_9 
REMARK    8  A    between atoms: C6_7  and  C8_10 
REMARK    9  A    between atoms: C8_10  and  O3_11 
ROOT
HETATM    1  C9  UNL     1      -1.482  50.838 -23.189  1.00  0.00    -0.002 C 
HETATM    2  C10 UNL     1      -1.064  52.326 -23.346  1.00  0.00     0.007 C 
HETATM    3  C11 UNL     1      -0.472  52.773 -21.995  1.00  0.00     0.015 C 
HETATM    4  C12 UNL     1      -0.200  51.468 -21.221  1.00  0.00    -0.005 C 
HETATM    5  C13 UNL     1       1.170  50.916 -21.725  1.00  0.00     0.021 C 
HETATM    6  C14 UNL     1      -0.068  51.475 -19.701  1.00  0.00    -0.000 C 
HETATM    7  C15 UNL     1      -0.416  50.387 -18.962  1.00  0.00    -0.060 C 
HETATM    8  C16 UNL     1      -1.006  49.140 -19.634  1.00  0.00     0.036 C 
HETATM    9  C17 UNL     1      -1.262  49.192 -21.154  1.00  0.00     0.015 C 
HETATM   10  C18 UNL     1      -1.474  50.628 -21.645  1.00  0.00    -0.028 C 
HETATM   11  C19 UNL     1      -2.793  51.168 -21.021  1.00  0.00     0.016 C 
HETATM   12  C20 UNL     1      -0.305  50.352 -17.413  1.00  0.00    -0.014 C 
HETATM   13  C21 UNL     1      -1.698  50.765 -16.886  1.00  0.00     0.020 C 
HETATM   14  C22 UNL     1       0.047  48.935 -16.893  1.00  0.00     0.021 C 
HETATM   15  C23 UNL     1       0.290  48.880 -15.393  1.00  0.00     0.080 C 
HETATM   16  C24 UNL     1       1.391  49.828 -14.988  1.00  0.00     0.135 C 
HETATM   17  O4  UNL     1       2.268  49.446 -14.210  1.00  0.00    -0.297 OA
HETATM   18  C25 UNL     1       1.302  51.281 -15.477  1.00  0.00     0.018 C 
HETATM   19  C26 UNL     1       2.719  51.901 -15.354  1.00  0.00     0.023 C 
HETATM   20  C27 UNL     1       0.388  52.052 -14.513  1.00  0.00     0.023 C 
HETATM   21  C28 UNL     1       0.862  51.306 -16.983  1.00  0.00     0.020 C 
HETATM   22  C29 UNL     1       0.611  52.715 -17.529  1.00  0.00     0.090 C 
HETATM   23  C30 UNL     1       0.490  52.696 -19.035  1.00  0.00     0.157 C 
HETATM   24  O5  UNL     1       0.826  53.683 -19.685  1.00  0.00    -0.293 OA
ENDROOT
BRANCH   1  25
HETATM   25  C2  UNL     1      -2.671  50.425 -24.111  1.00  0.00    -0.014 C 
HETATM   26  C1  UNL     1      -3.136  48.966 -24.033  1.00  0.00     0.010 C 
BRANCH  25  27
HETATM   27  C3  UNL     1      -2.417  50.835 -25.578  1.00  0.00     0.007 C 
BRANCH  27  28
HETATM   28  C4  UNL     1      -1.086  50.391 -26.206  1.00  0.00     0.035 C 
BRANCH  28  29
HETATM   29  C5  UNL     1      -0.467  51.265 -27.315  1.00  0.00     0.154 C 
BRANCH  29  30
HETATM   30  O1  UNL     1      -1.494  52.116 -27.833  1.00  0.00    -0.392 OA
HETATM   31  H10 UNL     1      -1.068  52.770 -28.423  1.00  0.00     0.210 HD
ENDBRANCH  29  30
BRANCH  29  32
HETATM   32  C6  UNL     1       0.844  52.042 -26.952  1.00  0.00     0.101 C 
HETATM   33  C7  UNL     1       1.408  51.586 -25.602  1.00  0.00     0.051 C 
BRANCH  32  34
HETATM   34  O2  UNL     1       0.591  53.456 -26.894  1.00  0.00    -0.385 OA
HETATM   35  H14 UNL     1       1.362  53.893 -26.497  1.00  0.00     0.210 HD
ENDBRANCH  32  34
BRANCH  32  36
HETATM   36  C8  UNL     1       1.913  51.844 -28.051  1.00  0.00     0.204 C 
BRANCH  36  37
HETATM   37  O3  UNL     1       3.165  51.491 -27.455  1.00  0.00    -0.398 OA
HETATM   38  H17 UNL     1       2.953  50.780 -26.811  1.00  0.00     0.209 HD
ENDBRANCH  36  37
ENDBRANCH  32  36
ENDBRANCH  29  32
ENDBRANCH  28  29
ENDBRANCH  27  28
ENDBRANCH  25  27
ENDBRANCH   1  25
TORSDOF 9
ENDMDL
MODEL 7
REMARK minimizedAffinity -8.07952023
REMARK CNNscore 0.346874654
REMARK CNNaffinity 5.78273153
REMARK  9 active torsions:
REMARK  status: ('A' for Active; 'I' for Inactive)
REMARK    1  A    between atoms: C2_2  and  C3_3 
REMARK    2  A    between atoms: C2_2  and  C9_12 
REMARK    3  A    between atoms: C3_3  and  C4_4 
REMARK    4  A    between atoms: C4_4  and  C5_5 
REMARK    5  A    between atoms: C5_5  and  O1_6 
REMARK    6  A    between atoms: C5_5  and  C6_7 
REMARK    7  A    between atoms: C6_7  and  O2_9 
REMARK    8  A    between atoms: C6_7  and  C8_10 
REMARK    9  A    between atoms: C8_10  and  O3_11 
ROOT
HETATM    1  C9  UNL     1       5.845  67.464 -35.989  1.00  0.00    -0.002 C 
HETATM    2  C10 UNL     1       6.816  67.267 -37.186  1.00  0.00     0.007 C 
HETATM    3  C11 UNL     1       6.016  67.564 -38.469  1.00  0.00     0.015 C 
HETATM    4  C12 UNL     1       4.742  68.291 -37.993  1.00  0.00    -0.005 C 
HETATM    5  C13 UNL     1       5.123  69.791 -37.791  1.00  0.00     0.021 C 
HETATM    6  C14 UNL     1       3.494  68.333 -38.868  1.00  0.00    -0.000 C 
HETATM    7  C15 UNL     1       2.253  68.407 -38.316  1.00  0.00    -0.060 C 
HETATM    8  C16 UNL     1       2.072  68.393 -36.792  1.00  0.00     0.036 C 
HETATM    9  C17 UNL     1       3.330  68.215 -35.917  1.00  0.00     0.015 C 
HETATM   10  C18 UNL     1       4.443  67.477 -36.668  1.00  0.00    -0.028 C 
HETATM   11  C19 UNL     1       3.964  66.022 -36.945  1.00  0.00     0.016 C 
HETATM   12  C20 UNL     1       0.955  68.445 -39.168  1.00  0.00    -0.014 C 
HETATM   13  C21 UNL     1       0.479  66.977 -39.268  1.00  0.00     0.020 C 
HETATM   14  C22 UNL     1      -0.149  69.303 -38.497  1.00  0.00     0.021 C 
HETATM   15  C23 UNL     1      -1.393  69.471 -39.354  1.00  0.00     0.080 C 
HETATM   16  C24 UNL     1      -1.053  70.085 -40.688  1.00  0.00     0.135 C 
HETATM   17  O4  UNL     1      -1.747  71.002 -41.133  1.00  0.00    -0.297 OA
HETATM   18  C25 UNL     1       0.090  69.454 -41.498  1.00  0.00     0.018 C 
HETATM   19  C26 UNL     1       0.555  70.501 -42.543  1.00  0.00     0.023 C 
HETATM   20  C27 UNL     1      -0.484  68.261 -42.278  1.00  0.00     0.023 C 
HETATM   21  C28 UNL     1       1.290  69.115 -40.544  1.00  0.00     0.020 C 
HETATM   22  C29 UNL     1       2.429  68.355 -41.230  1.00  0.00     0.090 C 
HETATM   23  C30 UNL     1       3.661  68.328 -40.357  1.00  0.00     0.157 C 
HETATM   24  O5  UNL     1       4.773  68.278 -40.877  1.00  0.00    -0.293 OA
ENDROOT
BRANCH   1  25
HETATM   25  C2  UNL     1       6.197  66.583 -34.750  1.00  0.00    -0.014 C 
HETATM   26  C1  UNL     1       6.730  67.312 -33.510  1.00  0.00     0.010 C 
BRANCH  25  27
HETATM   27  C3  UNL     1       7.130  65.414 -35.134  1.00  0.00     0.007 C 
BRANCH  27  28
HETATM   28  C4  UNL     1       7.405  64.357 -34.052  1.00  0.00     0.035 C 
BRANCH  28  29
HETATM   29  C5  UNL     1       7.247  62.868 -34.421  1.00  0.00     0.154 C 
BRANCH  29  30
HETATM   30  O1  UNL     1       7.949  62.094 -33.444  1.00  0.00    -0.392 OA
HETATM   31  H10 UNL     1       7.721  61.154 -33.590  1.00  0.00     0.210 HD
ENDBRANCH  29  30
BRANCH  29  32
HETATM   32  C6  UNL     1       5.789  62.355 -34.674  1.00  0.00     0.101 C 
HETATM   33  C7  UNL     1       5.731  60.824 -34.695  1.00  0.00     0.051 C 
BRANCH  32  34
HETATM   34  O2  UNL     1       5.290  62.855 -35.927  1.00  0.00    -0.385 OA
HETATM   35  H14 UNL     1       4.468  62.384 -36.142  1.00  0.00     0.210 HD
ENDBRANCH  32  34
BRANCH  32  36
HETATM   36  C8  UNL     1       4.830  62.892 -33.587  1.00  0.00     0.204 C 
BRANCH  36  37
HETATM   37  O3  UNL     1       3.477  62.816 -34.049  1.00  0.00    -0.398 OA
HETATM   38  H17 UNL     1       3.381  61.910 -34.415  1.00  0.00     0.209 HD
ENDBRANCH  36  37
ENDBRANCH  32  36
ENDBRANCH  29  32
ENDBRANCH  28  29
ENDBRANCH  27  28
ENDBRANCH  25  27
ENDBRANCH   1  25
TORSDOF 9
ENDMDL
MODEL 8
REMARK minimizedAffinity -8.39087486
REMARK CNNscore 0.332532465
REMARK CNNaffinity 6.90345144
REMARK  9 active torsions:
REMARK  status: ('A' for Active; 'I' for Inactive)
REMARK    1  A    between atoms: C2_2  and  C3_3 
REMARK    2  A    between atoms: C2_2  and  C9_12 
REMARK    3  A    between atoms: C3_3  and  C4_4 
REMARK    4  A    between atoms: C4_4  and  C5_5 
REMARK    5  A    between atoms: C5_5  and  O1_6 
REMARK    6  A    between atoms: C5_5  and  C6_7 
REMARK    7  A    between atoms: C6_7  and  O2_9 
REMARK    8  A    between atoms: C6_7  and  C8_10 
REMARK    9  A    between atoms: C8_10  and  O3_11 
ROOT
HETATM    1  C9  UNL     1      -1.325  50.808 -23.369  1.00  0.00    -0.002 C 
HETATM    2  C10 UNL     1      -0.918  52.302 -23.484  1.00  0.00     0.007 C 
HETATM    3  C11 UNL     1      -0.408  52.739 -22.096  1.00  0.00     0.015 C 
HETATM    4  C12 UNL     1      -0.162  51.428 -21.324  1.00  0.00    -0.005 C 
HETATM    5  C13 UNL     1       1.241  50.900 -21.758  1.00  0.00     0.021 C 
HETATM    6  C14 UNL     1      -0.115  51.416 -19.800  1.00  0.00    -0.000 C 
HETATM    7  C15 UNL     1      -0.488  50.314 -19.095  1.00  0.00    -0.060 C 
HETATM    8  C16 UNL     1      -1.024  49.069 -19.814  1.00  0.00     0.036 C 
HETATM    9  C17 UNL     1      -1.195  49.138 -21.346  1.00  0.00     0.015 C 
HETATM   10  C18 UNL     1      -1.399  50.577 -21.830  1.00  0.00    -0.028 C 
HETATM   11  C19 UNL     1      -2.758  51.092 -21.273  1.00  0.00     0.016 C 
HETATM   12  C20 UNL     1      -0.463  50.260 -17.543  1.00  0.00    -0.014 C 
HETATM   13  C21 UNL     1      -1.889  50.648 -17.089  1.00  0.00     0.020 C 
HETATM   14  C22 UNL     1      -0.121  48.841 -17.022  1.00  0.00     0.021 C 
HETATM   15  C23 UNL     1       0.038  48.769 -15.512  1.00  0.00     0.080 C 
HETATM   16  C24 UNL     1       1.103  49.725 -15.033  1.00  0.00     0.135 C 
HETATM   17  O4  UNL     1       1.940  49.344 -14.213  1.00  0.00    -0.297 OA
HETATM   18  C25 UNL     1       1.022  51.183 -15.509  1.00  0.00     0.018 C 
HETATM   19  C26 UNL     1       2.421  51.820 -15.300  1.00  0.00     0.023 C 
HETATM   20  C27 UNL     1       0.045  51.930 -14.587  1.00  0.00     0.023 C 
HETATM   21  C28 UNL     1       0.665  51.223 -17.037  1.00  0.00     0.020 C 
HETATM   22  C29 UNL     1       0.426  52.636 -17.578  1.00  0.00     0.090 C 
HETATM   23  C30 UNL     1       0.389  52.635 -19.088  1.00  0.00     0.157 C 
HETATM   24  O5  UNL     1       0.747  53.635 -19.706  1.00  0.00    -0.293 OA
ENDROOT
BRANCH   1  25
HETATM   25  C2  UNL     1      -2.455  50.392 -24.361  1.00  0.00    -0.014 C 
HETATM   26  C1  UNL     1      -3.519  51.448 -24.683  1.00  0.00     0.010 C 
BRANCH  25  27
HETATM   27  C3  UNL     1      -3.119  49.064 -23.935  1.00  0.00     0.007 C 
BRANCH  27  28
HETATM   28  C4  UNL     1      -4.530  48.785 -24.478  1.00  0.00     0.035 C 
BRANCH  28  29
HETATM   29  C5  UNL     1      -5.597  48.239 -23.508  1.00  0.00     0.154 C 
BRANCH  29  30
HETATM   30  O1  UNL     1      -4.946  47.894 -22.282  1.00  0.00    -0.392 OA
HETATM   31  H10 UNL     1      -5.641  47.695 -21.622  1.00  0.00     0.210 HD
ENDBRANCH  29  30
BRANCH  29  32
HETATM   32  C6  UNL     1      -6.875  49.120 -23.294  1.00  0.00     0.101 C 
HETATM   33  C7  UNL     1      -8.134  48.411 -23.802  1.00  0.00     0.051 C 
BRANCH  32  34
HETATM   34  O2  UNL     1      -6.740  50.376 -23.982  1.00  0.00    -0.385 OA
HETATM   35  H14 UNL     1      -7.603  50.821 -23.984  1.00  0.00     0.210 HD
ENDBRANCH  32  34
BRANCH  32  36
HETATM   36  C8  UNL     1      -7.047  49.469 -21.798  1.00  0.00     0.204 C 
BRANCH  36  37
HETATM   37  O3  UNL     1      -6.257  50.617 -21.471  1.00  0.00    -0.398 OA
HETATM   38  H17 UNL     1      -6.451  51.273 -22.176  1.00  0.00     0.209 HD
ENDBRANCH  36  37
ENDBRANCH  32  36
ENDBRANCH  29  32
ENDBRANCH  28  29
ENDBRANCH  27  28
ENDBRANCH  25  27
ENDBRANCH   1  25
TORSDOF 9
ENDMDL
MODEL 9
REMARK minimizedAffinity -7.13102913
REMARK CNNscore 0.309518069
REMARK CNNaffinity 5.4082427
REMARK  9 active torsions:
REMARK  status: ('A' for Active; 'I' for Inactive)
REMARK    1  A    between atoms: C2_2  and  C3_3 
REMARK    2  A    between atoms: C2_2  and  C9_12 
REMARK    3  A    between atoms: C3_3  and  C4_4 
REMARK    4  A    between atoms: C4_4  and  C5_5 
REMARK    5  A    between atoms: C5_5  and  O1_6 
REMARK    6  A    between atoms: C5_5  and  C6_7 
REMARK    7  A    between atoms: C6_7  and  O2_9 
REMARK    8  A    between atoms: C6_7  and  C8_10 
REMARK    9  A    between atoms: C8_10  and  O3_11 
ROOT
HETATM    1  C9  UNL     1     -11.839  45.572 -27.627  1.00  0.00    -0.002 C 
HETATM    2  C10 UNL     1     -11.714  46.971 -26.964  1.00  0.00     0.007 C 
HETATM    3  C11 UNL     1     -13.006  47.205 -26.156  1.00  0.00     0.015 C 
HETATM    4  C12 UNL     1     -13.669  45.818 -26.043  1.00  0.00    -0.005 C 
HETATM    5  C13 UNL     1     -12.973  45.075 -24.860  1.00  0.00     0.021 C 
HETATM    6  C14 UNL     1     -15.159  45.687 -25.747  1.00  0.00    -0.000 C 
HETATM    7  C15 UNL     1     -15.874  44.624 -26.203  1.00  0.00    -0.060 C 
HETATM    8  C16 UNL     1     -15.213  43.553 -27.080  1.00  0.00     0.036 C 
HETATM    9  C17 UNL     1     -13.739  43.764 -27.487  1.00  0.00     0.015 C 
HETATM   10  C18 UNL     1     -13.357  45.247 -27.488  1.00  0.00    -0.028 C 
HETATM   11  C19 UNL     1     -14.166  45.961 -28.610  1.00  0.00     0.016 C 
HETATM   12  C20 UNL     1     -17.395  44.454 -25.931  1.00  0.00    -0.014 C 
HETATM   13  C21 UNL     1     -18.109  45.062 -27.160  1.00  0.00     0.020 C 
HETATM   14  C22 UNL     1     -17.790  42.962 -25.787  1.00  0.00     0.021 C 
HETATM   15  C23 UNL     1     -19.244  42.752 -25.396  1.00  0.00     0.080 C 
HETATM   16  C24 UNL     1     -19.564  43.460 -24.103  1.00  0.00     0.135 C 
HETATM   17  O4  UNL     1     -20.207  42.874 -23.230  1.00  0.00    -0.297 OA
HETATM   18  C25 UNL     1     -19.169  44.939 -23.979  1.00  0.00     0.018 C 
HETATM   19  C26 UNL     1     -19.153  45.292 -22.469  1.00  0.00     0.023 C 
HETATM   20  C27 UNL     1     -20.278  45.783 -24.627  1.00  0.00     0.023 C 
HETATM   21  C28 UNL     1     -17.731  45.155 -24.570  1.00  0.00     0.020 C 
HETATM   22  C29 UNL     1     -17.297  46.623 -24.619  1.00  0.00     0.090 C 
HETATM   23  C30 UNL     1     -15.819  46.738 -24.906  1.00  0.00     0.157 C 
HETATM   24  O5  UNL     1     -15.188  47.698 -24.469  1.00  0.00    -0.293 OA
ENDROOT
BRANCH   1  25
HETATM   25  C2  UNL     1     -11.047  45.443 -28.965  1.00  0.00    -0.014 C 
HETATM   26  C1  UNL     1     -10.905  44.034 -29.554  1.00  0.00     0.010 C 
BRANCH  25  27
HETATM   27  C3  UNL     1      -9.670  46.135 -28.875  1.00  0.00     0.007 C 
BRANCH  27  28
HETATM   28  C4  UNL     1      -9.361  47.211 -29.927  1.00  0.00     0.035 C 
BRANCH  28  29
HETATM   29  C5  UNL     1      -8.066  48.036 -29.778  1.00  0.00     0.154 C 
BRANCH  29  30
HETATM   30  O1  UNL     1      -8.213  48.889 -28.640  1.00  0.00    -0.392 OA
HETATM   31  H10 UNL     1      -7.342  49.295 -28.458  1.00  0.00     0.210 HD
ENDBRANCH  29  30
BRANCH  29  32
HETATM   32  C6  UNL     1      -6.718  47.238 -29.773  1.00  0.00     0.101 C 
HETATM   33  C7  UNL     1      -6.698  46.168 -30.870  1.00  0.00     0.051 C 
BRANCH  32  34
HETATM   34  O2  UNL     1      -6.515  46.601 -28.500  1.00  0.00    -0.385 OA
HETATM   35  H14 UNL     1      -5.776  45.976 -28.581  1.00  0.00     0.210 HD
ENDBRANCH  32  34
BRANCH  32  36
HETATM   36  C8  UNL     1      -5.521  48.197 -29.967  1.00  0.00     0.204 C 
BRANCH  36  37
HETATM   37  O3  UNL     1      -5.209  48.843 -28.728  1.00  0.00    -0.398 OA
HETATM   38  H17 UNL     1      -5.187  48.124 -28.061  1.00  0.00     0.209 HD
ENDBRANCH  36  37
ENDBRANCH  32  36
ENDBRANCH  29  32
ENDBRANCH  28  29
ENDBRANCH  27  28
ENDBRANCH  25  27
ENDBRANCH   1  25
TORSDOF 9
ENDMDL
