MODEL 1
REMARK minimizedAffinity -9.61425591
REMARK  6 active torsions:
REMARK  status: ('A' for Active; 'I' for Inactive)
REMARK    1  A    between atoms: C2_2  and  C30_33 
REMARK    2  A    between atoms: C3_3  and  C4_4 
REMARK    3  A    between atoms: C4_4  and  C5_5 
REMARK    4  A    between atoms: C5_5  and  C6_6 
REMARK    5  A    between atoms: C6_6  and  C8_8 
REMARK    6  A    between atoms: C30_33  and  O5_35 
ROOT
HETATM    1  C8  UNL     1      -2.281   6.034  12.905  1.00  0.00    -0.001 C 
HETATM    2  C9  UNL     1      -2.154   5.148  11.636  1.00  0.00     0.007 C 
HETATM    3  C10 UNL     1      -0.674   5.189  11.208  1.00  0.00     0.015 C 
HETATM    4  C11 UNL     1       0.081   5.761  12.425  1.00  0.00    -0.004 C 
HETATM    5  C12 UNL     1       0.322   4.574  13.409  1.00  0.00     0.021 C 
HETATM    6  C13 UNL     1       1.445   6.413  12.261  1.00  0.00     0.007 C 
HETATM    7  C14 UNL     1       1.911   7.359  13.115  1.00  0.00     0.007 C 
HETATM    8  C15 UNL     1       0.972   7.833  14.218  1.00  0.00     0.157 C 
HETATM    9  O1  UNL     1       1.370   8.599  15.093  1.00  0.00    -0.293 OA
HETATM   10  C16 UNL     1      -0.480   7.367  14.261  1.00  0.00     0.094 C 
HETATM   11  C17 UNL     1      -0.951   6.848  12.905  1.00  0.00    -0.022 C 
HETATM   12  C18 UNL     1      -1.059   8.059  11.933  1.00  0.00     0.017 C 
HETATM   13  C19 UNL     1       3.320   8.003  13.037  1.00  0.00    -0.007 C 
HETATM   14  C20 UNL     1       3.112   9.449  12.521  1.00  0.00     0.021 C 
HETATM   15  C21 UNL     1       4.019   8.058  14.434  1.00  0.00     0.022 C 
HETATM   16  C22 UNL     1       5.545   7.978  14.429  1.00  0.00     0.080 C 
HETATM   17  C23 UNL     1       6.133   8.472  13.131  1.00  0.00     0.135 C 
HETATM   18  O2  UNL     1       6.977   9.366  13.116  1.00  0.00    -0.297 OA
HETATM   19  C24 UNL     1       5.683   7.742  11.861  1.00  0.00     0.018 C 
HETATM   20  C25 UNL     1       5.789   8.689  10.650  1.00  0.00     0.023 C 
HETATM   21  C26 UNL     1       6.689   6.591  11.635  1.00  0.00     0.023 C 
HETATM   22  C27 UNL     1       4.249   7.155  12.094  1.00  0.00     0.021 C 
HETATM   23  C28 UNL     1       3.529   6.784  10.799  1.00  0.00     0.090 C 
HETATM   24  C29 UNL     1       2.311   5.963  11.128  1.00  0.00     0.157 C 
HETATM   25  O3  UNL     1       2.030   4.970  10.463  1.00  0.00    -0.293 OA
ENDROOT
BRANCH   1  26
HETATM   26  C6  UNL     1      -3.686   6.684  13.081  1.00  0.00    -0.014 C 
HETATM   27  C7  UNL     1      -3.728   8.205  13.275  1.00  0.00     0.010 C 
BRANCH  26  28
HETATM   28  C5  UNL     1      -4.505   5.973  14.184  1.00  0.00     0.008 C 
BRANCH  28  29
HETATM   29  C4  UNL     1      -5.772   5.252  13.696  1.00  0.00     0.028 C 
BRANCH  29  30
HETATM   30  C3  UNL     1      -5.473   4.199  12.664  1.00  0.00    -0.013 C 
HETATM   31  C2  UNL     1      -6.241   3.151  12.298  1.00  0.00     0.008 C 
HETATM   32  C1  UNL     1      -7.589   2.804  12.858  1.00  0.00     0.055 C 
BRANCH  31  33
HETATM   33  C30 UNL     1      -5.780   2.207  11.242  1.00  0.00     0.171 C 
HETATM   34  O4  UNL     1      -5.884   0.994  11.291  1.00  0.00    -0.646 OA
BRANCH  33  35
HETATM   35  O5  UNL     1      -5.232   2.806  10.172  1.00  0.00    -0.773 OA
HETATM   36  H42 UNL     1      -4.997   2.056   9.587  1.00  0.00     0.167 HD
ENDBRANCH  33  35
ENDBRANCH  31  33
ENDBRANCH  29  30
ENDBRANCH  28  29
ENDBRANCH  26  28
ENDBRANCH   1  26
TORSDOF 6
ENDMDL
MODEL 2
REMARK minimizedAffinity -9.33232689
REMARK  6 active torsions:
REMARK  status: ('A' for Active; 'I' for Inactive)
REMARK    1  A    between atoms: C2_2  and  C30_33 
REMARK    2  A    between atoms: C3_3  and  C4_4 
REMARK    3  A    between atoms: C4_4  and  C5_5 
REMARK    4  A    between atoms: C5_5  and  C6_6 
REMARK    5  A    between atoms: C6_6  and  C8_8 
REMARK    6  A    between atoms: C30_33  and  O5_35 
ROOT
HETATM    1  C8  UNL     1      -1.791   6.905  13.308  1.00  0.00    -0.001 C 
HETATM    2  C9  UNL     1      -1.930   6.118  11.976  1.00  0.00     0.007 C 
HETATM    3  C10 UNL     1      -0.511   5.971  11.394  1.00  0.00     0.015 C 
HETATM    4  C11 UNL     1       0.440   6.320  12.557  1.00  0.00    -0.004 C 
HETATM    5  C12 UNL     1       0.585   5.034  13.428  1.00  0.00     0.021 C 
HETATM    6  C13 UNL     1       1.867   6.771  12.288  1.00  0.00     0.007 C 
HETATM    7  C14 UNL     1       2.558   7.562  13.148  1.00  0.00     0.007 C 
HETATM    8  C15 UNL     1       1.817   8.079  14.375  1.00  0.00     0.157 C 
HETATM    9  O1  UNL     1       2.415   8.702  15.251  1.00  0.00    -0.293 OA
HETATM   10  C16 UNL     1       0.322   7.835  14.545  1.00  0.00     0.094 C 
HETATM   11  C17 UNL     1      -0.356   7.507  13.217  1.00  0.00    -0.022 C 
HETATM   12  C18 UNL     1      -0.364   8.797  12.345  1.00  0.00     0.017 C 
HETATM   13  C19 UNL     1       4.037   7.992  12.959  1.00  0.00    -0.007 C 
HETATM   14  C20 UNL     1       4.011   9.490  12.567  1.00  0.00     0.021 C 
HETATM   15  C21 UNL     1       4.868   7.825  14.273  1.00  0.00     0.022 C 
HETATM   16  C22 UNL     1       6.354   7.518  14.096  1.00  0.00     0.080 C 
HETATM   17  C23 UNL     1       6.884   8.022  12.778  1.00  0.00     0.135 C 
HETATM   18  O2  UNL     1       7.854   8.777  12.731  1.00  0.00    -0.297 OA
HETATM   19  C24 UNL     1       6.203   7.476  11.519  1.00  0.00     0.018 C 
HETATM   20  C25 UNL     1       6.339   8.493  10.369  1.00  0.00     0.023 C 
HETATM   21  C26 UNL     1       6.987   6.210  11.108  1.00  0.00     0.023 C 
HETATM   22  C27 UNL     1       4.723   7.094  11.867  1.00  0.00     0.021 C 
HETATM   23  C28 UNL     1       3.831   6.944  10.636  1.00  0.00     0.090 C 
HETATM   24  C29 UNL     1       2.537   6.291  11.041  1.00  0.00     0.157 C 
HETATM   25  O3  UNL     1       2.039   5.411  10.345  1.00  0.00    -0.293 OA
ENDROOT
BRANCH   1  26
HETATM   26  C6  UNL     1      -3.052   7.742  13.678  1.00  0.00    -0.014 C 
HETATM   27  C7  UNL     1      -3.199   8.163  15.146  1.00  0.00     0.010 C 
BRANCH  26  28
HETATM   28  C5  UNL     1      -4.349   7.066  13.175  1.00  0.00     0.008 C 
BRANCH  28  29
HETATM   29  C4  UNL     1      -4.361   5.531  13.257  1.00  0.00     0.028 C 
BRANCH  29  30
HETATM   30  C3  UNL     1      -5.727   4.981  13.567  1.00  0.00    -0.013 C 
HETATM   31  C2  UNL     1      -6.324   3.891  13.043  1.00  0.00     0.008 C 
HETATM   32  C1  UNL     1      -5.738   2.973  12.009  1.00  0.00     0.055 C 
BRANCH  31  33
HETATM   33  C30 UNL     1      -7.690   3.492  13.480  1.00  0.00     0.171 C 
HETATM   34  O4  UNL     1      -8.462   2.805  12.834  1.00  0.00    -0.646 OA
BRANCH  33  35
HETATM   35  O5  UNL     1      -8.029   3.942  14.699  1.00  0.00    -0.773 OA
HETATM   36  H42 UNL     1      -8.933   3.589  14.829  1.00  0.00     0.167 HD
ENDBRANCH  33  35
ENDBRANCH  31  33
ENDBRANCH  29  30
ENDBRANCH  28  29
ENDBRANCH  26  28
ENDBRANCH   1  26
TORSDOF 6
ENDMDL
MODEL 3
REMARK minimizedAffinity -9.27083397
REMARK  6 active torsions:
REMARK  status: ('A' for Active; 'I' for Inactive)
REMARK    1  A    between atoms: C2_2  and  C30_33 
REMARK    2  A    between atoms: C3_3  and  C4_4 
REMARK    3  A    between atoms: C4_4  and  C5_5 
REMARK    4  A    between atoms: C5_5  and  C6_6 
REMARK    5  A    between atoms: C6_6  and  C8_8 
REMARK    6  A    between atoms: C30_33  and  O5_35 
ROOT
HETATM    1  C8  UNL     1      -2.067   7.788  13.941  1.00  0.00    -0.001 C 
HETATM    2  C9  UNL     1      -1.943   7.446  15.451  1.00  0.00     0.007 C 
HETATM    3  C10 UNL     1      -0.452   7.573  15.817  1.00  0.00     0.015 C 
HETATM    4  C11 UNL     1       0.187   8.344  14.644  1.00  0.00    -0.004 C 
HETATM    5  C12 UNL     1      -0.080   9.861  14.898  1.00  0.00     0.021 C 
HETATM    6  C13 UNL     1       1.680   8.252  14.371  1.00  0.00     0.007 C 
HETATM    7  C14 UNL     1       2.211   8.441  13.136  1.00  0.00     0.007 C 
HETATM    8  C15 UNL     1       1.240   8.659  11.981  1.00  0.00     0.157 C 
HETATM    9  O1  UNL     1       1.656   8.952  10.861  1.00  0.00    -0.293 OA
HETATM   10  C16 UNL     1      -0.264   8.522  12.188  1.00  0.00     0.094 C 
HETATM   11  C17 UNL     1      -0.595   7.706  13.436  1.00  0.00    -0.022 C 
HETATM   12  C18 UNL     1      -0.197   6.225  13.166  1.00  0.00     0.017 C 
HETATM   13  C19 UNL     1       3.728   8.430  12.815  1.00  0.00    -0.007 C 
HETATM   14  C20 UNL     1       4.007   7.107  12.061  1.00  0.00     0.021 C 
HETATM   15  C21 UNL     1       4.145   9.631  11.905  1.00  0.00     0.022 C 
HETATM   16  C22 UNL     1       5.569  10.153  12.085  1.00  0.00     0.080 C 
HETATM   17  C23 UNL     1       6.497   9.092  12.620  1.00  0.00     0.135 C 
HETATM   18  O2  UNL     1       7.534   8.798  12.027  1.00  0.00    -0.297 OA
HETATM   19  C24 UNL     1       6.116   8.474  13.969  1.00  0.00     0.018 C 
HETATM   20  C25 UNL     1       6.691   7.047  14.070  1.00  0.00     0.023 C 
HETATM   21  C26 UNL     1       6.808   9.327  15.055  1.00  0.00     0.023 C 
HETATM   22  C27 UNL     1       4.561   8.554  14.143  1.00  0.00     0.021 C 
HETATM   23  C28 UNL     1       4.023   7.614  15.220  1.00  0.00     0.090 C 
HETATM   24  C29 UNL     1       2.593   7.975  15.522  1.00  0.00     0.157 C 
HETATM   25  O3  UNL     1       2.190   8.010  16.681  1.00  0.00    -0.293 OA
ENDROOT
BRANCH   1  26
HETATM   26  C6  UNL     1      -3.259   7.079  13.231  1.00  0.00    -0.014 C 
HETATM   27  C7  UNL     1      -4.571   7.868  13.124  1.00  0.00     0.010 C 
BRANCH  26  28
HETATM   28  C5  UNL     1      -3.518   5.674  13.824  1.00  0.00     0.008 C 
BRANCH  28  29
HETATM   29  C4  UNL     1      -3.994   4.617  12.815  1.00  0.00     0.028 C 
BRANCH  29  30
HETATM   30  C3  UNL     1      -5.453   4.285  12.974  1.00  0.00    -0.013 C 
HETATM   31  C2  UNL     1      -6.133   3.246  12.446  1.00  0.00     0.008 C 
HETATM   32  C1  UNL     1      -5.564   2.174  11.563  1.00  0.00     0.055 C 
BRANCH  31  33
HETATM   33  C30 UNL     1      -7.587   3.074  12.721  1.00  0.00     0.171 C 
HETATM   34  O4  UNL     1      -8.360   3.973  13.002  1.00  0.00    -0.646 OA
BRANCH  33  35
HETATM   35  O5  UNL     1      -8.018   1.806  12.617  1.00  0.00    -0.773 OA
HETATM   36  H42 UNL     1      -8.974   1.874  12.818  1.00  0.00     0.167 HD
ENDBRANCH  33  35
ENDBRANCH  31  33
ENDBRANCH  29  30
ENDBRANCH  28  29
ENDBRANCH  26  28
ENDBRANCH   1  26
TORSDOF 6
ENDMDL
MODEL 4
REMARK minimizedAffinity -9.2622118
REMARK  6 active torsions:
REMARK  status: ('A' for Active; 'I' for Inactive)
REMARK    1  A    between atoms: C2_2  and  C30_33 
REMARK    2  A    between atoms: C3_3  and  C4_4 
REMARK    3  A    between atoms: C4_4  and  C5_5 
REMARK    4  A    between atoms: C5_5  and  C6_6 
REMARK    5  A    between atoms: C6_6  and  C8_8 
REMARK    6  A    between atoms: C30_33  and  O5_35 
ROOT
HETATM    1  C8  UNL     1      -6.061   7.149  15.253  1.00  0.00    -0.001 C 
HETATM    2  C9  UNL     1      -5.830   8.619  15.697  1.00  0.00     0.007 C 
HETATM    3  C10 UNL     1      -4.449   9.038  15.159  1.00  0.00     0.015 C 
HETATM    4  C11 UNL     1      -4.084   7.967  14.110  1.00  0.00    -0.004 C 
HETATM    5  C12 UNL     1      -4.803   8.368  12.784  1.00  0.00     0.021 C 
HETATM    6  C13 UNL     1      -2.636   7.728  13.711  1.00  0.00     0.007 C 
HETATM    7  C14 UNL     1      -2.196   6.534  13.239  1.00  0.00     0.007 C 
HETATM    8  C15 UNL     1      -3.192   5.381  13.207  1.00  0.00     0.157 C 
HETATM    9  O1  UNL     1      -2.892   4.309  12.685  1.00  0.00    -0.293 OA
HETATM   10  C16 UNL     1      -4.580   5.532  13.820  1.00  0.00     0.094 C 
HETATM   11  C17 UNL     1      -4.638   6.679  14.825  1.00  0.00    -0.022 C 
HETATM   12  C18 UNL     1      -3.805   6.270  16.076  1.00  0.00     0.017 C 
HETATM   13  C19 UNL     1      -0.750   6.256  12.750  1.00  0.00    -0.007 C 
HETATM   14  C20 UNL     1      -0.082   5.378  13.837  1.00  0.00     0.021 C 
HETATM   15  C21 UNL     1      -0.728   5.485  11.390  1.00  0.00     0.022 C 
HETATM   16  C22 UNL     1       0.468   5.757  10.480  1.00  0.00     0.080 C 
HETATM   17  C23 UNL     1       1.680   6.207  11.256  1.00  0.00     0.135 C 
HETATM   18  O2  UNL     1       2.754   5.616  11.153  1.00  0.00    -0.297 OA
HETATM   19  C24 UNL     1       1.514   7.475  12.100  1.00  0.00     0.018 C 
HETATM   20  C25 UNL     1       2.501   7.445  13.284  1.00  0.00     0.023 C 
HETATM   21  C26 UNL     1       1.916   8.661  11.196  1.00  0.00     0.023 C 
HETATM   22  C27 UNL     1       0.011   7.613  12.519  1.00  0.00     0.021 C 
HETATM   23  C28 UNL     1      -0.206   8.572  13.687  1.00  0.00     0.090 C 
HETATM   24  C29 UNL     1      -1.676   8.870  13.816  1.00  0.00     0.157 C 
HETATM   25  O3  UNL     1      -2.065  10.015  14.028  1.00  0.00    -0.293 OA
ENDROOT
BRANCH   1  26
HETATM   26  C6  UNL     1      -6.981   6.338  16.213  1.00  0.00    -0.014 C 
HETATM   27  C7  UNL     1      -7.337   4.907  15.790  1.00  0.00     0.010 C 
BRANCH  26  28
HETATM   28  C5  UNL     1      -8.260   7.130  16.576  1.00  0.00     0.008 C 
BRANCH  28  29
HETATM   29  C4  UNL     1      -9.390   7.058  15.536  1.00  0.00     0.028 C 
BRANCH  29  30
HETATM   30  C3  UNL     1      -8.934   6.468  14.229  1.00  0.00    -0.013 C 
HETATM   31  C2  UNL     1      -9.567   6.496  13.038  1.00  0.00     0.008 C 
HETATM   32  C1  UNL     1     -10.896   7.134  12.757  1.00  0.00     0.055 C 
BRANCH  31  33
HETATM   33  C30 UNL     1      -8.953   5.858  11.840  1.00  0.00     0.171 C 
HETATM   34  O4  UNL     1      -8.098   4.990  11.867  1.00  0.00    -0.646 OA
BRANCH  33  35
HETATM   35  O5  UNL     1      -9.436   6.309  10.671  1.00  0.00    -0.773 OA
HETATM   36  H42 UNL     1      -8.940   5.790  10.004  1.00  0.00     0.167 HD
ENDBRANCH  33  35
ENDBRANCH  31  33
ENDBRANCH  29  30
ENDBRANCH  28  29
ENDBRANCH  26  28
ENDBRANCH   1  26
TORSDOF 6
ENDMDL
MODEL 5
REMARK minimizedAffinity -9.24045658
REMARK  6 active torsions:
REMARK  status: ('A' for Active; 'I' for Inactive)
REMARK    1  A    between atoms: C2_2  and  C30_33 
REMARK    2  A    between atoms: C3_3  and  C4_4 
REMARK    3  A    between atoms: C4_4  and  C5_5 
REMARK    4  A    between atoms: C5_5  and  C6_6 
REMARK    5  A    between atoms: C6_6  and  C8_8 
REMARK    6  A    between atoms: C30_33  and  O5_35 
ROOT
HETATM    1  C8  UNL     1      -1.483   5.836  12.030  1.00  0.00    -0.001 C 
HETATM    2  C9  UNL     1      -2.023   6.731  13.179  1.00  0.00     0.007 C 
HETATM    3  C10 UNL     1      -0.928   7.768  13.492  1.00  0.00     0.015 C 
HETATM    4  C11 UNL     1       0.038   7.708  12.291  1.00  0.00    -0.004 C 
HETATM    5  C12 UNL     1      -0.581   8.593  11.165  1.00  0.00     0.021 C 
HETATM    6  C13 UNL     1       1.474   8.191  12.420  1.00  0.00     0.007 C 
HETATM    7  C14 UNL     1       2.479   7.714  11.643  1.00  0.00     0.007 C 
HETATM    8  C15 UNL     1       2.143   6.584  10.676  1.00  0.00     0.157 C 
HETATM    9  O1  UNL     1       2.976   6.187   9.863  1.00  0.00    -0.293 OA
HETATM   10  C16 UNL     1       0.769   5.924  10.695  1.00  0.00     0.094 C 
HETATM   11  C17 UNL     1       0.042   6.158  12.017  1.00  0.00    -0.022 C 
HETATM   12  C18 UNL     1       0.776   5.344  13.124  1.00  0.00     0.017 C 
HETATM   13  C19 UNL     1       3.944   8.222  11.683  1.00  0.00    -0.007 C 
HETATM   14  C20 UNL     1       4.775   7.110  12.370  1.00  0.00     0.021 C 
HETATM   15  C21 UNL     1       4.518   8.471  10.250  1.00  0.00     0.022 C 
HETATM   16  C22 UNL     1       5.573   9.569  10.127  1.00  0.00     0.080 C 
HETATM   17  C23 UNL     1       6.314   9.790  11.422  1.00  0.00     0.135 C 
HETATM   18  O2  UNL     1       7.541   9.725  11.471  1.00  0.00    -0.297 OA
HETATM   19  C24 UNL     1       5.460  10.179  12.634  1.00  0.00     0.018 C 
HETATM   20  C25 UNL     1       6.163   9.733  13.932  1.00  0.00     0.023 C 
HETATM   21  C26 UNL     1       5.398  11.722  12.652  1.00  0.00     0.023 C 
HETATM   22  C27 UNL     1       4.019   9.592  12.450  1.00  0.00     0.021 C 
HETATM   23  C28 UNL     1       3.216   9.541  13.748  1.00  0.00     0.090 C 
HETATM   24  C29 UNL     1       1.773   9.257  13.425  1.00  0.00     0.157 C 
HETATM   25  O3  UNL     1       0.874   9.869  13.995  1.00  0.00    -0.293 OA
ENDROOT
BRANCH   1  26
HETATM   26  C6  UNL     1      -2.055   4.387  12.038  1.00  0.00    -0.014 C 
HETATM   27  C7  UNL     1      -1.789   3.529  10.794  1.00  0.00     0.010 C 
BRANCH  26  28
HETATM   28  C5  UNL     1      -3.561   4.375  12.394  1.00  0.00     0.008 C 
BRANCH  28  29
HETATM   29  C4  UNL     1      -4.470   3.680  11.367  1.00  0.00     0.028 C 
BRANCH  29  30
HETATM   30  C3  UNL     1      -5.848   3.411  11.906  1.00  0.00    -0.013 C 
HETATM   31  C2  UNL     1      -6.617   4.218  12.666  1.00  0.00     0.008 C 
HETATM   32  C1  UNL     1      -6.250   5.590  13.150  1.00  0.00     0.055 C 
BRANCH  31  33
HETATM   33  C30 UNL     1      -7.972   3.781  13.103  1.00  0.00     0.171 C 
HETATM   34  O4  UNL     1      -8.384   2.635  13.075  1.00  0.00    -0.646 OA
BRANCH  33  35
HETATM   35  O5  UNL     1      -8.744   4.775  13.572  1.00  0.00    -0.773 OA
HETATM   36  H42 UNL     1      -9.577   4.321  13.817  1.00  0.00     0.167 HD
ENDBRANCH  33  35
ENDBRANCH  31  33
ENDBRANCH  29  30
ENDBRANCH  28  29
ENDBRANCH  26  28
ENDBRANCH   1  26
TORSDOF 6
ENDMDL
MODEL 6
REMARK minimizedAffinity -8.97936916
REMARK  6 active torsions:
REMARK  status: ('A' for Active; 'I' for Inactive)
REMARK    1  A    between atoms: C2_2  and  C30_33 
REMARK    2  A    between atoms: C3_3  and  C4_4 
REMARK    3  A    between atoms: C4_4  and  C5_5 
REMARK    4  A    between atoms: C5_5  and  C6_6 
REMARK    5  A    between atoms: C6_6  and  C8_8 
REMARK    6  A    between atoms: C30_33  and  O5_35 
ROOT
HETATM    1  C8  UNL     1      -6.117   7.189  14.525  1.00  0.00    -0.001 C 
HETATM    2  C9  UNL     1      -5.951   8.594  15.167  1.00  0.00     0.007 C 
HETATM    3  C10 UNL     1      -4.510   9.053  14.872  1.00  0.00     0.015 C 
HETATM    4  C11 UNL     1      -4.005   8.108  13.763  1.00  0.00    -0.004 C 
HETATM    5  C12 UNL     1      -4.539   8.671  12.409  1.00  0.00     0.021 C 
HETATM    6  C13 UNL     1      -2.516   7.897  13.536  1.00  0.00     0.007 C 
HETATM    7  C14 UNL     1      -2.014   6.760  12.990  1.00  0.00     0.007 C 
HETATM    8  C15 UNL     1      -2.995   5.633  12.689  1.00  0.00     0.157 C 
HETATM    9  O1  UNL     1      -2.625   4.625  12.089  1.00  0.00    -0.293 OA
HETATM   10  C16 UNL     1      -4.453   5.730  13.123  1.00  0.00     0.094 C 
HETATM   11  C17 UNL     1      -4.648   6.753  14.240  1.00  0.00    -0.022 C 
HETATM   12  C18 UNL     1      -3.991   6.188  15.534  1.00  0.00     0.017 C 
HETATM   13  C19 UNL     1      -0.515   6.521  12.671  1.00  0.00    -0.007 C 
HETATM   14  C20 UNL     1       0.002   5.513  13.726  1.00  0.00     0.021 C 
HETATM   15  C21 UNL     1      -0.308   5.915  11.244  1.00  0.00     0.022 C 
HETATM   16  C22 UNL     1       1.000   6.275  10.541  1.00  0.00     0.080 C 
HETATM   17  C23 UNL     1       2.095   6.613  11.521  1.00  0.00     0.135 C 
HETATM   18  O2  UNL     1       3.174   6.024  11.494  1.00  0.00    -0.297 OA
HETATM   19  C24 UNL     1       1.814   7.776  12.478  1.00  0.00     0.018 C 
HETATM   20  C25 UNL     1       2.632   7.594  13.773  1.00  0.00     0.023 C 
HETATM   21  C26 UNL     1       2.332   9.054  11.783  1.00  0.00     0.023 C 
HETATM   22  C27 UNL     1       0.268   7.885  12.705  1.00  0.00     0.021 C 
HETATM   23  C28 UNL     1      -0.107   8.704  13.938  1.00  0.00     0.090 C 
HETATM   24  C29 UNL     1      -1.581   9.005  13.903  1.00  0.00     0.157 C 
HETATM   25  O3  UNL     1      -1.997  10.122  14.195  1.00  0.00    -0.293 OA
ENDROOT
BRANCH   1  26
HETATM   26  C6  UNL     1      -7.157   6.284  15.250  1.00  0.00    -0.014 C 
HETATM   27  C7  UNL     1      -6.864   5.925  16.713  1.00  0.00     0.010 C 
BRANCH  26  28
HETATM   28  C5  UNL     1      -7.469   5.010  14.430  1.00  0.00     0.008 C 
BRANCH  28  29
HETATM   29  C4  UNL     1      -7.673   5.236  12.924  1.00  0.00     0.028 C 
BRANCH  29  30
HETATM   30  C3  UNL     1      -6.808   4.337  12.083  1.00  0.00    -0.013 C 
HETATM   31  C2  UNL     1      -6.731   2.991  12.112  1.00  0.00     0.008 C 
HETATM   32  C1  UNL     1      -7.511   2.079  13.014  1.00  0.00     0.055 C 
BRANCH  31  33
HETATM   33  C30 UNL     1      -5.813   2.265  11.191  1.00  0.00     0.171 C 
HETATM   34  O4  UNL     1      -5.923   1.095  10.867  1.00  0.00    -0.646 OA
BRANCH  33  35
HETATM   35  O5  UNL     1      -4.817   3.021  10.701  1.00  0.00    -0.773 OA
HETATM   36  H42 UNL     1      -4.325   2.403  10.122  1.00  0.00     0.167 HD
ENDBRANCH  33  35
ENDBRANCH  31  33
ENDBRANCH  29  30
ENDBRANCH  28  29
ENDBRANCH  26  28
ENDBRANCH   1  26
TORSDOF 6
ENDMDL
MODEL 7
REMARK minimizedAffinity -8.89956856
REMARK  6 active torsions:
REMARK  status: ('A' for Active; 'I' for Inactive)
REMARK    1  A    between atoms: C2_2  and  C30_33 
REMARK    2  A    between atoms: C3_3  and  C4_4 
REMARK    3  A    between atoms: C4_4  and  C5_5 
REMARK    4  A    between atoms: C5_5  and  C6_6 
REMARK    5  A    between atoms: C6_6  and  C8_8 
REMARK    6  A    between atoms: C30_33  and  O5_35 
ROOT
HETATM    1  C8  UNL     1      -2.095   7.633  13.950  1.00  0.00    -0.001 C 
HETATM    2  C9  UNL     1      -1.950   7.310  15.462  1.00  0.00     0.007 C 
HETATM    3  C10 UNL     1      -0.459   7.477  15.814  1.00  0.00     0.015 C 
HETATM    4  C11 UNL     1       0.150   8.253  14.628  1.00  0.00    -0.004 C 
HETATM    5  C12 UNL     1      -0.153   9.764  14.870  1.00  0.00     0.021 C 
HETATM    6  C13 UNL     1       1.642   8.195  14.342  1.00  0.00     0.007 C 
HETATM    7  C14 UNL     1       2.157   8.385  13.101  1.00  0.00     0.007 C 
HETATM    8  C15 UNL     1       1.172   8.568  11.953  1.00  0.00     0.157 C 
HETATM    9  O1  UNL     1       1.570   8.860  10.826  1.00  0.00    -0.293 OA
HETATM   10  C16 UNL     1      -0.327   8.395  12.175  1.00  0.00     0.094 C 
HETATM   11  C17 UNL     1      -0.626   7.583  13.433  1.00  0.00    -0.022 C 
HETATM   12  C18 UNL     1      -0.194   6.110  13.174  1.00  0.00     0.017 C 
HETATM   13  C19 UNL     1       3.672   8.409  12.767  1.00  0.00    -0.007 C 
HETATM   14  C20 UNL     1       3.977   7.086  12.023  1.00  0.00     0.021 C 
HETATM   15  C21 UNL     1       4.050   9.611  11.842  1.00  0.00     0.022 C 
HETATM   16  C22 UNL     1       5.462  10.170  12.004  1.00  0.00     0.080 C 
HETATM   17  C23 UNL     1       6.421   9.138  12.541  1.00  0.00     0.135 C 
HETATM   18  O2  UNL     1       7.460   8.865  11.942  1.00  0.00    -0.297 OA
HETATM   19  C24 UNL     1       6.067   8.524  13.900  1.00  0.00     0.018 C 
HETATM   20  C25 UNL     1       6.679   7.114  14.010  1.00  0.00     0.023 C 
HETATM   21  C26 UNL     1       6.747   9.405  14.971  1.00  0.00     0.023 C 
HETATM   22  C27 UNL     1       4.512   8.567  14.087  1.00  0.00     0.021 C 
HETATM   23  C28 UNL     1       4.007   7.624  15.177  1.00  0.00     0.090 C 
HETATM   24  C29 UNL     1       2.572   7.952  15.488  1.00  0.00     0.157 C 
HETATM   25  O3  UNL     1       2.178   7.989  16.650  1.00  0.00    -0.293 OA
ENDROOT
BRANCH   1  26
HETATM   26  C6  UNL     1      -3.276   6.888  13.258  1.00  0.00    -0.014 C 
HETATM   27  C7  UNL     1      -4.621   7.623  13.198  1.00  0.00     0.010 C 
BRANCH  26  28
HETATM   28  C5  UNL     1      -3.461   5.463  13.832  1.00  0.00     0.008 C 
BRANCH  28  29
HETATM   29  C4  UNL     1      -3.981   4.418  12.831  1.00  0.00     0.028 C 
BRANCH  29  30
HETATM   30  C3  UNL     1      -2.943   3.386  12.485  1.00  0.00    -0.013 C 
HETATM   31  C2  UNL     1      -2.495   3.033  11.262  1.00  0.00     0.008 C 
HETATM   32  C1  UNL     1      -2.950   3.609   9.953  1.00  0.00     0.055 C 
BRANCH  31  33
HETATM   33  C30 UNL     1      -1.448   1.984  11.113  1.00  0.00     0.171 C 
HETATM   34  O4  UNL     1      -0.250   2.163  11.248  1.00  0.00    -0.646 OA
BRANCH  33  35
HETATM   35  O5  UNL     1      -1.931   0.765  10.825  1.00  0.00    -0.773 OA
HETATM   36  H42 UNL     1      -1.126   0.208  10.771  1.00  0.00     0.167 HD
ENDBRANCH  33  35
ENDBRANCH  31  33
ENDBRANCH  29  30
ENDBRANCH  28  29
ENDBRANCH  26  28
ENDBRANCH   1  26
TORSDOF 6
ENDMDL
MODEL 8
REMARK minimizedAffinity -8.87608051
REMARK  6 active torsions:
REMARK  status: ('A' for Active; 'I' for Inactive)
REMARK    1  A    between atoms: C2_2  and  C30_33 
REMARK    2  A    between atoms: C3_3  and  C4_4 
REMARK    3  A    between atoms: C4_4  and  C5_5 
REMARK    4  A    between atoms: C5_5  and  C6_6 
REMARK    5  A    between atoms: C6_6  and  C8_8 
REMARK    6  A    between atoms: C30_33  and  O5_35 
ROOT
HETATM    1  C8  UNL     1      -4.092   7.029  13.195  1.00  0.00    -0.001 C 
HETATM    2  C9  UNL     1      -4.711   8.432  13.439  1.00  0.00     0.007 C 
HETATM    3  C10 UNL     1      -3.551   9.373  13.818  1.00  0.00     0.015 C 
HETATM    4  C11 UNL     1      -2.269   8.614  13.416  1.00  0.00    -0.004 C 
HETATM    5  C12 UNL     1      -2.060   8.853  11.888  1.00  0.00     0.021 C 
HETATM    6  C13 UNL     1      -0.930   8.956  14.050  1.00  0.00     0.007 C 
HETATM    7  C14 UNL     1       0.079   8.054  14.158  1.00  0.00     0.007 C 
HETATM    8  C15 UNL     1      -0.203   6.627  13.703  1.00  0.00     0.157 C 
HETATM    9  O1  UNL     1       0.699   5.792  13.665  1.00  0.00    -0.293 OA
HETATM   10  C16 UNL     1      -1.607   6.204  13.284  1.00  0.00     0.094 C 
HETATM   11  C17 UNL     1      -2.674   7.151  13.830  1.00  0.00    -0.022 C 
HETATM   12  C18 UNL     1      -2.753   6.953  15.373  1.00  0.00     0.017 C 
HETATM   13  C19 UNL     1       1.487   8.368  14.729  1.00  0.00    -0.007 C 
HETATM   14  C20 UNL     1       1.556   7.692  16.120  1.00  0.00     0.021 C 
HETATM   15  C21 UNL     1       2.627   7.792  13.827  1.00  0.00     0.022 C 
HETATM   16  C22 UNL     1       3.944   8.566  13.829  1.00  0.00     0.080 C 
HETATM   17  C23 UNL     1       4.141   9.347  15.104  1.00  0.00     0.135 C 
HETATM   18  O2  UNL     1       5.151   9.198  15.790  1.00  0.00    -0.297 OA
HETATM   19  C24 UNL     1       3.061  10.381  15.439  1.00  0.00     0.018 C 
HETATM   20  C25 UNL     1       3.002  10.597  16.965  1.00  0.00     0.023 C 
HETATM   21  C26 UNL     1       3.514  11.713  14.803  1.00  0.00     0.023 C 
HETATM   22  C27 UNL     1       1.704   9.923  14.803  1.00  0.00     0.021 C 
HETATM   23  C28 UNL     1       0.487  10.621  15.405  1.00  0.00     0.090 C 
HETATM   24  C29 UNL     1      -0.716  10.352  14.541  1.00  0.00     0.157 C 
HETATM   25  O3  UNL     1      -1.507  11.252  14.275  1.00  0.00    -0.293 OA
ENDROOT
BRANCH   1  26
HETATM   26  C6  UNL     1      -5.067   5.851  13.491  1.00  0.00    -0.014 C 
HETATM   27  C7  UNL     1      -5.827   5.896  14.823  1.00  0.00     0.010 C 
BRANCH  26  28
HETATM   28  C5  UNL     1      -4.373   4.480  13.308  1.00  0.00     0.008 C 
BRANCH  28  29
HETATM   29  C4  UNL     1      -4.503   3.864  11.905  1.00  0.00     0.028 C 
BRANCH  29  30
HETATM   30  C3  UNL     1      -3.488   2.783  11.654  1.00  0.00    -0.013 C 
HETATM   31  C2  UNL     1      -2.227   2.916  11.192  1.00  0.00     0.008 C 
HETATM   32  C1  UNL     1      -1.554   4.204  10.817  1.00  0.00     0.055 C 
BRANCH  31  33
HETATM   33  C30 UNL     1      -1.357   1.721  11.012  1.00  0.00     0.171 C 
HETATM   34  O4  UNL     1      -0.139   1.737  10.981  1.00  0.00    -0.646 OA
BRANCH  33  35
HETATM   35  O5  UNL     1      -2.030   0.564  10.900  1.00  0.00    -0.773 OA
HETATM   36  H42 UNL     1      -1.320  -0.103  10.798  1.00  0.00     0.167 HD
ENDBRANCH  33  35
ENDBRANCH  31  33
ENDBRANCH  29  30
ENDBRANCH  28  29
ENDBRANCH  26  28
ENDBRANCH   1  26
TORSDOF 6
ENDMDL
MODEL 9
REMARK minimizedAffinity -8.79840279
REMARK  6 active torsions:
REMARK  status: ('A' for Active; 'I' for Inactive)
REMARK    1  A    between atoms: C2_2  and  C30_33 
REMARK    2  A    between atoms: C3_3  and  C4_4 
REMARK    3  A    between atoms: C4_4  and  C5_5 
REMARK    4  A    between atoms: C5_5  and  C6_6 
REMARK    5  A    between atoms: C6_6  and  C8_8 
REMARK    6  A    between atoms: C30_33  and  O5_35 
ROOT
HETATM    1  C8  UNL     1      -1.787   5.218  12.138  1.00  0.00    -0.001 C 
HETATM    2  C9  UNL     1      -1.906   5.632  13.629  1.00  0.00     0.007 C 
HETATM    3  C10 UNL     1      -0.649   6.455  13.967  1.00  0.00     0.015 C 
HETATM    4  C11 UNL     1      -0.031   6.826  12.603  1.00  0.00    -0.004 C 
HETATM    5  C12 UNL     1      -0.801   8.079  12.082  1.00  0.00     0.021 C 
HETATM    6  C13 UNL     1       1.439   7.196  12.487  1.00  0.00     0.007 C 
HETATM    7  C14 UNL     1       2.149   7.021  11.344  1.00  0.00     0.007 C 
HETATM    8  C15 UNL     1       1.444   6.339  10.177  1.00  0.00     0.157 C 
HETATM    9  O1  UNL     1       1.990   6.255   9.078  1.00  0.00    -0.293 OA
HETATM   10  C16 UNL     1       0.048   5.748  10.346  1.00  0.00     0.094 C 
HETATM   11  C17 UNL     1      -0.287   5.489  11.812  1.00  0.00    -0.022 C 
HETATM   12  C18 UNL     1       0.597   4.307  12.310  1.00  0.00     0.017 C 
HETATM   13  C19 UNL     1       3.628   7.447  11.149  1.00  0.00    -0.007 C 
HETATM   14  C20 UNL     1       4.462   6.142  11.140  1.00  0.00     0.021 C 
HETATM   15  C21 UNL     1       3.849   8.199   9.796  1.00  0.00     0.022 C 
HETATM   16  C22 UNL     1       4.965   9.241   9.777  1.00  0.00     0.080 C 
HETATM   17  C23 UNL     1       6.029   8.949  10.805  1.00  0.00     0.135 C 
HETATM   18  O2  UNL     1       7.211   8.845  10.482  1.00  0.00    -0.297 OA
HETATM   19  C24 UNL     1       5.563   8.877  12.263  1.00  0.00     0.018 C 
HETATM   20  C25 UNL     1       6.511   7.966  13.069  1.00  0.00     0.023 C 
HETATM   21  C26 UNL     1       5.697  10.304  12.839  1.00  0.00     0.023 C 
HETATM   22  C27 UNL     1       4.061   8.432  12.295  1.00  0.00     0.021 C 
HETATM   23  C28 UNL     1       3.611   7.919  13.661  1.00  0.00     0.090 C 
HETATM   24  C29 UNL     1       2.110   7.806  13.676  1.00  0.00     0.157 C 
HETATM   25  O3  UNL     1       1.466   8.180  14.652  1.00  0.00    -0.293 OA
ENDROOT
BRANCH   1  26
HETATM   26  C6  UNL     1      -2.513   3.883  11.795  1.00  0.00    -0.014 C 
HETATM   27  C7  UNL     1      -2.912   3.666  10.330  1.00  0.00     0.010 C 
BRANCH  26  28
HETATM   28  C5  UNL     1      -3.722   3.639  12.729  1.00  0.00     0.008 C 
BRANCH  28  29
HETATM   29  C4  UNL     1      -5.076   4.120  12.183  1.00  0.00     0.028 C 
BRANCH  29  30
HETATM   30  C3  UNL     1      -5.860   4.907  13.197  1.00  0.00    -0.013 C 
HETATM   31  C2  UNL     1      -6.964   4.528  13.873  1.00  0.00     0.008 C 
HETATM   32  C1  UNL     1      -7.666   3.207  13.751  1.00  0.00     0.055 C 
BRANCH  31  33
HETATM   33  C30 UNL     1      -7.606   5.448  14.853  1.00  0.00     0.171 C 
HETATM   34  O4  UNL     1      -7.434   5.420  16.059  1.00  0.00    -0.646 OA
BRANCH  33  35
HETATM   35  O5  UNL     1      -8.410   6.368  14.295  1.00  0.00    -0.773 OA
HETATM   36  H42 UNL     1      -8.735   6.882  15.064  1.00  0.00     0.167 HD
ENDBRANCH  33  35
ENDBRANCH  31  33
ENDBRANCH  29  30
ENDBRANCH  28  29
ENDBRANCH  26  28
ENDBRANCH   1  26
TORSDOF 6
ENDMDL
