MODEL 1
REMARK minimizedAffinity -6.69965792
REMARK CNNscore 0.242267326
REMARK CNNaffinity 5.27199125
REMARK  2 active torsions:
REMARK  status: ('A' for Active; 'I' for Inactive)
REMARK    1  A    between atoms: C21_27  and  C22_28 
REMARK    2  A    between atoms: C22_28  and  O7_30 
ROOT
HETATM    1  C1  UNL     1       2.525  17.309  26.832  1.00  0.00     0.043 C 
HETATM    2  C2  UNL     1       2.198  16.879  25.423  1.00  0.00    -0.076 C 
HETATM    3  C3  UNL     1       2.557  15.644  25.005  1.00  0.00     0.084 C 
HETATM    4  C4  UNL     1       2.306  15.075  23.665  1.00  0.00     0.283 C 
HETATM    5  O1  UNL     1       1.662  15.589  22.769  1.00  0.00    -0.260 OA
HETATM    6  O2  UNL     1       2.927  13.870  23.622  1.00  0.00    -0.317 OA
HETATM    7  C5  UNL     1       2.730  13.106  22.431  1.00  0.00     0.195 C 
HETATM    8  C6  UNL     1       4.023  12.384  21.919  1.00  0.00     0.053 C 
HETATM    9  C7  UNL     1       4.636  11.501  23.074  1.00  0.00     0.159 C 
HETATM   10  C8  UNL     1       3.844  10.265  23.405  1.00  0.00     0.011 C 
HETATM   11  C9  UNL     1       3.082   9.633  22.490  1.00  0.00    -0.054 C 
HETATM   12  C10 UNL     1       2.336   8.373  22.822  1.00  0.00     0.046 C 
HETATM   13  C11 UNL     1       3.016  10.093  21.092  1.00  0.00     0.180 A 
HETATM   14  O3  UNL     1       4.234  10.337  20.370  1.00  0.00    -0.370 OA
HETATM   15  C12 UNL     1       3.496  11.498  20.767  1.00  0.00     0.170 A 
HETATM   16  O4  UNL     1       5.976  11.041  22.823  1.00  0.00    -0.372 OA
HETATM   17  C13 UNL     1       6.881  11.975  22.222  1.00  0.00     0.162 C 
HETATM   18  C14 UNL     1       7.045  13.230  23.079  1.00  0.00     0.068 C 
HETATM   19  C15 UNL     1       5.850  14.129  22.664  1.00  0.00     0.147 C 
HETATM   20  O5  UNL     1       6.216  15.531  22.630  1.00  0.00    -0.312 OA
HETATM   21  C16 UNL     1       7.167  16.002  21.799  1.00  0.00     0.283 C 
HETATM   22  O6  UNL     1       7.594  15.463  20.795  1.00  0.00    -0.260 OA
HETATM   23  C17 UNL     1       7.794  17.250  22.273  1.00  0.00     0.082 C 
HETATM   24  C18 UNL     1       7.292  18.331  22.881  1.00  0.00     0.006 C 
HETATM   25  C19 UNL     1       5.935  18.614  23.275  1.00  0.00    -0.001 C 
HETATM   26  C20 UNL     1       5.554  19.871  23.564  1.00  0.00     0.007 C 
HETATM   27  C21 UNL     1       4.184  20.370  23.955  1.00  0.00     0.172 C 
HETATM   28  O8  UNL     1       3.426  19.329  24.564  1.00  0.00    -0.379 OA
HETATM   29  C24 UNL     1       2.391  18.794  23.740  1.00  0.00     0.173 C 
HETATM   30  C25 UNL     1       1.474  17.915  24.591  1.00  0.00     0.060 C 
HETATM   31  C26 UNL     1       5.156  13.417  21.418  1.00  0.00     0.034 C 
HETATM   32  C27 UNL     1       4.638  14.405  20.375  1.00  0.00     0.022 C 
HETATM   33  C28 UNL     1       6.280  12.502  20.965  1.00  0.00     0.119 A 
HETATM   34  C29 UNL     1       6.446  11.858  19.601  1.00  0.00     0.210 A 
HETATM   35  O9  UNL     1       7.221  12.987  20.002  1.00  0.00    -0.371 OA
ENDROOT
BRANCH  27  36
HETATM   36  C22 UNL     1       4.289  21.528  24.988  1.00  0.00     0.146 C 
HETATM   37  C23 UNL     1       3.923  21.066  26.394  1.00  0.00     0.042 C 
BRANCH  36  38
HETATM   38  O7  UNL     1       3.443  22.627  24.643  1.00  0.00    -0.393 OA
HETATM   39  H27 UNL     1       2.521  22.362  24.776  1.00  0.00     0.210 HD
ENDBRANCH  36  38
ENDBRANCH  27  36
TORSDOF 2
ENDMDL
MODEL 2
REMARK minimizedAffinity -9.02568626
REMARK CNNscore 0.229640096
REMARK CNNaffinity 6.90568161
REMARK  2 active torsions:
REMARK  status: ('A' for Active; 'I' for Inactive)
REMARK    1  A    between atoms: C21_27  and  C22_28 
REMARK    2  A    between atoms: C22_28  and  O7_30 
ROOT
HETATM    1  C1  UNL     1      -7.921   5.980  11.926  1.00  0.00     0.043 C 
HETATM    2  C2  UNL     1      -7.225   5.952  13.265  1.00  0.00    -0.076 C 
HETATM    3  C3  UNL     1      -6.594   7.062  13.709  1.00  0.00     0.084 C 
HETATM    4  C4  UNL     1      -5.874   7.196  14.993  1.00  0.00     0.283 C 
HETATM    5  O1  UNL     1      -5.818   6.366  15.881  1.00  0.00    -0.260 OA
HETATM    6  O2  UNL     1      -5.289   8.420  14.995  1.00  0.00    -0.317 OA
HETATM    7  C5  UNL     1      -4.611   8.788  16.198  1.00  0.00     0.195 C 
HETATM    8  C6  UNL     1      -3.248   9.521  15.959  1.00  0.00     0.053 C 
HETATM    9  C7  UNL     1      -3.469  10.769  15.018  1.00  0.00     0.159 C 
HETATM   10  C8  UNL     1      -4.195  11.918  15.663  1.00  0.00     0.011 C 
HETATM   11  C9  UNL     1      -4.135  12.154  16.989  1.00  0.00    -0.054 C 
HETATM   12  C10 UNL     1      -4.825  13.334  17.611  1.00  0.00     0.046 C 
HETATM   13  C11 UNL     1      -3.311  11.322  17.883  1.00  0.00     0.180 A 
HETATM   14  O3  UNL     1      -1.938  11.068  17.547  1.00  0.00    -0.370 OA
HETATM   15  C12 UNL     1      -2.838   9.968  17.381  1.00  0.00     0.170 A 
HETATM   16  O4  UNL     1      -2.257  11.332  14.485  1.00  0.00    -0.372 OA
HETATM   17  C13 UNL     1      -1.248  10.412  14.052  1.00  0.00     0.162 C 
HETATM   18  C14 UNL     1      -1.769   9.481  12.958  1.00  0.00     0.068 C 
HETATM   19  C15 UNL     1      -2.471   8.336  13.738  1.00  0.00     0.147 C 
HETATM   20  O5  UNL     1      -2.272   7.049  13.103  1.00  0.00    -0.312 OA
HETATM   21  C16 UNL     1      -1.046   6.512  12.945  1.00  0.00     0.283 C 
HETATM   22  O6  UNL     1      -0.033   6.808  13.550  1.00  0.00    -0.260 OA
HETATM   23  C17 UNL     1      -0.968   5.549  11.831  1.00  0.00     0.082 C 
HETATM   24  C18 UNL     1      -1.820   4.616  11.390  1.00  0.00     0.006 C 
HETATM   25  C19 UNL     1      -3.123   4.258  11.886  1.00  0.00    -0.001 C 
HETATM   26  C20 UNL     1      -3.690   3.088  11.541  1.00  0.00     0.007 C 
HETATM   27  C21 UNL     1      -5.018   2.522  11.982  1.00  0.00     0.172 C 
HETATM   28  O8  UNL     1      -5.913   3.567  12.348  1.00  0.00    -0.379 OA
HETATM   29  C24 UNL     1      -6.125   3.697  13.753  1.00  0.00     0.173 C 
HETATM   30  C25 UNL     1      -7.308   4.632  14.000  1.00  0.00     0.060 C 
HETATM   31  C26 UNL     1      -2.138   8.568  15.281  1.00  0.00     0.034 C 
HETATM   32  C27 UNL     1      -1.926   7.265  16.049  1.00  0.00     0.022 C 
HETATM   33  C28 UNL     1      -0.928   9.476  15.166  1.00  0.00     0.119 A 
HETATM   34  C29 UNL     1       0.129   9.736  16.224  1.00  0.00     0.210 A 
HETATM   35  O9  UNL     1       0.375   8.887  15.103  1.00  0.00    -0.371 OA
ENDROOT
BRANCH  27  36
HETATM   36  C22 UNL     1      -5.691   1.722  10.830  1.00  0.00     0.146 C 
HETATM   37  C23 UNL     1      -6.058   2.623   9.656  1.00  0.00     0.042 C 
BRANCH  36  38
HETATM   38  O7  UNL     1      -6.875   1.052  11.268  1.00  0.00    -0.393 OA
HETATM   39  H27 UNL     1      -7.560   1.714  11.440  1.00  0.00     0.210 HD
ENDBRANCH  36  38
ENDBRANCH  27  36
TORSDOF 2
ENDMDL
MODEL 3
REMARK minimizedAffinity -7.2726779
REMARK CNNscore 0.21141997
REMARK CNNaffinity 5.32439804
REMARK  2 active torsions:
REMARK  status: ('A' for Active; 'I' for Inactive)
REMARK    1  A    between atoms: C21_27  and  C22_28 
REMARK    2  A    between atoms: C22_28  and  O7_30 
ROOT
HETATM    1  C1  UNL     1      10.950  -5.786   6.138  1.00  0.00     0.043 C 
HETATM    2  C2  UNL     1      12.454  -5.707   6.229  1.00  0.00    -0.076 C 
HETATM    3  C3  UNL     1      13.091  -4.607   5.767  1.00  0.00     0.084 C 
HETATM    4  C4  UNL     1      14.550  -4.376   5.789  1.00  0.00     0.283 C 
HETATM    5  O1  UNL     1      15.388  -5.091   6.305  1.00  0.00    -0.260 OA
HETATM    6  O2  UNL     1      14.778  -3.214   5.126  1.00  0.00    -0.317 OA
HETATM    7  C5  UNL     1      16.132  -2.758   5.111  1.00  0.00     0.195 C 
HETATM    8  C6  UNL     1      16.590  -2.176   3.730  1.00  0.00     0.053 C 
HETATM    9  C7  UNL     1      15.595  -1.041   3.271  1.00  0.00     0.159 C 
HETATM   10  C8  UNL     1      15.695   0.236   4.060  1.00  0.00     0.011 C 
HETATM   11  C9  UNL     1      16.842   0.629   4.650  1.00  0.00    -0.054 C 
HETATM   12  C10 UNL     1      16.939   1.930   5.393  1.00  0.00     0.046 C 
HETATM   13  C11 UNL     1      18.084  -0.152   4.516  1.00  0.00     0.180 A 
HETATM   14  O3  UNL     1      18.526  -0.559   3.212  1.00  0.00    -0.370 OA
HETATM   15  C12 UNL     1      17.987  -1.593   4.043  1.00  0.00     0.170 A 
HETATM   16  O4  UNL     1      15.734  -0.652   1.893  1.00  0.00    -0.372 OA
HETATM   17  C13 UNL     1      15.946  -1.700   0.940  1.00  0.00     0.162 C 
HETATM   18  C14 UNL     1      14.802  -2.712   0.954  1.00  0.00     0.068 C 
HETATM   19  C15 UNL     1      15.175  -3.688   2.102  1.00  0.00     0.147 C 
HETATM   20  O5  UNL     1      14.818  -5.056   1.785  1.00  0.00    -0.312 OA
HETATM   21  C16 UNL     1      15.353  -5.710   0.735  1.00  0.00     0.283 C 
HETATM   22  O6  UNL     1      16.376  -5.427   0.141  1.00  0.00    -0.260 OA
HETATM   23  C17 UNL     1      14.505  -6.807   0.233  1.00  0.00     0.082 C 
HETATM   24  C18 UNL     1      13.745  -7.712   0.861  1.00  0.00     0.006 C 
HETATM   25  C19 UNL     1      13.514  -7.896   2.270  1.00  0.00    -0.001 C 
HETATM   26  C20 UNL     1      12.999  -9.048   2.735  1.00  0.00     0.007 C 
HETATM   27  C21 UNL     1      12.722  -9.442   4.167  1.00  0.00     0.172 C 
HETATM   28  O8  UNL     1      12.504  -8.288   4.972  1.00  0.00    -0.379 OA
HETATM   29  C24 UNL     1      13.584  -7.968   5.848  1.00  0.00     0.173 C 
HETATM   30  C25 UNL     1      13.121  -6.914   6.853  1.00  0.00     0.060 C 
HETATM   31  C26 UNL     1      16.648  -3.296   2.571  1.00  0.00     0.034 C 
HETATM   32  C27 UNL     1      17.495  -4.506   2.958  1.00  0.00     0.022 C 
HETATM   33  C28 UNL     1      17.121  -2.514   1.360  1.00  0.00     0.119 A 
HETATM   34  C29 UNL     1      18.555  -2.214   0.964  1.00  0.00     0.210 A 
HETATM   35  O9  UNL     1      17.781  -3.213   0.299  1.00  0.00    -0.371 OA
ENDROOT
BRANCH  27  36
HETATM   36  C22 UNL     1      11.442 -10.319   4.262  1.00  0.00     0.146 C 
HETATM   37  C23 UNL     1      11.689 -11.739   3.765  1.00  0.00     0.042 C 
BRANCH  36  38
HETATM   38  O7  UNL     1      10.358  -9.764   3.513  1.00  0.00    -0.393 OA
HETATM   39  H27 UNL     1      10.557  -9.854   2.569  1.00  0.00     0.210 HD
ENDBRANCH  36  38
ENDBRANCH  27  36
TORSDOF 2
ENDMDL
MODEL 4
REMARK minimizedAffinity -6.45064497
REMARK CNNscore 0.191871539
REMARK CNNaffinity 5.42587805
REMARK  2 active torsions:
REMARK  status: ('A' for Active; 'I' for Inactive)
REMARK    1  A    between atoms: C21_27  and  C22_28 
REMARK    2  A    between atoms: C22_28  and  O7_30 
ROOT
HETATM    1  C1  UNL     1      -2.439  -9.907   2.388  1.00  0.00     0.043 C 
HETATM    2  C2  UNL     1      -3.392 -11.005   1.984  1.00  0.00    -0.076 C 
HETATM    3  C3  UNL     1      -4.140 -10.859   0.867  1.00  0.00     0.084 C 
HETATM    4  C4  UNL     1      -5.110 -11.840   0.338  1.00  0.00     0.283 C 
HETATM    5  O1  UNL     1      -5.316 -12.958   0.769  1.00  0.00    -0.260 OA
HETATM    6  O2  UNL     1      -5.727 -11.256  -0.721  1.00  0.00    -0.317 OA
HETATM    7  C5  UNL     1      -6.649 -12.079  -1.439  1.00  0.00     0.195 C 
HETATM    8  C6  UNL     1      -7.961 -11.338  -1.867  1.00  0.00     0.053 C 
HETATM    9  C7  UNL     1      -7.598 -10.035  -2.680  1.00  0.00     0.159 C 
HETATM   10  C8  UNL     1      -7.060 -10.288  -4.062  1.00  0.00     0.011 C 
HETATM   11  C9  UNL     1      -7.399 -11.381  -4.776  1.00  0.00    -0.054 C 
HETATM   12  C10 UNL     1      -6.892 -11.596  -6.173  1.00  0.00     0.046 C 
HETATM   13  C11 UNL     1      -8.356 -12.374  -4.259  1.00  0.00     0.180 A 
HETATM   14  O3  UNL     1      -9.622 -11.933  -3.743  1.00  0.00    -0.370 OA
HETATM   15  C12 UNL     1      -8.668 -12.374  -2.771  1.00  0.00     0.170 A 
HETATM   16  O4  UNL     1      -8.696  -9.121  -2.858  1.00  0.00    -0.372 OA
HETATM   17  C13 UNL     1      -9.561  -8.919  -1.734  1.00  0.00     0.162 C 
HETATM   18  C14 UNL     1      -8.795  -8.390  -0.522  1.00  0.00     0.068 C 
HETATM   19  C15 UNL     1      -8.226  -9.667   0.152  1.00  0.00     0.147 C 
HETATM   20  O5  UNL     1      -8.244  -9.568   1.598  1.00  0.00    -0.312 OA
HETATM   21  C16 UNL     1      -9.392  -9.425   2.289  1.00  0.00     0.283 C 
HETATM   22  O6  UNL     1     -10.517  -9.679   1.902  1.00  0.00    -0.260 OA
HETATM   23  C17 UNL     1      -9.207  -8.787   3.606  1.00  0.00     0.082 C 
HETATM   24  C18 UNL     1      -8.250  -8.904   4.533  1.00  0.00     0.006 C 
HETATM   25  C19 UNL     1      -7.063  -9.719   4.527  1.00  0.00    -0.001 C 
HETATM   26  C20 UNL     1      -6.396  -9.968   5.667  1.00  0.00     0.007 C 
HETATM   27  C21 UNL     1      -5.166 -10.820   5.870  1.00  0.00     0.172 C 
HETATM   28  O8  UNL     1      -4.402 -10.893   4.670  1.00  0.00    -0.379 OA
HETATM   29  C24 UNL     1      -4.486 -12.146   3.993  1.00  0.00     0.173 C 
HETATM   30  C25 UNL     1      -3.412 -12.204   2.907  1.00  0.00     0.060 C 
HETATM   31  C26 UNL     1      -8.874 -10.910  -0.609  1.00  0.00     0.034 C 
HETATM   32  C27 UNL     1      -9.191 -12.081   0.319  1.00  0.00     0.022 C 
HETATM   33  C28 UNL     1     -10.068 -10.238  -1.262  1.00  0.00     0.119 A 
HETATM   34  C29 UNL     1     -11.326 -10.908  -1.783  1.00  0.00     0.210 A 
HETATM   35  O9  UNL     1     -11.309 -10.188  -0.550  1.00  0.00    -0.371 OA
ENDROOT
BRANCH  27  36
HETATM   36  C22 UNL     1      -4.244 -10.213   6.965  1.00  0.00     0.146 C 
HETATM   37  C23 UNL     1      -4.702 -10.599   8.367  1.00  0.00     0.042 C 
BRANCH  36  38
HETATM   38  O7  UNL     1      -4.192  -8.787   6.888  1.00  0.00    -0.393 OA
HETATM   39  H27 UNL     1      -5.048  -8.430   7.167  1.00  0.00     0.210 HD
ENDBRANCH  36  38
ENDBRANCH  27  36
TORSDOF 2
ENDMDL
MODEL 5
REMARK minimizedAffinity -7.0810442
REMARK CNNscore 0.188558877
REMARK CNNaffinity 4.91099072
REMARK  2 active torsions:
REMARK  status: ('A' for Active; 'I' for Inactive)
REMARK    1  A    between atoms: C21_27  and  C22_28 
REMARK    2  A    between atoms: C22_28  and  O7_30 
ROOT
HETATM    1  C1  UNL     1       2.989  14.272  18.910  1.00  0.00     0.043 C 
HETATM    2  C2  UNL     1       3.087  15.057  20.195  1.00  0.00    -0.076 C 
HETATM    3  C3  UNL     1       4.046  16.003  20.323  1.00  0.00     0.084 C 
HETATM    4  C4  UNL     1       4.269  16.856  21.509  1.00  0.00     0.283 C 
HETATM    5  O1  UNL     1       3.575  16.903  22.507  1.00  0.00    -0.260 OA
HETATM    6  O2  UNL     1       5.394  17.577  21.274  1.00  0.00    -0.317 OA
HETATM    7  C5  UNL     1       5.740  18.541  22.271  1.00  0.00     0.195 C 
HETATM    8  C6  UNL     1       7.273  18.604  22.587  1.00  0.00     0.053 C 
HETATM    9  C7  UNL     1       8.086  18.836  21.255  1.00  0.00     0.159 C 
HETATM   10  C8  UNL     1       7.953  20.217  20.673  1.00  0.00     0.011 C 
HETATM   11  C9  UNL     1       7.710  21.300  21.440  1.00  0.00    -0.054 C 
HETATM   12  C10 UNL     1       7.629  22.679  20.851  1.00  0.00     0.046 C 
HETATM   13  C11 UNL     1       7.606  21.199  22.906  1.00  0.00     0.180 A 
HETATM   14  O3  UNL     1       8.634  20.518  23.642  1.00  0.00    -0.370 OA
HETATM   15  C12 UNL     1       7.386  19.829  23.524  1.00  0.00     0.170 A 
HETATM   16  O4  UNL     1       9.501  18.606  21.376  1.00  0.00    -0.372 OA
HETATM   17  C13 UNL     1       9.911  17.474  22.152  1.00  0.00     0.162 C 
HETATM   18  C14 UNL     1       9.342  16.171  21.590  1.00  0.00     0.068 C 
HETATM   19  C15 UNL     1       7.924  16.078  22.214  1.00  0.00     0.147 C 
HETATM   20  O5  UNL     1       7.570  14.714  22.550  1.00  0.00    -0.312 OA
HETATM   21  C16 UNL     1       8.273  13.994  23.447  1.00  0.00     0.283 C 
HETATM   22  O6  UNL     1       9.027  14.422  24.300  1.00  0.00    -0.260 OA
HETATM   23  C17 UNL     1       8.156  12.537  23.250  1.00  0.00     0.082 C 
HETATM   24  C18 UNL     1       7.123  11.759  22.905  1.00  0.00     0.006 C 
HETATM   25  C19 UNL     1       5.762  12.121  22.607  1.00  0.00    -0.001 C 
HETATM   26  C20 UNL     1       4.790  11.192  22.609  1.00  0.00     0.007 C 
HETATM   27  C21 UNL     1       3.312  11.379  22.362  1.00  0.00     0.172 C 
HETATM   28  O8  UNL     1       3.079  12.526  21.551  1.00  0.00    -0.379 OA
HETATM   29  C24 UNL     1       2.543  13.646  22.255  1.00  0.00     0.173 C 
HETATM   30  C25 UNL     1       2.064  14.691  21.248  1.00  0.00     0.060 C 
HETATM   31  C26 UNL     1       7.820  17.256  23.284  1.00  0.00     0.034 C 
HETATM   32  C27 UNL     1       7.025  16.867  24.528  1.00  0.00     0.022 C 
HETATM   33  C28 UNL     1       9.292  17.556  23.504  1.00  0.00     0.119 A 
HETATM   34  C29 UNL     1       9.917  18.270  24.689  1.00  0.00     0.210 A 
HETATM   35  O9  UNL     1       9.995  16.853  24.534  1.00  0.00    -0.371 OA
ENDROOT
BRANCH  27  36
HETATM   36  C22 UNL     1       2.716  10.155  21.608  1.00  0.00     0.146 C 
HETATM   37  C23 UNL     1       1.510  10.545  20.762  1.00  0.00     0.042 C 
BRANCH  36  38
HETATM   38  O7  UNL     1       2.316   9.119  22.508  1.00  0.00    -0.393 OA
HETATM   39  H27 UNL     1       1.535   9.417  22.996  1.00  0.00     0.210 HD
ENDBRANCH  36  38
ENDBRANCH  27  36
TORSDOF 2
ENDMDL
MODEL 6
REMARK minimizedAffinity -6.52199888
REMARK CNNscore 0.18746987
REMARK CNNaffinity 5.27134275
REMARK  2 active torsions:
REMARK  status: ('A' for Active; 'I' for Inactive)
REMARK    1  A    between atoms: C21_27  and  C22_28 
REMARK    2  A    between atoms: C22_28  and  O7_30 
ROOT
HETATM    1  C1  UNL     1      12.498  -2.221   3.863  1.00  0.00     0.043 C 
HETATM    2  C2  UNL     1      13.844  -2.861   3.630  1.00  0.00    -0.076 C 
HETATM    3  C3  UNL     1      14.179  -3.269   2.385  1.00  0.00     0.084 C 
HETATM    4  C4  UNL     1      15.454  -3.905   1.994  1.00  0.00     0.283 C 
HETATM    5  O1  UNL     1      16.426  -4.074   2.705  1.00  0.00    -0.260 OA
HETATM    6  O2  UNL     1      15.336  -4.264   0.690  1.00  0.00    -0.317 OA
HETATM    7  C5  UNL     1      16.505  -4.821   0.086  1.00  0.00     0.195 C 
HETATM    8  C6  UNL     1      16.214  -6.040  -0.853  1.00  0.00     0.053 C 
HETATM    9  C7  UNL     1      15.142  -5.637  -1.938  1.00  0.00     0.159 C 
HETATM   10  C8  UNL     1      15.646  -4.696  -2.997  1.00  0.00     0.011 C 
HETATM   11  C9  UNL     1      16.941  -4.665  -3.374  1.00  0.00    -0.054 C 
HETATM   12  C10 UNL     1      17.420  -3.754  -4.467  1.00  0.00     0.046 C 
HETATM   13  C11 UNL     1      17.933  -5.589  -2.799  1.00  0.00     0.180 A 
HETATM   14  O3  UNL     1      17.651  -6.997  -2.764  1.00  0.00    -0.370 OA
HETATM   15  C12 UNL     1      17.588  -6.313  -1.508  1.00  0.00     0.170 A 
HETATM   16  O4  UNL     1      14.573  -6.749  -2.653  1.00  0.00    -0.372 OA
HETATM   17  C13 UNL     1      14.260  -7.920  -1.889  1.00  0.00     0.162 C 
HETATM   18  C14 UNL     1      13.262  -7.613  -0.774  1.00  0.00     0.068 C 
HETATM   19  C15 UNL     1      14.147  -7.097   0.393  1.00  0.00     0.147 C 
HETATM   20  O5  UNL     1      13.657  -7.544   1.681  1.00  0.00    -0.312 OA
HETATM   21  C16 UNL     1      13.579  -8.851   2.002  1.00  0.00     0.283 C 
HETATM   22  O6  UNL     1      14.168  -9.772   1.468  1.00  0.00    -0.260 OA
HETATM   23  C17 UNL     1      12.576  -9.140   3.044  1.00  0.00     0.082 C 
HETATM   24  C18 UNL     1      12.221  -8.483   4.154  1.00  0.00     0.006 C 
HETATM   25  C19 UNL     1      12.729  -7.246   4.690  1.00  0.00    -0.001 C 
HETATM   26  C20 UNL     1      12.500  -6.909   5.971  1.00  0.00     0.007 C 
HETATM   27  C21 UNL     1      12.976  -5.686   6.719  1.00  0.00     0.172 C 
HETATM   28  O8  UNL     1      13.212  -4.608   5.820  1.00  0.00    -0.379 OA
HETATM   29  C24 UNL     1      14.591  -4.325   5.588  1.00  0.00     0.173 C 
HETATM   30  C25 UNL     1      14.715  -2.986   4.862  1.00  0.00     0.060 C 
HETATM   31  C26 UNL     1      15.662  -7.326  -0.050  1.00  0.00     0.034 C 
HETATM   32  C27 UNL     1      16.568  -7.737   1.108  1.00  0.00     0.022 C 
HETATM   33  C28 UNL     1      15.473  -8.360  -1.145  1.00  0.00     0.119 A 
HETATM   34  C29 UNL     1      16.516  -9.314  -1.697  1.00  0.00     0.210 A 
HETATM   35  O9  UNL     1      15.497  -9.748  -0.797  1.00  0.00    -0.371 OA
ENDROOT
BRANCH  27  36
HETATM   36  C22 UNL     1      11.904  -5.209   7.740  1.00  0.00     0.146 C 
HETATM   37  C23 UNL     1      12.140  -5.799   9.125  1.00  0.00     0.042 C 
BRANCH  36  38
HETATM   38  O7  UNL     1      10.581  -5.556   7.324  1.00  0.00    -0.393 OA
HETATM   39  H27 UNL     1      10.475  -6.516   7.400  1.00  0.00     0.210 HD
ENDBRANCH  36  38
ENDBRANCH  27  36
TORSDOF 2
ENDMDL
MODEL 7
REMARK minimizedAffinity -6.43584681
REMARK CNNscore 0.175422549
REMARK CNNaffinity 4.60633087
REMARK  2 active torsions:
REMARK  status: ('A' for Active; 'I' for Inactive)
REMARK    1  A    between atoms: C21_27  and  C22_28 
REMARK    2  A    between atoms: C22_28  and  O7_30 
ROOT
HETATM    1  C1  UNL     1       4.343  18.202  26.459  1.00  0.00     0.043 C 
HETATM    2  C2  UNL     1       4.171  17.831  25.006  1.00  0.00    -0.076 C 
HETATM    3  C3  UNL     1       4.369  16.550  24.620  1.00  0.00     0.084 C 
HETATM    4  C4  UNL     1       4.236  16.029  23.244  1.00  0.00     0.283 C 
HETATM    5  O1  UNL     1       3.842  16.645  22.272  1.00  0.00    -0.260 OA
HETATM    6  O2  UNL     1       4.636  14.732  23.270  1.00  0.00    -0.317 OA
HETATM    7  C5  UNL     1       4.499  14.010  22.044  1.00  0.00     0.195 C 
HETATM    8  C6  UNL     1       5.710  13.070  21.723  1.00  0.00     0.053 C 
HETATM    9  C7  UNL     1       5.969  12.097  22.938  1.00  0.00     0.159 C 
HETATM   10  C8  UNL     1       4.932  11.022  23.112  1.00  0.00     0.011 C 
HETATM   11  C9  UNL     1       4.224  10.531  22.074  1.00  0.00    -0.054 C 
HETATM   12  C10 UNL     1       3.226   9.423  22.256  1.00  0.00     0.046 C 
HETATM   13  C11 UNL     1       4.461  10.989  20.694  1.00  0.00     0.180 A 
HETATM   14  O3  UNL     1       5.800  11.012  20.177  1.00  0.00    -0.370 OA
HETATM   15  C12 UNL     1       5.223  12.286  20.482  1.00  0.00     0.170 A 
HETATM   16  O4  UNL     1       7.231  11.407  22.887  1.00  0.00    -0.372 OA
HETATM   17  C13 UNL     1       8.369  12.164  22.457  1.00  0.00     0.162 C 
HETATM   18  C14 UNL     1       8.613  13.373  23.359  1.00  0.00     0.068 C 
HETATM   19  C15 UNL     1       7.674  14.468  22.784  1.00  0.00     0.147 C 
HETATM   20  O5  UNL     1       8.280  15.783  22.841  1.00  0.00    -0.312 OA
HETATM   21  C16 UNL     1       9.417  16.075  22.180  1.00  0.00     0.283 C 
HETATM   22  O6  UNL     1       9.896  15.466  21.242  1.00  0.00    -0.260 OA
HETATM   23  C17 UNL     1      10.170  17.195  22.775  1.00  0.00     0.082 C 
HETATM   24  C18 UNL     1       9.775  18.350  23.323  1.00  0.00     0.006 C 
HETATM   25  C19 UNL     1       8.445  18.870  23.508  1.00  0.00    -0.001 C 
HETATM   26  C20 UNL     1       8.248  20.175  23.765  1.00  0.00     0.007 C 
HETATM   27  C21 UNL     1       6.942  20.910  23.949  1.00  0.00     0.172 C 
HETATM   28  O8  UNL     1       5.928  20.022  24.408  1.00  0.00    -0.379 OA
HETATM   29  C24 UNL     1       4.958  19.674  23.420  1.00  0.00     0.173 C 
HETATM   30  C25 UNL     1       3.780  18.975  24.097  1.00  0.00     0.060 C 
HETATM   31  C26 UNL     1       7.070  13.884  21.428  1.00  0.00     0.034 C 
HETATM   32  C27 UNL     1       6.904  14.944  20.342  1.00  0.00     0.022 C 
HETATM   33  C28 UNL     1       8.074  12.784  21.134  1.00  0.00     0.119 A 
HETATM   34  C29 UNL     1       8.337  12.115  19.798  1.00  0.00     0.210 A 
HETATM   35  O9  UNL     1       9.225  13.092  20.342  1.00  0.00    -0.371 OA
ENDROOT
BRANCH  27  36
HETATM   36  C22 UNL     1       7.084  22.035  25.013  1.00  0.00     0.146 C 
HETATM   37  C23 UNL     1       8.211  23.002  24.667  1.00  0.00     0.042 C 
BRANCH  36  38
HETATM   38  O7  UNL     1       7.333  21.506  26.318  1.00  0.00    -0.393 OA
HETATM   39  H27 UNL     1       8.228  21.138  26.338  1.00  0.00     0.210 HD
ENDBRANCH  36  38
ENDBRANCH  27  36
TORSDOF 2
ENDMDL
MODEL 8
REMARK minimizedAffinity -7.33976316
REMARK CNNscore 0.167113423
REMARK CNNaffinity 4.91253614
REMARK  2 active torsions:
REMARK  status: ('A' for Active; 'I' for Inactive)
REMARK    1  A    between atoms: C21_27  and  C22_28 
REMARK    2  A    between atoms: C22_28  and  O7_30 
ROOT
HETATM    1  C1  UNL     1       3.810  17.754  23.663  1.00  0.00     0.043 C 
HETATM    2  C2  UNL     1       4.011  17.364  22.219  1.00  0.00    -0.076 C 
HETATM    3  C3  UNL     1       3.063  16.633  21.590  1.00  0.00     0.084 C 
HETATM    4  C4  UNL     1       3.108  16.178  20.185  1.00  0.00     0.283 C 
HETATM    5  O1  UNL     1       3.953  16.466  19.359  1.00  0.00    -0.260 OA
HETATM    6  O2  UNL     1       2.029  15.379  19.992  1.00  0.00    -0.317 OA
HETATM    7  C5  UNL     1       1.835  14.902  18.658  1.00  0.00     0.195 C 
HETATM    8  C6  UNL     1       1.388  13.403  18.580  1.00  0.00     0.053 C 
HETATM    9  C7  UNL     1       0.100  13.181  19.464  1.00  0.00     0.159 C 
HETATM   10  C8  UNL     1      -1.158  13.786  18.901  1.00  0.00     0.011 C 
HETATM   11  C9  UNL     1      -1.345  13.951  17.576  1.00  0.00    -0.054 C 
HETATM   12  C10 UNL     1      -2.625  14.511  17.026  1.00  0.00     0.046 C 
HETATM   13  C11 UNL     1      -0.342  13.505  16.594  1.00  0.00     0.180 A 
HETATM   14  O3  UNL     1       0.177  12.168  16.672  1.00  0.00    -0.370 OA
HETATM   15  C12 UNL     1       1.068  13.211  17.080  1.00  0.00     0.170 A 
HETATM   16  O4  UNL     1      -0.218  11.800  19.714  1.00  0.00    -0.372 OA
HETATM   17  C13 UNL     1       0.878  10.923  20.001  1.00  0.00     0.162 C 
HETATM   18  C14 UNL     1       1.657  11.381  21.233  1.00  0.00     0.068 C 
HETATM   19  C15 UNL     1       2.653  12.435  20.679  1.00  0.00     0.147 C 
HETATM   20  O5  UNL     1       3.939  12.365  21.344  1.00  0.00    -0.312 OA
HETATM   21  C16 UNL     1       4.710  11.261  21.294  1.00  0.00     0.283 C 
HETATM   22  O6  UNL     1       4.640  10.354  20.486  1.00  0.00    -0.260 OA
HETATM   23  C17 UNL     1       5.642  11.146  22.431  1.00  0.00     0.082 C 
HETATM   24  C18 UNL     1       6.372  12.055  23.088  1.00  0.00     0.006 C 
HETATM   25  C19 UNL     1       6.470  13.476  22.879  1.00  0.00    -0.001 C 
HETATM   26  C20 UNL     1       7.491  14.177  23.402  1.00  0.00     0.007 C 
HETATM   27  C21 UNL     1       7.787  15.652  23.264  1.00  0.00     0.172 C 
HETATM   28  O8  UNL     1       6.590  16.382  23.013  1.00  0.00    -0.379 OA
HETATM   29  C24 UNL     1       6.453  16.845  21.671  1.00  0.00     0.173 C 
HETATM   30  C25 UNL     1       5.303  17.850  21.600  1.00  0.00     0.060 C 
HETATM   31  C26 UNL     1       2.531  12.385  19.089  1.00  0.00     0.034 C 
HETATM   32  C27 UNL     1       3.867  12.590  18.379  1.00  0.00     0.022 C 
HETATM   33  C28 UNL     1       1.885  11.023  18.908  1.00  0.00     0.119 A 
HETATM   34  C29 UNL     1       1.870  10.175  17.650  1.00  0.00     0.210 A 
HETATM   35  O9  UNL     1       2.725   9.874  18.753  1.00  0.00    -0.371 OA
ENDROOT
BRANCH  27  36
HETATM   36  C22 UNL     1       8.405  16.218  24.574  1.00  0.00     0.146 C 
HETATM   37  C23 UNL     1       9.210  17.487  24.316  1.00  0.00     0.042 C 
BRANCH  36  38
HETATM   38  O7  UNL     1       9.260  15.268  25.214  1.00  0.00    -0.393 OA
HETATM   39  H27 UNL     1      10.060  15.161  24.679  1.00  0.00     0.210 HD
ENDBRANCH  36  38
ENDBRANCH  27  36
TORSDOF 2
ENDMDL
MODEL 9
REMARK minimizedAffinity -6.42753887
REMARK CNNscore 0.158311218
REMARK CNNaffinity 4.91375208
REMARK  2 active torsions:
REMARK  status: ('A' for Active; 'I' for Inactive)
REMARK    1  A    between atoms: C21_27  and  C22_28 
REMARK    2  A    between atoms: C22_28  and  O7_30 
ROOT
HETATM    1  C1  UNL     1      19.317  -8.170   7.282  1.00  0.00     0.043 C 
HETATM    2  C2  UNL     1      17.904  -7.779   6.922  1.00  0.00    -0.076 C 
HETATM    3  C3  UNL     1      17.659  -7.204   5.723  1.00  0.00     0.084 C 
HETATM    4  C4  UNL     1      16.338  -6.770   5.222  1.00  0.00     0.283 C 
HETATM    5  O1  UNL     1      15.265  -6.945   5.768  1.00  0.00    -0.260 OA
HETATM    6  O2  UNL     1      16.549  -6.141   4.039  1.00  0.00    -0.317 OA
HETATM    7  C5  UNL     1      15.378  -5.719   3.337  1.00  0.00     0.195 C 
HETATM    8  C6  UNL     1      15.507  -4.303   2.681  1.00  0.00     0.053 C 
HETATM    9  C7  UNL     1      16.782  -4.258   1.752  1.00  0.00     0.159 C 
HETATM   10  C8  UNL     1      16.657  -5.049   0.479  1.00  0.00     0.011 C 
HETATM   11  C9  UNL     1      15.469  -5.262  -0.122  1.00  0.00    -0.054 C 
HETATM   12  C10 UNL     1      15.366  -6.012  -1.419  1.00  0.00     0.046 C 
HETATM   13  C11 UNL     1      14.222  -4.689   0.413  1.00  0.00     0.180 A 
HETATM   14  O3  UNL     1      14.166  -3.289   0.730  1.00  0.00    -0.370 OA
HETATM   15  C12 UNL     1      14.211  -4.185   1.846  1.00  0.00     0.170 A 
HETATM   16  O4  UNL     1      17.173  -2.934   1.344  1.00  0.00    -0.372 OA
HETATM   17  C13 UNL     1      17.102  -1.901   2.335  1.00  0.00     0.162 C 
HETATM   18  C14 UNL     1      17.981  -2.221   3.543  1.00  0.00     0.068 C 
HETATM   19  C15 UNL     1      17.086  -3.127   4.432  1.00  0.00     0.147 C 
HETATM   20  O5  UNL     1      17.279  -2.859   5.843  1.00  0.00    -0.312 OA
HETATM   21  C16 UNL     1      17.010  -1.654   6.385  1.00  0.00     0.283 C 
HETATM   22  O6  UNL     1      16.305  -0.781   5.915  1.00  0.00    -0.260 OA
HETATM   23  C17 UNL     1      17.767  -1.386   7.621  1.00  0.00     0.082 C 
HETATM   24  C18 UNL     1      18.107  -2.168   8.653  1.00  0.00     0.006 C 
HETATM   25  C19 UNL     1      17.828  -3.563   8.876  1.00  0.00    -0.001 C 
HETATM   26  C20 UNL     1      17.950  -4.098  10.104  1.00  0.00     0.007 C 
HETATM   27  C21 UNL     1      17.669  -5.516  10.542  1.00  0.00     0.172 C 
HETATM   28  O8  UNL     1      17.813  -6.417   9.449  1.00  0.00    -0.379 OA
HETATM   29  C24 UNL     1      16.580  -6.917   8.932  1.00  0.00     0.173 C 
HETATM   30  C25 UNL     1      16.868  -8.080   7.983  1.00  0.00     0.060 C 
HETATM   31  C26 UNL     1      15.635  -3.121   3.771  1.00  0.00     0.034 C 
HETATM   32  C27 UNL     1      14.508  -3.140   4.801  1.00  0.00     0.022 C 
HETATM   33  C28 UNL     1      15.730  -1.871   2.914  1.00  0.00     0.119 A 
HETATM   34  C29 UNL     1      14.581  -1.054   2.351  1.00  0.00     0.210 A 
HETATM   35  O9  UNL     1      15.340  -0.615   3.478  1.00  0.00    -0.371 OA
ENDROOT
BRANCH  27  36
HETATM   36  C22 UNL     1      18.671  -5.964  11.643  1.00  0.00     0.146 C 
HETATM   37  C23 UNL     1      18.982  -4.835  12.620  1.00  0.00     0.042 C 
BRANCH  36  38
HETATM   38  O7  UNL     1      19.904  -6.426  11.085  1.00  0.00    -0.393 OA
HETATM   39  H27 UNL     1      20.381  -5.667  10.719  1.00  0.00     0.210 HD
ENDBRANCH  36  38
ENDBRANCH  27  36
TORSDOF 2
ENDMDL
