MODEL 1
REMARK minimizedAffinity -10.3035412
REMARK CNNscore 0.765033245
REMARK CNNaffinity 7.78085184
REMARK  13 active torsions:
REMARK  status: ('A' for Active; 'I' for Inactive)
REMARK    1  A    between atoms: C19_21  and  O3_22 
REMARK    2  A    between atoms: C19_21  and  C20_23 
REMARK    3  A    between atoms: C20_23  and  C21_25 
REMARK    4  A    between atoms: C21_25  and  O5_26 
REMARK    5  A    between atoms: O5_26  and  C22_27 
REMARK    6  A    between atoms: C22_27  and  C23_29 
REMARK    7  A    between atoms: C23_29  and  C24_30 
REMARK    8  A    between atoms: C24_30  and  C25_31 
REMARK       I    between atoms: C25_31  and  N1_33 
REMARK    9  A    between atoms: N1_33  and  C26_34 
REMARK   10  A    between atoms: C26_34  and  C27_35 
REMARK   11  A    between atoms: C27_35  and  C28_36 
REMARK   12  A    between atoms: C27_35  and  C29_39 
REMARK   13  A    between atoms: C28_36  and  O9_38 
ROOT
HETATM    1  C20 UNL     1      -7.119  48.046 -21.634  1.00  0.00     0.185 C 
HETATM    2  O4  UNL     1      -7.065  46.823 -21.481  1.00  0.00    -0.292 OA
ENDROOT
BRANCH   1   3
HETATM    3  C19 UNL     1      -6.237  49.019 -20.814  1.00  0.00     0.128 C 
HETATM    4  C14 UNL     1      -4.709  49.080 -21.153  1.00  0.00     0.005 C 
HETATM    5  C13 UNL     1      -4.313  49.895 -22.396  1.00  0.00     0.091 C 
HETATM    6  C15 UNL     1      -4.084  47.658 -21.286  1.00  0.00     0.019 C 
HETATM    7  C16 UNL     1      -4.200  49.834 -19.880  1.00  0.00     0.002 C 
HETATM    8  C12 UNL     1      -2.812  50.166 -22.367  1.00  0.00     0.133 C 
HETATM    9  C11 UNL     1      -2.306  50.902 -21.117  1.00  0.00     0.072 C 
HETATM   10  O2  UNL     1      -2.092  49.847 -23.308  1.00  0.00    -0.297 OA
HETATM   11  C2  UNL     1      -0.816  51.359 -21.099  1.00  0.00    -0.009 C 
HETATM   12  C10 UNL     1      -2.676  50.045 -19.867  1.00  0.00     0.003 C 
HETATM   13  C1  UNL     1       0.152  50.158 -20.980  1.00  0.00     0.021 C 
HETATM   14  C3  UNL     1      -0.459  52.189 -22.361  1.00  0.00     0.022 C 
HETATM   15  C7  UNL     1      -0.655  52.273 -19.873  1.00  0.00    -0.067 C 
HETATM   16  C4  UNL     1       0.912  52.860 -22.273  1.00  0.00     0.084 C 
HETATM   17  C5  UNL     1       1.081  53.635 -20.992  1.00  0.00     0.149 C 
HETATM   18  O1  UNL     1       1.933  54.514 -20.863  1.00  0.00    -0.293 OA
HETATM   19  C6  UNL     1       0.216  53.298 -19.837  1.00  0.00     0.053 C 
HETATM   20  C8  UNL     1      -1.609  52.079 -18.707  1.00  0.00     0.035 C 
HETATM   21  C9  UNL     1      -2.132  50.654 -18.558  1.00  0.00     0.010 C 
HETATM   22  C17 UNL     1      -4.846  49.045 -18.746  1.00  0.00     0.009 C 
HETATM   23  C18 UNL     1      -6.231  48.653 -19.302  1.00  0.00     0.047 C 
BRANCH   3  24
HETATM   24  O3  UNL     1      -6.807  50.336 -20.927  1.00  0.00    -0.381 OA
HETATM   25  H25 UNL     1      -6.868  50.570 -21.871  1.00  0.00     0.211 HD
ENDBRANCH   3  24
ENDBRANCH   1   3
BRANCH   1  26
HETATM   26  C21 UNL     1      -7.975  48.631 -22.761  1.00  0.00     0.260 C 
BRANCH  26  27
HETATM   27  O5  UNL     1      -7.216  49.049 -23.887  1.00  0.00    -0.314 OA
BRANCH  27  28
HETATM   28  C22 UNL     1      -6.767  48.041 -24.685  1.00  0.00     0.259 C 
HETATM   29  O6  UNL     1      -7.432  47.081 -25.048  1.00  0.00    -0.265 OA
BRANCH  28  30
HETATM   30  C23 UNL     1      -5.301  48.241 -24.988  1.00  0.00     0.120 C 
BRANCH  30  31
HETATM   31  C24 UNL     1      -5.062  48.319 -26.492  1.00  0.00     0.112 C 
BRANCH  31  32
HETATM   32  C25 UNL     1      -3.656  48.789 -26.807  1.00  0.00     0.218 C 
HETATM   33  O7  UNL     1      -2.658  48.102 -26.616  1.00  0.00    -0.274 OA
HETATM   34  N1  UNL     1      -3.620  50.044 -27.369  1.00  0.00    -0.360 N 
HETATM   35  H32 UNL     1      -4.399  50.664 -27.172  1.00  0.00     0.162 HD
BRANCH  34  36
HETATM   36  C26 UNL     1      -2.350  50.697 -27.670  1.00  0.00     0.142 C 
BRANCH  36  37
HETATM   37  C27 UNL     1      -1.608  51.218 -26.421  1.00  0.00     0.134 C 
BRANCH  37  38
HETATM   38  C28 UNL     1      -2.239  52.501 -25.885  1.00  0.00     0.150 C 
HETATM   39  O8  UNL     1      -3.414  52.832 -25.923  1.00  0.00    -0.649 OA
BRANCH  38  40
HETATM   40  O9  UNL     1      -1.344  53.374 -25.368  1.00  0.00    -0.776 OA
HETATM   41  H36 UNL     1      -1.902  54.156 -25.165  1.00  0.00     0.167 HD
ENDBRANCH  38  40
ENDBRANCH  37  38
BRANCH  37  42
HETATM   42  C29 UNL     1      -0.122  51.352 -26.750  1.00  0.00    -0.042 A 
HETATM   43  C30 UNL     1       0.256  51.784 -28.032  1.00  0.00     0.008 A 
HETATM   44  C31 UNL     1       1.603  51.952 -28.359  1.00  0.00     0.001 A 
HETATM   45  C32 UNL     1       2.590  51.692 -27.412  1.00  0.00     0.000 A 
HETATM   46  C33 UNL     1       2.231  51.280 -26.130  1.00  0.00     0.001 A 
HETATM   47  C34 UNL     1       0.884  51.120 -25.797  1.00  0.00     0.008 A 
ENDBRANCH  37  42
ENDBRANCH  36  37
ENDBRANCH  34  36
ENDBRANCH  31  32
ENDBRANCH  30  31
ENDBRANCH  28  30
ENDBRANCH  27  28
ENDBRANCH  26  27
ENDBRANCH   1  26
TORSDOF 13
ENDMDL
MODEL 2
REMARK minimizedAffinity -9.28019714
REMARK CNNscore 0.649314344
REMARK CNNaffinity 6.93226385
REMARK  13 active torsions:
REMARK  status: ('A' for Active; 'I' for Inactive)
REMARK    1  A    between atoms: C19_21  and  O3_22 
REMARK    2  A    between atoms: C19_21  and  C20_23 
REMARK    3  A    between atoms: C20_23  and  C21_25 
REMARK    4  A    between atoms: C21_25  and  O5_26 
REMARK    5  A    between atoms: O5_26  and  C22_27 
REMARK    6  A    between atoms: C22_27  and  C23_29 
REMARK    7  A    between atoms: C23_29  and  C24_30 
REMARK    8  A    between atoms: C24_30  and  C25_31 
REMARK       I    between atoms: C25_31  and  N1_33 
REMARK    9  A    between atoms: N1_33  and  C26_34 
REMARK   10  A    between atoms: C26_34  and  C27_35 
REMARK   11  A    between atoms: C27_35  and  C28_36 
REMARK   12  A    between atoms: C27_35  and  C29_39 
REMARK   13  A    between atoms: C28_36  and  O9_38 
ROOT
HETATM    1  C20 UNL     1      -1.935  48.918 -17.997  1.00  0.00     0.185 C 
HETATM    2  O4  UNL     1      -2.887  48.867 -17.216  1.00  0.00    -0.292 OA
ENDROOT
BRANCH   1   3
HETATM    3  C19 UNL     1      -2.098  48.662 -19.516  1.00  0.00     0.128 C 
HETATM    4  C14 UNL     1      -1.969  49.891 -20.480  1.00  0.00     0.005 C 
HETATM    5  C13 UNL     1      -0.541  50.369 -20.795  1.00  0.00     0.091 C 
HETATM    6  C15 UNL     1      -2.791  51.115 -19.978  1.00  0.00     0.019 C 
HETATM    7  C16 UNL     1      -2.579  49.257 -21.774  1.00  0.00     0.002 C 
HETATM    8  C12 UNL     1      -0.574  51.292 -22.009  1.00  0.00     0.133 C 
HETATM    9  C11 UNL     1      -1.176  50.678 -23.281  1.00  0.00     0.072 C 
HETATM   10  O2  UNL     1      -0.105  52.425 -21.955  1.00  0.00    -0.297 OA
HETATM   11  C2  UNL     1      -1.086  51.506 -24.598  1.00  0.00    -0.009 C 
HETATM   12  C10 UNL     1      -2.637  50.235 -22.960  1.00  0.00     0.003 C 
HETATM   13  C1  UNL     1      -2.014  52.744 -24.564  1.00  0.00     0.021 C 
HETATM   14  C3  UNL     1       0.370  51.959 -24.889  1.00  0.00     0.022 C 
HETATM   15  C7  UNL     1      -1.523  50.567 -25.735  1.00  0.00    -0.067 C 
HETATM   16  C4  UNL     1       0.547  52.561 -26.283  1.00  0.00     0.084 C 
HETATM   17  C5  UNL     1      -0.018  51.670 -27.360  1.00  0.00     0.149 C 
HETATM   18  O1  UNL     1       0.311  51.776 -28.541  1.00  0.00    -0.293 OA
HETATM   19  C6  UNL     1      -1.035  50.659 -26.985  1.00  0.00     0.053 C 
HETATM   20  C8  UNL     1      -2.452  49.415 -25.392  1.00  0.00     0.035 C 
HETATM   21  C9  UNL     1      -3.368  49.683 -24.202  1.00  0.00     0.010 C 
HETATM   22  C17 UNL     1      -3.876  48.640 -21.262  1.00  0.00     0.009 C 
HETATM   23  C18 UNL     1      -3.514  48.115 -19.857  1.00  0.00     0.047 C 
BRANCH   3  24
HETATM   24  O3  UNL     1      -1.151  47.648 -19.899  1.00  0.00    -0.381 OA
HETATM   25  H25 UNL     1      -0.256  47.946 -19.650  1.00  0.00     0.211 HD
ENDBRANCH   3  24
ENDBRANCH   1   3
BRANCH   1  26
HETATM   26  C21 UNL     1      -0.566  49.384 -17.493  1.00  0.00     0.260 C 
BRANCH  26  27
HETATM   27  O5  UNL     1      -0.633  50.534 -16.661  1.00  0.00    -0.314 OA
BRANCH  27  28
HETATM   28  C22 UNL     1       0.308  51.484 -16.914  1.00  0.00     0.259 C 
HETATM   29  O6  UNL     1       0.691  51.817 -18.027  1.00  0.00    -0.265 OA
BRANCH  28  30
HETATM   30  C23 UNL     1       0.871  52.010 -15.615  1.00  0.00     0.120 C 
BRANCH  30  31
HETATM   31  C24 UNL     1       2.385  51.840 -15.569  1.00  0.00     0.112 C 
BRANCH  31  32
HETATM   32  C25 UNL     1       2.869  51.559 -14.160  1.00  0.00     0.218 C 
HETATM   33  O7  UNL     1       3.762  50.757 -13.903  1.00  0.00    -0.274 OA
HETATM   34  N1  UNL     1       2.239  52.327 -13.209  1.00  0.00    -0.360 N 
HETATM   35  H32 UNL     1       1.314  52.680 -13.436  1.00  0.00     0.162 HD
BRANCH  34  36
HETATM   36  C26 UNL     1       2.517  52.143 -11.789  1.00  0.00     0.142 C 
BRANCH  36  37
HETATM   37  C27 UNL     1       1.635  53.009 -10.865  1.00  0.00     0.134 C 
BRANCH  37  38
HETATM   38  C28 UNL     1       0.329  53.410 -11.547  1.00  0.00     0.150 C 
HETATM   39  O8  UNL     1      -0.638  53.967 -11.050  1.00  0.00    -0.649 OA
BRANCH  38  40
HETATM   40  O9  UNL     1       0.252  53.028 -12.843  1.00  0.00    -0.776 OA
HETATM   41  H36 UNL     1      -0.666  53.279 -13.085  1.00  0.00     0.167 HD
ENDBRANCH  38  40
ENDBRANCH  37  38
BRANCH  37  42
HETATM   42  C29 UNL     1       2.459  54.194 -10.364  1.00  0.00    -0.042 A 
HETATM   43  C30 UNL     1       3.682  54.487 -10.991  1.00  0.00     0.008 A 
HETATM   44  C31 UNL     1       4.447  55.582 -10.585  1.00  0.00     0.001 A 
HETATM   45  C32 UNL     1       4.002  56.400  -9.549  1.00  0.00     0.000 A 
HETATM   46  C33 UNL     1       2.782  56.134  -8.930  1.00  0.00     0.001 A 
HETATM   47  C34 UNL     1       2.010  55.044  -9.340  1.00  0.00     0.008 A 
ENDBRANCH  37  42
ENDBRANCH  36  37
ENDBRANCH  34  36
ENDBRANCH  31  32
ENDBRANCH  30  31
ENDBRANCH  28  30
ENDBRANCH  27  28
ENDBRANCH  26  27
ENDBRANCH   1  26
TORSDOF 13
ENDMDL
MODEL 3
REMARK minimizedAffinity -8.55043125
REMARK CNNscore 0.617850482
REMARK CNNaffinity 6.80673981
REMARK  13 active torsions:
REMARK  status: ('A' for Active; 'I' for Inactive)
REMARK    1  A    between atoms: C19_21  and  O3_22 
REMARK    2  A    between atoms: C19_21  and  C20_23 
REMARK    3  A    between atoms: C20_23  and  C21_25 
REMARK    4  A    between atoms: C21_25  and  O5_26 
REMARK    5  A    between atoms: O5_26  and  C22_27 
REMARK    6  A    between atoms: C22_27  and  C23_29 
REMARK    7  A    between atoms: C23_29  and  C24_30 
REMARK    8  A    between atoms: C24_30  and  C25_31 
REMARK       I    between atoms: C25_31  and  N1_33 
REMARK    9  A    between atoms: N1_33  and  C26_34 
REMARK   10  A    between atoms: C26_34  and  C27_35 
REMARK   11  A    between atoms: C27_35  and  C28_36 
REMARK   12  A    between atoms: C27_35  and  C29_39 
REMARK   13  A    between atoms: C28_36  and  O9_38 
ROOT
HETATM    1  C20 UNL     1      -7.349  48.164 -21.764  1.00  0.00     0.185 C 
HETATM    2  O4  UNL     1      -7.594  46.991 -21.472  1.00  0.00    -0.292 OA
ENDROOT
BRANCH   1   3
HETATM    3  C19 UNL     1      -6.436  49.058 -20.889  1.00  0.00     0.128 C 
HETATM    4  C14 UNL     1      -4.913  49.122 -21.254  1.00  0.00     0.005 C 
HETATM    5  C13 UNL     1      -4.528  50.025 -22.438  1.00  0.00     0.091 C 
HETATM    6  C15 UNL     1      -4.314  47.706 -21.509  1.00  0.00     0.019 C 
HETATM    7  C16 UNL     1      -4.368  49.768 -19.936  1.00  0.00     0.002 C 
HETATM    8  C12 UNL     1      -3.023  50.271 -22.418  1.00  0.00     0.133 C 
HETATM    9  C11 UNL     1      -2.481  50.901 -21.126  1.00  0.00     0.072 C 
HETATM   10  O2  UNL     1      -2.326  50.015 -23.396  1.00  0.00    -0.297 OA
HETATM   11  C2  UNL     1      -0.984  51.332 -21.103  1.00  0.00    -0.009 C 
HETATM   12  C10 UNL     1      -2.841  49.955 -19.939  1.00  0.00     0.003 C 
HETATM   13  C1  UNL     1      -0.033  50.112 -21.097  1.00  0.00     0.021 C 
HETATM   14  C3  UNL     1      -0.637  52.253 -22.305  1.00  0.00     0.022 C 
HETATM   15  C7  UNL     1      -0.784  52.146 -19.813  1.00  0.00    -0.067 C 
HETATM   16  C4  UNL     1       0.746  52.894 -22.193  1.00  0.00     0.084 C 
HETATM   17  C5  UNL     1       0.952  53.566 -20.859  1.00  0.00     0.149 C 
HETATM   18  O1  UNL     1       1.821  54.419 -20.680  1.00  0.00    -0.293 OA
HETATM   19  C6  UNL     1       0.104  53.152 -19.717  1.00  0.00     0.053 C 
HETATM   20  C8  UNL     1      -1.719  51.877 -18.647  1.00  0.00     0.035 C 
HETATM   21  C9  UNL     1      -2.261  50.452 -18.597  1.00  0.00     0.010 C 
HETATM   22  C17 UNL     1      -5.004  48.902 -18.854  1.00  0.00     0.009 C 
HETATM   23  C18 UNL     1      -6.406  48.575 -19.410  1.00  0.00     0.047 C 
BRANCH   3  24
HETATM   24  O3  UNL     1      -6.986  50.388 -20.888  1.00  0.00    -0.381 OA
HETATM   25  H25 UNL     1      -7.061  50.695 -21.810  1.00  0.00     0.211 HD
ENDBRANCH   3  24
ENDBRANCH   1   3
BRANCH   1  26
HETATM   26  C21 UNL     1      -7.838  48.731 -23.099  1.00  0.00     0.260 C 
BRANCH  26  27
HETATM   27  O5  UNL     1      -8.535  47.781 -23.894  1.00  0.00    -0.314 OA
BRANCH  27  28
HETATM   28  C22 UNL     1      -9.052  48.270 -25.055  1.00  0.00     0.259 C 
HETATM   29  O6  UNL     1      -9.252  49.452 -25.294  1.00  0.00    -0.265 OA
BRANCH  28  30
HETATM   30  C23 UNL     1      -9.422  47.130 -25.973  1.00  0.00     0.120 C 
BRANCH  30  31
HETATM   31  C24 UNL     1      -8.299  46.102 -26.045  1.00  0.00     0.112 C 
BRANCH  31  32
HETATM   32  C25 UNL     1      -7.995  45.712 -27.478  1.00  0.00     0.218 C 
HETATM   33  O7  UNL     1      -7.824  44.551 -27.838  1.00  0.00    -0.274 OA
HETATM   34  N1  UNL     1      -7.976  46.785 -28.338  1.00  0.00    -0.360 N 
HETATM   35  H32 UNL     1      -7.773  47.696 -27.938  1.00  0.00     0.162 HD
BRANCH  34  36
HETATM   36  C26 UNL     1      -7.625  46.616 -29.744  1.00  0.00     0.142 C 
BRANCH  36  37
HETATM   37  C27 UNL     1      -7.227  47.930 -30.448  1.00  0.00     0.134 C 
BRANCH  37  38
HETATM   38  C28 UNL     1      -8.451  48.700 -30.939  1.00  0.00     0.150 C 
HETATM   39  O8  UNL     1      -8.555  49.901 -31.133  1.00  0.00    -0.649 OA
BRANCH  38  40
HETATM   40  O9  UNL     1      -9.549  47.926 -31.107  1.00  0.00    -0.776 OA
HETATM   41  H36 UNL     1     -10.242  48.586 -31.328  1.00  0.00     0.167 HD
ENDBRANCH  38  40
ENDBRANCH  37  38
BRANCH  37  42
HETATM   42  C29 UNL     1      -6.215  47.614 -31.547  1.00  0.00    -0.042 A 
HETATM   43  C30 UNL     1      -5.065  46.874 -31.224  1.00  0.00     0.008 A 
HETATM   44  C31 UNL     1      -4.135  46.535 -32.208  1.00  0.00     0.001 A 
HETATM   45  C32 UNL     1      -4.338  46.930 -33.528  1.00  0.00     0.000 A 
HETATM   46  C33 UNL     1      -5.482  47.649 -33.869  1.00  0.00     0.001 A 
HETATM   47  C34 UNL     1      -6.420  47.981 -32.888  1.00  0.00     0.008 A 
ENDBRANCH  37  42
ENDBRANCH  36  37
ENDBRANCH  34  36
ENDBRANCH  31  32
ENDBRANCH  30  31
ENDBRANCH  28  30
ENDBRANCH  27  28
ENDBRANCH  26  27
ENDBRANCH   1  26
TORSDOF 13
ENDMDL
MODEL 4
REMARK minimizedAffinity -8.59017563
REMARK CNNscore 0.586786926
REMARK CNNaffinity 6.11668158
REMARK  13 active torsions:
REMARK  status: ('A' for Active; 'I' for Inactive)
REMARK    1  A    between atoms: C19_21  and  O3_22 
REMARK    2  A    between atoms: C19_21  and  C20_23 
REMARK    3  A    between atoms: C20_23  and  C21_25 
REMARK    4  A    between atoms: C21_25  and  O5_26 
REMARK    5  A    between atoms: O5_26  and  C22_27 
REMARK    6  A    between atoms: C22_27  and  C23_29 
REMARK    7  A    between atoms: C23_29  and  C24_30 
REMARK    8  A    between atoms: C24_30  and  C25_31 
REMARK       I    between atoms: C25_31  and  N1_33 
REMARK    9  A    between atoms: N1_33  and  C26_34 
REMARK   10  A    between atoms: C26_34  and  C27_35 
REMARK   11  A    between atoms: C27_35  and  C28_36 
REMARK   12  A    between atoms: C27_35  and  C29_39 
REMARK   13  A    between atoms: C28_36  and  O9_38 
ROOT
HETATM    1  C20 UNL     1      -8.494  46.479 -20.596  1.00  0.00     0.185 C 
HETATM    2  O4  UNL     1      -8.965  46.102 -21.671  1.00  0.00    -0.292 OA
ENDROOT
BRANCH   1   3
HETATM    3  C19 UNL     1      -6.968  46.565 -20.348  1.00  0.00     0.128 C 
HETATM    4  C14 UNL     1      -6.125  47.481 -21.300  1.00  0.00     0.005 C 
HETATM    5  C13 UNL     1      -6.175  48.992 -21.018  1.00  0.00     0.091 C 
HETATM    6  C15 UNL     1      -6.486  47.254 -22.799  1.00  0.00     0.019 C 
HETATM    7  C16 UNL     1      -4.694  46.955 -20.949  1.00  0.00     0.002 C 
HETATM    8  C12 UNL     1      -5.037  49.683 -21.763  1.00  0.00     0.133 C 
HETATM    9  C11 UNL     1      -3.630  49.169 -21.426  1.00  0.00     0.072 C 
HETATM   10  O2  UNL     1      -5.257  50.610 -22.537  1.00  0.00    -0.297 OA
HETATM   11  C2  UNL     1      -2.414  49.942 -22.022  1.00  0.00    -0.009 C 
HETATM   12  C10 UNL     1      -3.579  47.645 -21.755  1.00  0.00     0.003 C 
HETATM   13  C1  UNL     1      -2.297  49.738 -23.551  1.00  0.00     0.021 C 
HETATM   14  C3  UNL     1      -2.493  51.460 -21.706  1.00  0.00     0.022 C 
HETATM   15  C7  UNL     1      -1.159  49.381 -21.331  1.00  0.00    -0.067 C 
HETATM   16  C4  UNL     1      -1.211  52.215 -22.057  1.00  0.00     0.084 C 
HETATM   17  C5  UNL     1       0.013  51.556 -21.473  1.00  0.00     0.149 C 
HETATM   18  O1  UNL     1       1.078  52.155 -21.331  1.00  0.00    -0.293 OA
HETATM   19  C6  UNL     1      -0.063  50.125 -21.096  1.00  0.00     0.053 C 
HETATM   20  C8  UNL     1      -1.217  47.965 -20.785  1.00  0.00     0.035 C 
HETATM   21  C9  UNL     1      -2.174  47.044 -21.536  1.00  0.00     0.010 C 
HETATM   22  C17 UNL     1      -4.858  45.444 -21.060  1.00  0.00     0.009 C 
HETATM   23  C18 UNL     1      -6.280  45.180 -20.521  1.00  0.00     0.047 C 
BRANCH   3  24
HETATM   24  O3  UNL     1      -6.762  46.971 -18.983  1.00  0.00    -0.381 OA
HETATM   25  H25 UNL     1      -7.227  47.815 -18.835  1.00  0.00     0.211 HD
ENDBRANCH   3  24
ENDBRANCH   1   3
BRANCH   1  26
HETATM   26  C21 UNL     1      -9.427  47.016 -19.507  1.00  0.00     0.260 C 
BRANCH  26  27
HETATM   27  O5  UNL     1     -10.488  47.813 -20.016  1.00  0.00    -0.314 OA
BRANCH  27  28
HETATM   28  C22 UNL     1     -11.606  47.848 -19.240  1.00  0.00     0.259 C 
HETATM   29  O6  UNL     1     -11.772  47.202 -18.215  1.00  0.00    -0.265 OA
BRANCH  28  30
HETATM   30  C23 UNL     1     -12.645  48.740 -19.876  1.00  0.00     0.120 C 
BRANCH  30  31
HETATM   31  C24 UNL     1     -14.050  48.328 -19.450  1.00  0.00     0.112 C 
BRANCH  31  32
HETATM   32  C25 UNL     1     -14.791  47.637 -20.577  1.00  0.00     0.218 C 
HETATM   33  O7  UNL     1     -14.533  47.819 -21.763  1.00  0.00    -0.274 OA
HETATM   34  N1  UNL     1     -15.748  46.754 -20.134  1.00  0.00    -0.360 N 
HETATM   35  H32 UNL     1     -16.136  46.916 -19.209  1.00  0.00     0.162 HD
BRANCH  34  36
HETATM   36  C26 UNL     1     -16.617  46.052 -21.072  1.00  0.00     0.142 C 
BRANCH  36  37
HETATM   37  C27 UNL     1     -18.083  46.530 -21.040  1.00  0.00     0.134 C 
BRANCH  37  38
HETATM   38  C28 UNL     1     -18.807  46.042 -19.787  1.00  0.00     0.150 C 
HETATM   39  O8  UNL     1     -19.847  46.467 -19.307  1.00  0.00    -0.649 OA
BRANCH  38  40
HETATM   40  O9  UNL     1     -18.152  45.059 -19.128  1.00  0.00    -0.776 OA
HETATM   41  H36 UNL     1     -18.701  44.939 -18.322  1.00  0.00     0.167 HD
ENDBRANCH  38  40
ENDBRANCH  37  38
BRANCH  37  42
HETATM   42  C29 UNL     1     -18.765  46.123 -22.345  1.00  0.00    -0.042 A 
HETATM   43  C30 UNL     1     -19.522  44.940 -22.379  1.00  0.00     0.008 A 
HETATM   44  C31 UNL     1     -20.188  44.553 -23.543  1.00  0.00     0.001 A 
HETATM   45  C32 UNL     1     -20.108  45.341 -24.689  1.00  0.00     0.000 A 
HETATM   46  C33 UNL     1     -19.377  46.527 -24.667  1.00  0.00     0.001 A 
HETATM   47  C34 UNL     1     -18.717  46.921 -23.500  1.00  0.00     0.008 A 
ENDBRANCH  37  42
ENDBRANCH  36  37
ENDBRANCH  34  36
ENDBRANCH  31  32
ENDBRANCH  30  31
ENDBRANCH  28  30
ENDBRANCH  27  28
ENDBRANCH  26  27
ENDBRANCH   1  26
TORSDOF 13
ENDMDL
MODEL 5
REMARK minimizedAffinity -8.31557178
REMARK CNNscore 0.540110826
REMARK CNNaffinity 6.44491625
REMARK  13 active torsions:
REMARK  status: ('A' for Active; 'I' for Inactive)
REMARK    1  A    between atoms: C19_21  and  O3_22 
REMARK    2  A    between atoms: C19_21  and  C20_23 
REMARK    3  A    between atoms: C20_23  and  C21_25 
REMARK    4  A    between atoms: C21_25  and  O5_26 
REMARK    5  A    between atoms: O5_26  and  C22_27 
REMARK    6  A    between atoms: C22_27  and  C23_29 
REMARK    7  A    between atoms: C23_29  and  C24_30 
REMARK    8  A    between atoms: C24_30  and  C25_31 
REMARK       I    between atoms: C25_31  and  N1_33 
REMARK    9  A    between atoms: N1_33  and  C26_34 
REMARK   10  A    between atoms: C26_34  and  C27_35 
REMARK   11  A    between atoms: C27_35  and  C28_36 
REMARK   12  A    between atoms: C27_35  and  C29_39 
REMARK   13  A    between atoms: C28_36  and  O9_38 
ROOT
HETATM    1  C20 UNL     1      -0.150  51.900 -10.875  1.00  0.00     0.185 C 
HETATM    2  O4  UNL     1      -1.116  52.120 -10.142  1.00  0.00    -0.292 OA
ENDROOT
BRANCH   1   3
HETATM    3  C19 UNL     1       1.298  52.269 -10.465  1.00  0.00     0.128 C 
HETATM    4  C14 UNL     1       1.555  53.716  -9.924  1.00  0.00     0.005 C 
HETATM    5  C13 UNL     1       1.159  53.983  -8.462  1.00  0.00     0.091 C 
HETATM    6  C15 UNL     1       0.880  54.802 -10.815  1.00  0.00     0.019 C 
HETATM    7  C16 UNL     1       3.116  53.748 -10.031  1.00  0.00     0.002 C 
HETATM    8  C12 UNL     1       1.809  55.280  -7.990  1.00  0.00     0.133 C 
HETATM    9  C11 UNL     1       3.340  55.319  -8.097  1.00  0.00     0.072 C 
HETATM   10  O2  UNL     1       1.134  56.193  -7.522  1.00  0.00    -0.297 OA
HETATM   11  C2  UNL     1       4.078  56.545  -7.478  1.00  0.00    -0.009 C 
HETATM   12  C10 UNL     1       3.728  55.090  -9.590  1.00  0.00     0.003 C 
HETATM   13  C1  UNL     1       3.828  57.838  -8.290  1.00  0.00     0.021 C 
HETATM   14  C3  UNL     1       3.663  56.774  -5.999  1.00  0.00     0.022 C 
HETATM   15  C7  UNL     1       5.579  56.207  -7.499  1.00  0.00    -0.067 C 
HETATM   16  C4  UNL     1       4.533  57.805  -5.282  1.00  0.00     0.084 C 
HETATM   17  C5  UNL     1       6.004  57.514  -5.441  1.00  0.00     0.149 C 
HETATM   18  O1  UNL     1       6.853  57.986  -4.687  1.00  0.00    -0.293 OA
HETATM   19  C6  UNL     1       6.441  56.661  -6.571  1.00  0.00     0.053 C 
HETATM   20  C8  UNL     1       6.074  55.220  -8.542  1.00  0.00     0.035 C 
HETATM   21  C9  UNL     1       5.249  55.201  -9.825  1.00  0.00     0.010 C 
HETATM   22  C17 UNL     1       3.362  53.257 -11.453  1.00  0.00     0.009 C 
HETATM   23  C18 UNL     1       2.275  52.184 -11.673  1.00  0.00     0.047 C 
BRANCH   3  24
HETATM   24  O3  UNL     1       1.743  51.305  -9.493  1.00  0.00    -0.381 OA
HETATM   25  H25 UNL     1       1.117  51.304  -8.746  1.00  0.00     0.211 HD
ENDBRANCH   3  24
ENDBRANCH   1   3
BRANCH   1  26
HETATM   26  C21 UNL     1      -0.347  51.112 -12.173  1.00  0.00     0.260 C 
BRANCH  26  27
HETATM   27  O5  UNL     1      -0.809  51.910 -13.253  1.00  0.00    -0.314 OA
BRANCH  27  28
HETATM   28  C22 UNL     1      -0.138  51.739 -14.425  1.00  0.00     0.259 C 
HETATM   29  O6  UNL     1       0.655  52.537 -14.905  1.00  0.00    -0.265 OA
BRANCH  28  30
HETATM   30  C23 UNL     1      -0.578  50.456 -15.087  1.00  0.00     0.120 C 
BRANCH  30  31
HETATM   31  C24 UNL     1       0.181  50.226 -16.389  1.00  0.00     0.112 C 
BRANCH  31  32
HETATM   32  C25 UNL     1      -0.603  50.731 -17.585  1.00  0.00     0.218 C 
HETATM   33  O7  UNL     1      -1.760  51.131 -17.510  1.00  0.00    -0.274 OA
HETATM   34  N1  UNL     1       0.131  50.736 -18.749  1.00  0.00    -0.360 N 
HETATM   35  H32 UNL     1       0.911  50.089 -18.808  1.00  0.00     0.162 HD
BRANCH  34  36
HETATM   36  C26 UNL     1      -0.478  51.116 -20.019  1.00  0.00     0.142 C 
BRANCH  36  37
HETATM   37  C27 UNL     1       0.375  52.099 -20.847  1.00  0.00     0.134 C 
BRANCH  37  38
HETATM   38  C28 UNL     1       0.543  53.439 -20.133  1.00  0.00     0.150 C 
HETATM   39  O8  UNL     1      -0.056  53.845 -19.149  1.00  0.00    -0.649 OA
BRANCH  38  40
HETATM   40  O9  UNL     1       1.428  54.268 -20.732  1.00  0.00    -0.776 OA
HETATM   41  H36 UNL     1       1.339  55.092 -20.205  1.00  0.00     0.167 HD
ENDBRANCH  38  40
ENDBRANCH  37  38
BRANCH  37  42
HETATM   42  C29 UNL     1      -0.227  52.217 -22.246  1.00  0.00    -0.042 A 
HETATM   43  C30 UNL     1      -1.624  52.181 -22.393  1.00  0.00     0.008 A 
HETATM   44  C31 UNL     1      -2.212  52.321 -23.651  1.00  0.00     0.001 A 
HETATM   45  C32 UNL     1      -1.416  52.499 -24.780  1.00  0.00     0.000 A 
HETATM   46  C33 UNL     1      -0.030  52.555 -24.649  1.00  0.00     0.001 A 
HETATM   47  C34 UNL     1       0.561  52.425 -23.390  1.00  0.00     0.008 A 
ENDBRANCH  37  42
ENDBRANCH  36  37
ENDBRANCH  34  36
ENDBRANCH  31  32
ENDBRANCH  30  31
ENDBRANCH  28  30
ENDBRANCH  27  28
ENDBRANCH  26  27
ENDBRANCH   1  26
TORSDOF 13
ENDMDL
MODEL 6
REMARK minimizedAffinity -8.37342358
REMARK CNNscore 0.525910854
REMARK CNNaffinity 6.13358641
REMARK  13 active torsions:
REMARK  status: ('A' for Active; 'I' for Inactive)
REMARK    1  A    between atoms: C19_21  and  O3_22 
REMARK    2  A    between atoms: C19_21  and  C20_23 
REMARK    3  A    between atoms: C20_23  and  C21_25 
REMARK    4  A    between atoms: C21_25  and  O5_26 
REMARK    5  A    between atoms: O5_26  and  C22_27 
REMARK    6  A    between atoms: C22_27  and  C23_29 
REMARK    7  A    between atoms: C23_29  and  C24_30 
REMARK    8  A    between atoms: C24_30  and  C25_31 
REMARK       I    between atoms: C25_31  and  N1_33 
REMARK    9  A    between atoms: N1_33  and  C26_34 
REMARK   10  A    between atoms: C26_34  and  C27_35 
REMARK   11  A    between atoms: C27_35  and  C28_36 
REMARK   12  A    between atoms: C27_35  and  C29_39 
REMARK   13  A    between atoms: C28_36  and  O9_38 
ROOT
HETATM    1  C20 UNL     1      -7.210  48.447 -21.061  1.00  0.00     0.185 C 
HETATM    2  O4  UNL     1      -7.349  48.465 -22.286  1.00  0.00    -0.292 OA
ENDROOT
BRANCH   1   3
HETATM    3  C19 UNL     1      -6.171  49.338 -20.335  1.00  0.00     0.128 C 
HETATM    4  C14 UNL     1      -4.719  49.388 -20.920  1.00  0.00     0.005 C 
HETATM    5  C13 UNL     1      -4.506  50.284 -22.153  1.00  0.00     0.091 C 
HETATM    6  C15 UNL     1      -4.174  47.967 -21.253  1.00  0.00     0.019 C 
HETATM    7  C16 UNL     1      -3.981  50.035 -19.701  1.00  0.00     0.002 C 
HETATM    8  C12 UNL     1      -3.012  50.518 -22.356  1.00  0.00     0.133 C 
HETATM    9  C11 UNL     1      -2.282  51.149 -21.162  1.00  0.00     0.072 C 
HETATM   10  O2  UNL     1      -2.470  50.252 -23.425  1.00  0.00    -0.297 OA
HETATM   11  C2  UNL     1      -0.794  51.569 -21.362  1.00  0.00    -0.009 C 
HETATM   12  C10 UNL     1      -2.469  50.211 -19.929  1.00  0.00     0.003 C 
HETATM   13  C1  UNL     1       0.138  50.341 -21.490  1.00  0.00     0.021 C 
HETATM   14  C3  UNL     1      -0.622  52.482 -22.606  1.00  0.00     0.022 C 
HETATM   15  C7  UNL     1      -0.401  52.387 -20.120  1.00  0.00    -0.067 C 
HETATM   16  C4  UNL     1       0.766  53.113 -22.703  1.00  0.00     0.084 C 
HETATM   17  C5  UNL     1       1.172  53.788 -21.418  1.00  0.00     0.149 C 
HETATM   18  O1  UNL     1       2.064  54.635 -21.373  1.00  0.00    -0.293 OA
HETATM   19  C6  UNL     1       0.499  53.386 -20.161  1.00  0.00     0.053 C 
HETATM   20  C8  UNL     1      -1.156  52.129 -18.827  1.00  0.00     0.035 C 
HETATM   21  C9  UNL     1      -1.695  50.709 -18.691  1.00  0.00     0.010 C 
HETATM   22  C17 UNL     1      -4.457  49.179 -18.532  1.00  0.00     0.009 C 
HETATM   23  C18 UNL     1      -5.927  48.861 -18.874  1.00  0.00     0.047 C 
BRANCH   3  24
HETATM   24  O3  UNL     1      -6.706  50.672 -20.260  1.00  0.00    -0.381 OA
HETATM   25  H25 UNL     1      -6.914  50.976 -21.162  1.00  0.00     0.211 HD
ENDBRANCH   3  24
ENDBRANCH   1   3
BRANCH   1  26
HETATM   26  C21 UNL     1      -8.177  47.630 -20.200  1.00  0.00     0.260 C 
BRANCH  26  27
HETATM   27  O5  UNL     1      -9.179  48.418 -19.574  1.00  0.00    -0.314 OA
BRANCH  27  28
HETATM   28  C22 UNL     1      -9.465  48.072 -18.288  1.00  0.00     0.259 C 
HETATM   29  O6  UNL     1      -8.641  47.945 -17.394  1.00  0.00    -0.265 OA
BRANCH  28  30
HETATM   30  C23 UNL     1     -10.941  47.787 -18.149  1.00  0.00     0.120 C 
BRANCH  30  31
HETATM   31  C24 UNL     1     -11.181  46.594 -17.229  1.00  0.00     0.112 C 
BRANCH  31  32
HETATM   32  C25 UNL     1     -12.517  45.936 -17.511  1.00  0.00     0.218 C 
HETATM   33  O7  UNL     1     -12.908  44.930 -16.926  1.00  0.00    -0.274 OA
HETATM   34  N1  UNL     1     -13.262  46.606 -18.453  1.00  0.00    -0.360 N 
HETATM   35  H32 UNL     1     -12.757  47.183 -19.119  1.00  0.00     0.162 HD
BRANCH  34  36
HETATM   36  C26 UNL     1     -14.543  46.081 -18.912  1.00  0.00     0.142 C 
BRANCH  36  37
HETATM   37  C27 UNL     1     -14.907  46.497 -20.352  1.00  0.00     0.134 C 
BRANCH  37  38
HETATM   38  C28 UNL     1     -14.136  47.741 -20.790  1.00  0.00     0.150 C 
HETATM   39  O8  UNL     1     -13.978  48.782 -20.173  1.00  0.00    -0.649 OA
BRANCH  38  40
HETATM   40  O9  UNL     1     -13.636  47.657 -22.045  1.00  0.00    -0.776 OA
HETATM   41  H36 UNL     1     -13.265  48.555 -22.187  1.00  0.00     0.167 HD
ENDBRANCH  38  40
ENDBRANCH  37  38
BRANCH  37  42
HETATM   42  C29 UNL     1     -16.424  46.642 -20.456  1.00  0.00    -0.042 A 
HETATM   43  C30 UNL     1     -17.128  47.225 -19.390  1.00  0.00     0.008 A 
HETATM   44  C31 UNL     1     -18.510  47.407 -19.462  1.00  0.00     0.001 A 
HETATM   45  C32 UNL     1     -19.209  47.010 -20.600  1.00  0.00     0.000 A 
HETATM   46  C33 UNL     1     -18.523  46.447 -21.674  1.00  0.00     0.001 A 
HETATM   47  C34 UNL     1     -17.138  46.273 -21.608  1.00  0.00     0.008 A 
ENDBRANCH  37  42
ENDBRANCH  36  37
ENDBRANCH  34  36
ENDBRANCH  31  32
ENDBRANCH  30  31
ENDBRANCH  28  30
ENDBRANCH  27  28
ENDBRANCH  26  27
ENDBRANCH   1  26
TORSDOF 13
ENDMDL
MODEL 7
REMARK minimizedAffinity -8.81286049
REMARK CNNscore 0.486235678
REMARK CNNaffinity 6.44252253
REMARK  13 active torsions:
REMARK  status: ('A' for Active; 'I' for Inactive)
REMARK    1  A    between atoms: C19_21  and  O3_22 
REMARK    2  A    between atoms: C19_21  and  C20_23 
REMARK    3  A    between atoms: C20_23  and  C21_25 
REMARK    4  A    between atoms: C21_25  and  O5_26 
REMARK    5  A    between atoms: O5_26  and  C22_27 
REMARK    6  A    between atoms: C22_27  and  C23_29 
REMARK    7  A    between atoms: C23_29  and  C24_30 
REMARK    8  A    between atoms: C24_30  and  C25_31 
REMARK       I    between atoms: C25_31  and  N1_33 
REMARK    9  A    between atoms: N1_33  and  C26_34 
REMARK   10  A    between atoms: C26_34  and  C27_35 
REMARK   11  A    between atoms: C27_35  and  C28_36 
REMARK   12  A    between atoms: C27_35  and  C29_39 
REMARK   13  A    between atoms: C28_36  and  O9_38 
ROOT
HETATM    1  C20 UNL     1      -8.907  48.192 -29.487  1.00  0.00     0.185 C 
HETATM    2  O4  UNL     1      -8.527  48.823 -28.498  1.00  0.00    -0.292 OA
ENDROOT
BRANCH   1   3
HETATM    3  C19 UNL     1     -10.332  47.594 -29.586  1.00  0.00     0.128 C 
HETATM    4  C14 UNL     1     -10.972  47.014 -28.279  1.00  0.00     0.005 C 
HETATM    5  C13 UNL     1     -11.556  48.036 -27.289  1.00  0.00     0.091 C 
HETATM    6  C15 UNL     1      -9.980  46.097 -27.501  1.00  0.00     0.019 C 
HETATM    7  C16 UNL     1     -12.151  46.206 -28.916  1.00  0.00     0.002 C 
HETATM    8  C12 UNL     1     -12.454  47.314 -26.289  1.00  0.00     0.133 C 
HETATM    9  C11 UNL     1     -13.611  46.516 -26.908  1.00  0.00     0.072 C 
HETATM   10  O2  UNL     1     -12.268  47.419 -25.080  1.00  0.00    -0.297 OA
HETATM   11  C2  UNL     1     -14.663  45.895 -25.939  1.00  0.00    -0.009 C 
HETATM   12  C10 UNL     1     -13.004  45.456 -27.877  1.00  0.00     0.003 C 
HETATM   13  C1  UNL     1     -14.073  44.718 -25.127  1.00  0.00     0.021 C 
HETATM   14  C3  UNL     1     -15.239  46.959 -24.966  1.00  0.00     0.022 C 
HETATM   15  C7  UNL     1     -15.818  45.386 -26.818  1.00  0.00    -0.067 C 
HETATM   16  C4  UNL     1     -16.441  46.456 -24.166  1.00  0.00     0.084 C 
HETATM   17  C5  UNL     1     -17.493  45.839 -25.053  1.00  0.00     0.149 C 
HETATM   18  O1  UNL     1     -18.658  45.690 -24.686  1.00  0.00    -0.293 OA
HETATM   19  C6  UNL     1     -17.096  45.360 -26.398  1.00  0.00     0.053 C 
HETATM   20  C8  UNL     1     -15.510  45.016 -28.259  1.00  0.00     0.035 C 
HETATM   21  C9  UNL     1     -14.081  44.535 -28.488  1.00  0.00     0.010 C 
HETATM   22  C17 UNL     1     -11.454  45.410 -30.013  1.00  0.00     0.009 C 
HETATM   23  C18 UNL     1     -10.377  46.375 -30.551  1.00  0.00     0.047 C 
BRANCH   3  24
HETATM   24  O3  UNL     1     -11.198  48.602 -30.140  1.00  0.00    -0.381 OA
HETATM   25  H25 UNL     1     -11.150  49.397 -29.578  1.00  0.00     0.211 HD
ENDBRANCH   3  24
ENDBRANCH   1   3
BRANCH   1  26
HETATM   26  C21 UNL     1      -8.007  48.106 -30.722  1.00  0.00     0.260 C 
BRANCH  26  27
HETATM   27  O5  UNL     1      -7.153  46.971 -30.720  1.00  0.00    -0.314 OA
BRANCH  27  28
HETATM   28  C22 UNL     1      -6.479  46.758 -29.556  1.00  0.00     0.259 C 
HETATM   29  O6  UNL     1      -6.779  45.927 -28.711  1.00  0.00    -0.265 OA
BRANCH  28  30
HETATM   30  C23 UNL     1      -5.356  47.758 -29.422  1.00  0.00     0.120 C 
BRANCH  30  31
HETATM   31  C24 UNL     1      -4.987  47.969 -27.958  1.00  0.00     0.112 C 
BRANCH  31  32
HETATM   32  C25 UNL     1      -4.135  49.210 -27.774  1.00  0.00     0.218 C 
HETATM   33  O7  UNL     1      -3.543  49.762 -28.695  1.00  0.00    -0.274 OA
HETATM   34  N1  UNL     1      -4.133  49.677 -26.480  1.00  0.00    -0.360 N 
HETATM   35  H32 UNL     1      -4.332  49.005 -25.744  1.00  0.00     0.162 HD
BRANCH  34  36
HETATM   36  C26 UNL     1      -3.309  50.816 -26.093  1.00  0.00     0.142 C 
BRANCH  36  37
HETATM   37  C27 UNL     1      -2.369  50.530 -24.903  1.00  0.00     0.134 C 
BRANCH  37  38
HETATM   38  C28 UNL     1      -2.928  51.090 -23.597  1.00  0.00     0.150 C 
HETATM   39  O8  UNL     1      -2.375  51.833 -22.801  1.00  0.00    -0.649 OA
BRANCH  38  40
HETATM   40  O9  UNL     1      -4.165  50.634 -23.294  1.00  0.00    -0.776 OA
HETATM   41  H36 UNL     1      -4.320  51.014 -22.402  1.00  0.00     0.167 HD
ENDBRANCH  38  40
ENDBRANCH  37  38
BRANCH  37  42
HETATM   42  C29 UNL     1      -0.970  51.038 -25.245  1.00  0.00    -0.042 A 
HETATM   43  C30 UNL     1      -0.394  50.676 -26.474  1.00  0.00     0.008 A 
HETATM   44  C31 UNL     1       0.868  51.149 -26.837  1.00  0.00     0.001 A 
HETATM   45  C32 UNL     1       1.572  51.991 -25.979  1.00  0.00     0.000 A 
HETATM   46  C33 UNL     1       1.007  52.375 -24.765  1.00  0.00     0.001 A 
HETATM   47  C34 UNL     1      -0.260  51.911 -24.403  1.00  0.00     0.008 A 
ENDBRANCH  37  42
ENDBRANCH  36  37
ENDBRANCH  34  36
ENDBRANCH  31  32
ENDBRANCH  30  31
ENDBRANCH  28  30
ENDBRANCH  27  28
ENDBRANCH  26  27
ENDBRANCH   1  26
TORSDOF 13
ENDMDL
MODEL 8
REMARK minimizedAffinity -9.79131699
REMARK CNNscore 0.447643965
REMARK CNNaffinity 7.52111578
REMARK  13 active torsions:
REMARK  status: ('A' for Active; 'I' for Inactive)
REMARK    1  A    between atoms: C19_21  and  O3_22 
REMARK    2  A    between atoms: C19_21  and  C20_23 
REMARK    3  A    between atoms: C20_23  and  C21_25 
REMARK    4  A    between atoms: C21_25  and  O5_26 
REMARK    5  A    between atoms: O5_26  and  C22_27 
REMARK    6  A    between atoms: C22_27  and  C23_29 
REMARK    7  A    between atoms: C23_29  and  C24_30 
REMARK    8  A    between atoms: C24_30  and  C25_31 
REMARK       I    between atoms: C25_31  and  N1_33 
REMARK    9  A    between atoms: N1_33  and  C26_34 
REMARK   10  A    between atoms: C26_34  and  C27_35 
REMARK   11  A    between atoms: C27_35  and  C28_36 
REMARK   12  A    between atoms: C27_35  and  C29_39 
REMARK   13  A    between atoms: C28_36  and  O9_38 
ROOT
HETATM    1  C20 UNL     1      -2.537  49.678 -20.968  1.00  0.00     0.185 C 
HETATM    2  O4  UNL     1      -2.870  48.498 -20.836  1.00  0.00    -0.292 OA
ENDROOT
BRANCH   1   3
HETATM    3  C19 UNL     1      -1.267  50.257 -20.298  1.00  0.00     0.128 C 
HETATM    4  C14 UNL     1      -1.221  50.293 -18.732  1.00  0.00     0.005 C 
HETATM    5  C13 UNL     1      -0.892  48.967 -18.025  1.00  0.00     0.091 C 
HETATM    6  C15 UNL     1      -2.540  50.855 -18.121  1.00  0.00     0.019 C 
HETATM    7  C16 UNL     1      -0.015  51.273 -18.540  1.00  0.00     0.002 C 
HETATM    8  C12 UNL     1      -0.517  49.248 -16.573  1.00  0.00     0.133 C 
HETATM    9  C11 UNL     1       0.663  50.212 -16.378  1.00  0.00     0.072 C 
HETATM   10  O2  UNL     1      -1.104  48.694 -15.648  1.00  0.00    -0.297 OA
HETATM   11  C2  UNL     1       1.205  50.410 -14.930  1.00  0.00    -0.009 C 
HETATM   12  C10 UNL     1       0.300  51.566 -17.063  1.00  0.00     0.003 C 
HETATM   13  C1  UNL     1       0.209  51.196 -14.045  1.00  0.00     0.021 C 
HETATM   14  C3  UNL     1       1.538  49.052 -14.255  1.00  0.00     0.022 C 
HETATM   15  C7  UNL     1       2.516  51.205 -15.060  1.00  0.00    -0.067 C 
HETATM   16  C4  UNL     1       2.295  49.204 -12.936  1.00  0.00     0.084 C 
HETATM   17  C5  UNL     1       3.498  50.103 -13.074  1.00  0.00     0.149 C 
HETATM   18  O1  UNL     1       4.424  50.092 -12.264  1.00  0.00    -0.293 OA
HETATM   19  C6  UNL     1       3.544  51.059 -14.205  1.00  0.00     0.053 C 
HETATM   20  C8  UNL     1       2.693  52.097 -16.277  1.00  0.00     0.035 C 
HETATM   21  C9  UNL     1       1.387  52.641 -16.848  1.00  0.00     0.010 C 
HETATM   22  C17 UNL     1      -0.379  52.432 -19.462  1.00  0.00     0.009 C 
HETATM   23  C18 UNL     1      -1.050  51.752 -20.673  1.00  0.00     0.047 C 
BRANCH   3  24
HETATM   24  O3  UNL     1      -0.131  49.528 -20.796  1.00  0.00    -0.381 OA
HETATM   25  H25 UNL     1      -0.265  48.579 -20.616  1.00  0.00     0.211 HD
ENDBRANCH   3  24
ENDBRANCH   1   3
BRANCH   1  26
HETATM   26  C21 UNL     1      -3.313  50.581 -21.931  1.00  0.00     0.260 C 
BRANCH  26  27
HETATM   27  O5  UNL     1      -2.891  50.458 -23.282  1.00  0.00    -0.314 OA
BRANCH  27  28
HETATM   28  C22 UNL     1      -3.735  49.757 -24.088  1.00  0.00     0.259 C 
HETATM   29  O6  UNL     1      -4.954  49.746 -23.992  1.00  0.00    -0.265 OA
BRANCH  28  30
HETATM   30  C23 UNL     1      -2.940  48.927 -25.068  1.00  0.00     0.120 C 
BRANCH  30  31
HETATM   31  C24 UNL     1      -3.731  48.691 -26.350  1.00  0.00     0.112 C 
BRANCH  31  32
HETATM   32  C25 UNL     1      -3.375  49.707 -27.416  1.00  0.00     0.218 C 
HETATM   33  O7  UNL     1      -3.702  49.590 -28.593  1.00  0.00    -0.274 OA
HETATM   34  N1  UNL     1      -2.689  50.792 -26.922  1.00  0.00    -0.360 N 
HETATM   35  H32 UNL     1      -2.165  50.658 -26.063  1.00  0.00     0.162 HD
BRANCH  34  36
HETATM   36  C26 UNL     1      -2.194  51.838 -27.810  1.00  0.00     0.142 C 
BRANCH  36  37
HETATM   37  C27 UNL     1      -1.300  52.880 -27.107  1.00  0.00     0.134 C 
BRANCH  37  38
HETATM   38  C28 UNL     1      -1.357  54.236 -27.808  1.00  0.00     0.150 C 
HETATM   39  O8  UNL     1      -2.144  54.605 -28.667  1.00  0.00    -0.649 OA
BRANCH  38  40
HETATM   40  O9  UNL     1      -0.360  55.077 -27.448  1.00  0.00    -0.776 OA
HETATM   41  H36 UNL     1      -0.498  55.841 -28.051  1.00  0.00     0.167 HD
ENDBRANCH  38  40
ENDBRANCH  37  38
BRANCH  37  42
HETATM   42  C29 UNL     1       0.112  52.312 -26.975  1.00  0.00    -0.042 A 
HETATM   43  C30 UNL     1       0.841  52.020 -28.140  1.00  0.00     0.008 A 
HETATM   44  C31 UNL     1       2.146  51.533 -28.061  1.00  0.00     0.001 A 
HETATM   45  C32 UNL     1       2.743  51.330 -26.819  1.00  0.00     0.000 A 
HETATM   46  C33 UNL     1       2.040  51.632 -25.654  1.00  0.00     0.001 A 
HETATM   47  C34 UNL     1       0.737  52.129 -25.731  1.00  0.00     0.008 A 
ENDBRANCH  37  42
ENDBRANCH  36  37
ENDBRANCH  34  36
ENDBRANCH  31  32
ENDBRANCH  30  31
ENDBRANCH  28  30
ENDBRANCH  27  28
ENDBRANCH  26  27
ENDBRANCH   1  26
TORSDOF 13
ENDMDL
MODEL 9
REMARK minimizedAffinity -8.43017101
REMARK CNNscore 0.423342496
REMARK CNNaffinity 6.59093666
REMARK  13 active torsions:
REMARK  status: ('A' for Active; 'I' for Inactive)
REMARK    1  A    between atoms: C19_21  and  O3_22 
REMARK    2  A    between atoms: C19_21  and  C20_23 
REMARK    3  A    between atoms: C20_23  and  C21_25 
REMARK    4  A    between atoms: C21_25  and  O5_26 
REMARK    5  A    between atoms: O5_26  and  C22_27 
REMARK    6  A    between atoms: C22_27  and  C23_29 
REMARK    7  A    between atoms: C23_29  and  C24_30 
REMARK    8  A    between atoms: C24_30  and  C25_31 
REMARK       I    between atoms: C25_31  and  N1_33 
REMARK    9  A    between atoms: N1_33  and  C26_34 
REMARK   10  A    between atoms: C26_34  and  C27_35 
REMARK   11  A    between atoms: C27_35  and  C28_36 
REMARK   12  A    between atoms: C27_35  and  C29_39 
REMARK   13  A    between atoms: C28_36  and  O9_38 
ROOT
HETATM    1  C20 UNL     1      -1.777  52.586 -12.052  1.00  0.00     0.185 C 
HETATM    2  O4  UNL     1      -2.829  52.214 -12.578  1.00  0.00    -0.292 OA
ENDROOT
BRANCH   1   3
HETATM    3  C19 UNL     1      -1.755  53.384 -10.725  1.00  0.00     0.128 C 
HETATM    4  C14 UNL     1      -0.369  53.593 -10.023  1.00  0.00     0.005 C 
HETATM    5  C13 UNL     1       0.536  54.691 -10.606  1.00  0.00     0.091 C 
HETATM    6  C15 UNL     1       0.454  52.272  -9.952  1.00  0.00     0.019 C 
HETATM    7  C16 UNL     1      -0.871  54.055  -8.615  1.00  0.00     0.002 C 
HETATM    8  C12 UNL     1       1.642  55.018  -9.607  1.00  0.00     0.133 C 
HETATM    9  C11 UNL     1       1.156  55.469  -8.221  1.00  0.00     0.072 C 
HETATM   10  O2  UNL     1       2.824  54.960  -9.929  1.00  0.00    -0.297 OA
HETATM   11  C2  UNL     1       2.226  55.979  -7.209  1.00  0.00    -0.009 C 
HETATM   12  C10 UNL     1       0.274  54.330  -7.623  1.00  0.00     0.003 C 
HETATM   13  C1  UNL     1       3.127  54.830  -6.697  1.00  0.00     0.021 C 
HETATM   14  C3  UNL     1       3.111  57.094  -7.828  1.00  0.00     0.022 C 
HETATM   15  C7  UNL     1       1.453  56.591  -6.029  1.00  0.00    -0.067 C 
HETATM   16  C4  UNL     1       4.007  57.790  -6.804  1.00  0.00     0.084 C 
HETATM   17  C5  UNL     1       3.233  58.256  -5.597  1.00  0.00     0.149 C 
HETATM   18  O1  UNL     1       3.662  59.120  -4.834  1.00  0.00    -0.293 OA
HETATM   19  C6  UNL     1       1.928  57.620  -5.303  1.00  0.00     0.053 C 
HETATM   20  C8  UNL     1       0.046  56.089  -5.758  1.00  0.00     0.035 C 
HETATM   21  C9  UNL     1      -0.195  54.644  -6.186  1.00  0.00     0.010 C 
HETATM   22  C17 UNL     1      -1.911  52.996  -8.267  1.00  0.00     0.009 C 
HETATM   23  C18 UNL     1      -2.589  52.678  -9.617  1.00  0.00     0.047 C 
BRANCH   3  24
HETATM   24  O3  UNL     1      -2.370  54.663 -10.966  1.00  0.00    -0.381 OA
HETATM   25  H25 UNL     1      -1.894  55.105 -11.693  1.00  0.00     0.211 HD
ENDBRANCH   3  24
ENDBRANCH   1   3
BRANCH   1  26
HETATM   26  C21 UNL     1      -0.436  52.134 -12.638  1.00  0.00     0.260 C 
BRANCH  26  27
HETATM   27  O5  UNL     1      -0.440  50.785 -13.082  1.00  0.00    -0.314 OA
BRANCH  27  28
HETATM   28  C22 UNL     1       0.376  50.524 -14.140  1.00  0.00     0.259 C 
HETATM   29  O6  UNL     1       1.402  49.861 -14.091  1.00  0.00    -0.265 OA
BRANCH  28  30
HETATM   30  C23 UNL     1      -0.129  51.243 -15.369  1.00  0.00     0.120 C 
BRANCH  30  31
HETATM   31  C24 UNL     1       0.890  51.169 -16.500  1.00  0.00     0.112 C 
BRANCH  31  32
HETATM   32  C25 UNL     1       0.236  50.781 -17.811  1.00  0.00     0.218 C 
HETATM   33  O7  UNL     1      -0.305  49.696 -17.999  1.00  0.00    -0.274 OA
HETATM   34  N1  UNL     1       0.270  51.786 -18.751  1.00  0.00    -0.360 N 
HETATM   35  H32 UNL     1       1.008  52.478 -18.662  1.00  0.00     0.162 HD
BRANCH  34  36
HETATM   36  C26 UNL     1      -0.242  51.572 -20.100  1.00  0.00     0.142 C 
BRANCH  36  37
HETATM   37  C27 UNL     1       0.521  52.358 -21.186  1.00  0.00     0.134 C 
BRANCH  37  38
HETATM   38  C28 UNL     1       0.841  53.781 -20.731  1.00  0.00     0.150 C 
HETATM   39  O8  UNL     1       0.305  54.424 -19.842  1.00  0.00    -0.649 OA
BRANCH  38  40
HETATM   40  O9  UNL     1       1.800  54.385 -21.470  1.00  0.00    -0.776 OA
HETATM   41  H36 UNL     1       1.807  55.297 -21.105  1.00  0.00     0.167 HD
ENDBRANCH  38  40
ENDBRANCH  37  38
BRANCH  37  42
HETATM   42  C29 UNL     1      -0.270  52.291 -22.491  1.00  0.00    -0.042 A 
HETATM   43  C30 UNL     1       0.427  52.221 -23.709  1.00  0.00     0.008 A 
HETATM   44  C31 UNL     1      -0.260  52.123 -24.920  1.00  0.00     0.001 A 
HETATM   45  C32 UNL     1      -1.653  52.093 -24.933  1.00  0.00     0.000 A 
HETATM   46  C33 UNL     1      -2.359  52.143 -23.733  1.00  0.00     0.001 A 
HETATM   47  C34 UNL     1      -1.674  52.232 -22.519  1.00  0.00     0.008 A 
ENDBRANCH  37  42
ENDBRANCH  36  37
ENDBRANCH  34  36
ENDBRANCH  31  32
ENDBRANCH  30  31
ENDBRANCH  28  30
ENDBRANCH  27  28
ENDBRANCH  26  27
ENDBRANCH   1  26
TORSDOF 13
ENDMDL
