MODEL 1
REMARK minimizedAffinity -8.42606544
REMARK  11 active torsions:
REMARK  status: ('A' for Active; 'I' for Inactive)
REMARK    1  A    between atoms: C2_2  and  O1_3 
REMARK    2  A    between atoms: C2_2  and  C3_4 
REMARK    3  A    between atoms: C4_5  and  C5_6 
REMARK    4  A    between atoms: C5_6  and  O2_7 
REMARK    5  A    between atoms: C9_11  and  O3_12 
REMARK    6  A    between atoms: O3_12  and  C10_13 
REMARK    7  A    between atoms: C11_15  and  C12_16 
REMARK    8  A    between atoms: C12_16  and  O5_17 
REMARK    9  A    between atoms: C13_18  and  O6_19 
REMARK   10  A    between atoms: C14_20  and  O7_21 
REMARK   11  A    between atoms: C15_22  and  O8_23 
ROOT
HETATM    1  C5  UNL     1      -6.532   5.715  14.186  1.00  0.00     0.086 C 
HETATM    2  C6  UNL     1      -6.363   4.542  13.149  1.00  0.00     0.023 C 
HETATM    3  C7  UNL     1      -7.331   3.367  13.373  1.00  0.00     0.013 C 
HETATM    4  C8  UNL     1      -4.928   3.999  13.180  1.00  0.00     0.039 C 
HETATM    5  C9  UNL     1      -3.902   5.039  12.728  1.00  0.00     0.126 C 
HETATM    6  C16 UNL     1      -4.420   6.476  12.886  1.00  0.00     0.044 C 
HETATM    7  C17 UNL     1      -5.279   6.719  14.157  1.00  0.00    -0.010 C 
HETATM    8  C18 UNL     1      -4.386   6.572  15.415  1.00  0.00     0.018 C 
HETATM    9  C19 UNL     1      -5.693   8.215  14.119  1.00  0.00     0.018 C 
ENDROOT
BRANCH   5  10
HETATM   10  O3  UNL     1      -2.683   4.922  13.468  1.00  0.00    -0.353 OA
BRANCH  10  11
HETATM   11  C10 UNL     1      -1.666   5.857  13.095  1.00  0.00     0.292 C 
HETATM   12  O4  UNL     1      -1.261   5.688  11.740  1.00  0.00    -0.348 OA
HETATM   13  C11 UNL     1      -0.086   4.895  11.512  1.00  0.00     0.179 C 
HETATM   14  C13 UNL     1       1.142   5.514  12.213  1.00  0.00     0.180 C 
HETATM   15  C14 UNL     1       0.789   6.236  13.521  1.00  0.00     0.183 C 
HETATM   16  C15 UNL     1      -0.516   5.739  14.122  1.00  0.00     0.204 C 
BRANCH  13  17
HETATM   17  C12 UNL     1      -0.287   3.406  11.853  1.00  0.00     0.198 C 
BRANCH  17  18
HETATM   18  O5  UNL     1       0.588   2.609  11.053  1.00  0.00    -0.398 OA
HETATM   19  H20 UNL     1       0.046   1.924  10.609  1.00  0.00     0.209 HD
ENDBRANCH  17  18
ENDBRANCH  13  17
BRANCH  14  20
HETATM   20  O6  UNL     1       1.733   6.506  11.346  1.00  0.00    -0.390 OA
HETATM   21  H22 UNL     1       2.068   6.045  10.558  1.00  0.00     0.210 HD
ENDBRANCH  14  20
BRANCH  15  22
HETATM   22  O7  UNL     1       1.847   6.036  14.478  1.00  0.00    -0.390 OA
HETATM   23  H24 UNL     1       1.486   6.322  15.340  1.00  0.00     0.210 HD
ENDBRANCH  15  22
BRANCH  16  24
HETATM   24  O8  UNL     1      -0.779   6.482  15.333  1.00  0.00    -0.388 OA
HETATM   25  H26 UNL     1      -1.038   7.387  15.084  1.00  0.00     0.210 HD
ENDBRANCH  16  24
ENDBRANCH  10  11
ENDBRANCH   5  10
BRANCH   1  26
HETATM   26  C4  UNL     1      -7.866   6.443  14.074  1.00  0.00     0.010 C 
HETATM   27  C3  UNL     1      -8.686   6.862  15.057  1.00  0.00     0.003 C 
BRANCH  27  28
HETATM   28  C2  UNL     1     -10.005   7.571  14.883  1.00  0.00     0.136 C 
HETATM   29  C1  UNL     1     -10.233   8.600  15.988  1.00  0.00     0.043 C 
BRANCH  28  30
HETATM   30  O1  UNL     1     -11.089   6.649  14.884  1.00  0.00    -0.392 OA
HETATM   31  H5  UNL     1     -11.136   6.263  15.776  1.00  0.00     0.210 HD
ENDBRANCH  28  30
ENDBRANCH  27  28
ENDBRANCH   1  26
BRANCH   1  32
HETATM   32  O2  UNL     1      -6.576   5.108  15.493  1.00  0.00    -0.385 OA
HETATM   33  H8  UNL     1      -7.450   4.692  15.598  1.00  0.00     0.211 HD
ENDBRANCH   1  32
TORSDOF 11
ENDMDL
MODEL 2
REMARK minimizedAffinity -8.15412998
REMARK  11 active torsions:
REMARK  status: ('A' for Active; 'I' for Inactive)
REMARK    1  A    between atoms: C2_2  and  O1_3 
REMARK    2  A    between atoms: C2_2  and  C3_4 
REMARK    3  A    between atoms: C4_5  and  C5_6 
REMARK    4  A    between atoms: C5_6  and  O2_7 
REMARK    5  A    between atoms: C9_11  and  O3_12 
REMARK    6  A    between atoms: O3_12  and  C10_13 
REMARK    7  A    between atoms: C11_15  and  C12_16 
REMARK    8  A    between atoms: C12_16  and  O5_17 
REMARK    9  A    between atoms: C13_18  and  O6_19 
REMARK   10  A    between atoms: C14_20  and  O7_21 
REMARK   11  A    between atoms: C15_22  and  O8_23 
ROOT
HETATM    1  C5  UNL     1      -7.919   5.976  14.298  1.00  0.00     0.086 C 
HETATM    2  C6  UNL     1      -7.462   5.185  13.016  1.00  0.00     0.023 C 
HETATM    3  C7  UNL     1      -8.301   3.928  12.726  1.00  0.00     0.013 C 
HETATM    4  C8  UNL     1      -5.991   4.765  13.139  1.00  0.00     0.039 C 
HETATM    5  C9  UNL     1      -5.045   5.966  13.185  1.00  0.00     0.126 C 
HETATM    6  C16 UNL     1      -5.752   7.247  13.653  1.00  0.00     0.044 C 
HETATM    7  C17 UNL     1      -6.807   7.032  14.773  1.00  0.00    -0.010 C 
HETATM    8  C18 UNL     1      -6.091   6.581  16.071  1.00  0.00     0.018 C 
HETATM    9  C19 UNL     1      -7.390   8.436  15.091  1.00  0.00     0.018 C 
ENDROOT
BRANCH   5  10
HETATM   10  O3  UNL     1      -3.939   5.723  14.060  1.00  0.00    -0.353 OA
BRANCH  10  11
HETATM   11  C10 UNL     1      -2.984   6.787  14.123  1.00  0.00     0.292 C 
HETATM   12  O4  UNL     1      -2.290   6.952  12.891  1.00  0.00    -0.348 OA
HETATM   13  C11 UNL     1      -1.009   6.313  12.781  1.00  0.00     0.179 C 
HETATM   14  C13 UNL     1      -0.034   6.845  13.853  1.00  0.00     0.180 C 
HETATM   15  C14 UNL     1      -0.731   7.232  15.164  1.00  0.00     0.183 C 
HETATM   16  C15 UNL     1      -2.066   6.524  15.340  1.00  0.00     0.204 C 
BRANCH  13  17
HETATM   17  C12 UNL     1      -1.100   4.775  12.761  1.00  0.00     0.198 C 
BRANCH  17  18
HETATM   18  O5  UNL     1      -2.162   4.370  11.894  1.00  0.00    -0.398 OA
HETATM   19  H20 UNL     1      -2.742   3.763  12.398  1.00  0.00     0.209 HD
ENDBRANCH  17  18
ENDBRANCH  13  17
BRANCH  14  20
HETATM   20  O6  UNL     1       0.604   8.044  13.361  1.00  0.00    -0.390 OA
HETATM   21  H22 UNL     1       1.147   7.794  12.593  1.00  0.00     0.210 HD
ENDBRANCH  14  20
BRANCH  15  22
HETATM   22  O7  UNL     1       0.121   6.899  16.276  1.00  0.00    -0.390 OA
HETATM   23  H24 UNL     1      -0.441   6.961  17.073  1.00  0.00     0.210 HD
ENDBRANCH  15  22
BRANCH  16  24
HETATM   24  O8  UNL     1      -2.659   6.959  16.584  1.00  0.00    -0.388 OA
HETATM   25  H26 UNL     1      -2.964   7.877  16.469  1.00  0.00     0.210 HD
ENDBRANCH  16  24
ENDBRANCH  10  11
ENDBRANCH   5  10
BRANCH   1  26
HETATM   26  C4  UNL     1      -9.302   6.603  14.170  1.00  0.00     0.010 C 
HETATM   27  C3  UNL     1     -10.072   6.735  13.072  1.00  0.00     0.003 C 
BRANCH  27  28
HETATM   28  C2  UNL     1     -11.434   7.377  13.005  1.00  0.00     0.136 C 
HETATM   29  C1  UNL     1     -11.409   8.797  13.564  1.00  0.00     0.043 C 
BRANCH  28  30
HETATM   30  O1  UNL     1     -12.398   6.617  13.726  1.00  0.00    -0.392 OA
HETATM   31  H5  UNL     1     -12.154   6.665  14.667  1.00  0.00     0.210 HD
ENDBRANCH  28  30
ENDBRANCH  27  28
ENDBRANCH   1  26
BRANCH   1  32
HETATM   32  O2  UNL     1      -8.075   5.003  15.351  1.00  0.00    -0.385 OA
HETATM   33  H8  UNL     1      -8.897   4.511  15.181  1.00  0.00     0.211 HD
ENDBRANCH   1  32
TORSDOF 11
ENDMDL
MODEL 3
REMARK minimizedAffinity -8.05067825
REMARK  11 active torsions:
REMARK  status: ('A' for Active; 'I' for Inactive)
REMARK    1  A    between atoms: C2_2  and  O1_3 
REMARK    2  A    between atoms: C2_2  and  C3_4 
REMARK    3  A    between atoms: C4_5  and  C5_6 
REMARK    4  A    between atoms: C5_6  and  O2_7 
REMARK    5  A    between atoms: C9_11  and  O3_12 
REMARK    6  A    between atoms: O3_12  and  C10_13 
REMARK    7  A    between atoms: C11_15  and  C12_16 
REMARK    8  A    between atoms: C12_16  and  O5_17 
REMARK    9  A    between atoms: C13_18  and  O6_19 
REMARK   10  A    between atoms: C14_20  and  O7_21 
REMARK   11  A    between atoms: C15_22  and  O8_23 
ROOT
HETATM    1  C5  UNL     1      -3.343   5.090  12.994  1.00  0.00     0.086 C 
HETATM    2  C6  UNL     1      -2.611   4.261  11.874  1.00  0.00     0.023 C 
HETATM    3  C7  UNL     1      -2.943   2.758  11.892  1.00  0.00     0.013 C 
HETATM    4  C8  UNL     1      -1.089   4.421  11.994  1.00  0.00     0.039 C 
HETATM    5  C9  UNL     1      -0.633   5.858  11.743  1.00  0.00     0.126 C 
HETATM    6  C16 UNL     1      -1.758   6.877  11.983  1.00  0.00     0.044 C 
HETATM    7  C17 UNL     1      -2.688   6.544  13.181  1.00  0.00    -0.010 C 
HETATM    8  C18 UNL     1      -1.883   6.655  14.501  1.00  0.00     0.018 C 
HETATM    9  C19 UNL     1      -3.738   7.686  13.243  1.00  0.00     0.018 C 
ENDROOT
BRANCH   5  10
HETATM   10  O3  UNL     1       0.470   6.208  12.584  1.00  0.00    -0.353 OA
BRANCH  10  11
HETATM   11  C10 UNL     1       1.702   6.429  11.891  1.00  0.00     0.292 C 
HETATM   12  O4  UNL     1       1.951   7.815  11.678  1.00  0.00    -0.348 OA
HETATM   13  C11 UNL     1       1.572   8.350  10.401  1.00  0.00     0.179 C 
HETATM   14  C13 UNL     1       2.328   7.638   9.259  1.00  0.00     0.180 C 
HETATM   15  C14 UNL     1       2.623   6.162   9.559  1.00  0.00     0.183 C 
HETATM   16  C15 UNL     1       1.674   5.583  10.597  1.00  0.00     0.204 C 
BRANCH  13  17
HETATM   17  C12 UNL     1       0.046   8.381  10.187  1.00  0.00     0.198 C 
BRANCH  17  18
HETATM   18  O5  UNL     1      -0.254   9.099   8.989  1.00  0.00    -0.398 OA
HETATM   19  H20 UNL     1      -0.913   9.789   9.214  1.00  0.00     0.209 HD
ENDBRANCH  17  18
ENDBRANCH  13  17
BRANCH  14  20
HETATM   20  O6  UNL     1       3.608   8.278   9.065  1.00  0.00    -0.390 OA
HETATM   21  H22 UNL     1       3.439   9.187   8.761  1.00  0.00     0.210 HD
ENDBRANCH  14  20
BRANCH  15  22
HETATM   22  O7  UNL     1       2.508   5.396   8.345  1.00  0.00    -0.390 OA
HETATM   23  H24 UNL     1       2.489   4.458   8.621  1.00  0.00     0.210 HD
ENDBRANCH  15  22
BRANCH  16  24
HETATM   24  O8  UNL     1       2.033   4.203  10.831  1.00  0.00    -0.388 OA
HETATM   25  H26 UNL     1       2.868   4.188  11.333  1.00  0.00     0.210 HD
ENDBRANCH  16  24
ENDBRANCH  10  11
ENDBRANCH   5  10
BRANCH   1  26
HETATM   26  C4  UNL     1      -4.856   5.149  12.821  1.00  0.00     0.010 C 
HETATM   27  C3  UNL     1      -5.780   4.223  13.142  1.00  0.00     0.003 C 
BRANCH  27  28
HETATM   28  C2  UNL     1      -7.270   4.335  12.936  1.00  0.00     0.136 C 
HETATM   29  C1  UNL     1      -7.710   5.793  12.832  1.00  0.00     0.043 C 
BRANCH  28  30
HETATM   30  O1  UNL     1      -7.985   3.714  13.999  1.00  0.00    -0.392 OA
HETATM   31  H5  UNL     1      -7.811   4.235  14.802  1.00  0.00     0.210 HD
ENDBRANCH  28  30
ENDBRANCH  27  28
ENDBRANCH   1  26
BRANCH   1  32
HETATM   32  O2  UNL     1      -3.163   4.367  14.229  1.00  0.00    -0.385 OA
HETATM   33  H8  UNL     1      -3.753   3.593  14.209  1.00  0.00     0.211 HD
ENDBRANCH   1  32
TORSDOF 11
ENDMDL
MODEL 4
REMARK minimizedAffinity -7.80438948
REMARK  11 active torsions:
REMARK  status: ('A' for Active; 'I' for Inactive)
REMARK    1  A    between atoms: C2_2  and  O1_3 
REMARK    2  A    between atoms: C2_2  and  C3_4 
REMARK    3  A    between atoms: C4_5  and  C5_6 
REMARK    4  A    between atoms: C5_6  and  O2_7 
REMARK    5  A    between atoms: C9_11  and  O3_12 
REMARK    6  A    between atoms: O3_12  and  C10_13 
REMARK    7  A    between atoms: C11_15  and  C12_16 
REMARK    8  A    between atoms: C12_16  and  O5_17 
REMARK    9  A    between atoms: C13_18  and  O6_19 
REMARK   10  A    between atoms: C14_20  and  O7_21 
REMARK   11  A    between atoms: C15_22  and  O8_23 
ROOT
HETATM    1  C5  UNL     1      -4.165   6.168  13.635  1.00  0.00     0.086 C 
HETATM    2  C6  UNL     1      -3.532   5.094  12.675  1.00  0.00     0.023 C 
HETATM    3  C7  UNL     1      -4.044   3.663  12.914  1.00  0.00     0.013 C 
HETATM    4  C8  UNL     1      -2.003   5.089  12.807  1.00  0.00     0.039 C 
HETATM    5  C9  UNL     1      -1.374   6.405  12.350  1.00  0.00     0.126 C 
HETATM    6  C16 UNL     1      -2.368   7.576  12.403  1.00  0.00     0.044 C 
HETATM    7  C17 UNL     1      -3.339   7.546  13.614  1.00  0.00    -0.010 C 
HETATM    8  C18 UNL     1      -2.536   7.763  14.921  1.00  0.00     0.018 C 
HETATM    9  C19 UNL     1      -4.243   8.801  13.473  1.00  0.00     0.018 C 
ENDROOT
BRANCH   5  10
HETATM   10  O3  UNL     1      -0.242   6.747  13.155  1.00  0.00    -0.353 OA
BRANCH  10  11
HETATM   11  C10 UNL     1       0.964   6.055  12.814  1.00  0.00     0.292 C 
HETATM   12  O4  UNL     1       2.117   6.711  13.331  1.00  0.00    -0.348 OA
HETATM   13  C11 UNL     1       2.815   7.591  12.437  1.00  0.00     0.179 C 
HETATM   14  C13 UNL     1       3.324   6.826  11.197  1.00  0.00     0.180 C 
HETATM   15  C14 UNL     1       2.401   5.672  10.779  1.00  0.00     0.183 C 
HETATM   16  C15 UNL     1       0.978   5.860  11.280  1.00  0.00     0.204 C 
BRANCH  13  17
HETATM   17  C12 UNL     1       2.006   8.852  12.077  1.00  0.00     0.198 C 
BRANCH  17  18
HETATM   18  O5  UNL     1       1.397   9.382  13.255  1.00  0.00    -0.398 OA
HETATM   19  H20 UNL     1       0.440   9.492  13.072  1.00  0.00     0.209 HD
ENDBRANCH  17  18
ENDBRANCH  13  17
BRANCH  14  20
HETATM   20  O6  UNL     1       4.606   6.234  11.497  1.00  0.00    -0.390 OA
HETATM   21  H22 UNL     1       5.236   6.959  11.652  1.00  0.00     0.210 HD
ENDBRANCH  14  20
BRANCH  15  22
HETATM   22  O7  UNL     1       2.379   5.574   9.342  1.00  0.00    -0.390 OA
HETATM   23  H24 UNL     1       1.630   4.985   9.126  1.00  0.00     0.210 HD
ENDBRANCH  15  22
BRANCH  16  24
HETATM   24  O8  UNL     1       0.187   4.726  10.861  1.00  0.00    -0.388 OA
HETATM   25  H26 UNL     1       0.457   3.955  11.391  1.00  0.00     0.210 HD
ENDBRANCH  16  24
ENDBRANCH  10  11
ENDBRANCH   5  10
BRANCH   1  26
HETATM   26  C4  UNL     1      -5.658   6.380  13.417  1.00  0.00     0.010 C 
HETATM   27  C3  UNL     1      -6.658   5.480  13.485  1.00  0.00     0.003 C 
BRANCH  27  28
HETATM   28  C2  UNL     1      -8.123   5.748  13.247  1.00  0.00     0.136 C 
HETATM   29  C1  UNL     1      -8.678   6.747  14.259  1.00  0.00     0.043 C 
BRANCH  28  30
HETATM   30  O1  UNL     1      -8.885   4.547  13.323  1.00  0.00    -0.392 OA
HETATM   31  H5  UNL     1      -8.841   4.238  14.244  1.00  0.00     0.210 HD
ENDBRANCH  28  30
ENDBRANCH  27  28
ENDBRANCH   1  26
BRANCH   1  32
HETATM   32  O2  UNL     1      -4.082   5.630  14.970  1.00  0.00    -0.385 OA
HETATM   33  H8  UNL     1      -4.762   4.938  15.054  1.00  0.00     0.211 HD
ENDBRANCH   1  32
TORSDOF 11
ENDMDL
MODEL 5
REMARK minimizedAffinity -7.70213842
REMARK  11 active torsions:
REMARK  status: ('A' for Active; 'I' for Inactive)
REMARK    1  A    between atoms: C2_2  and  O1_3 
REMARK    2  A    between atoms: C2_2  and  C3_4 
REMARK    3  A    between atoms: C4_5  and  C5_6 
REMARK    4  A    between atoms: C5_6  and  O2_7 
REMARK    5  A    between atoms: C9_11  and  O3_12 
REMARK    6  A    between atoms: O3_12  and  C10_13 
REMARK    7  A    between atoms: C11_15  and  C12_16 
REMARK    8  A    between atoms: C12_16  and  O5_17 
REMARK    9  A    between atoms: C13_18  and  O6_19 
REMARK   10  A    between atoms: C14_20  and  O7_21 
REMARK   11  A    between atoms: C15_22  and  O8_23 
ROOT
HETATM    1  C5  UNL     1      -1.106   5.508  12.838  1.00  0.00     0.086 C 
HETATM    2  C6  UNL     1      -0.521   4.720  11.608  1.00  0.00     0.023 C 
HETATM    3  C7  UNL     1      -0.332   3.215  11.863  1.00  0.00     0.013 C 
HETATM    4  C8  UNL     1       0.831   5.311  11.184  1.00  0.00     0.039 C 
HETATM    5  C9  UNL     1       0.704   6.747  10.674  1.00  0.00     0.126 C 
HETATM    6  C16 UNL     1      -0.560   7.444  11.200  1.00  0.00     0.044 C 
HETATM    7  C17 UNL     1      -0.928   7.095  12.668  1.00  0.00    -0.010 C 
HETATM    8  C18 UNL     1       0.157   7.664  13.617  1.00  0.00     0.018 C 
HETATM    9  C19 UNL     1      -2.218   7.896  12.992  1.00  0.00     0.018 C 
ENDROOT
BRANCH   5  10
HETATM   10  O3  UNL     1       1.837   7.535  11.053  1.00  0.00    -0.353 OA
BRANCH  10  11
HETATM   11  C10 UNL     1       2.913   6.792  11.634  1.00  0.00     0.292 C 
HETATM   12  O4  UNL     1       3.223   7.245  12.948  1.00  0.00    -0.348 OA
HETATM   13  C11 UNL     1       4.304   8.182  13.069  1.00  0.00     0.179 C 
HETATM   14  C13 UNL     1       5.622   7.573  12.544  1.00  0.00     0.180 C 
HETATM   15  C14 UNL     1       5.414   6.593  11.382  1.00  0.00     0.183 C 
HETATM   16  C15 UNL     1       4.104   6.838  10.648  1.00  0.00     0.204 C 
BRANCH  13  17
HETATM   17  C12 UNL     1       3.986   9.556  12.449  1.00  0.00     0.198 C 
BRANCH  17  18
HETATM   18  O5  UNL     1       2.663   9.952  12.816  1.00  0.00    -0.398 OA
HETATM   19  H20 UNL     1       2.181  10.180  11.994  1.00  0.00     0.209 HD
ENDBRANCH  17  18
ENDBRANCH  13  17
BRANCH  14  20
HETATM   20  O6  UNL     1       6.253   6.821  13.604  1.00  0.00    -0.390 OA
HETATM   21  H22 UNL     1       6.498   7.450  14.305  1.00  0.00     0.210 HD
ENDBRANCH  14  20
BRANCH  15  22
HETATM   22  O7  UNL     1       6.501   6.723  10.447  1.00  0.00    -0.390 OA
HETATM   23  H24 UNL     1       6.218   6.249   9.640  1.00  0.00     0.210 HD
ENDBRANCH  15  22
BRANCH  16  24
HETATM   24  O8  UNL     1       3.980   5.864   9.588  1.00  0.00    -0.388 OA
HETATM   25  H26 UNL     1       3.793   4.998   9.992  1.00  0.00     0.210 HD
ENDBRANCH  16  24
ENDBRANCH  10  11
ENDBRANCH   5  10
BRANCH   1  26
HETATM   26  C4  UNL     1      -2.536   5.116  13.191  1.00  0.00     0.010 C 
HETATM   27  C3  UNL     1      -3.461   4.510  12.422  1.00  0.00     0.003 C 
BRANCH  27  28
HETATM   28  C2  UNL     1      -4.870   4.155  12.825  1.00  0.00     0.136 C 
HETATM   29  C1  UNL     1      -5.587   3.382  11.721  1.00  0.00     0.043 C 
BRANCH  28  30
HETATM   30  O1  UNL     1      -5.626   5.322  13.133  1.00  0.00    -0.392 OA
HETATM   31  H5  UNL     1      -5.729   5.823  12.306  1.00  0.00     0.210 HD
ENDBRANCH  28  30
ENDBRANCH  27  28
ENDBRANCH   1  26
BRANCH   1  32
HETATM   32  O2  UNL     1      -0.341   5.103  13.991  1.00  0.00    -0.385 OA
HETATM   33  H8  UNL     1      -0.629   4.207  14.239  1.00  0.00     0.211 HD
ENDBRANCH   1  32
TORSDOF 11
ENDMDL
MODEL 6
REMARK minimizedAffinity -7.6766696
REMARK  11 active torsions:
REMARK  status: ('A' for Active; 'I' for Inactive)
REMARK    1  A    between atoms: C2_2  and  O1_3 
REMARK    2  A    between atoms: C2_2  and  C3_4 
REMARK    3  A    between atoms: C4_5  and  C5_6 
REMARK    4  A    between atoms: C5_6  and  O2_7 
REMARK    5  A    between atoms: C9_11  and  O3_12 
REMARK    6  A    between atoms: O3_12  and  C10_13 
REMARK    7  A    between atoms: C11_15  and  C12_16 
REMARK    8  A    between atoms: C12_16  and  O5_17 
REMARK    9  A    between atoms: C13_18  and  O6_19 
REMARK   10  A    between atoms: C14_20  and  O7_21 
REMARK   11  A    between atoms: C15_22  and  O8_23 
ROOT
HETATM    1  C5  UNL     1      -3.846   4.768  12.656  1.00  0.00     0.086 C 
HETATM    2  C6  UNL     1      -2.952   4.680  11.364  1.00  0.00     0.023 C 
HETATM    3  C7  UNL     1      -3.115   3.367  10.579  1.00  0.00     0.013 C 
HETATM    4  C8  UNL     1      -1.469   4.848  11.724  1.00  0.00     0.039 C 
HETATM    5  C9  UNL     1      -1.160   6.234  12.291  1.00  0.00     0.126 C 
HETATM    6  C16 UNL     1      -2.405   6.912  12.882  1.00  0.00     0.044 C 
HETATM    7  C17 UNL     1      -3.372   5.954  13.629  1.00  0.00    -0.010 C 
HETATM    8  C18 UNL     1      -2.677   5.417  14.906  1.00  0.00     0.018 C 
HETATM    9  C19 UNL     1      -4.545   6.835  14.140  1.00  0.00     0.018 C 
ENDROOT
BRANCH   5  10
HETATM   10  O3  UNL     1      -0.163   6.165  13.315  1.00  0.00    -0.353 OA
BRANCH  10  11
HETATM   11  C10 UNL     1       0.655   7.334  13.429  1.00  0.00     0.292 C 
HETATM   12  O4  UNL     1       0.998   7.869  12.155  1.00  0.00    -0.348 OA
HETATM   13  C11 UNL     1       2.274   7.489  11.617  1.00  0.00     0.179 C 
HETATM   14  C13 UNL     1       3.420   7.935  12.550  1.00  0.00     0.180 C 
HETATM   15  C14 UNL     1       3.033   7.914  14.034  1.00  0.00     0.183 C 
HETATM   16  C15 UNL     1       1.870   6.974  14.315  1.00  0.00     0.204 C 
BRANCH  13  17
HETATM   17  C12 UNL     1       2.350   5.997  11.240  1.00  0.00     0.198 C 
BRANCH  17  18
HETATM   18  O5  UNL     1       3.671   5.682  10.797  1.00  0.00    -0.398 OA
HETATM   19  H20 UNL     1       3.597   5.244   9.924  1.00  0.00     0.209 HD
ENDBRANCH  17  18
ENDBRANCH  13  17
BRANCH  14  20
HETATM   20  O6  UNL     1       3.780   9.299  12.241  1.00  0.00    -0.390 OA
HETATM   21  H22 UNL     1       4.138   9.311  11.337  1.00  0.00     0.210 HD
ENDBRANCH  14  20
BRANCH  15  22
HETATM   22  O7  UNL     1       4.167   7.498  14.819  1.00  0.00    -0.390 OA
HETATM   23  H24 UNL     1       3.817   7.295  15.708  1.00  0.00     0.210 HD
ENDBRANCH  15  22
BRANCH  16  24
HETATM   24  O8  UNL     1       1.561   7.031  15.726  1.00  0.00    -0.388 OA
HETATM   25  H26 UNL     1       1.138   7.889  15.909  1.00  0.00     0.210 HD
ENDBRANCH  16  24
ENDBRANCH  10  11
ENDBRANCH   5  10
BRANCH   1  26
HETATM   26  C4  UNL     1      -5.341   4.816  12.363  1.00  0.00     0.010 C 
HETATM   27  C3  UNL     1      -6.343   4.145  12.964  1.00  0.00     0.003 C 
BRANCH  27  28
HETATM   28  C2  UNL     1      -7.809   4.226  12.621  1.00  0.00     0.136 C 
HETATM   29  C1  UNL     1      -8.430   5.522  13.135  1.00  0.00     0.043 C 
BRANCH  28  30
HETATM   30  O1  UNL     1      -8.527   3.125  13.167  1.00  0.00    -0.392 OA
HETATM   31  H5  UNL     1      -8.499   3.217  14.135  1.00  0.00     0.210 HD
ENDBRANCH  28  30
ENDBRANCH  27  28
ENDBRANCH   1  26
BRANCH   1  32
HETATM   32  O2  UNL     1      -3.672   3.524  13.365  1.00  0.00    -0.385 OA
HETATM   33  H8  UNL     1      -4.169   2.838  12.888  1.00  0.00     0.211 HD
ENDBRANCH   1  32
TORSDOF 11
ENDMDL
MODEL 7
REMARK minimizedAffinity -7.63814306
REMARK  11 active torsions:
REMARK  status: ('A' for Active; 'I' for Inactive)
REMARK    1  A    between atoms: C2_2  and  O1_3 
REMARK    2  A    between atoms: C2_2  and  C3_4 
REMARK    3  A    between atoms: C4_5  and  C5_6 
REMARK    4  A    between atoms: C5_6  and  O2_7 
REMARK    5  A    between atoms: C9_11  and  O3_12 
REMARK    6  A    between atoms: O3_12  and  C10_13 
REMARK    7  A    between atoms: C11_15  and  C12_16 
REMARK    8  A    between atoms: C12_16  and  O5_17 
REMARK    9  A    between atoms: C13_18  and  O6_19 
REMARK   10  A    between atoms: C14_20  and  O7_21 
REMARK   11  A    between atoms: C15_22  and  O8_23 
ROOT
HETATM    1  C5  UNL     1      -3.618   6.731  14.447  1.00  0.00     0.086 C 
HETATM    2  C6  UNL     1      -2.965   5.856  13.313  1.00  0.00     0.023 C 
HETATM    3  C7  UNL     1      -3.099   4.340  13.538  1.00  0.00     0.013 C 
HETATM    4  C8  UNL     1      -1.474   6.193  13.165  1.00  0.00     0.039 C 
HETATM    5  C9  UNL     1      -1.245   7.631  12.698  1.00  0.00     0.126 C 
HETATM    6  C16 UNL     1      -2.440   8.544  13.014  1.00  0.00     0.044 C 
HETATM    7  C17 UNL     1      -3.130   8.259  14.376  1.00  0.00    -0.010 C 
HETATM    8  C18 UNL     1      -2.156   8.614  15.528  1.00  0.00     0.018 C 
HETATM    9  C19 UNL     1      -4.294   9.280  14.492  1.00  0.00     0.018 C 
ENDROOT
BRANCH   5  10
HETATM   10  O3  UNL     1      -0.081   8.196  13.308  1.00  0.00    -0.353 OA
BRANCH  10  11
HETATM   11  C10 UNL     1       1.156   7.823  12.691  1.00  0.00     0.292 C 
HETATM   12  O4  UNL     1       1.539   8.742  11.672  1.00  0.00    -0.348 OA
HETATM   13  C11 UNL     1       1.194   8.391  10.323  1.00  0.00     0.179 C 
HETATM   14  C13 UNL     1       1.855   7.057   9.915  1.00  0.00     0.180 C 
HETATM   15  C14 UNL     1       2.005   6.075  11.085  1.00  0.00     0.183 C 
HETATM   16  C15 UNL     1       1.020   6.360  12.209  1.00  0.00     0.204 C 
BRANCH  13  17
HETATM   17  C12 UNL     1      -0.324   8.416  10.061  1.00  0.00     0.198 C 
BRANCH  17  18
HETATM   18  O5  UNL     1      -0.593   9.170   8.878  1.00  0.00    -0.398 OA
HETATM   19  H20 UNL     1      -1.264   9.847   9.102  1.00  0.00     0.209 HD
ENDBRANCH  17  18
ENDBRANCH  13  17
BRANCH  14  20
HETATM   20  O6  UNL     1       3.190   7.318   9.429  1.00  0.00    -0.390 OA
HETATM   21  H22 UNL     1       3.108   7.846   8.616  1.00  0.00     0.210 HD
ENDBRANCH  14  20
BRANCH  15  22
HETATM   22  O7  UNL     1       1.793   4.732  10.612  1.00  0.00    -0.390 OA
HETATM   23  H24 UNL     1       1.685   4.180  11.411  1.00  0.00     0.210 HD
ENDBRANCH  15  22
BRANCH  16  24
HETATM   24  O8  UNL     1       1.243   5.406  13.271  1.00  0.00    -0.388 OA
HETATM   25  H26 UNL     1       2.080   5.634  13.713  1.00  0.00     0.210 HD
ENDBRANCH  16  24
ENDBRANCH  10  11
ENDBRANCH   5  10
BRANCH   1  26
HETATM   26  C4  UNL     1      -5.135   6.605  14.519  1.00  0.00     0.010 C 
HETATM   27  C3  UNL     1      -5.899   6.146  15.529  1.00  0.00     0.003 C 
BRANCH  27  28
HETATM   28  C2  UNL     1      -7.403   6.035  15.537  1.00  0.00     0.136 C 
HETATM   29  C1  UNL     1      -8.028   7.027  16.513  1.00  0.00     0.043 C 
BRANCH  28  30
HETATM   30  O1  UNL     1      -7.820   4.720  15.889  1.00  0.00    -0.392 OA
HETATM   31  H5  UNL     1      -7.561   4.576  16.816  1.00  0.00     0.210 HD
ENDBRANCH  28  30
ENDBRANCH  27  28
ENDBRANCH   1  26
BRANCH   1  32
HETATM   32  O2  UNL     1      -3.165   6.185  15.703  1.00  0.00    -0.385 OA
HETATM   33  H8  UNL     1      -3.650   5.356  15.859  1.00  0.00     0.211 HD
ENDBRANCH   1  32
TORSDOF 11
ENDMDL
MODEL 8
REMARK minimizedAffinity -7.58585548
REMARK  11 active torsions:
REMARK  status: ('A' for Active; 'I' for Inactive)
REMARK    1  A    between atoms: C2_2  and  O1_3 
REMARK    2  A    between atoms: C2_2  and  C3_4 
REMARK    3  A    between atoms: C4_5  and  C5_6 
REMARK    4  A    between atoms: C5_6  and  O2_7 
REMARK    5  A    between atoms: C9_11  and  O3_12 
REMARK    6  A    between atoms: O3_12  and  C10_13 
REMARK    7  A    between atoms: C11_15  and  C12_16 
REMARK    8  A    between atoms: C12_16  and  O5_17 
REMARK    9  A    between atoms: C13_18  and  O6_19 
REMARK   10  A    between atoms: C14_20  and  O7_21 
REMARK   11  A    between atoms: C15_22  and  O8_23 
ROOT
HETATM    1  C5  UNL     1      -3.593   6.547  14.593  1.00  0.00     0.086 C 
HETATM    2  C6  UNL     1      -3.464   5.922  13.154  1.00  0.00     0.023 C 
HETATM    3  C7  UNL     1      -3.902   4.449  13.071  1.00  0.00     0.013 C 
HETATM    4  C8  UNL     1      -2.018   6.026  12.650  1.00  0.00     0.039 C 
HETATM    5  C9  UNL     1      -1.569   7.476  12.462  1.00  0.00     0.126 C 
HETATM    6  C16 UNL     1      -2.396   8.456  13.309  1.00  0.00     0.044 C 
HETATM    7  C17 UNL     1      -2.784   7.928  14.717  1.00  0.00    -0.010 C 
HETATM    8  C18 UNL     1      -1.504   7.778  15.578  1.00  0.00     0.018 C 
HETATM    9  C19 UNL     1      -3.603   9.061  15.392  1.00  0.00     0.018 C 
ENDROOT
BRANCH   5  10
HETATM   10  O3  UNL     1      -0.191   7.642  12.809  1.00  0.00    -0.353 OA
BRANCH  10  11
HETATM   11  C10 UNL     1       0.622   8.200  11.771  1.00  0.00     0.292 C 
HETATM   12  O4  UNL     1       0.428   7.533  10.528  1.00  0.00    -0.348 OA
HETATM   13  C11 UNL     1       1.369   6.502  10.194  1.00  0.00     0.179 C 
HETATM   14  C13 UNL     1       2.802   7.071  10.113  1.00  0.00     0.180 C 
HETATM   15  C14 UNL     1       3.050   8.226  11.093  1.00  0.00     0.183 C 
HETATM   16  C15 UNL     1       2.086   8.202  12.269  1.00  0.00     0.204 C 
BRANCH  13  17
HETATM   17  C12 UNL     1       1.262   5.266  11.108  1.00  0.00     0.198 C 
BRANCH  17  18
HETATM   18  O5  UNL     1       2.203   4.277  10.687  1.00  0.00    -0.398 OA
HETATM   19  H20 UNL     1       1.715   3.436  10.562  1.00  0.00     0.209 HD
ENDBRANCH  17  18
ENDBRANCH  13  17
BRANCH  14  20
HETATM   20  O6  UNL     1       3.028   7.603   8.789  1.00  0.00    -0.390 OA
HETATM   21  H22 UNL     1       2.989   6.860   8.163  1.00  0.00     0.210 HD
ENDBRANCH  14  20
BRANCH  15  22
HETATM   22  O7  UNL     1       4.397   8.147  11.594  1.00  0.00    -0.390 OA
HETATM   23  H24 UNL     1       4.435   8.756  12.358  1.00  0.00     0.210 HD
ENDBRANCH  15  22
BRANCH  16  24
HETATM   24  O8  UNL     1       2.376   9.329  13.126  1.00  0.00    -0.388 OA
HETATM   25  H26 UNL     1       2.077  10.138  12.674  1.00  0.00     0.210 HD
ENDBRANCH  16  24
ENDBRANCH  10  11
ENDBRANCH   5  10
BRANCH   1  26
HETATM   26  C4  UNL     1      -5.032   6.668  15.080  1.00  0.00     0.010 C 
HETATM   27  C3  UNL     1      -6.029   5.765  15.006  1.00  0.00     0.003 C 
BRANCH  27  28
HETATM   28  C2  UNL     1      -7.443   5.947  15.499  1.00  0.00     0.136 C 
HETATM   29  C1  UNL     1      -7.517   7.003  16.598  1.00  0.00     0.043 C 
BRANCH  28  30
HETATM   30  O1  UNL     1      -7.975   4.725  15.999  1.00  0.00    -0.392 OA
HETATM   31  H5  UNL     1      -7.467   4.497  16.797  1.00  0.00     0.210 HD
ENDBRANCH  28  30
ENDBRANCH  27  28
ENDBRANCH   1  26
BRANCH   1  32
HETATM   32  O2  UNL     1      -2.996   5.606  15.508  1.00  0.00    -0.385 OA
HETATM   33  H8  UNL     1      -3.613   4.862  15.614  1.00  0.00     0.211 HD
ENDBRANCH   1  32
TORSDOF 11
ENDMDL
MODEL 9
REMARK minimizedAffinity -7.5725131
REMARK  11 active torsions:
REMARK  status: ('A' for Active; 'I' for Inactive)
REMARK    1  A    between atoms: C2_2  and  O1_3 
REMARK    2  A    between atoms: C2_2  and  C3_4 
REMARK    3  A    between atoms: C4_5  and  C5_6 
REMARK    4  A    between atoms: C5_6  and  O2_7 
REMARK    5  A    between atoms: C9_11  and  O3_12 
REMARK    6  A    between atoms: O3_12  and  C10_13 
REMARK    7  A    between atoms: C11_15  and  C12_16 
REMARK    8  A    between atoms: C12_16  and  O5_17 
REMARK    9  A    between atoms: C13_18  and  O6_19 
REMARK   10  A    between atoms: C14_20  and  O7_21 
REMARK   11  A    between atoms: C15_22  and  O8_23 
ROOT
HETATM    1  C5  UNL     1      -4.265   5.685  13.462  1.00  0.00     0.086 C 
HETATM    2  C6  UNL     1      -2.929   6.445  13.124  1.00  0.00     0.023 C 
HETATM    3  C7  UNL     1      -1.676   5.553  13.162  1.00  0.00     0.013 C 
HETATM    4  C8  UNL     1      -2.716   7.617  14.092  1.00  0.00     0.039 C 
HETATM    5  C9  UNL     1      -3.796   8.691  13.951  1.00  0.00     0.126 C 
HETATM    6  C16 UNL     1      -5.089   8.141  13.331  1.00  0.00     0.044 C 
HETATM    7  C17 UNL     1      -5.463   6.703  13.785  1.00  0.00    -0.010 C 
HETATM    8  C18 UNL     1      -5.825   6.719  15.292  1.00  0.00     0.018 C 
HETATM    9  C19 UNL     1      -6.784   6.349  13.049  1.00  0.00     0.018 C 
ENDROOT
BRANCH   5  10
HETATM   10  O3  UNL     1      -4.121   9.270  15.218  1.00  0.00    -0.353 OA
BRANCH  10  11
HETATM   11  C10 UNL     1      -3.017   9.390  16.121  1.00  0.00     0.292 C 
HETATM   12  O4  UNL     1      -2.282  10.590  15.904  1.00  0.00    -0.348 OA
HETATM   13  C11 UNL     1      -1.111  10.491  15.079  1.00  0.00     0.179 C 
HETATM   14  C13 UNL     1      -0.087   9.511  15.692  1.00  0.00     0.180 C 
HETATM   15  C14 UNL     1      -0.743   8.355  16.459  1.00  0.00     0.183 C 
HETATM   16  C15 UNL     1      -2.173   8.099  16.007  1.00  0.00     0.204 C 
BRANCH  13  17
HETATM   17  C12 UNL     1      -1.435  10.179  13.605  1.00  0.00     0.198 C 
BRANCH  17  18
HETATM   18  O5  UNL     1      -0.269   9.668  12.957  1.00  0.00    -0.398 OA
HETATM   19  H20 UNL     1      -0.120  10.201  12.148  1.00  0.00     0.209 HD
ENDBRANCH  17  18
ENDBRANCH  13  17
BRANCH  14  20
HETATM   20  O6  UNL     1       0.735  10.219  16.645  1.00  0.00    -0.390 OA
HETATM   21  H22 UNL     1       1.248  10.884  16.154  1.00  0.00     0.210 HD
ENDBRANCH  14  20
BRANCH  15  22
HETATM   22  O7  UNL     1       0.028   7.154  16.264  1.00  0.00    -0.390 OA
HETATM   23  H24 UNL     1      -0.534   6.420  16.582  1.00  0.00     0.210 HD
ENDBRANCH  15  22
BRANCH  16  24
HETATM   24  O8  UNL     1      -2.717   7.014  16.791  1.00  0.00    -0.388 OA
HETATM   25  H26 UNL     1      -2.877   7.341  17.694  1.00  0.00     0.210 HD
ENDBRANCH  16  24
ENDBRANCH  10  11
ENDBRANCH   5  10
BRANCH   1  26
HETATM   26  C4  UNL     1      -4.652   4.637  12.425  1.00  0.00     0.010 C 
HETATM   27  C3  UNL     1      -4.561   3.296  12.504  1.00  0.00     0.003 C 
BRANCH  27  28
HETATM   28  C2  UNL     1      -4.952   2.306  11.435  1.00  0.00     0.136 C 
HETATM   29  C1  UNL     1      -6.353   1.751  11.677  1.00  0.00     0.043 C 
BRANCH  28  30
HETATM   30  O1  UNL     1      -4.032   1.221  11.377  1.00  0.00    -0.392 OA
HETATM   31  H5  UNL     1      -4.120   0.726  12.210  1.00  0.00     0.210 HD
ENDBRANCH  28  30
ENDBRANCH  27  28
ENDBRANCH   1  26
BRANCH   1  32
HETATM   32  O2  UNL     1      -4.012   4.915  14.655  1.00  0.00    -0.385 OA
HETATM   33  H8  UNL     1      -3.466   4.149  14.405  1.00  0.00     0.211 HD
ENDBRANCH   1  32
TORSDOF 11
ENDMDL
