MODEL 1
REMARK minimizedAffinity -10.3074083
REMARK CNNscore 0.391445249
REMARK CNNaffinity 7.37351274
REMARK  15 active torsions:
REMARK  status: ('A' for Active; 'I' for Inactive)
REMARK    1  A    between atoms: C2_2  and  C26_34 
REMARK    2  A    between atoms: C3_3  and  C4_4 
REMARK    3  A    between atoms: C5_5  and  C6_6 
REMARK    4  A    between atoms: C6_6  and  C7_7 
REMARK    5  A    between atoms: C7_7  and  O1_8 
REMARK    6  A    between atoms: C7_7  and  C8_9 
REMARK    7  A    between atoms: C8_9  and  C9_10 
REMARK    8  A    between atoms: C14_16  and  O3_17 
REMARK    9  A    between atoms: C22_28  and  O7_29 
REMARK   10  A    between atoms: C23_30  and  O8_31 
REMARK   11  A    between atoms: C26_34  and  C27_35 
REMARK   12  A    between atoms: C28_36  and  C29_37 
REMARK   13  A    between atoms: C30_38  and  C31_39 
REMARK   14  A    between atoms: C31_39  and  C32_40 
REMARK   15  A    between atoms: C32_40  and  O9_41 
ROOT
HETATM    1  C9  UNL     1      -3.309   2.852  12.123  1.00  0.00     0.134 C 
HETATM    2  C10 UNL     1      -4.069   4.228  12.268  1.00  0.00     0.033 C 
HETATM    3  C11 UNL     1      -3.842   5.035  13.593  1.00  0.00     0.005 C 
HETATM    4  C12 UNL     1      -3.709   6.567  13.362  1.00  0.00     0.032 C 
HETATM    5  C13 UNL     1      -2.625   7.327  14.210  1.00  0.00     0.131 C 
HETATM    6  O2  UNL     1      -1.356   6.961  13.683  1.00  0.00    -0.347 OA
HETATM    7  C14 UNL     1      -0.164   7.566  14.152  1.00  0.00     0.191 C 
HETATM    8  C15 UNL     1       0.863   7.677  12.951  1.00  0.00     0.074 C 
HETATM    9  C16 UNL     1       1.512   6.399  12.297  1.00  0.00     0.037 C 
HETATM   10  C17 UNL     1       0.733   5.633  11.176  1.00  0.00     0.122 C 
HETATM   11  C18 UNL     1      -0.740   5.621  11.417  1.00  0.00     0.035 C 
HETATM   12  C19 UNL     1      -0.718   4.637  12.571  1.00  0.00     0.045 C 
HETATM   13  C20 UNL     1       0.045   3.508  11.954  1.00  0.00     0.221 C 
HETATM   14  O4  UNL     1       1.048   4.201  11.174  1.00  0.00    -0.371 OA
HETATM   15  C21 UNL     1      -0.988   2.499  11.356  1.00  0.00     0.288 C 
HETATM   16  O5  UNL     1      -0.714   1.333  11.083  1.00  0.00    -0.262 OA
HETATM   17  O6  UNL     1      -2.235   3.026  11.123  1.00  0.00    -0.314 OA
HETATM   18  C22 UNL     1      -0.432   8.950  14.818  1.00  0.00     0.209 C 
HETATM   19  C23 UNL     1      -1.578   9.698  14.144  1.00  0.00     0.158 C 
HETATM   20  C24 UNL     1      -2.868   8.854  14.079  1.00  0.00     0.042 C 
HETATM   21  C25 UNL     1      -3.873   9.308  15.148  1.00  0.00     0.015 C 
ENDROOT
BRANCH   1  22
HETATM   22  C8  UNL     1      -4.269   1.777  11.577  1.00  0.00     0.064 C 
BRANCH  22  23
HETATM   23  C7  UNL     1      -5.636   2.353  11.172  1.00  0.00     0.124 C 
BRANCH  23  24
HETATM   24  C6  UNL     1      -6.799   1.838  12.045  1.00  0.00     0.059 C 
BRANCH  24  25
HETATM   25  C5  UNL     1      -7.082   2.667  13.276  1.00  0.00    -0.024 C 
HETATM   26  C4  UNL     1      -7.708   3.853  13.370  1.00  0.00    -0.004 C 
BRANCH  26  27
HETATM   27  C3  UNL     1      -8.283   4.618  12.285  1.00  0.00     0.002 C 
HETATM   28  C2  UNL     1      -8.927   5.800  12.377  1.00  0.00    -0.080 C 
HETATM   29  C1  UNL     1      -9.467   6.458  11.128  1.00  0.00     0.043 C 
BRANCH  28  30
HETATM   30  C26 UNL     1      -9.200   6.567  13.654  1.00  0.00     0.060 C 
BRANCH  30  31
HETATM   31  C27 UNL     1     -10.651   6.497  14.044  1.00  0.00    -0.022 C 
HETATM   32  C28 UNL     1     -11.486   7.494  14.388  1.00  0.00    -0.004 C 
BRANCH  32  33
HETATM   33  C29 UNL     1     -11.142   8.891  14.506  1.00  0.00    -0.004 C 
HETATM   34  C30 UNL     1     -11.948   9.930  14.224  1.00  0.00    -0.025 C 
BRANCH  34  35
HETATM   35  C31 UNL     1     -13.349   9.905  13.667  1.00  0.00     0.053 C 
BRANCH  35  36
HETATM   36  C32 UNL     1     -13.406  10.364  12.212  1.00  0.00     0.168 C 
BRANCH  36  37
HETATM   37  O9  UNL     1     -12.230   9.973  11.513  1.00  0.00    -0.401 OA
HETATM   38  H50 UNL     1     -12.196   8.999  11.532  1.00  0.00     0.209 HD
ENDBRANCH  36  37
ENDBRANCH  35  36
ENDBRANCH  34  35
ENDBRANCH  32  33
ENDBRANCH  30  31
ENDBRANCH  28  30
ENDBRANCH  26  27
ENDBRANCH  24  25
ENDBRANCH  23  24
BRANCH  23  39
HETATM   39  O1  UNL     1      -5.858   2.067   9.788  1.00  0.00    -0.395 OA
HETATM   40  H10 UNL     1      -6.510   1.350   9.721  1.00  0.00     0.210 HD
ENDBRANCH  23  39
ENDBRANCH  22  23
ENDBRANCH   1  22
BRANCH   7  41
HETATM   41  O3  UNL     1       0.382   6.751  15.206  1.00  0.00    -0.363 OA
HETATM   42  H21 UNL     1       1.174   6.307  14.853  1.00  0.00     0.213 HD
ENDBRANCH   7  41
BRANCH  19  43
HETATM   43  O8  UNL     1      -1.211  10.095  12.815  1.00  0.00    -0.392 OA
HETATM   44  H35 UNL     1      -0.613  10.861  12.901  1.00  0.00     0.210 HD
ENDBRANCH  19  43
BRANCH  18  45
HETATM   45  O7  UNL     1      -0.783   8.764  16.207  1.00  0.00    -0.387 OA
HETATM   46  H33 UNL     1      -0.408   7.888  16.440  1.00  0.00     0.210 HD
ENDBRANCH  18  45
TORSDOF 15
ENDMDL
MODEL 2
REMARK minimizedAffinity -10.2916965
REMARK CNNscore 0.24161002
REMARK CNNaffinity 6.70281601
REMARK  15 active torsions:
REMARK  status: ('A' for Active; 'I' for Inactive)
REMARK    1  A    between atoms: C2_2  and  C26_34 
REMARK    2  A    between atoms: C3_3  and  C4_4 
REMARK    3  A    between atoms: C5_5  and  C6_6 
REMARK    4  A    between atoms: C6_6  and  C7_7 
REMARK    5  A    between atoms: C7_7  and  O1_8 
REMARK    6  A    between atoms: C7_7  and  C8_9 
REMARK    7  A    between atoms: C8_9  and  C9_10 
REMARK    8  A    between atoms: C14_16  and  O3_17 
REMARK    9  A    between atoms: C22_28  and  O7_29 
REMARK   10  A    between atoms: C23_30  and  O8_31 
REMARK   11  A    between atoms: C26_34  and  C27_35 
REMARK   12  A    between atoms: C28_36  and  C29_37 
REMARK   13  A    between atoms: C30_38  and  C31_39 
REMARK   14  A    between atoms: C31_39  and  C32_40 
REMARK   15  A    between atoms: C32_40  and  O9_41 
ROOT
HETATM    1  C9  UNL     1      -0.697   6.003  13.568  1.00  0.00     0.134 C 
HETATM    2  C10 UNL     1      -1.722   5.242  12.639  1.00  0.00     0.033 C 
HETATM    3  C11 UNL     1      -2.819   4.373  13.345  1.00  0.00     0.005 C 
HETATM    4  C12 UNL     1      -4.216   4.483  12.670  1.00  0.00     0.032 C 
HETATM    5  C13 UNL     1      -5.466   4.553  13.620  1.00  0.00     0.131 C 
HETATM    6  O2  UNL     1      -5.460   5.842  14.219  1.00  0.00    -0.347 OA
HETATM    7  C14 UNL     1      -6.526   6.272  15.047  1.00  0.00     0.191 C 
HETATM    8  C15 UNL     1      -6.728   7.832  14.855  1.00  0.00     0.074 C 
HETATM    9  C16 UNL     1      -5.648   8.871  15.337  1.00  0.00     0.037 C 
HETATM   10  C17 UNL     1      -4.439   9.209  14.401  1.00  0.00     0.122 C 
HETATM   11  C18 UNL     1      -3.968   8.020  13.632  1.00  0.00     0.035 C 
HETATM   12  C19 UNL     1      -3.322   7.303  14.802  1.00  0.00     0.045 C 
HETATM   13  C20 UNL     1      -2.424   8.380  15.322  1.00  0.00     0.221 C 
HETATM   14  O4  UNL     1      -3.240   9.566  15.166  1.00  0.00    -0.371 OA
HETATM   15  C21 UNL     1      -1.017   8.191  14.669  1.00  0.00     0.288 C 
HETATM   16  O5  UNL     1       0.011   8.687  15.122  1.00  0.00    -0.262 OA
HETATM   17  O6  UNL     1      -1.017   7.445  13.516  1.00  0.00    -0.314 OA
HETATM   18  C22 UNL     1      -7.839   5.478  14.773  1.00  0.00     0.209 C 
HETATM   19  C23 UNL     1      -7.981   5.096  13.303  1.00  0.00     0.158 C 
HETATM   20  C24 UNL     1      -6.749   4.331  12.776  1.00  0.00     0.042 C 
HETATM   21  C25 UNL     1      -7.042   2.828  12.670  1.00  0.00     0.015 C 
ENDROOT
BRANCH   1  22
HETATM   22  C8  UNL     1       0.733   5.834  13.022  1.00  0.00     0.064 C 
BRANCH  22  23
HETATM   23  C7  UNL     1       0.774   5.727  11.488  1.00  0.00     0.124 C 
BRANCH  23  24
HETATM   24  C6  UNL     1      -0.357   6.513  10.791  1.00  0.00     0.059 C 
BRANCH  24  25
HETATM   25  C5  UNL     1      -0.057   7.974  10.550  1.00  0.00    -0.024 C 
HETATM   26  C4  UNL     1       0.474   8.560   9.463  1.00  0.00    -0.004 C 
BRANCH  26  27
HETATM   27  C3  UNL     1       0.874   7.907   8.236  1.00  0.00     0.002 C 
HETATM   28  C2  UNL     1       1.998   7.189   8.026  1.00  0.00    -0.080 C 
HETATM   29  C1  UNL     1       2.253   6.577   6.669  1.00  0.00     0.043 C 
BRANCH  28  30
HETATM   30  C26 UNL     1       3.090   6.933   9.043  1.00  0.00     0.060 C 
BRANCH  30  31
HETATM   31  C27 UNL     1       3.805   8.201   9.420  1.00  0.00    -0.022 C 
HETATM   32  C28 UNL     1       4.906   8.362  10.176  1.00  0.00    -0.004 C 
BRANCH  32  33
HETATM   33  C29 UNL     1       5.637   7.316  10.851  1.00  0.00    -0.004 C 
HETATM   34  C30 UNL     1       5.612   7.057  12.170  1.00  0.00    -0.025 C 
BRANCH  34  35
HETATM   35  C31 UNL     1       4.888   7.810  13.258  1.00  0.00     0.053 C 
BRANCH  35  36
HETATM   36  C32 UNL     1       5.691   7.871  14.556  1.00  0.00     0.168 C 
BRANCH  36  37
HETATM   37  O9  UNL     1       5.158   6.971  15.521  1.00  0.00    -0.401 OA
HETATM   38  H50 UNL     1       5.234   6.073  15.149  1.00  0.00     0.209 HD
ENDBRANCH  36  37
ENDBRANCH  35  36
ENDBRANCH  34  35
ENDBRANCH  32  33
ENDBRANCH  30  31
ENDBRANCH  28  30
ENDBRANCH  26  27
ENDBRANCH  24  25
ENDBRANCH  23  24
BRANCH  23  39
HETATM   39  O1  UNL     1       0.745   4.343  11.128  1.00  0.00    -0.395 OA
HETATM   40  H10 UNL     1      -0.141   4.131  10.789  1.00  0.00     0.210 HD
ENDBRANCH  23  39
ENDBRANCH  22  23
ENDBRANCH   1  22
BRANCH   7  41
HETATM   41  O3  UNL     1      -6.195   5.974  16.416  1.00  0.00    -0.363 OA
HETATM   42  H21 UNL     1      -5.989   6.816  16.859  1.00  0.00     0.213 HD
ENDBRANCH   7  41
BRANCH  19  43
HETATM   43  O8  UNL     1      -8.189   6.263  12.495  1.00  0.00    -0.392 OA
HETATM   44  H35 UNL     1      -9.114   6.541  12.628  1.00  0.00     0.210 HD
ENDBRANCH  19  43
BRANCH  18  45
HETATM   45  O7  UNL     1      -7.842   4.257  15.547  1.00  0.00    -0.387 OA
HETATM   46  H33 UNL     1      -7.222   4.434  16.286  1.00  0.00     0.210 HD
ENDBRANCH  18  45
TORSDOF 15
ENDMDL
MODEL 3
REMARK minimizedAffinity -8.22203445
REMARK CNNscore 0.236953929
REMARK CNNaffinity 6.01914024
REMARK  15 active torsions:
REMARK  status: ('A' for Active; 'I' for Inactive)
REMARK    1  A    between atoms: C2_2  and  C26_34 
REMARK    2  A    between atoms: C3_3  and  C4_4 
REMARK    3  A    between atoms: C5_5  and  C6_6 
REMARK    4  A    between atoms: C6_6  and  C7_7 
REMARK    5  A    between atoms: C7_7  and  O1_8 
REMARK    6  A    between atoms: C7_7  and  C8_9 
REMARK    7  A    between atoms: C8_9  and  C9_10 
REMARK    8  A    between atoms: C14_16  and  O3_17 
REMARK    9  A    between atoms: C22_28  and  O7_29 
REMARK   10  A    between atoms: C23_30  and  O8_31 
REMARK   11  A    between atoms: C26_34  and  C27_35 
REMARK   12  A    between atoms: C28_36  and  C29_37 
REMARK   13  A    between atoms: C30_38  and  C31_39 
REMARK   14  A    between atoms: C31_39  and  C32_40 
REMARK   15  A    between atoms: C32_40  and  O9_41 
ROOT
HETATM    1  C9  UNL     1      -8.051   6.097  14.582  1.00  0.00     0.134 C 
HETATM    2  C10 UNL     1      -7.334   7.504  14.582  1.00  0.00     0.033 C 
HETATM    3  C11 UNL     1      -6.114   7.685  15.550  1.00  0.00     0.005 C 
HETATM    4  C12 UNL     1      -4.945   8.492  14.917  1.00  0.00     0.032 C 
HETATM    5  C13 UNL     1      -3.486   7.993  15.220  1.00  0.00     0.131 C 
HETATM    6  O2  UNL     1      -3.294   6.797  14.475  1.00  0.00    -0.347 OA
HETATM    7  C14 UNL     1      -2.034   6.151  14.435  1.00  0.00     0.191 C 
HETATM    8  C15 UNL     1      -1.845   5.484  13.010  1.00  0.00     0.074 C 
HETATM    9  C16 UNL     1      -2.727   4.265  12.543  1.00  0.00     0.037 C 
HETATM   10  C17 UNL     1      -4.131   4.536  11.905  1.00  0.00     0.122 C 
HETATM   11  C18 UNL     1      -4.824   5.699  12.535  1.00  0.00     0.035 C 
HETATM   12  C19 UNL     1      -5.156   5.014  13.846  1.00  0.00     0.045 C 
HETATM   13  C20 UNL     1      -5.851   3.787  13.345  1.00  0.00     0.221 C 
HETATM   14  O4  UNL     1      -5.072   3.445  12.174  1.00  0.00    -0.371 OA
HETATM   15  C21 UNL     1      -7.386   4.078  13.323  1.00  0.00     0.288 C 
HETATM   16  O5  UNL     1      -8.241   3.198  13.285  1.00  0.00    -0.262 OA
HETATM   17  O6  UNL     1      -7.715   5.412  13.316  1.00  0.00    -0.314 OA
HETATM   18  C22 UNL     1      -0.866   7.122  14.782  1.00  0.00     0.209 C 
HETATM   19  C23 UNL     1      -1.131   8.540  14.283  1.00  0.00     0.158 C 
HETATM   20  C24 UNL     1      -2.481   9.093  14.785  1.00  0.00     0.042 C 
HETATM   21  C25 UNL     1      -2.271  10.083  15.940  1.00  0.00     0.015 C 
ENDROOT
BRANCH   1  22
HETATM   22  C8  UNL     1      -9.580   6.287  14.604  1.00  0.00     0.064 C 
BRANCH  22  23
HETATM   23  C7  UNL     1     -10.088   7.147  13.435  1.00  0.00     0.124 C 
BRANCH  23  24
HETATM   24  C6  UNL     1     -11.609   7.406  13.482  1.00  0.00     0.059 C 
BRANCH  24  25
HETATM   25  C5  UNL     1     -12.342   6.674  14.581  1.00  0.00    -0.024 C 
HETATM   26  C4  UNL     1     -13.646   6.359  14.664  1.00  0.00    -0.004 C 
BRANCH  26  27
HETATM   27  C3  UNL     1     -14.669   6.644  13.682  1.00  0.00     0.002 C 
HETATM   28  C2  UNL     1     -15.902   6.098  13.611  1.00  0.00    -0.080 C 
HETATM   29  C1  UNL     1     -16.844   6.518  12.508  1.00  0.00     0.043 C 
BRANCH  28  30
HETATM   30  C26 UNL     1     -16.463   5.047  14.545  1.00  0.00     0.060 C 
BRANCH  30  31
HETATM   31  C27 UNL     1     -17.269   4.017  13.802  1.00  0.00    -0.022 C 
HETATM   32  C28 UNL     1     -17.060   2.692  13.694  1.00  0.00    -0.004 C 
BRANCH  32  33
HETATM   33  C29 UNL     1     -15.949   1.956  14.250  1.00  0.00    -0.004 C 
HETATM   34  C30 UNL     1     -15.423   0.824  13.752  1.00  0.00    -0.025 C 
BRANCH  34  35
HETATM   35  C31 UNL     1     -15.884   0.020  12.562  1.00  0.00     0.053 C 
BRANCH  35  36
HETATM   36  C32 UNL     1     -15.931  -1.478  12.854  1.00  0.00     0.168 C 
BRANCH  36  37
HETATM   37  O9  UNL     1     -14.733  -1.907  13.490  1.00  0.00    -0.401 OA
HETATM   38  H50 UNL     1     -14.669  -1.425  14.336  1.00  0.00     0.209 HD
ENDBRANCH  36  37
ENDBRANCH  35  36
ENDBRANCH  34  35
ENDBRANCH  32  33
ENDBRANCH  30  31
ENDBRANCH  28  30
ENDBRANCH  26  27
ENDBRANCH  24  25
ENDBRANCH  23  24
BRANCH  23  39
HETATM   39  O1  UNL     1      -9.705   6.518  12.209  1.00  0.00    -0.395 OA
HETATM   40  H10 UNL     1     -10.492   6.106  11.814  1.00  0.00     0.210 HD
ENDBRANCH  23  39
ENDBRANCH  22  23
ENDBRANCH   1  22
BRANCH   7  41
HETATM   41  O3  UNL     1      -1.997   5.148  15.467  1.00  0.00    -0.363 OA
HETATM   42  H21 UNL     1      -2.054   4.278  15.034  1.00  0.00     0.213 HD
ENDBRANCH   7  41
BRANCH  19  43
HETATM   43  O8  UNL     1      -1.111   8.582  12.849  1.00  0.00    -0.392 OA
HETATM   44  H35 UNL     1      -0.176   8.541  12.575  1.00  0.00     0.210 HD
ENDBRANCH  19  43
BRANCH  18  45
HETATM   45  O7  UNL     1      -0.692   7.185  16.215  1.00  0.00    -0.387 OA
HETATM   46  H33 UNL     1      -1.088   6.352  16.547  1.00  0.00     0.210 HD
ENDBRANCH  18  45
TORSDOF 15
ENDMDL
MODEL 4
REMARK minimizedAffinity -8.31625462
REMARK CNNscore 0.228564963
REMARK CNNaffinity 6.50127411
REMARK  15 active torsions:
REMARK  status: ('A' for Active; 'I' for Inactive)
REMARK    1  A    between atoms: C2_2  and  C26_34 
REMARK    2  A    between atoms: C3_3  and  C4_4 
REMARK    3  A    between atoms: C5_5  and  C6_6 
REMARK    4  A    between atoms: C6_6  and  C7_7 
REMARK    5  A    between atoms: C7_7  and  O1_8 
REMARK    6  A    between atoms: C7_7  and  C8_9 
REMARK    7  A    between atoms: C8_9  and  C9_10 
REMARK    8  A    between atoms: C14_16  and  O3_17 
REMARK    9  A    between atoms: C22_28  and  O7_29 
REMARK   10  A    between atoms: C23_30  and  O8_31 
REMARK   11  A    between atoms: C26_34  and  C27_35 
REMARK   12  A    between atoms: C28_36  and  C29_37 
REMARK   13  A    between atoms: C30_38  and  C31_39 
REMARK   14  A    between atoms: C31_39  and  C32_40 
REMARK   15  A    between atoms: C32_40  and  O9_41 
ROOT
HETATM    1  C9  UNL     1      -6.124   5.588  14.074  1.00  0.00     0.134 C 
HETATM    2  C10 UNL     1      -5.416   6.990  13.915  1.00  0.00     0.033 C 
HETATM    3  C11 UNL     1      -4.085   7.214  14.713  1.00  0.00     0.005 C 
HETATM    4  C12 UNL     1      -3.006   7.984  13.899  1.00  0.00     0.032 C 
HETATM    5  C13 UNL     1      -1.519   7.496  14.041  1.00  0.00     0.131 C 
HETATM    6  O2  UNL     1      -1.419   6.264  13.338  1.00  0.00    -0.347 OA
HETATM    7  C14 UNL     1      -0.172   5.612  13.172  1.00  0.00     0.191 C 
HETATM    8  C15 UNL     1      -0.162   4.874  11.770  1.00  0.00     0.074 C 
HETATM    9  C16 UNL     1      -1.092   3.638  11.478  1.00  0.00     0.037 C 
HETATM   10  C17 UNL     1      -2.566   3.882  11.008  1.00  0.00     0.122 C 
HETATM   11  C18 UNL     1      -3.178   5.077  11.661  1.00  0.00     0.035 C 
HETATM   12  C19 UNL     1      -3.341   4.458  13.035  1.00  0.00     0.045 C 
HETATM   13  C20 UNL     1      -4.090   3.211  12.687  1.00  0.00     0.221 C 
HETATM   14  O4  UNL     1      -3.463   2.809  11.446  1.00  0.00    -0.371 OA
HETATM   15  C21 UNL     1      -5.617   3.507  12.843  1.00  0.00     0.288 C 
HETATM   16  O5  UNL     1      -6.468   2.630  12.956  1.00  0.00    -0.262 OA
HETATM   17  O6  UNL     1      -5.947   4.840  12.811  1.00  0.00    -0.314 OA
HETATM   18  C22 UNL     1       1.028   6.594  13.322  1.00  0.00     0.209 C 
HETATM   19  C23 UNL     1       0.699   7.987  12.791  1.00  0.00     0.158 C 
HETATM   20  C24 UNL     1      -0.579   8.569  13.430  1.00  0.00     0.042 C 
HETATM   21  C25 UNL     1      -0.228   9.613  14.499  1.00  0.00     0.015 C 
ENDROOT
BRANCH   1  22
HETATM   22  C8  UNL     1      -7.638   5.785  14.278  1.00  0.00     0.064 C 
BRANCH  22  23
HETATM   23  C7  UNL     1      -8.460   5.389  13.040  1.00  0.00     0.124 C 
BRANCH  23  24
HETATM   24  C6  UNL     1      -9.685   6.298  12.803  1.00  0.00     0.059 C 
BRANCH  24  25
HETATM   25  C5  UNL     1     -10.100   7.124  13.998  1.00  0.00    -0.024 C 
HETATM   26  C4  UNL     1     -11.304   7.206  14.591  1.00  0.00    -0.004 C 
BRANCH  26  27
HETATM   27  C3  UNL     1     -12.504   6.490  14.219  1.00  0.00     0.002 C 
HETATM   28  C2  UNL     1     -13.725   6.599  14.784  1.00  0.00    -0.080 C 
HETATM   29  C1  UNL     1     -14.870   5.765  14.261  1.00  0.00     0.043 C 
BRANCH  28  30
HETATM   30  C26 UNL     1     -14.085   7.493  15.952  1.00  0.00     0.060 C 
BRANCH  30  31
HETATM   31  C27 UNL     1     -15.324   8.298  15.672  1.00  0.00    -0.022 C 
HETATM   32  C28 UNL     1     -15.556   9.183  14.686  1.00  0.00    -0.004 C 
BRANCH  32  33
HETATM   33  C29 UNL     1     -14.613   9.599  13.675  1.00  0.00    -0.004 C 
HETATM   34  C30 UNL     1     -14.918  10.031  12.439  1.00  0.00    -0.025 C 
BRANCH  34  35
HETATM   35  C31 UNL     1     -16.276  10.126  11.788  1.00  0.00     0.053 C 
BRANCH  35  36
HETATM   36  C32 UNL     1     -16.841   8.756  11.420  1.00  0.00     0.168 C 
BRANCH  36  37
HETATM   37  O9  UNL     1     -15.799   7.863  11.044  1.00  0.00    -0.401 OA
HETATM   38  H50 UNL     1     -15.215   7.762  11.819  1.00  0.00     0.209 HD
ENDBRANCH  36  37
ENDBRANCH  35  36
ENDBRANCH  34  35
ENDBRANCH  32  33
ENDBRANCH  30  31
ENDBRANCH  28  30
ENDBRANCH  26  27
ENDBRANCH  24  25
ENDBRANCH  23  24
BRANCH  23  39
HETATM   39  O1  UNL     1      -8.847   4.018  13.172  1.00  0.00    -0.395 OA
HETATM   40  H10 UNL     1      -9.792   3.985  13.400  1.00  0.00     0.210 HD
ENDBRANCH  23  39
ENDBRANCH  22  23
ENDBRANCH   1  22
BRANCH   7  41
HETATM   41  O3  UNL     1      -0.004   4.661  14.240  1.00  0.00    -0.363 OA
HETATM   42  H21 UNL     1      -0.113   3.771  13.861  1.00  0.00     0.213 HD
ENDBRANCH   7  41
BRANCH  19  43
HETATM   43  O8  UNL     1       0.539   7.958  11.365  1.00  0.00    -0.392 OA
HETATM   44  H35 UNL     1       1.432   7.900  10.979  1.00  0.00     0.210 HD
ENDBRANCH  19  43
BRANCH  18  45
HETATM   45  O7  UNL     1       1.380   6.727  14.718  1.00  0.00    -0.387 OA
HETATM   46  H33 UNL     1       1.030   5.912  15.137  1.00  0.00     0.210 HD
ENDBRANCH  18  45
TORSDOF 15
ENDMDL
MODEL 5
REMARK minimizedAffinity -8.39400101
REMARK CNNscore 0.208553091
REMARK CNNaffinity 6.5911293
REMARK  15 active torsions:
REMARK  status: ('A' for Active; 'I' for Inactive)
REMARK    1  A    between atoms: C2_2  and  C26_34 
REMARK    2  A    between atoms: C3_3  and  C4_4 
REMARK    3  A    between atoms: C5_5  and  C6_6 
REMARK    4  A    between atoms: C6_6  and  C7_7 
REMARK    5  A    between atoms: C7_7  and  O1_8 
REMARK    6  A    between atoms: C7_7  and  C8_9 
REMARK    7  A    between atoms: C8_9  and  C9_10 
REMARK    8  A    between atoms: C14_16  and  O3_17 
REMARK    9  A    between atoms: C22_28  and  O7_29 
REMARK   10  A    between atoms: C23_30  and  O8_31 
REMARK   11  A    between atoms: C26_34  and  C27_35 
REMARK   12  A    between atoms: C28_36  and  C29_37 
REMARK   13  A    between atoms: C30_38  and  C31_39 
REMARK   14  A    between atoms: C31_39  and  C32_40 
REMARK   15  A    between atoms: C32_40  and  O9_41 
ROOT
HETATM    1  C9  UNL     1      -1.372   6.256  12.399  1.00  0.00     0.134 C 
HETATM    2  C10 UNL     1      -2.587   5.516  11.713  1.00  0.00     0.033 C 
HETATM    3  C11 UNL     1      -3.453   4.572  12.616  1.00  0.00     0.005 C 
HETATM    4  C12 UNL     1      -4.977   4.676  12.326  1.00  0.00     0.032 C 
HETATM    5  C13 UNL     1      -5.944   4.648  13.565  1.00  0.00     0.131 C 
HETATM    6  O2  UNL     1      -5.807   5.900  14.225  1.00  0.00    -0.347 OA
HETATM    7  C14 UNL     1      -6.634   6.245  15.323  1.00  0.00     0.191 C 
HETATM    8  C15 UNL     1      -6.905   7.806  15.290  1.00  0.00     0.074 C 
HETATM    9  C16 UNL     1      -5.755   8.851  15.549  1.00  0.00     0.037 C 
HETATM   10  C17 UNL     1      -4.831   9.282  14.360  1.00  0.00     0.122 C 
HETATM   11  C18 UNL     1      -4.552   8.156  13.422  1.00  0.00     0.035 C 
HETATM   12  C19 UNL     1      -3.617   7.394  14.340  1.00  0.00     0.045 C 
HETATM   13  C20 UNL     1      -2.634   8.468  14.684  1.00  0.00     0.221 C 
HETATM   14  O4  UNL     1      -3.483   9.633  14.817  1.00  0.00    -0.371 OA
HETATM   15  C21 UNL     1      -1.437   8.364  13.684  1.00  0.00     0.288 C 
HETATM   16  O5  UNL     1      -0.337   8.867  13.892  1.00  0.00    -0.262 OA
HETATM   17  O6  UNL     1      -1.719   7.687  12.523  1.00  0.00    -0.314 OA
HETATM   18  C22 UNL     1      -7.959   5.425  15.340  1.00  0.00     0.209 C 
HETATM   19  C23 UNL     1      -8.466   5.125  13.933  1.00  0.00     0.158 C 
HETATM   20  C24 UNL     1      -7.396   4.434  13.062  1.00  0.00     0.042 C 
HETATM   21  C25 UNL     1      -7.681   2.930  12.937  1.00  0.00     0.015 C 
ENDROOT
BRANCH   1  22
HETATM   22  C8  UNL     1      -0.126   6.166  11.497  1.00  0.00     0.064 C 
BRANCH  22  23
HETATM   23  C7  UNL     1       0.861   5.080  11.955  1.00  0.00     0.124 C 
BRANCH  23  24
HETATM   24  C6  UNL     1       1.483   4.287  10.786  1.00  0.00     0.059 C 
BRANCH  24  25
HETATM   25  C5  UNL     1       2.938   4.593  10.518  1.00  0.00    -0.024 C 
HETATM   26  C4  UNL     1       3.494   5.181   9.445  1.00  0.00    -0.004 C 
BRANCH  26  27
HETATM   27  C3  UNL     1       2.804   5.684   8.277  1.00  0.00     0.002 C 
HETATM   28  C2  UNL     1       2.581   6.977   7.958  1.00  0.00    -0.080 C 
HETATM   29  C1  UNL     1       1.836   7.318   6.690  1.00  0.00     0.043 C 
BRANCH  28  30
HETATM   30  C26 UNL     1       2.999   8.179   8.780  1.00  0.00     0.060 C 
BRANCH  30  31
HETATM   31  C27 UNL     1       2.226   8.267  10.067  1.00  0.00    -0.022 C 
HETATM   32  C28 UNL     1       2.683   8.281  11.332  1.00  0.00    -0.004 C 
BRANCH  32  33
HETATM   33  C29 UNL     1       4.062   8.163  11.741  1.00  0.00    -0.004 C 
HETATM   34  C30 UNL     1       4.562   8.503  12.942  1.00  0.00    -0.025 C 
BRANCH  34  35
HETATM   35  C31 UNL     1       3.848   9.138  14.109  1.00  0.00     0.053 C 
BRANCH  35  36
HETATM   36  C32 UNL     1       3.746   8.199  15.310  1.00  0.00     0.168 C 
BRANCH  36  37
HETATM   37  O9  UNL     1       4.978   7.519  15.525  1.00  0.00    -0.401 OA
HETATM   38  H50 UNL     1       5.651   8.199  15.715  1.00  0.00     0.209 HD
ENDBRANCH  36  37
ENDBRANCH  35  36
ENDBRANCH  34  35
ENDBRANCH  32  33
ENDBRANCH  30  31
ENDBRANCH  28  30
ENDBRANCH  26  27
ENDBRANCH  24  25
ENDBRANCH  23  24
BRANCH  23  39
HETATM   39  O1  UNL     1       0.188   4.212  12.872  1.00  0.00    -0.395 OA
HETATM   40  H10 UNL     1      -0.009   3.376  12.418  1.00  0.00     0.210 HD
ENDBRANCH  23  39
ENDBRANCH  22  23
ENDBRANCH   1  22
BRANCH   7  41
HETATM   41  O3  UNL     1      -5.959   5.878  16.541  1.00  0.00    -0.363 OA
HETATM   42  H21 UNL     1      -5.661   6.700  16.970  1.00  0.00     0.213 HD
ENDBRANCH   7  41
BRANCH  19  43
HETATM   43  O8  UNL     1      -8.893   6.330  13.282  1.00  0.00    -0.392 OA
HETATM   44  H35 UNL     1      -9.758   6.569  13.663  1.00  0.00     0.210 HD
ENDBRANCH  19  43
BRANCH  18  45
HETATM   45  O7  UNL     1      -7.744   4.162  16.009  1.00  0.00    -0.387 OA
HETATM   46  H33 UNL     1      -6.958   4.316  16.576  1.00  0.00     0.210 HD
ENDBRANCH  18  45
TORSDOF 15
ENDMDL
MODEL 6
REMARK minimizedAffinity -8.70014095
REMARK CNNscore 0.187372401
REMARK CNNaffinity 7.01107407
REMARK  15 active torsions:
REMARK  status: ('A' for Active; 'I' for Inactive)
REMARK    1  A    between atoms: C2_2  and  C26_34 
REMARK    2  A    between atoms: C3_3  and  C4_4 
REMARK    3  A    between atoms: C5_5  and  C6_6 
REMARK    4  A    between atoms: C6_6  and  C7_7 
REMARK    5  A    between atoms: C7_7  and  O1_8 
REMARK    6  A    between atoms: C7_7  and  C8_9 
REMARK    7  A    between atoms: C8_9  and  C9_10 
REMARK    8  A    between atoms: C14_16  and  O3_17 
REMARK    9  A    between atoms: C22_28  and  O7_29 
REMARK   10  A    between atoms: C23_30  and  O8_31 
REMARK   11  A    between atoms: C26_34  and  C27_35 
REMARK   12  A    between atoms: C28_36  and  C29_37 
REMARK   13  A    between atoms: C30_38  and  C31_39 
REMARK   14  A    between atoms: C31_39  and  C32_40 
REMARK   15  A    between atoms: C32_40  and  O9_41 
ROOT
HETATM    1  C9  UNL     1      -6.463   4.591  13.032  1.00  0.00     0.134 C 
HETATM    2  C10 UNL     1      -6.068   6.102  13.262  1.00  0.00     0.033 C 
HETATM    3  C11 UNL     1      -5.149   6.423  14.490  1.00  0.00     0.005 C 
HETATM    4  C12 UNL     1      -4.064   7.493  14.179  1.00  0.00     0.032 C 
HETATM    5  C13 UNL     1      -2.632   7.257  14.784  1.00  0.00     0.131 C 
HETATM    6  O2  UNL     1      -2.043   6.193  14.047  1.00  0.00    -0.347 OA
HETATM    7  C14 UNL     1      -0.698   5.806  14.265  1.00  0.00     0.191 C 
HETATM    8  C15 UNL     1      -0.074   5.320  12.892  1.00  0.00     0.074 C 
HETATM    9  C16 UNL     1      -0.564   4.004  12.180  1.00  0.00     0.037 C 
HETATM   10  C17 UNL     1      -1.824   4.059  11.252  1.00  0.00     0.122 C 
HETATM   11  C18 UNL     1      -2.861   5.006  11.759  1.00  0.00     0.035 C 
HETATM   12  C19 UNL     1      -3.317   4.152  12.927  1.00  0.00     0.045 C 
HETATM   13  C20 UNL     1      -3.620   2.866  12.224  1.00  0.00     0.221 C 
HETATM   14  O4  UNL     1      -2.555   2.788  11.247  1.00  0.00    -0.371 OA
HETATM   15  C21 UNL     1      -5.141   2.860  11.865  1.00  0.00     0.288 C 
HETATM   16  O5  UNL     1      -5.767   1.841  11.592  1.00  0.00    -0.262 OA
HETATM   17  O6  UNL     1      -5.729   4.102  11.846  1.00  0.00    -0.314 OA
HETATM   18  C22 UNL     1       0.143   6.946  14.915  1.00  0.00     0.209 C 
HETATM   19  C23 UNL     1      -0.296   8.326  14.436  1.00  0.00     0.158 C 
HETATM   20  C24 UNL     1      -1.807   8.563  14.641  1.00  0.00     0.042 C 
HETATM   21  C25 UNL     1      -2.058   9.465  15.859  1.00  0.00     0.015 C 
ENDROOT
BRANCH   1  22
HETATM   22  C8  UNL     1      -7.966   4.483  12.713  1.00  0.00     0.064 C 
BRANCH  22  23
HETATM   23  C7  UNL     1      -8.623   5.853  12.478  1.00  0.00     0.124 C 
BRANCH  23  24
HETATM   24  C6  UNL     1      -9.680   6.216  13.542  1.00  0.00     0.059 C 
BRANCH  24  25
HETATM   25  C5  UNL     1      -9.115   6.734  14.845  1.00  0.00    -0.024 C 
HETATM   26  C4  UNL     1      -9.585   7.709  15.641  1.00  0.00    -0.004 C 
BRANCH  26  27
HETATM   27  C3  UNL     1     -10.781   8.496  15.433  1.00  0.00     0.002 C 
HETATM   28  C2  UNL     1     -11.322   9.393  16.285  1.00  0.00    -0.080 C 
HETATM   29  C1  UNL     1     -12.585  10.126  15.898  1.00  0.00     0.043 C 
BRANCH  28  30
HETATM   30  C26 UNL     1     -10.790   9.748  17.657  1.00  0.00     0.060 C 
BRANCH  30  31
HETATM   31  C27 UNL     1     -11.893   9.832  18.675  1.00  0.00    -0.022 C 
HETATM   32  C28 UNL     1     -11.918  10.492  19.847  1.00  0.00    -0.004 C 
BRANCH  32  33
HETATM   33  C29 UNL     1     -10.832  11.250  20.421  1.00  0.00    -0.004 C 
HETATM   34  C30 UNL     1     -10.599  11.429  21.734  1.00  0.00    -0.025 C 
BRANCH  34  35
HETATM   35  C31 UNL     1     -11.423  10.955  22.904  1.00  0.00     0.053 C 
BRANCH  35  36
HETATM   36  C32 UNL     1     -10.872   9.672  23.523  1.00  0.00     0.168 C 
BRANCH  36  37
HETATM   37  O9  UNL     1     -10.764   9.798  24.936  1.00  0.00    -0.401 OA
HETATM   38  H50 UNL     1     -11.664   9.949  25.280  1.00  0.00     0.209 HD
ENDBRANCH  36  37
ENDBRANCH  35  36
ENDBRANCH  34  35
ENDBRANCH  32  33
ENDBRANCH  30  31
ENDBRANCH  28  30
ENDBRANCH  26  27
ENDBRANCH  24  25
ENDBRANCH  23  24
BRANCH  23  39
HETATM   39  O1  UNL     1      -9.183   5.869  11.162  1.00  0.00    -0.395 OA
HETATM   40  H10 UNL     1     -10.149   5.789  11.236  1.00  0.00     0.210 HD
ENDBRANCH  23  39
ENDBRANCH  22  23
ENDBRANCH   1  22
BRANCH   7  41
HETATM   41  O3  UNL     1      -0.677   4.738  15.231  1.00  0.00    -0.363 OA
HETATM   42  H21 UNL     1      -0.458   3.916  14.756  1.00  0.00     0.213 HD
ENDBRANCH   7  41
BRANCH  19  43
HETATM   43  O8  UNL     1       0.021   8.503  13.048  1.00  0.00    -0.392 OA
HETATM   44  H35 UNL     1       0.981   8.666  12.993  1.00  0.00     0.210 HD
ENDBRANCH  19  43
BRANCH  18  45
HETATM   45  O7  UNL     1      -0.011   6.909  16.352  1.00  0.00    -0.387 OA
HETATM   46  H33 UNL     1      -0.289   5.988  16.545  1.00  0.00     0.210 HD
ENDBRANCH  18  45
TORSDOF 15
ENDMDL
MODEL 7
REMARK minimizedAffinity -8.81589222
REMARK CNNscore 0.181808129
REMARK CNNaffinity 6.12763357
REMARK  15 active torsions:
REMARK  status: ('A' for Active; 'I' for Inactive)
REMARK    1  A    between atoms: C2_2  and  C26_34 
REMARK    2  A    between atoms: C3_3  and  C4_4 
REMARK    3  A    between atoms: C5_5  and  C6_6 
REMARK    4  A    between atoms: C6_6  and  C7_7 
REMARK    5  A    between atoms: C7_7  and  O1_8 
REMARK    6  A    between atoms: C7_7  and  C8_9 
REMARK    7  A    between atoms: C8_9  and  C9_10 
REMARK    8  A    between atoms: C14_16  and  O3_17 
REMARK    9  A    between atoms: C22_28  and  O7_29 
REMARK   10  A    between atoms: C23_30  and  O8_31 
REMARK   11  A    between atoms: C26_34  and  C27_35 
REMARK   12  A    between atoms: C28_36  and  C29_37 
REMARK   13  A    between atoms: C30_38  and  C31_39 
REMARK   14  A    between atoms: C31_39  and  C32_40 
REMARK   15  A    between atoms: C32_40  and  O9_41 
ROOT
HETATM    1  C9  UNL     1      -5.729   5.720  14.014  1.00  0.00     0.134 C 
HETATM    2  C10 UNL     1      -4.468   4.831  13.679  1.00  0.00     0.033 C 
HETATM    3  C11 UNL     1      -3.553   5.304  12.497  1.00  0.00     0.005 C 
HETATM    4  C12 UNL     1      -2.036   5.126  12.788  1.00  0.00     0.032 C 
HETATM    5  C13 UNL     1      -1.077   6.277  12.313  1.00  0.00     0.131 C 
HETATM    6  O2  UNL     1      -1.293   7.381  13.183  1.00  0.00    -0.347 OA
HETATM    7  C14 UNL     1      -0.495   8.549  13.099  1.00  0.00     0.191 C 
HETATM    8  C15 UNL     1      -0.318   9.156  14.552  1.00  0.00     0.074 C 
HETATM    9  C16 UNL     1      -1.530   9.778  15.342  1.00  0.00     0.037 C 
HETATM   10  C17 UNL     1      -2.471   8.837  16.168  1.00  0.00     0.122 C 
HETATM   11  C18 UNL     1      -2.676   7.516  15.503  1.00  0.00     0.035 C 
HETATM   12  C19 UNL     1      -3.569   8.021  14.387  1.00  0.00     0.045 C 
HETATM   13  C20 UNL     1      -4.617   8.739  15.179  1.00  0.00     0.221 C 
HETATM   14  O4  UNL     1      -3.840   9.355  16.234  1.00  0.00    -0.371 OA
HETATM   15  C21 UNL     1      -5.799   7.747  15.425  1.00  0.00     0.288 C 
HETATM   16  O5  UNL     1      -6.929   8.106  15.743  1.00  0.00    -0.262 OA
HETATM   17  O6  UNL     1      -5.469   6.420  15.290  1.00  0.00    -0.314 OA
HETATM   18  C22 UNL     1       0.876   8.275  12.412  1.00  0.00     0.209 C 
HETATM   19  C23 UNL     1       1.410   6.882  12.733  1.00  0.00     0.158 C 
HETATM   20  C24 UNL     1       0.389   5.774  12.397  1.00  0.00     0.042 C 
HETATM   21  C25 UNL     1       0.764   5.063  11.089  1.00  0.00     0.015 C 
ENDROOT
BRANCH   1  22
HETATM   22  C8  UNL     1      -6.962   4.821  14.231  1.00  0.00     0.064 C 
BRANCH  22  23
HETATM   23  C7  UNL     1      -7.910   4.813  13.021  1.00  0.00     0.124 C 
BRANCH  23  24
HETATM   24  C6  UNL     1      -8.903   5.994  13.015  1.00  0.00     0.059 C 
BRANCH  24  25
HETATM   25  C5  UNL     1      -9.392   6.418  14.381  1.00  0.00    -0.024 C 
HETATM   26  C4  UNL     1     -10.207   7.435  14.708  1.00  0.00    -0.004 C 
BRANCH  26  27
HETATM   27  C3  UNL     1     -10.833   8.370  13.800  1.00  0.00     0.002 C 
HETATM   28  C2  UNL     1     -12.155   8.516  13.566  1.00  0.00    -0.080 C 
HETATM   29  C1  UNL     1     -12.631   9.552  12.575  1.00  0.00     0.043 C 
BRANCH  28  30
HETATM   30  C26 UNL     1     -13.264   7.704  14.202  1.00  0.00     0.060 C 
BRANCH  30  31
HETATM   31  C27 UNL     1     -13.987   6.863  13.187  1.00  0.00    -0.022 C 
HETATM   32  C28 UNL     1     -15.310   6.712  12.997  1.00  0.00    -0.004 C 
BRANCH  32  33
HETATM   33  C29 UNL     1     -16.358   7.313  13.788  1.00  0.00    -0.004 C 
HETATM   34  C30 UNL     1     -17.485   7.872  13.313  1.00  0.00    -0.025 C 
BRANCH  34  35
HETATM   35  C31 UNL     1     -17.900   8.069  11.877  1.00  0.00     0.053 C 
BRANCH  35  36
HETATM   36  C32 UNL     1     -17.322   9.347  11.273  1.00  0.00     0.168 C 
BRANCH  36  37
HETATM   37  O9  UNL     1     -16.196   9.054  10.454  1.00  0.00    -0.401 OA
HETATM   38  H50 UNL     1     -16.509   8.481   9.730  1.00  0.00     0.209 HD
ENDBRANCH  36  37
ENDBRANCH  35  36
ENDBRANCH  34  35
ENDBRANCH  32  33
ENDBRANCH  30  31
ENDBRANCH  28  30
ENDBRANCH  26  27
ENDBRANCH  24  25
ENDBRANCH  23  24
BRANCH  23  39
HETATM   39  O1  UNL     1      -8.595   3.557  12.990  1.00  0.00    -0.395 OA
HETATM   40  H10 UNL     1      -9.510   3.697  13.287  1.00  0.00     0.210 HD
ENDBRANCH  23  39
ENDBRANCH  22  23
ENDBRANCH   1  22
BRANCH   7  41
HETATM   41  O3  UNL     1      -1.155   9.496  12.238  1.00  0.00    -0.363 OA
HETATM   42  H21 UNL     1      -1.505  10.210  12.799  1.00  0.00     0.213 HD
ENDBRANCH   7  41
BRANCH  19  43
HETATM   43  O8  UNL     1       1.768   6.784  14.119  1.00  0.00    -0.392 OA
HETATM   44  H35 UNL     1       2.615   7.256  14.228  1.00  0.00     0.210 HD
ENDBRANCH  19  43
BRANCH  18  45
HETATM   45  O7  UNL     1       0.733   8.372  10.978  1.00  0.00    -0.387 OA
HETATM   46  H33 UNL     1      -0.064   8.929  10.848  1.00  0.00     0.210 HD
ENDBRANCH  18  45
TORSDOF 15
ENDMDL
MODEL 8
REMARK minimizedAffinity -9.18471336
REMARK CNNscore 0.178946525
REMARK CNNaffinity 6.14020729
REMARK  15 active torsions:
REMARK  status: ('A' for Active; 'I' for Inactive)
REMARK    1  A    between atoms: C2_2  and  C26_34 
REMARK    2  A    between atoms: C3_3  and  C4_4 
REMARK    3  A    between atoms: C5_5  and  C6_6 
REMARK    4  A    between atoms: C6_6  and  C7_7 
REMARK    5  A    between atoms: C7_7  and  O1_8 
REMARK    6  A    between atoms: C7_7  and  C8_9 
REMARK    7  A    between atoms: C8_9  and  C9_10 
REMARK    8  A    between atoms: C14_16  and  O3_17 
REMARK    9  A    between atoms: C22_28  and  O7_29 
REMARK   10  A    between atoms: C23_30  and  O8_31 
REMARK   11  A    between atoms: C26_34  and  C27_35 
REMARK   12  A    between atoms: C28_36  and  C29_37 
REMARK   13  A    between atoms: C30_38  and  C31_39 
REMARK   14  A    between atoms: C31_39  and  C32_40 
REMARK   15  A    between atoms: C32_40  and  O9_41 
ROOT
HETATM    1  C9  UNL     1      -1.178   8.674  14.362  1.00  0.00     0.134 C 
HETATM    2  C10 UNL     1      -0.919   7.764  13.097  1.00  0.00     0.033 C 
HETATM    3  C11 UNL     1      -0.101   8.394  11.918  1.00  0.00     0.005 C 
HETATM    4  C12 UNL     1       0.912   7.402  11.277  1.00  0.00     0.032 C 
HETATM    5  C13 UNL     1       2.320   7.976  10.880  1.00  0.00     0.131 C 
HETATM    6  O2  UNL     1       3.034   8.195  12.089  1.00  0.00    -0.347 OA
HETATM    7  C14 UNL     1       4.391   8.602  12.077  1.00  0.00     0.191 C 
HETATM    8  C15 UNL     1       5.130   7.962  13.325  1.00  0.00     0.074 C 
HETATM    9  C16 UNL     1       4.788   8.393  14.800  1.00  0.00     0.037 C 
HETATM   10  C17 UNL     1       3.584   7.716  15.537  1.00  0.00     0.122 C 
HETATM   11  C18 UNL     1       2.447   7.424  14.614  1.00  0.00     0.035 C 
HETATM   12  C19 UNL     1       1.994   8.860  14.439  1.00  0.00     0.045 C 
HETATM   13  C20 UNL     1       1.836   9.274  15.868  1.00  0.00     0.221 C 
HETATM   14  O4  UNL     1       2.959   8.620  16.506  1.00  0.00    -0.371 OA
HETATM   15  C21 UNL     1       0.343   9.047  16.272  1.00  0.00     0.288 C 
HETATM   16  O5  UNL     1      -0.183   9.582  17.244  1.00  0.00    -0.262 OA
HETATM   17  O6  UNL     1      -0.340   8.167  15.469  1.00  0.00    -0.314 OA
HETATM   18  C22 UNL     1       5.099   8.246  10.736  1.00  0.00     0.209 C 
HETATM   19  C23 UNL     1       4.580   6.939  10.143  1.00  0.00     0.158 C 
HETATM   20  C24 UNL     1       3.046   6.941   9.979  1.00  0.00     0.042 C 
HETATM   21  C25 UNL     1       2.653   7.171   8.513  1.00  0.00     0.015 C 
ENDROOT
BRANCH   1  22
HETATM   22  C8  UNL     1      -2.647   8.547  14.808  1.00  0.00     0.064 C 
BRANCH  22  23
HETATM   23  C7  UNL     1      -2.930   7.229  15.548  1.00  0.00     0.124 C 
BRANCH  23  24
HETATM   24  C6  UNL     1      -4.369   6.709  15.342  1.00  0.00     0.059 C 
BRANCH  24  25
HETATM   25  C5  UNL     1      -5.075   7.266  14.127  1.00  0.00    -0.024 C 
HETATM   26  C4  UNL     1      -5.895   6.641  13.266  1.00  0.00    -0.004 C 
BRANCH  26  27
HETATM   27  C3  UNL     1      -6.313   5.257  13.317  1.00  0.00     0.002 C 
HETATM   28  C2  UNL     1      -7.567   4.780  13.169  1.00  0.00    -0.080 C 
HETATM   29  C1  UNL     1      -7.818   3.293  13.255  1.00  0.00     0.043 C 
BRANCH  28  30
HETATM   30  C26 UNL     1      -8.811   5.612  12.936  1.00  0.00     0.060 C 
BRANCH  30  31
HETATM   31  C27 UNL     1      -9.067   6.559  14.076  1.00  0.00    -0.022 C 
HETATM   32  C28 UNL     1     -10.239   7.017  14.552  1.00  0.00    -0.004 C 
BRANCH  32  33
HETATM   33  C29 UNL     1     -11.548   6.724  14.019  1.00  0.00    -0.004 C 
HETATM   34  C30 UNL     1     -12.212   7.454  13.106  1.00  0.00    -0.025 C 
BRANCH  34  35
HETATM   35  C31 UNL     1     -11.802   8.760  12.472  1.00  0.00     0.053 C 
BRANCH  35  36
HETATM   36  C32 UNL     1     -12.796   9.883  12.758  1.00  0.00     0.168 C 
BRANCH  36  37
HETATM   37  O9  UNL     1     -13.932   9.781  11.906  1.00  0.00    -0.401 OA
HETATM   38  H50 UNL     1     -14.360   8.927  12.102  1.00  0.00     0.209 HD
ENDBRANCH  36  37
ENDBRANCH  35  36
ENDBRANCH  34  35
ENDBRANCH  32  33
ENDBRANCH  30  31
ENDBRANCH  28  30
ENDBRANCH  26  27
ENDBRANCH  24  25
ENDBRANCH  23  24
BRANCH  23  39
HETATM   39  O1  UNL     1      -2.639   7.415  16.936  1.00  0.00    -0.395 OA
HETATM   40  H10 UNL     1      -3.478   7.484  17.421  1.00  0.00     0.210 HD
ENDBRANCH  23  39
ENDBRANCH  22  23
ENDBRANCH   1  22
BRANCH   7  41
HETATM   41  O3  UNL     1       4.441  10.039  12.149  1.00  0.00    -0.363 OA
HETATM   42  H21 UNL     1       4.752  10.279  13.040  1.00  0.00     0.213 HD
ENDBRANCH   7  41
BRANCH  19  43
HETATM   43  O8  UNL     1       4.962   5.825  10.964  1.00  0.00    -0.392 OA
HETATM   44  H35 UNL     1       5.907   5.657  10.795  1.00  0.00     0.210 HD
ENDBRANCH  19  43
BRANCH  18  45
HETATM   45  O7  UNL     1       4.865   9.292   9.766  1.00  0.00    -0.387 OA
HETATM   46  H33 UNL     1       4.652  10.083  10.306  1.00  0.00     0.210 HD
ENDBRANCH  18  45
TORSDOF 15
ENDMDL
MODEL 9
REMARK minimizedAffinity -7.77893353
REMARK CNNscore 0.176811814
REMARK CNNaffinity 5.60606527
REMARK  15 active torsions:
REMARK  status: ('A' for Active; 'I' for Inactive)
REMARK    1  A    between atoms: C2_2  and  C26_34 
REMARK    2  A    between atoms: C3_3  and  C4_4 
REMARK    3  A    between atoms: C5_5  and  C6_6 
REMARK    4  A    between atoms: C6_6  and  C7_7 
REMARK    5  A    between atoms: C7_7  and  O1_8 
REMARK    6  A    between atoms: C7_7  and  C8_9 
REMARK    7  A    between atoms: C8_9  and  C9_10 
REMARK    8  A    between atoms: C14_16  and  O3_17 
REMARK    9  A    between atoms: C22_28  and  O7_29 
REMARK   10  A    between atoms: C23_30  and  O8_31 
REMARK   11  A    between atoms: C26_34  and  C27_35 
REMARK   12  A    between atoms: C28_36  and  C29_37 
REMARK   13  A    between atoms: C30_38  and  C31_39 
REMARK   14  A    between atoms: C31_39  and  C32_40 
REMARK   15  A    between atoms: C32_40  and  O9_41 
ROOT
HETATM    1  C9  UNL     1      -0.313  10.978  17.539  1.00  0.00     0.134 C 
HETATM    2  C10 UNL     1      -0.217  12.084  18.662  1.00  0.00     0.033 C 
HETATM    3  C11 UNL     1       0.434  11.665  20.025  1.00  0.00     0.005 C 
HETATM    4  C12 UNL     1       1.360  12.761  20.624  1.00  0.00     0.032 C 
HETATM    5  C13 UNL     1       2.700  12.281  21.291  1.00  0.00     0.131 C 
HETATM    6  O2  UNL     1       3.565  11.879  20.237  1.00  0.00    -0.347 OA
HETATM    7  C14 UNL     1       4.906  11.499  20.493  1.00  0.00     0.191 C 
HETATM    8  C15 UNL     1       5.807  11.940  19.266  1.00  0.00     0.074 C 
HETATM    9  C16 UNL     1       5.660  11.271  17.848  1.00  0.00     0.037 C 
HETATM   10  C17 UNL     1       4.568  11.803  16.860  1.00  0.00     0.122 C 
HETATM   11  C18 UNL     1       3.322  12.223  17.566  1.00  0.00     0.035 C 
HETATM   12  C19 UNL     1       2.840  10.828  17.911  1.00  0.00     0.045 C 
HETATM   13  C20 UNL     1       2.868  10.186  16.559  1.00  0.00     0.221 C 
HETATM   14  O4  UNL     1       4.070  10.745  15.976  1.00  0.00    -0.371 OA
HETATM   15  C21 UNL     1       1.444  10.323  15.931  1.00  0.00     0.288 C 
HETATM   16  O5  UNL     1       1.046   9.630  14.999  1.00  0.00    -0.262 OA
HETATM   17  O6  UNL     1       0.667  11.312  16.484  1.00  0.00    -0.314 OA
HETATM   18  C22 UNL     1       5.433  12.078  21.840  1.00  0.00     0.209 C 
HETATM   19  C23 UNL     1       4.850  13.456  22.139  1.00  0.00     0.158 C 
HETATM   20  C24 UNL     1       3.307  13.458  22.099  1.00  0.00     0.042 C 
HETATM   21  C25 UNL     1       2.723  13.462  23.519  1.00  0.00     0.015 C 
ENDROOT
BRANCH   1  22
HETATM   22  C8  UNL     1      -1.710  11.010  16.889  1.00  0.00     0.064 C 
BRANCH  22  23
HETATM   23  C7  UNL     1      -2.437   9.658  16.979  1.00  0.00     0.124 C 
BRANCH  23  24
HETATM   24  C6  UNL     1      -3.598   9.520  15.972  1.00  0.00     0.059 C 
BRANCH  24  25
HETATM   25  C5  UNL     1      -3.865   8.108  15.504  1.00  0.00    -0.024 C 
HETATM   26  C4  UNL     1      -5.043   7.502  15.277  1.00  0.00    -0.004 C 
BRANCH  26  27
HETATM   27  C3  UNL     1      -6.359   8.086  15.417  1.00  0.00     0.002 C 
HETATM   28  C2  UNL     1      -7.546   7.477  15.210  1.00  0.00    -0.080 C 
HETATM   29  C1  UNL     1      -8.829   8.249  15.406  1.00  0.00     0.043 C 
BRANCH  28  30
HETATM   30  C26 UNL     1      -7.741   6.043  14.764  1.00  0.00     0.060 C 
BRANCH  30  31
HETATM   31  C27 UNL     1      -8.300   5.967  13.370  1.00  0.00    -0.022 C 
HETATM   32  C28 UNL     1      -8.475   4.890  12.583  1.00  0.00    -0.004 C 
BRANCH  32  33
HETATM   33  C29 UNL     1      -8.105   3.532  12.902  1.00  0.00    -0.004 C 
HETATM   34  C30 UNL     1      -6.887   2.985  12.740  1.00  0.00    -0.025 C 
BRANCH  34  35
HETATM   35  C31 UNL     1      -5.652   3.609  12.139  1.00  0.00     0.053 C 
BRANCH  35  36
HETATM   36  C32 UNL     1      -5.180   2.875  10.885  1.00  0.00     0.168 C 
BRANCH  36  37
HETATM   37  O9  UNL     1      -4.810   1.537  11.193  1.00  0.00    -0.401 OA
HETATM   38  H50 UNL     1      -5.606   1.090  11.535  1.00  0.00     0.209 HD
ENDBRANCH  36  37
ENDBRANCH  35  36
ENDBRANCH  34  35
ENDBRANCH  32  33
ENDBRANCH  30  31
ENDBRANCH  28  30
ENDBRANCH  26  27
ENDBRANCH  24  25
ENDBRANCH  23  24
BRANCH  23  39
HETATM   39  O1  UNL     1      -2.891   9.474  18.323  1.00  0.00    -0.395 OA
HETATM   40  H10 UNL     1      -3.852   9.618  18.348  1.00  0.00     0.210 HD
ENDBRANCH  23  39
ENDBRANCH  22  23
ENDBRANCH   1  22
BRANCH   7  41
HETATM   41  O3  UNL     1       4.955  10.070  20.663  1.00  0.00    -0.363 OA
HETATM   42  H21 UNL     1       5.379   9.694  19.871  1.00  0.00     0.213 HD
ENDBRANCH   7  41
BRANCH  19  43
HETATM   43  O8  UNL     1       5.344  14.427  21.206  1.00  0.00    -0.392 OA
HETATM   44  H35 UNL     1       6.260  14.635  21.469  1.00  0.00     0.210 HD
ENDBRANCH  19  43
BRANCH  18  45
HETATM   45  O7  UNL     1       5.067  11.199  22.927  1.00  0.00    -0.387 OA
HETATM   46  H33 UNL     1       4.920  10.328  22.499  1.00  0.00     0.210 HD
ENDBRANCH  18  45
TORSDOF 15
ENDMDL
