MODEL 1
REMARK minimizedAffinity -8.72297001
REMARK  12 active torsions:
REMARK  status: ('A' for Active; 'I' for Inactive)
REMARK    1  A    between atoms: C2_2  and  O1_3 
REMARK    2  A    between atoms: C2_2  and  C3_4 
REMARK    3  A    between atoms: C4_5  and  C5_6 
REMARK    4  A    between atoms: C5_6  and  O2_7 
REMARK    5  A    between atoms: C8_10  and  O3_11 
REMARK    6  A    between atoms: O3_11  and  C9_12 
REMARK    7  A    between atoms: C10_14  and  C11_15 
REMARK    8  A    between atoms: C11_15  and  O5_16 
REMARK    9  A    between atoms: C12_17  and  O6_18 
REMARK   10  A    between atoms: C13_19  and  O7_20 
REMARK   11  A    between atoms: C14_21  and  O8_22 
REMARK   12  A    between atoms: C15_23  and  O9_24 
ROOT
HETATM    1  C5  UNL     1      -2.117  50.698 -20.869  1.00  0.00     0.088 C 
HETATM    2  C6  UNL     1      -1.317  51.369 -22.031  1.00  0.00     0.052 C 
HETATM    3  C7  UNL     1       0.186  51.577 -21.775  1.00  0.00     0.016 C 
HETATM    4  C8  UNL     1      -1.498  50.660 -23.402  1.00  0.00     0.160 C 
HETATM    5  C15 UNL     1      -2.810  49.855 -23.478  1.00  0.00     0.148 C 
HETATM    6  C16 UNL     1      -2.931  48.796 -22.368  1.00  0.00     0.046 C 
HETATM    7  C17 UNL     1      -2.228  49.139 -21.021  1.00  0.00    -0.010 C 
HETATM    8  C18 UNL     1      -3.078  48.512 -19.884  1.00  0.00     0.018 C 
HETATM    9  C19 UNL     1      -0.858  48.424 -20.981  1.00  0.00     0.018 C 
ENDROOT
BRANCH   4  10
HETATM   10  O3  UNL     1      -1.442  51.713 -24.387  1.00  0.00    -0.350 OA
BRANCH  10  11
HETATM   11  C9  UNL     1      -0.774  51.370 -25.600  1.00  0.00     0.292 C 
HETATM   12  O4  UNL     1       0.568  51.854 -25.545  1.00  0.00    -0.348 OA
HETATM   13  C10 UNL     1       0.709  53.279 -25.536  1.00  0.00     0.179 C 
HETATM   14  C12 UNL     1      -0.374  54.050 -26.319  1.00  0.00     0.180 C 
HETATM   15  C13 UNL     1      -0.909  53.154 -27.435  1.00  0.00     0.183 C 
HETATM   16  C14 UNL     1      -1.567  51.922 -26.810  1.00  0.00     0.204 C 
BRANCH  13  17
HETATM   17  C11 UNL     1       0.846  53.816 -24.104  1.00  0.00     0.198 C 
BRANCH  17  18
HETATM   18  O5  UNL     1       1.363  55.149 -24.117  1.00  0.00    -0.398 OA
HETATM   19  H18 UNL     1       2.285  55.099 -23.806  1.00  0.00     0.209 HD
ENDBRANCH  17  18
ENDBRANCH  13  17
BRANCH  14  20
HETATM   20  O6  UNL     1       0.196  55.259 -26.842  1.00  0.00    -0.390 OA
HETATM   21  H20 UNL     1       0.464  55.780 -26.058  1.00  0.00     0.210 HD
ENDBRANCH  14  20
BRANCH  15  22
HETATM   22  O7  UNL     1      -1.901  53.836 -28.221  1.00  0.00    -0.390 OA
HETATM   23  H22 UNL     1      -2.138  53.209 -28.933  1.00  0.00     0.210 HD
ENDBRANCH  15  22
BRANCH  16  24
HETATM   24  O8  UNL     1      -1.734  50.923 -27.836  1.00  0.00    -0.388 OA
HETATM   25  H24 UNL     1      -2.175  50.174 -27.381  1.00  0.00     0.210 HD
ENDBRANCH  16  24
ENDBRANCH  10  11
ENDBRANCH   4  10
BRANCH   5  26
HETATM   26  O9  UNL     1      -2.930  49.163 -24.737  1.00  0.00    -0.393 OA
HETATM   27  H26 UNL     1      -3.771  48.666 -24.691  1.00  0.00     0.210 HD
ENDBRANCH   5  26
BRANCH   1  28
HETATM   28  C4  UNL     1      -1.639  51.173 -19.505  1.00  0.00     0.010 C 
HETATM   29  C3  UNL     1      -0.364  51.486 -19.204  1.00  0.00     0.003 C 
BRANCH  29  30
HETATM   30  C2  UNL     1       0.108  51.947 -17.858  1.00  0.00     0.136 C 
HETATM   31  C1  UNL     1       0.560  50.781 -16.992  1.00  0.00     0.043 C 
BRANCH  30  32
HETATM   32  O1  UNL     1       1.205  52.831 -18.069  1.00  0.00    -0.392 OA
HETATM   33  H5  UNL     1       1.947  52.306 -18.414  1.00  0.00     0.210 HD
ENDBRANCH  30  32
ENDBRANCH  29  30
ENDBRANCH   1  28
BRANCH   1  34
HETATM   34  O2  UNL     1      -3.470  51.195 -21.012  1.00  0.00    -0.385 OA
HETATM   35  H8  UNL     1      -3.916  51.080 -20.155  1.00  0.00     0.211 HD
ENDBRANCH   1  34
TORSDOF 12
ENDMDL
MODEL 2
REMARK minimizedAffinity -8.57191467
REMARK  12 active torsions:
REMARK  status: ('A' for Active; 'I' for Inactive)
REMARK    1  A    between atoms: C2_2  and  O1_3 
REMARK    2  A    between atoms: C2_2  and  C3_4 
REMARK    3  A    between atoms: C4_5  and  C5_6 
REMARK    4  A    between atoms: C5_6  and  O2_7 
REMARK    5  A    between atoms: C8_10  and  O3_11 
REMARK    6  A    between atoms: O3_11  and  C9_12 
REMARK    7  A    between atoms: C10_14  and  C11_15 
REMARK    8  A    between atoms: C11_15  and  O5_16 
REMARK    9  A    between atoms: C12_17  and  O6_18 
REMARK   10  A    between atoms: C13_19  and  O7_20 
REMARK   11  A    between atoms: C14_21  and  O8_22 
REMARK   12  A    between atoms: C15_23  and  O9_24 
ROOT
HETATM    1  C5  UNL     1      -3.485  49.277 -23.822  1.00  0.00     0.088 C 
HETATM    2  C6  UNL     1      -2.906  50.726 -23.875  1.00  0.00     0.052 C 
HETATM    3  C7  UNL     1      -3.371  51.589 -25.062  1.00  0.00     0.016 C 
HETATM    4  C8  UNL     1      -3.115  51.529 -22.560  1.00  0.00     0.160 C 
HETATM    5  C15 UNL     1      -3.300  50.612 -21.335  1.00  0.00     0.148 C 
HETATM    6  C16 UNL     1      -4.473  49.629 -21.491  1.00  0.00     0.046 C 
HETATM    7  C17 UNL     1      -4.785  49.167 -22.946  1.00  0.00    -0.010 C 
HETATM    8  C18 UNL     1      -5.300  47.705 -22.867  1.00  0.00     0.018 C 
HETATM    9  C19 UNL     1      -5.960  50.010 -23.492  1.00  0.00     0.018 C 
ENDROOT
BRANCH   4  10
HETATM   10  O3  UNL     1      -1.953  52.377 -22.442  1.00  0.00    -0.350 OA
BRANCH  10  11
HETATM   11  C9  UNL     1      -0.747  51.824 -22.965  1.00  0.00     0.292 C 
HETATM   12  O4  UNL     1       0.088  51.419 -21.880  1.00  0.00    -0.348 OA
HETATM   13  C10 UNL     1       0.593  52.480 -21.062  1.00  0.00     0.179 C 
HETATM   14  C12 UNL     1       0.852  53.810 -21.800  1.00  0.00     0.180 C 
HETATM   15  C13 UNL     1       1.159  53.510 -23.266  1.00  0.00     0.183 C 
HETATM   16  C14 UNL     1      -0.064  52.848 -23.904  1.00  0.00     0.204 C 
BRANCH  13  17
HETATM   17  C11 UNL     1      -0.287  52.695 -19.822  1.00  0.00     0.198 C 
BRANCH  17  18
HETATM   18  O5  UNL     1       0.251  53.735 -19.001  1.00  0.00    -0.398 OA
HETATM   19  H18 UNL     1       0.634  53.306 -18.215  1.00  0.00     0.209 HD
ENDBRANCH  17  18
ENDBRANCH  13  17
BRANCH  14  20
HETATM   20  O6  UNL     1       1.940  54.496 -21.163  1.00  0.00    -0.390 OA
HETATM   21  H20 UNL     1       1.632  54.684 -20.253  1.00  0.00     0.210 HD
ENDBRANCH  14  20
BRANCH  15  22
HETATM   22  O7  UNL     1       1.442  54.715 -23.997  1.00  0.00    -0.390 OA
HETATM   23  H22 UNL     1       1.678  54.419 -24.898  1.00  0.00     0.210 HD
ENDBRANCH  15  22
BRANCH  16  24
HETATM   24  O8  UNL     1       0.342  52.240 -25.147  1.00  0.00    -0.388 OA
HETATM   25  H24 UNL     1      -0.483  51.855 -25.513  1.00  0.00     0.210 HD
ENDBRANCH  16  24
ENDBRANCH  10  11
ENDBRANCH   4  10
BRANCH   5  26
HETATM   26  O9  UNL     1      -3.546  51.377 -20.139  1.00  0.00    -0.393 OA
HETATM   27  H26 UNL     1      -3.671  50.722 -19.423  1.00  0.00     0.210 HD
ENDBRANCH   5  26
BRANCH   1  28
HETATM   28  C4  UNL     1      -3.597  48.661 -25.208  1.00  0.00     0.010 C 
HETATM   29  C3  UNL     1      -3.756  49.360 -26.349  1.00  0.00     0.003 C 
BRANCH  29  30
HETATM   30  C2  UNL     1      -3.874  48.752 -27.714  1.00  0.00     0.136 C 
HETATM   31  C1  UNL     1      -5.181  47.992 -27.879  1.00  0.00     0.043 C 
BRANCH  30  32
HETATM   32  O1  UNL     1      -3.823  49.815 -28.661  1.00  0.00    -0.392 OA
HETATM   33  H5  UNL     1      -4.636  50.339 -28.563  1.00  0.00     0.210 HD
ENDBRANCH  30  32
ENDBRANCH  29  30
ENDBRANCH   1  28
BRANCH   1  34
HETATM   34  O2  UNL     1      -2.484  48.500 -23.121  1.00  0.00    -0.385 OA
HETATM   35  H8  UNL     1      -2.631  47.564 -23.343  1.00  0.00     0.211 HD
ENDBRANCH   1  34
TORSDOF 12
ENDMDL
MODEL 3
REMARK minimizedAffinity -8.54928684
REMARK  12 active torsions:
REMARK  status: ('A' for Active; 'I' for Inactive)
REMARK    1  A    between atoms: C2_2  and  O1_3 
REMARK    2  A    between atoms: C2_2  and  C3_4 
REMARK    3  A    between atoms: C4_5  and  C5_6 
REMARK    4  A    between atoms: C5_6  and  O2_7 
REMARK    5  A    between atoms: C8_10  and  O3_11 
REMARK    6  A    between atoms: O3_11  and  C9_12 
REMARK    7  A    between atoms: C10_14  and  C11_15 
REMARK    8  A    between atoms: C11_15  and  O5_16 
REMARK    9  A    between atoms: C12_17  and  O6_18 
REMARK   10  A    between atoms: C13_19  and  O7_20 
REMARK   11  A    between atoms: C14_21  and  O8_22 
REMARK   12  A    between atoms: C15_23  and  O9_24 
ROOT
HETATM    1  C5  UNL     1      -2.879  50.192 -21.441  1.00  0.00     0.088 C 
HETATM    2  C6  UNL     1      -1.890  50.983 -22.355  1.00  0.00     0.052 C 
HETATM    3  C7  UNL     1      -0.465  51.162 -21.800  1.00  0.00     0.016 C 
HETATM    4  C8  UNL     1      -1.796  50.424 -23.803  1.00  0.00     0.160 C 
HETATM    5  C15 UNL     1      -3.054  49.631 -24.208  1.00  0.00     0.148 C 
HETATM    6  C16 UNL     1      -3.360  48.461 -23.258  1.00  0.00     0.046 C 
HETATM    7  C17 UNL     1      -2.929  48.658 -21.774  1.00  0.00    -0.010 C 
HETATM    8  C18 UNL     1      -3.964  47.914 -20.889  1.00  0.00     0.018 C 
HETATM    9  C19 UNL     1      -1.576  47.943 -21.552  1.00  0.00     0.018 C 
ENDROOT
BRANCH   4  10
HETATM   10  O3  UNL     1      -1.578  51.576 -24.644  1.00  0.00    -0.350 OA
BRANCH  10  11
HETATM   11  C9  UNL     1      -0.880  51.312 -25.860  1.00  0.00     0.292 C 
HETATM   12  O4  UNL     1       0.471  51.753 -25.725  1.00  0.00    -0.348 OA
HETATM   13  C10 UNL     1       0.648  53.168 -25.596  1.00  0.00     0.179 C 
HETATM   14  C12 UNL     1      -0.389  54.029 -26.348  1.00  0.00     0.180 C 
HETATM   15  C13 UNL     1      -0.909  53.239 -27.548  1.00  0.00     0.183 C 
HETATM   16  C14 UNL     1      -1.619  51.980 -27.045  1.00  0.00     0.204 C 
BRANCH  13  17
HETATM   17  C11 UNL     1       0.752  53.585 -24.122  1.00  0.00     0.198 C 
BRANCH  17  18
HETATM   18  O5  UNL     1       1.428  54.840 -24.004  1.00  0.00    -0.398 OA
HETATM   19  H18 UNL     1       2.313  54.652 -23.643  1.00  0.00     0.209 HD
ENDBRANCH  17  18
ENDBRANCH  13  17
BRANCH  14  20
HETATM   20  O6  UNL     1       0.229  55.259 -26.754  1.00  0.00    -0.390 OA
HETATM   21  H20 UNL     1       0.483  55.709 -25.923  1.00  0.00     0.210 HD
ENDBRANCH  14  20
BRANCH  15  22
HETATM   22  O7  UNL     1      -1.857  54.009 -28.306  1.00  0.00    -0.390 OA
HETATM   23  H22 UNL     1      -2.087  53.448 -29.073  1.00  0.00     0.210 HD
ENDBRANCH  15  22
BRANCH  16  24
HETATM   24  O8  UNL     1      -1.777  51.072 -28.152  1.00  0.00    -0.388 OA
HETATM   25  H24 UNL     1      -2.251  50.301 -27.773  1.00  0.00     0.210 HD
ENDBRANCH  16  24
ENDBRANCH  10  11
ENDBRANCH   4  10
BRANCH   5  26
HETATM   26  O9  UNL     1      -2.923  49.077 -25.532  1.00  0.00    -0.393 OA
HETATM   27  H26 UNL     1      -3.748  48.578 -25.698  1.00  0.00     0.210 HD
ENDBRANCH   5  26
BRANCH   1  28
HETATM   28  C4  UNL     1      -2.674  50.519 -19.970  1.00  0.00     0.010 C 
HETATM   29  C3  UNL     1      -1.572  50.211 -19.260  1.00  0.00     0.003 C 
BRANCH  29  30
HETATM   30  C2  UNL     1      -1.374  50.528 -17.808  1.00  0.00     0.136 C 
HETATM   31  C1  UNL     1      -0.014  51.160 -17.553  1.00  0.00     0.043 C 
BRANCH  30  32
HETATM   32  O1  UNL     1      -2.397  51.441 -17.426  1.00  0.00    -0.392 OA
HETATM   33  H5  UNL     1      -2.228  52.284 -17.878  1.00  0.00     0.210 HD
ENDBRANCH  30  32
ENDBRANCH  29  30
ENDBRANCH   1  28
BRANCH   1  34
HETATM   34  O2  UNL     1      -4.191  50.701 -21.784  1.00  0.00    -0.385 OA
HETATM   35  H8  UNL     1      -4.788  50.495 -21.043  1.00  0.00     0.211 HD
ENDBRANCH   1  34
TORSDOF 12
ENDMDL
MODEL 4
REMARK minimizedAffinity -8.36440849
REMARK  12 active torsions:
REMARK  status: ('A' for Active; 'I' for Inactive)
REMARK    1  A    between atoms: C2_2  and  O1_3 
REMARK    2  A    between atoms: C2_2  and  C3_4 
REMARK    3  A    between atoms: C4_5  and  C5_6 
REMARK    4  A    between atoms: C5_6  and  O2_7 
REMARK    5  A    between atoms: C8_10  and  O3_11 
REMARK    6  A    between atoms: O3_11  and  C9_12 
REMARK    7  A    between atoms: C10_14  and  C11_15 
REMARK    8  A    between atoms: C11_15  and  O5_16 
REMARK    9  A    between atoms: C12_17  and  O6_18 
REMARK   10  A    between atoms: C13_19  and  O7_20 
REMARK   11  A    between atoms: C14_21  and  O8_22 
REMARK   12  A    between atoms: C15_23  and  O9_24 
ROOT
HETATM    1  C5  UNL     1       5.468  65.102 -36.227  1.00  0.00     0.088 C 
HETATM    2  C6  UNL     1       4.312  65.994 -36.782  1.00  0.00     0.052 C 
HETATM    3  C7  UNL     1       3.582  66.865 -35.744  1.00  0.00     0.016 C 
HETATM    4  C8  UNL     1       4.738  66.892 -37.978  1.00  0.00     0.160 C 
HETATM    5  C15 UNL     1       5.963  66.331 -38.726  1.00  0.00     0.148 C 
HETATM    6  C16 UNL     1       7.186  66.133 -37.813  1.00  0.00     0.046 C 
HETATM    7  C17 UNL     1       6.876  65.791 -36.325  1.00  0.00    -0.010 C 
HETATM    8  C18 UNL     1       8.007  64.856 -35.821  1.00  0.00     0.018 C 
HETATM    9  C19 UNL     1       6.980  67.087 -35.487  1.00  0.00     0.018 C 
ENDROOT
BRANCH   4  10
HETATM   10  O3  UNL     1       3.571  66.980 -38.823  1.00  0.00    -0.350 OA
BRANCH  10  11
HETATM   11  C9  UNL     1       3.316  68.274 -39.367  1.00  0.00     0.292 C 
HETATM   12  O4  UNL     1       2.266  68.892 -38.622  1.00  0.00    -0.348 OA
HETATM   13  C10 UNL     1       0.980  68.274 -38.741  1.00  0.00     0.179 C 
HETATM   14  C12 UNL     1       0.693  67.615 -40.107  1.00  0.00     0.180 C 
HETATM   15  C13 UNL     1       1.508  68.332 -41.182  1.00  0.00     0.183 C 
HETATM   16  C14 UNL     1       2.998  68.155 -40.877  1.00  0.00     0.204 C 
BRANCH  13  17
HETATM   17  C11 UNL     1       0.723  67.294 -37.587  1.00  0.00     0.198 C 
BRANCH  17  18
HETATM   18  O5  UNL     1      -0.427  67.696 -36.838  1.00  0.00    -0.398 OA
HETATM   19  H18 UNL     1      -0.103  68.052 -35.990  1.00  0.00     0.209 HD
ENDBRANCH  17  18
ENDBRANCH  13  17
BRANCH  14  20
HETATM   20  O6  UNL     1      -0.714  67.688 -40.377  1.00  0.00    -0.390 OA
HETATM   21  H20 UNL     1      -1.142  67.166 -39.668  1.00  0.00     0.210 HD
ENDBRANCH  14  20
BRANCH  15  22
HETATM   22  O7  UNL     1       1.254  67.779 -42.484  1.00  0.00    -0.390 OA
HETATM   23  H22 UNL     1       1.771  68.332 -43.103  1.00  0.00     0.210 HD
ENDBRANCH  15  22
BRANCH  16  24
HETATM   24  O8  UNL     1       3.740  69.116 -41.654  1.00  0.00    -0.388 OA
HETATM   25  H24 UNL     1       4.679  68.939 -41.431  1.00  0.00     0.210 HD
ENDBRANCH  16  24
ENDBRANCH  10  11
ENDBRANCH   4  10
BRANCH   5  26
HETATM   26  O9  UNL     1       6.372  67.207 -39.795  1.00  0.00    -0.393 OA
HETATM   27  H26 UNL     1       7.159  66.789 -40.198  1.00  0.00     0.210 HD
ENDBRANCH   5  26
BRANCH   1  28
HETATM   28  C4  UNL     1       5.133  64.529 -34.858  1.00  0.00     0.010 C 
HETATM   29  C3  UNL     1       4.558  65.220 -33.855  1.00  0.00     0.003 C 
BRANCH  29  30
HETATM   30  C2  UNL     1       4.234  64.657 -32.504  1.00  0.00     0.136 C 
HETATM   31  C1  UNL     1       4.271  63.136 -32.508  1.00  0.00     0.043 C 
BRANCH  30  32
HETATM   32  O1  UNL     1       5.209  65.150 -31.591  1.00  0.00    -0.392 OA
HETATM   33  H5  UNL     1       6.063  64.745 -31.819  1.00  0.00     0.210 HD
ENDBRANCH  30  32
ENDBRANCH  29  30
ENDBRANCH   1  28
BRANCH   1  34
HETATM   34  O2  UNL     1       5.531  63.970 -37.128  1.00  0.00    -0.385 OA
HETATM   35  H8  UNL     1       5.988  63.249 -36.661  1.00  0.00     0.211 HD
ENDBRANCH   1  34
TORSDOF 12
ENDMDL
MODEL 5
REMARK minimizedAffinity -8.21943092
REMARK  12 active torsions:
REMARK  status: ('A' for Active; 'I' for Inactive)
REMARK    1  A    between atoms: C2_2  and  O1_3 
REMARK    2  A    between atoms: C2_2  and  C3_4 
REMARK    3  A    between atoms: C4_5  and  C5_6 
REMARK    4  A    between atoms: C5_6  and  O2_7 
REMARK    5  A    between atoms: C8_10  and  O3_11 
REMARK    6  A    between atoms: O3_11  and  C9_12 
REMARK    7  A    between atoms: C10_14  and  C11_15 
REMARK    8  A    between atoms: C11_15  and  O5_16 
REMARK    9  A    between atoms: C12_17  and  O6_18 
REMARK   10  A    between atoms: C13_19  and  O7_20 
REMARK   11  A    between atoms: C14_21  and  O8_22 
REMARK   12  A    between atoms: C15_23  and  O9_24 
ROOT
HETATM    1  C5  UNL     1       6.138  64.356 -35.866  1.00  0.00     0.088 C 
HETATM    2  C6  UNL     1       4.728  65.024 -35.949  1.00  0.00     0.052 C 
HETATM    3  C7  UNL     1       3.886  64.968 -34.662  1.00  0.00     0.016 C 
HETATM    4  C8  UNL     1       4.764  66.491 -36.461  1.00  0.00     0.160 C 
HETATM    5  C15 UNL     1       6.020  66.789 -37.304  1.00  0.00     0.148 C 
HETATM    6  C16 UNL     1       7.331  66.510 -36.548  1.00  0.00     0.046 C 
HETATM    7  C17 UNL     1       7.276  65.370 -35.488  1.00  0.00    -0.010 C 
HETATM    8  C18 UNL     1       8.670  64.686 -35.472  1.00  0.00     0.018 C 
HETATM    9  C19 UNL     1       7.089  66.002 -34.089  1.00  0.00     0.018 C 
ENDROOT
BRANCH   4  10
HETATM   10  O3  UNL     1       3.544  66.662 -37.213  1.00  0.00    -0.350 OA
BRANCH  10  11
HETATM   11  C9  UNL     1       3.550  67.754 -38.131  1.00  0.00     0.292 C 
HETATM   12  O4  UNL     1       2.540  68.688 -37.749  1.00  0.00    -0.348 OA
HETATM   13  C10 UNL     1       1.192  68.222 -37.870  1.00  0.00     0.179 C 
HETATM   14  C12 UNL     1       0.945  67.223 -39.020  1.00  0.00     0.180 C 
HETATM   15  C13 UNL     1       1.966  67.480 -40.127  1.00  0.00     0.183 C 
HETATM   16  C14 UNL     1       3.371  67.227 -39.576  1.00  0.00     0.204 C 
BRANCH  13  17
HETATM   17  C11 UNL     1       0.670  67.672 -36.535  1.00  0.00     0.198 C 
BRANCH  17  18
HETATM   18  O5  UNL     1      -0.759  67.645 -36.529  1.00  0.00    -0.398 OA
HETATM   19  H18 UNL     1      -1.054  68.363 -35.940  1.00  0.00     0.209 HD
ENDBRANCH  17  18
ENDBRANCH  13  17
BRANCH  14  20
HETATM   20  O6  UNL     1      -0.399  67.379 -39.496  1.00  0.00    -0.390 OA
HETATM   21  H20 UNL     1      -0.973  67.149 -38.737  1.00  0.00     0.210 HD
ENDBRANCH  14  20
BRANCH  15  22
HETATM   22  O7  UNL     1       1.761  66.596 -41.241  1.00  0.00    -0.390 OA
HETATM   23  H22 UNL     1       2.417  66.872 -41.911  1.00  0.00     0.210 HD
ENDBRANCH  15  22
BRANCH  16  24
HETATM   24  O8  UNL     1       4.329  67.814 -40.479  1.00  0.00    -0.388 OA
HETATM   25  H24 UNL     1       5.201  67.601 -40.084  1.00  0.00     0.210 HD
ENDBRANCH  16  24
ENDBRANCH  10  11
ENDBRANCH   4  10
BRANCH   5  26
HETATM   26  O9  UNL     1       6.058  68.167 -37.722  1.00  0.00    -0.393 OA
HETATM   27  H26 UNL     1       6.889  68.272 -38.227  1.00  0.00     0.210 HD
ENDBRANCH   5  26
BRANCH   1  28
HETATM   28  C4  UNL     1       6.113  63.085 -35.030  1.00  0.00     0.010 C 
HETATM   29  C3  UNL     1       7.069  62.136 -35.045  1.00  0.00     0.003 C 
BRANCH  29  30
HETATM   30  C2  UNL     1       7.040  60.880 -34.226  1.00  0.00     0.136 C 
HETATM   31  C1  UNL     1       7.020  59.639 -35.105  1.00  0.00     0.043 C 
BRANCH  30  32
HETATM   32  O1  UNL     1       8.213  60.869 -33.420  1.00  0.00    -0.392 OA
HETATM   33  H5  UNL     1       8.978  60.751 -34.009  1.00  0.00     0.210 HD
ENDBRANCH  30  32
ENDBRANCH  29  30
ENDBRANCH   1  28
BRANCH   1  34
HETATM   34  O2  UNL     1       6.432  63.936 -37.220  1.00  0.00    -0.385 OA
HETATM   35  H8  UNL     1       7.117  63.246 -37.171  1.00  0.00     0.211 HD
ENDBRANCH   1  34
TORSDOF 12
ENDMDL
MODEL 6
REMARK minimizedAffinity -8.16979027
REMARK  12 active torsions:
REMARK  status: ('A' for Active; 'I' for Inactive)
REMARK    1  A    between atoms: C2_2  and  O1_3 
REMARK    2  A    between atoms: C2_2  and  C3_4 
REMARK    3  A    between atoms: C4_5  and  C5_6 
REMARK    4  A    between atoms: C5_6  and  O2_7 
REMARK    5  A    between atoms: C8_10  and  O3_11 
REMARK    6  A    between atoms: O3_11  and  C9_12 
REMARK    7  A    between atoms: C10_14  and  C11_15 
REMARK    8  A    between atoms: C11_15  and  O5_16 
REMARK    9  A    between atoms: C12_17  and  O6_18 
REMARK   10  A    between atoms: C13_19  and  O7_20 
REMARK   11  A    between atoms: C14_21  and  O8_22 
REMARK   12  A    between atoms: C15_23  and  O9_24 
ROOT
HETATM    1  C5  UNL     1      -4.517  50.527 -23.630  1.00  0.00     0.088 C 
HETATM    2  C6  UNL     1      -3.427  51.636 -23.787  1.00  0.00     0.052 C 
HETATM    3  C7  UNL     1      -2.543  51.883 -22.551  1.00  0.00     0.016 C 
HETATM    4  C8  UNL     1      -2.511  51.437 -25.027  1.00  0.00     0.160 C 
HETATM    5  C15 UNL     1      -3.183  50.588 -26.124  1.00  0.00     0.148 C 
HETATM    6  C16 UNL     1      -3.625  49.202 -25.624  1.00  0.00     0.046 C 
HETATM    7  C17 UNL     1      -4.032  49.116 -24.123  1.00  0.00    -0.010 C 
HETATM    8  C18 UNL     1      -5.157  48.053 -24.009  1.00  0.00     0.018 C 
HETATM    9  C19 UNL     1      -2.834  48.567 -23.315  1.00  0.00     0.018 C 
ENDROOT
BRANCH   4  10
HETATM   10  O3  UNL     1      -2.191  52.769 -25.482  1.00  0.00    -0.350 OA
BRANCH  10  11
HETATM   11  C9  UNL     1      -0.906  53.248 -25.090  1.00  0.00     0.292 C 
HETATM   12  O4  UNL     1      -0.453  54.203 -26.051  1.00  0.00    -0.348 OA
HETATM   13  C10 UNL     1      -0.177  53.681 -27.355  1.00  0.00     0.179 C 
HETATM   14  C12 UNL     1       0.344  52.229 -27.383  1.00  0.00     0.180 C 
HETATM   15  C13 UNL     1       1.066  51.937 -26.069  1.00  0.00     0.183 C 
HETATM   16  C14 UNL     1       0.068  52.057 -24.916  1.00  0.00     0.204 C 
BRANCH  13  17
HETATM   17  C11 UNL     1      -1.381  53.857 -28.292  1.00  0.00     0.198 C 
BRANCH  17  18
HETATM   18  O5  UNL     1      -1.780  55.229 -28.340  1.00  0.00    -0.398 OA
HETATM   19  H18 UNL     1      -2.613  55.300 -27.840  1.00  0.00     0.209 HD
ENDBRANCH  17  18
ENDBRANCH  13  17
BRANCH  14  20
HETATM   20  O6  UNL     1       1.215  52.065 -28.512  1.00  0.00    -0.390 OA
HETATM   21  H20 UNL     1       0.656  52.225 -29.298  1.00  0.00     0.210 HD
ENDBRANCH  14  20
BRANCH  15  22
HETATM   22  O7  UNL     1       1.603  50.604 -26.054  1.00  0.00    -0.390 OA
HETATM   23  H22 UNL     1       2.088  50.533 -25.208  1.00  0.00     0.210 HD
ENDBRANCH  15  22
BRANCH  16  24
HETATM   24  O8  UNL     1       0.805  52.150 -23.681  1.00  0.00    -0.388 OA
HETATM   25  H24 UNL     1       0.115  52.203 -22.986  1.00  0.00     0.210 HD
ENDBRANCH  16  24
ENDBRANCH  10  11
ENDBRANCH   4  10
BRANCH   5  26
HETATM   26  O9  UNL     1      -2.296  50.372 -27.239  1.00  0.00    -0.393 OA
HETATM   27  H26 UNL     1      -2.790  49.813 -27.871  1.00  0.00     0.210 HD
ENDBRANCH   5  26
BRANCH   1  28
HETATM   28  C4  UNL     1      -5.139  50.538 -22.242  1.00  0.00     0.010 C 
HETATM   29  C3  UNL     1      -6.198  49.794 -21.868  1.00  0.00     0.003 C 
BRANCH  29  30
HETATM   30  C2  UNL     1      -6.815  49.811 -20.502  1.00  0.00     0.136 C 
HETATM   31  C1  UNL     1      -7.952  48.806 -20.389  1.00  0.00     0.043 C 
BRANCH  30  32
HETATM   32  O1  UNL     1      -5.794  49.475 -19.568  1.00  0.00    -0.392 OA
HETATM   33  H5  UNL     1      -5.556  48.544 -19.709  1.00  0.00     0.210 HD
ENDBRANCH  30  32
ENDBRANCH  29  30
ENDBRANCH   1  28
BRANCH   1  34
HETATM   34  O2  UNL     1      -5.573  50.911 -24.543  1.00  0.00    -0.385 OA
HETATM   35  H8  UNL     1      -6.387  50.460 -24.256  1.00  0.00     0.211 HD
ENDBRANCH   1  34
TORSDOF 12
ENDMDL
MODEL 7
REMARK minimizedAffinity -8.15132809
REMARK  12 active torsions:
REMARK  status: ('A' for Active; 'I' for Inactive)
REMARK    1  A    between atoms: C2_2  and  O1_3 
REMARK    2  A    between atoms: C2_2  and  C3_4 
REMARK    3  A    between atoms: C4_5  and  C5_6 
REMARK    4  A    between atoms: C5_6  and  O2_7 
REMARK    5  A    between atoms: C8_10  and  O3_11 
REMARK    6  A    between atoms: O3_11  and  C9_12 
REMARK    7  A    between atoms: C10_14  and  C11_15 
REMARK    8  A    between atoms: C11_15  and  O5_16 
REMARK    9  A    between atoms: C12_17  and  O6_18 
REMARK   10  A    between atoms: C13_19  and  O7_20 
REMARK   11  A    between atoms: C14_21  and  O8_22 
REMARK   12  A    between atoms: C15_23  and  O9_24 
ROOT
HETATM    1  C5  UNL     1      -5.000  50.154 -23.406  1.00  0.00     0.088 C 
HETATM    2  C6  UNL     1      -3.700  51.020 -23.414  1.00  0.00     0.052 C 
HETATM    3  C7  UNL     1      -2.929  51.080 -22.083  1.00  0.00     0.016 C 
HETATM    4  C8  UNL     1      -2.707  50.642 -24.549  1.00  0.00     0.160 C 
HETATM    5  C15 UNL     1      -3.407  49.949 -25.735  1.00  0.00     0.148 C 
HETATM    6  C16 UNL     1      -4.173  48.680 -25.323  1.00  0.00     0.046 C 
HETATM    7  C17 UNL     1      -4.756  48.676 -23.878  1.00  0.00    -0.010 C 
HETATM    8  C18 UNL     1      -6.077  47.862 -23.915  1.00  0.00     0.018 C 
HETATM    9  C19 UNL     1      -3.792  47.894 -22.956  1.00  0.00     0.018 C 
ENDROOT
BRANCH   4  10
HETATM   10  O3  UNL     1      -2.077  51.883 -24.933  1.00  0.00    -0.350 OA
BRANCH  10  11
HETATM   11  C9  UNL     1      -0.970  51.747 -25.823  1.00  0.00     0.292 C 
HETATM   12  O4  UNL     1       0.212  51.504 -25.061  1.00  0.00    -0.348 OA
HETATM   13  C10 UNL     1       0.645  52.588 -24.232  1.00  0.00     0.179 C 
HETATM   14  C12 UNL     1       0.340  53.996 -24.783  1.00  0.00     0.180 C 
HETATM   15  C13 UNL     1       0.283  53.929 -26.308  1.00  0.00     0.183 C 
HETATM   16  C14 UNL     1      -0.863  53.003 -26.722  1.00  0.00     0.204 C 
BRANCH  13  17
HETATM   17  C11 UNL     1       0.128  52.431 -22.794  1.00  0.00     0.198 C 
BRANCH  17  18
HETATM   18  O5  UNL     1       0.843  53.297 -21.909  1.00  0.00    -0.398 OA
HETATM   19  H18 UNL     1       1.435  52.733 -21.378  1.00  0.00     0.209 HD
ENDBRANCH  17  18
ENDBRANCH  13  17
BRANCH  14  20
HETATM   20  O6  UNL     1       1.355  54.905 -24.333  1.00  0.00    -0.390 OA
HETATM   21  H20 UNL     1       1.282  54.916 -23.358  1.00  0.00     0.210 HD
ENDBRANCH  14  20
BRANCH  15  22
HETATM   22  O7  UNL     1       0.035  55.225 -26.879  1.00  0.00    -0.390 OA
HETATM   23  H22 UNL     1       0.071  55.090 -27.846  1.00  0.00     0.210 HD
ENDBRANCH  15  22
BRANCH  16  24
HETATM   24  O8  UNL     1      -0.688  52.651 -28.109  1.00  0.00    -0.388 OA
HETATM   25  H24 UNL     1      -1.457  52.079 -28.316  1.00  0.00     0.210 HD
ENDBRANCH  16  24
ENDBRANCH  10  11
ENDBRANCH   4  10
BRANCH   5  26
HETATM   26  O9  UNL     1      -2.462  49.561 -26.750  1.00  0.00    -0.393 OA
HETATM   27  H26 UNL     1      -2.983  49.115 -27.447  1.00  0.00     0.210 HD
ENDBRANCH   5  26
BRANCH   1  28
HETATM   28  C4  UNL     1      -5.760  50.288 -22.096  1.00  0.00     0.010 C 
HETATM   29  C3  UNL     1      -5.689  49.415 -21.072  1.00  0.00     0.003 C 
BRANCH  29  30
HETATM   30  C2  UNL     1      -6.444  49.543 -19.784  1.00  0.00     0.136 C 
HETATM   31  C1  UNL     1      -7.814  48.888 -19.869  1.00  0.00     0.043 C 
BRANCH  30  32
HETATM   32  O1  UNL     1      -5.676  48.901 -18.772  1.00  0.00    -0.392 OA
HETATM   33  H5  UNL     1      -5.681  47.946 -18.956  1.00  0.00     0.210 HD
ENDBRANCH  30  32
ENDBRANCH  29  30
ENDBRANCH   1  28
BRANCH   1  34
HETATM   34  O2  UNL     1      -5.847  50.746 -24.420  1.00  0.00    -0.385 OA
HETATM   35  H8  UNL     1      -6.762  50.469 -24.236  1.00  0.00     0.211 HD
ENDBRANCH   1  34
TORSDOF 12
ENDMDL
MODEL 8
REMARK minimizedAffinity -8.14383507
REMARK  12 active torsions:
REMARK  status: ('A' for Active; 'I' for Inactive)
REMARK    1  A    between atoms: C2_2  and  O1_3 
REMARK    2  A    between atoms: C2_2  and  C3_4 
REMARK    3  A    between atoms: C4_5  and  C5_6 
REMARK    4  A    between atoms: C5_6  and  O2_7 
REMARK    5  A    between atoms: C8_10  and  O3_11 
REMARK    6  A    between atoms: O3_11  and  C9_12 
REMARK    7  A    between atoms: C10_14  and  C11_15 
REMARK    8  A    between atoms: C11_15  and  O5_16 
REMARK    9  A    between atoms: C12_17  and  O6_18 
REMARK   10  A    between atoms: C13_19  and  O7_20 
REMARK   11  A    between atoms: C14_21  and  O8_22 
REMARK   12  A    between atoms: C15_23  and  O9_24 
ROOT
HETATM    1  C5  UNL     1      -1.326  49.946 -20.496  1.00  0.00     0.088 C 
HETATM    2  C6  UNL     1      -1.911  50.469 -21.847  1.00  0.00     0.052 C 
HETATM    3  C7  UNL     1      -3.421  50.770 -21.850  1.00  0.00     0.016 C 
HETATM    4  C8  UNL     1      -1.154  51.701 -22.417  1.00  0.00     0.160 C 
HETATM    5  C15 UNL     1       0.294  51.794 -21.897  1.00  0.00     0.148 C 
HETATM    6  C16 UNL     1       0.378  51.845 -20.361  1.00  0.00     0.046 C 
HETATM    7  C17 UNL     1      -0.749  51.093 -19.592  1.00  0.00    -0.010 C 
HETATM    8  C18 UNL     1      -0.124  50.533 -18.286  1.00  0.00     0.018 C 
HETATM    9  C19 UNL     1      -1.819  52.120 -19.154  1.00  0.00     0.018 C 
ENDROOT
BRANCH   4  10
HETATM   10  O3  UNL     1      -1.213  51.555 -23.852  1.00  0.00    -0.350 OA
BRANCH  10  11
HETATM   11  C9  UNL     1      -1.281  52.779 -24.581  1.00  0.00     0.292 C 
HETATM   12  O4  UNL     1      -2.646  53.059 -24.893  1.00  0.00    -0.348 OA
HETATM   13  C10 UNL     1      -3.269  52.149 -25.806  1.00  0.00     0.179 C 
HETATM   14  C12 UNL     1      -2.328  51.539 -26.867  1.00  0.00     0.180 C 
HETATM   15  C13 UNL     1      -1.180  52.512 -27.128  1.00  0.00     0.183 C 
HETATM   16  C14 UNL     1      -0.379  52.693 -25.836  1.00  0.00     0.204 C 
BRANCH  13  17
HETATM   17  C11 UNL     1      -4.047  51.055 -25.060  1.00  0.00     0.198 C 
BRANCH  17  18
HETATM   18  O5  UNL     1      -5.311  51.556 -24.617  1.00  0.00    -0.398 OA
HETATM   19  H18 UNL     1      -5.248  51.671 -23.651  1.00  0.00     0.209 HD
ENDBRANCH  17  18
ENDBRANCH  13  17
BRANCH  14  20
HETATM   20  O6  UNL     1      -3.078  51.275 -28.062  1.00  0.00    -0.390 OA
HETATM   21  H20 UNL     1      -3.751  50.614 -27.806  1.00  0.00     0.210 HD
ENDBRANCH  14  20
BRANCH  15  22
HETATM   22  O7  UNL     1      -0.288  52.008 -28.136  1.00  0.00    -0.390 OA
HETATM   23  H22 UNL     1       0.372  52.716 -28.270  1.00  0.00     0.210 HD
ENDBRANCH  15  22
BRANCH  16  24
HETATM   24  O8  UNL     1       0.452  53.863 -25.974  1.00  0.00    -0.388 OA
HETATM   25  H24 UNL     1       0.950  53.911 -25.130  1.00  0.00     0.210 HD
ENDBRANCH  16  24
ENDBRANCH  10  11
ENDBRANCH   4  10
BRANCH   5  26
HETATM   26  O9  UNL     1       0.957  52.971 -22.395  1.00  0.00    -0.393 OA
HETATM   27  H26 UNL     1       1.853  52.962 -22.003  1.00  0.00     0.210 HD
ENDBRANCH   5  26
BRANCH   1  28
HETATM   28  C4  UNL     1      -2.289  49.002 -19.791  1.00  0.00     0.010 C 
HETATM   29  C3  UNL     1      -2.381  47.679 -20.028  1.00  0.00     0.003 C 
BRANCH  29  30
HETATM   30  C2  UNL     1      -3.335  46.751 -19.339  1.00  0.00     0.136 C 
HETATM   31  C1  UNL     1      -3.783  45.624 -20.257  1.00  0.00     0.043 C 
BRANCH  30  32
HETATM   32  O1  UNL     1      -2.658  46.202 -18.213  1.00  0.00    -0.392 OA
HETATM   33  H5  UNL     1      -1.956  45.618 -18.545  1.00  0.00     0.210 HD
ENDBRANCH  30  32
ENDBRANCH  29  30
ENDBRANCH   1  28
BRANCH   1  34
HETATM   34  O2  UNL     1      -0.183  49.141 -20.872  1.00  0.00    -0.385 OA
HETATM   35  H8  UNL     1       0.012  48.544 -20.128  1.00  0.00     0.211 HD
ENDBRANCH   1  34
TORSDOF 12
ENDMDL
MODEL 9
REMARK minimizedAffinity -8.11698532
REMARK  12 active torsions:
REMARK  status: ('A' for Active; 'I' for Inactive)
REMARK    1  A    between atoms: C2_2  and  O1_3 
REMARK    2  A    between atoms: C2_2  and  C3_4 
REMARK    3  A    between atoms: C4_5  and  C5_6 
REMARK    4  A    between atoms: C5_6  and  O2_7 
REMARK    5  A    between atoms: C8_10  and  O3_11 
REMARK    6  A    between atoms: O3_11  and  C9_12 
REMARK    7  A    between atoms: C10_14  and  C11_15 
REMARK    8  A    between atoms: C11_15  and  O5_16 
REMARK    9  A    between atoms: C12_17  and  O6_18 
REMARK   10  A    between atoms: C13_19  and  O7_20 
REMARK   11  A    between atoms: C14_21  and  O8_22 
REMARK   12  A    between atoms: C15_23  and  O9_24 
ROOT
HETATM    1  C5  UNL     1      -4.440  49.582 -22.768  1.00  0.00     0.088 C 
HETATM    2  C6  UNL     1      -3.735  50.551 -23.771  1.00  0.00     0.052 C 
HETATM    3  C7  UNL     1      -4.568  51.763 -24.226  1.00  0.00     0.016 C 
HETATM    4  C8  UNL     1      -2.348  51.054 -23.280  1.00  0.00     0.160 C 
HETATM    5  C15 UNL     1      -1.706  50.098 -22.255  1.00  0.00     0.148 C 
HETATM    6  C16 UNL     1      -2.594  49.855 -21.022  1.00  0.00     0.046 C 
HETATM    7  C17 UNL     1      -4.132  49.922 -21.266  1.00  0.00    -0.010 C 
HETATM    8  C18 UNL     1      -4.798  48.906 -20.301  1.00  0.00     0.018 C 
HETATM    9  C19 UNL     1      -4.640  51.319 -20.841  1.00  0.00     0.018 C 
ENDROOT
BRANCH   4  10
HETATM   10  O3  UNL     1      -1.550  51.195 -24.474  1.00  0.00    -0.350 OA
BRANCH  10  11
HETATM   11  C9  UNL     1      -1.177  52.534 -24.796  1.00  0.00     0.292 C 
HETATM   12  O4  UNL     1      -1.997  53.000 -25.868  1.00  0.00    -0.348 OA
HETATM   13  C10 UNL     1      -1.802  52.341 -27.124  1.00  0.00     0.179 C 
HETATM   14  C12 UNL     1      -0.364  51.849 -27.390  1.00  0.00     0.180 C 
HETATM   15  C13 UNL     1       0.612  52.736 -26.619  1.00  0.00     0.183 C 
HETATM   16  C14 UNL     1       0.336  52.594 -25.121  1.00  0.00     0.204 C 
BRANCH  13  17
HETATM   17  C11 UNL     1      -2.822  51.210 -27.324  1.00  0.00     0.198 C 
BRANCH  17  18
HETATM   18  O5  UNL     1      -2.891  50.838 -28.703  1.00  0.00    -0.398 OA
HETATM   19  H18 UNL     1      -3.737  51.179 -29.046  1.00  0.00     0.209 HD
ENDBRANCH  17  18
ENDBRANCH  13  17
BRANCH  14  20
HETATM   20  O6  UNL     1      -0.109  51.887 -28.801  1.00  0.00    -0.390 OA
HETATM   21  H20 UNL     1      -0.746  51.259 -29.198  1.00  0.00     0.210 HD
ENDBRANCH  14  20
BRANCH  15  22
HETATM   22  O7  UNL     1       1.974  52.342 -26.857  1.00  0.00    -0.390 OA
HETATM   23  H22 UNL     1       2.518  52.994 -26.373  1.00  0.00     0.210 HD
ENDBRANCH  15  22
BRANCH  16  24
HETATM   24  O8  UNL     1       0.984  53.681 -24.431  1.00  0.00    -0.388 OA
HETATM   25  H24 UNL     1       0.788  53.523 -23.483  1.00  0.00     0.210 HD
ENDBRANCH  16  24
ENDBRANCH  10  11
ENDBRANCH   4  10
BRANCH   5  26
HETATM   26  O9  UNL     1      -0.448  50.611 -21.775  1.00  0.00    -0.393 OA
HETATM   27  H26 UNL     1      -0.125  49.960 -21.121  1.00  0.00     0.210 HD
ENDBRANCH   5  26
BRANCH   1  28
HETATM   28  C4  UNL     1      -5.916  49.409 -23.093  1.00  0.00     0.010 C 
HETATM   29  C3  UNL     1      -6.410  48.515 -23.972  1.00  0.00     0.003 C 
BRANCH  29  30
HETATM   30  C2  UNL     1      -7.864  48.350 -24.296  1.00  0.00     0.136 C 
HETATM   31  C1  UNL     1      -8.632  47.739 -23.134  1.00  0.00     0.043 C 
BRANCH  30  32
HETATM   32  O1  UNL     1      -8.389  49.643 -24.580  1.00  0.00    -0.392 OA
HETATM   33  H5  UNL     1      -8.386  50.153 -23.753  1.00  0.00     0.210 HD
ENDBRANCH  30  32
ENDBRANCH  29  30
ENDBRANCH   1  28
BRANCH   1  34
HETATM   34  O2  UNL     1      -3.826  48.292 -23.004  1.00  0.00    -0.385 OA
HETATM   35  H8  UNL     1      -4.431  47.612 -22.659  1.00  0.00     0.211 HD
ENDBRANCH   1  34
TORSDOF 12
ENDMDL
