MODEL 1
REMARK minimizedAffinity -8.68276024
REMARK  11 active torsions:
REMARK  status: ('A' for Active; 'I' for Inactive)
REMARK    1  A    between atoms: C2_2  and  O1_3 
REMARK    2  A    between atoms: C2_2  and  C3_4 
REMARK    3  A    between atoms: C4_5  and  C5_6 
REMARK    4  A    between atoms: C5_6  and  O2_7 
REMARK    5  A    between atoms: C9_11  and  O3_12 
REMARK    6  A    between atoms: O3_12  and  C10_13 
REMARK    7  A    between atoms: C11_15  and  C12_16 
REMARK    8  A    between atoms: C12_16  and  O5_17 
REMARK    9  A    between atoms: C13_18  and  O6_19 
REMARK   10  A    between atoms: C14_20  and  O7_21 
REMARK   11  A    between atoms: C15_22  and  O8_23 
ROOT
HETATM    1  C5  UNL     1      -3.596   6.306  14.655  1.00  0.00     0.086 C 
HETATM    2  C6  UNL     1      -3.385   5.077  13.714  1.00  0.00     0.023 C 
HETATM    3  C7  UNL     1      -4.452   4.878  12.629  1.00  0.00     0.013 C 
HETATM    4  C8  UNL     1      -1.979   5.102  13.065  1.00  0.00     0.039 C 
HETATM    5  C9  UNL     1      -1.366   6.502  12.927  1.00  0.00     0.126 C 
HETATM    6  C16 UNL     1      -2.443   7.558  12.691  1.00  0.00     0.044 C 
HETATM    7  C17 UNL     1      -3.449   7.684  13.874  1.00  0.00    -0.010 C 
HETATM    8  C18 UNL     1      -2.924   8.804  14.812  1.00  0.00     0.018 C 
HETATM    9  C19 UNL     1      -4.793   8.190  13.300  1.00  0.00     0.018 C 
ENDROOT
BRANCH   5  10
HETATM   10  O3  UNL     1      -0.491   6.483  11.791  1.00  0.00    -0.353 OA
BRANCH  10  11
HETATM   11  C10 UNL     1       0.687   7.277  11.993  1.00  0.00     0.292 C 
HETATM   12  O4  UNL     1       0.857   8.177  10.892  1.00  0.00    -0.348 OA
HETATM   13  C11 UNL     1       1.693   7.696   9.820  1.00  0.00     0.179 C 
HETATM   14  C13 UNL     1       1.606   6.178   9.656  1.00  0.00     0.180 C 
HETATM   15  C14 UNL     1       2.134   5.492  10.932  1.00  0.00     0.183 C 
HETATM   16  C15 UNL     1       1.870   6.311  12.207  1.00  0.00     0.204 C 
BRANCH  13  17
HETATM   17  C12 UNL     1       1.263   8.437   8.547  1.00  0.00     0.198 C 
BRANCH  17  18
HETATM   18  O5  UNL     1       0.021   9.113   8.772  1.00  0.00    -0.398 OA
HETATM   19  H20 UNL     1      -0.541   8.465   9.244  1.00  0.00     0.209 HD
ENDBRANCH  17  18
ENDBRANCH  13  17
BRANCH  14  20
HETATM   20  O6  UNL     1       2.349   5.711   8.528  1.00  0.00    -0.390 OA
HETATM   21  H22 UNL     1       2.324   4.736   8.564  1.00  0.00     0.210 HD
ENDBRANCH  14  20
BRANCH  15  22
HETATM   22  O7  UNL     1       1.535   4.188  11.030  1.00  0.00    -0.390 OA
HETATM   23  H24 UNL     1       0.580   4.328  11.179  1.00  0.00     0.210 HD
ENDBRANCH  15  22
BRANCH  16  24
HETATM   24  O8  UNL     1       3.045   7.045  12.575  1.00  0.00    -0.388 OA
HETATM   25  H26 UNL     1       3.725   6.397  12.834  1.00  0.00     0.210 HD
ENDBRANCH  16  24
ENDBRANCH  10  11
ENDBRANCH   5  10
BRANCH   1  26
HETATM   26  C4  UNL     1      -4.818   6.264  15.560  1.00  0.00     0.010 C 
HETATM   27  C3  UNL     1      -6.073   5.890  15.257  1.00  0.00     0.003 C 
BRANCH  27  28
HETATM   28  C2  UNL     1      -7.202   5.857  16.243  1.00  0.00     0.136 C 
HETATM   29  C1  UNL     1      -8.098   7.079  16.111  1.00  0.00     0.043 C 
BRANCH  28  30
HETATM   30  O1  UNL     1      -7.974   4.697  15.962  1.00  0.00    -0.392 OA
HETATM   31  H5  UNL     1      -7.385   3.934  16.093  1.00  0.00     0.210 HD
ENDBRANCH  28  30
ENDBRANCH  27  28
ENDBRANCH   1  26
BRANCH   1  32
HETATM   32  O2  UNL     1      -2.506   6.229  15.600  1.00  0.00    -0.385 OA
HETATM   33  H8  UNL     1      -2.650   5.434  16.144  1.00  0.00     0.211 HD
ENDBRANCH   1  32
TORSDOF 11
ENDMDL
MODEL 2
REMARK minimizedAffinity -8.26007557
REMARK  11 active torsions:
REMARK  status: ('A' for Active; 'I' for Inactive)
REMARK    1  A    between atoms: C2_2  and  O1_3 
REMARK    2  A    between atoms: C2_2  and  C3_4 
REMARK    3  A    between atoms: C4_5  and  C5_6 
REMARK    4  A    between atoms: C5_6  and  O2_7 
REMARK    5  A    between atoms: C9_11  and  O3_12 
REMARK    6  A    between atoms: O3_12  and  C10_13 
REMARK    7  A    between atoms: C11_15  and  C12_16 
REMARK    8  A    between atoms: C12_16  and  O5_17 
REMARK    9  A    between atoms: C13_18  and  O6_19 
REMARK   10  A    between atoms: C14_20  and  O7_21 
REMARK   11  A    between atoms: C15_22  and  O8_23 
ROOT
HETATM    1  C5  UNL     1      -3.980   6.325  14.780  1.00  0.00     0.086 C 
HETATM    2  C6  UNL     1      -3.622   5.080  13.906  1.00  0.00     0.023 C 
HETATM    3  C7  UNL     1      -4.566   4.801  12.728  1.00  0.00     0.013 C 
HETATM    4  C8  UNL     1      -2.161   5.152  13.397  1.00  0.00     0.039 C 
HETATM    5  C9  UNL     1      -1.599   6.575  13.274  1.00  0.00     0.126 C 
HETATM    6  C16 UNL     1      -2.693   7.572  12.898  1.00  0.00     0.044 C 
HETATM    7  C17 UNL     1      -3.816   7.685  13.972  1.00  0.00    -0.010 C 
HETATM    8  C18 UNL     1      -3.436   8.855  14.919  1.00  0.00     0.018 C 
HETATM    9  C19 UNL     1      -5.116   8.111  13.251  1.00  0.00     0.018 C 
ENDROOT
BRANCH   5  10
HETATM   10  O3  UNL     1      -0.615   6.564  12.231  1.00  0.00    -0.353 OA
BRANCH  10  11
HETATM   11  C10 UNL     1      -0.076   7.868  11.971  1.00  0.00     0.292 C 
HETATM   12  O4  UNL     1       0.571   7.878  10.694  1.00  0.00    -0.348 OA
HETATM   13  C11 UNL     1       1.985   7.594  10.712  1.00  0.00     0.179 C 
HETATM   14  C13 UNL     1       2.366   6.632  11.838  1.00  0.00     0.180 C 
HETATM   15  C14 UNL     1       2.059   7.287  13.200  1.00  0.00     0.183 C 
HETATM   16  C15 UNL     1       0.849   8.234  13.151  1.00  0.00     0.204 C 
BRANCH  13  17
HETATM   17  C12 UNL     1       2.348   7.034   9.330  1.00  0.00     0.198 C 
BRANCH  17  18
HETATM   18  O5  UNL     1       3.771   7.004   9.175  1.00  0.00    -0.398 OA
HETATM   19  H20 UNL     1       4.084   7.867   9.514  1.00  0.00     0.209 HD
ENDBRANCH  17  18
ENDBRANCH  13  17
BRANCH  14  20
HETATM   20  O6  UNL     1       3.747   6.265  11.792  1.00  0.00    -0.390 OA
HETATM   21  H22 UNL     1       3.921   5.743  12.598  1.00  0.00     0.210 HD
ENDBRANCH  14  20
BRANCH  15  22
HETATM   22  O7  UNL     1       1.853   6.245  14.170  1.00  0.00    -0.390 OA
HETATM   23  H24 UNL     1       1.036   5.777  13.910  1.00  0.00     0.210 HD
ENDBRANCH  15  22
BRANCH  16  24
HETATM   24  O8  UNL     1       1.289   9.593  13.027  1.00  0.00    -0.388 OA
HETATM   25  H26 UNL     1       1.751   9.825  13.852  1.00  0.00     0.210 HD
ENDBRANCH  16  24
ENDBRANCH  10  11
ENDBRANCH   5  10
BRANCH   1  26
HETATM   26  C4  UNL     1      -5.283   6.252  15.561  1.00  0.00     0.010 C 
HETATM   27  C3  UNL     1      -6.526   6.035  15.099  1.00  0.00     0.003 C 
BRANCH  27  28
HETATM   28  C2  UNL     1      -7.745   5.951  15.969  1.00  0.00     0.136 C 
HETATM   29  C1  UNL     1      -8.912   6.723  15.375  1.00  0.00     0.043 C 
BRANCH  28  30
HETATM   30  O1  UNL     1      -8.106   4.580  16.057  1.00  0.00    -0.392 OA
HETATM   31  H5  UNL     1      -7.357   4.122  16.476  1.00  0.00     0.210 HD
ENDBRANCH  28  30
ENDBRANCH  27  28
ENDBRANCH   1  26
BRANCH   1  32
HETATM   32  O2  UNL     1      -2.987   6.326  15.830  1.00  0.00    -0.385 OA
HETATM   33  H8  UNL     1      -3.150   5.541  16.383  1.00  0.00     0.211 HD
ENDBRANCH   1  32
TORSDOF 11
ENDMDL
MODEL 3
REMARK minimizedAffinity -8.21463203
REMARK  11 active torsions:
REMARK  status: ('A' for Active; 'I' for Inactive)
REMARK    1  A    between atoms: C2_2  and  O1_3 
REMARK    2  A    between atoms: C2_2  and  C3_4 
REMARK    3  A    between atoms: C4_5  and  C5_6 
REMARK    4  A    between atoms: C5_6  and  O2_7 
REMARK    5  A    between atoms: C9_11  and  O3_12 
REMARK    6  A    between atoms: O3_12  and  C10_13 
REMARK    7  A    between atoms: C11_15  and  C12_16 
REMARK    8  A    between atoms: C12_16  and  O5_17 
REMARK    9  A    between atoms: C13_18  and  O6_19 
REMARK   10  A    between atoms: C14_20  and  O7_21 
REMARK   11  A    between atoms: C15_22  and  O8_23 
ROOT
HETATM    1  C5  UNL     1      -3.809   6.185  14.731  1.00  0.00     0.086 C 
HETATM    2  C6  UNL     1      -3.530   4.983  13.771  1.00  0.00     0.023 C 
HETATM    3  C7  UNL     1      -4.486   4.850  12.577  1.00  0.00     0.013 C 
HETATM    4  C8  UNL     1      -2.065   4.995  13.268  1.00  0.00     0.039 C 
HETATM    5  C9  UNL     1      -1.411   6.383  13.244  1.00  0.00     0.126 C 
HETATM    6  C16 UNL     1      -2.435   7.473  12.940  1.00  0.00     0.044 C 
HETATM    7  C17 UNL     1      -3.553   7.584  14.020  1.00  0.00    -0.010 C 
HETATM    8  C18 UNL     1      -3.100   8.658  15.047  1.00  0.00     0.018 C 
HETATM    9  C19 UNL     1      -4.819   8.144  13.332  1.00  0.00     0.018 C 
ENDROOT
BRANCH   5  10
HETATM   10  O3  UNL     1      -0.425   6.380  12.203  1.00  0.00    -0.353 OA
BRANCH  10  11
HETATM   11  C10 UNL     1       0.896   6.124  12.698  1.00  0.00     0.292 C 
HETATM   12  O4  UNL     1       0.954   6.422  14.098  1.00  0.00    -0.348 OA
HETATM   13  C11 UNL     1       1.381   7.758  14.431  1.00  0.00     0.179 C 
HETATM   14  C13 UNL     1       0.960   8.779  13.373  1.00  0.00     0.180 C 
HETATM   15  C14 UNL     1       1.651   8.447  12.035  1.00  0.00     0.183 C 
HETATM   16  C15 UNL     1       1.883   6.940  11.838  1.00  0.00     0.204 C 
BRANCH  13  17
HETATM   17  C12 UNL     1       0.794   8.086  15.812  1.00  0.00     0.198 C 
BRANCH  17  18
HETATM   18  O5  UNL     1       0.130   6.935  16.345  1.00  0.00    -0.398 OA
HETATM   19  H20 UNL     1      -0.393   6.574  15.600  1.00  0.00     0.209 HD
ENDBRANCH  17  18
ENDBRANCH  13  17
BRANCH  14  20
HETATM   20  O6  UNL     1       1.287  10.118  13.753  1.00  0.00    -0.390 OA
HETATM   21  H22 UNL     1       1.083  10.682  12.983  1.00  0.00     0.210 HD
ENDBRANCH  14  20
BRANCH  15  22
HETATM   22  O7  UNL     1       0.854   8.985  10.965  1.00  0.00    -0.390 OA
HETATM   23  H24 UNL     1       0.014   8.486  10.962  1.00  0.00     0.210 HD
ENDBRANCH  15  22
BRANCH  16  24
HETATM   24  O8  UNL     1       3.233   6.599  12.181  1.00  0.00    -0.388 OA
HETATM   25  H26 UNL     1       3.816   7.026  11.529  1.00  0.00     0.210 HD
ENDBRANCH  16  24
ENDBRANCH  10  11
ENDBRANCH   5  10
BRANCH   1  26
HETATM   26  C4  UNL     1      -5.117   6.143  15.506  1.00  0.00     0.010 C 
HETATM   27  C3  UNL     1      -6.351   5.863  15.053  1.00  0.00     0.003 C 
BRANCH  27  28
HETATM   28  C2  UNL     1      -7.575   5.819  15.918  1.00  0.00     0.136 C 
HETATM   29  C1  UNL     1      -8.716   6.625  15.317  1.00  0.00     0.043 C 
BRANCH  28  30
HETATM   30  O1  UNL     1      -7.979   4.459  16.009  1.00  0.00    -0.392 OA
HETATM   31  H5  UNL     1      -7.246   3.980  16.432  1.00  0.00     0.210 HD
ENDBRANCH  28  30
ENDBRANCH  27  28
ENDBRANCH   1  26
BRANCH   1  32
HETATM   32  O2  UNL     1      -2.822   6.047  15.777  1.00  0.00    -0.385 OA
HETATM   33  H8  UNL     1      -3.038   5.238  16.274  1.00  0.00     0.211 HD
ENDBRANCH   1  32
TORSDOF 11
ENDMDL
MODEL 4
REMARK minimizedAffinity -8.02808666
REMARK  11 active torsions:
REMARK  status: ('A' for Active; 'I' for Inactive)
REMARK    1  A    between atoms: C2_2  and  O1_3 
REMARK    2  A    between atoms: C2_2  and  C3_4 
REMARK    3  A    between atoms: C4_5  and  C5_6 
REMARK    4  A    between atoms: C5_6  and  O2_7 
REMARK    5  A    between atoms: C9_11  and  O3_12 
REMARK    6  A    between atoms: O3_12  and  C10_13 
REMARK    7  A    between atoms: C11_15  and  C12_16 
REMARK    8  A    between atoms: C12_16  and  O5_17 
REMARK    9  A    between atoms: C13_18  and  O6_19 
REMARK   10  A    between atoms: C14_20  and  O7_21 
REMARK   11  A    between atoms: C15_22  and  O8_23 
ROOT
HETATM    1  C5  UNL     1      -2.532   6.507  14.337  1.00  0.00     0.086 C 
HETATM    2  C6  UNL     1      -2.174   5.245  13.487  1.00  0.00     0.023 C 
HETATM    3  C7  UNL     1      -2.912   5.116  12.147  1.00  0.00     0.013 C 
HETATM    4  C8  UNL     1      -0.647   5.139  13.255  1.00  0.00     0.039 C 
HETATM    5  C9  UNL     1       0.098   6.481  13.298  1.00  0.00     0.126 C 
HETATM    6  C16 UNL     1      -0.776   7.618  12.777  1.00  0.00     0.044 C 
HETATM    7  C17 UNL     1      -2.056   7.851  13.634  1.00  0.00    -0.010 C 
HETATM    8  C18 UNL     1      -1.717   8.942  14.686  1.00  0.00     0.018 C 
HETATM    9  C19 UNL     1      -3.138   8.457  12.711  1.00  0.00     0.018 C 
ENDROOT
BRANCH   5  10
HETATM   10  O3  UNL     1       1.249   6.365  12.451  1.00  0.00    -0.353 OA
BRANCH  10  11
HETATM   11  C10 UNL     1       0.950   6.651  11.078  1.00  0.00     0.292 C 
HETATM   12  O4  UNL     1       1.487   5.620  10.241  1.00  0.00    -0.348 OA
HETATM   13  C11 UNL     1       2.810   5.867   9.723  1.00  0.00     0.179 C 
HETATM   14  C13 UNL     1       3.662   6.694  10.686  1.00  0.00     0.180 C 
HETATM   15  C14 UNL     1       3.025   8.086  10.871  1.00  0.00     0.183 C 
HETATM   16  C15 UNL     1       1.491   8.062  10.766  1.00  0.00     0.204 C 
BRANCH  13  17
HETATM   17  C12 UNL     1       3.440   4.498   9.428  1.00  0.00     0.198 C 
BRANCH  17  18
HETATM   18  O5  UNL     1       2.771   3.481  10.183  1.00  0.00    -0.398 OA
HETATM   19  H20 UNL     1       2.671   3.855  11.082  1.00  0.00     0.209 HD
ENDBRANCH  17  18
ENDBRANCH  13  17
BRANCH  14  20
HETATM   20  O6  UNL     1       5.006   6.848  10.223  1.00  0.00    -0.390 OA
HETATM   21  H22 UNL     1       5.440   7.470  10.838  1.00  0.00     0.210 HD
ENDBRANCH  14  20
BRANCH  15  22
HETATM   22  O7  UNL     1       3.442   8.613  12.142  1.00  0.00    -0.390 OA
HETATM   23  H24 UNL     1       3.041   8.043  12.827  1.00  0.00     0.210 HD
ENDBRANCH  15  22
BRANCH  16  24
HETATM   24  O8  UNL     1       1.078   8.469   9.454  1.00  0.00    -0.388 OA
HETATM   25  H26 UNL     1       1.319   9.407   9.351  1.00  0.00     0.210 HD
ENDBRANCH  16  24
ENDBRANCH  10  11
ENDBRANCH   5  10
BRANCH   1  26
HETATM   26  C4  UNL     1      -3.955   6.585  14.867  1.00  0.00     0.010 C 
HETATM   27  C3  UNL     1      -5.042   5.910  14.454  1.00  0.00     0.003 C 
BRANCH  27  28
HETATM   28  C2  UNL     1      -6.401   6.043  15.073  1.00  0.00     0.136 C 
HETATM   29  C1  UNL     1      -7.304   4.878  14.698  1.00  0.00     0.043 C 
BRANCH  28  30
HETATM   30  O1  UNL     1      -6.224   6.044  16.483  1.00  0.00    -0.392 OA
HETATM   31  H5  UNL     1      -5.678   6.820  16.693  1.00  0.00     0.210 HD
ENDBRANCH  28  30
ENDBRANCH  27  28
ENDBRANCH   1  26
BRANCH   1  32
HETATM   32  O2  UNL     1      -1.758   6.357  15.548  1.00  0.00    -0.385 OA
HETATM   33  H8  UNL     1      -2.115   5.588  16.027  1.00  0.00     0.211 HD
ENDBRANCH   1  32
TORSDOF 11
ENDMDL
MODEL 5
REMARK minimizedAffinity -7.74096537
REMARK  11 active torsions:
REMARK  status: ('A' for Active; 'I' for Inactive)
REMARK    1  A    between atoms: C2_2  and  O1_3 
REMARK    2  A    between atoms: C2_2  and  C3_4 
REMARK    3  A    between atoms: C4_5  and  C5_6 
REMARK    4  A    between atoms: C5_6  and  O2_7 
REMARK    5  A    between atoms: C9_11  and  O3_12 
REMARK    6  A    between atoms: O3_12  and  C10_13 
REMARK    7  A    between atoms: C11_15  and  C12_16 
REMARK    8  A    between atoms: C12_16  and  O5_17 
REMARK    9  A    between atoms: C13_18  and  O6_19 
REMARK   10  A    between atoms: C14_20  and  O7_21 
REMARK   11  A    between atoms: C15_22  and  O8_23 
ROOT
HETATM    1  C5  UNL     1      -4.219   6.366  14.895  1.00  0.00     0.086 C 
HETATM    2  C6  UNL     1      -3.363   5.279  14.169  1.00  0.00     0.023 C 
HETATM    3  C7  UNL     1      -3.712   5.034  12.694  1.00  0.00     0.013 C 
HETATM    4  C8  UNL     1      -1.849   5.573  14.306  1.00  0.00     0.039 C 
HETATM    5  C9  UNL     1      -1.504   7.055  14.509  1.00  0.00     0.126 C 
HETATM    6  C16 UNL     1      -2.495   7.959  13.782  1.00  0.00     0.044 C 
HETATM    7  C17 UNL     1      -3.955   7.820  14.309  1.00  0.00    -0.010 C 
HETATM    8  C18 UNL     1      -4.160   8.908  15.398  1.00  0.00     0.018 C 
HETATM    9  C19 UNL     1      -4.912   8.179  13.149  1.00  0.00     0.018 C 
ENDROOT
BRANCH   5  10
HETATM   10  O3  UNL     1      -0.198   7.276  13.959  1.00  0.00    -0.353 OA
BRANCH  10  11
HETATM   11  C10 UNL     1       0.216   8.645  14.060  1.00  0.00     0.292 C 
HETATM   12  O4  UNL     1       1.298   8.892  13.155  1.00  0.00    -0.348 OA
HETATM   13  C11 UNL     1       2.619   8.734  13.709  1.00  0.00     0.179 C 
HETATM   14  C13 UNL     1       2.665   7.661  14.797  1.00  0.00     0.180 C 
HETATM   15  C14 UNL     1       1.771   8.088  15.978  1.00  0.00     0.183 C 
HETATM   16  C15 UNL     1       0.556   8.922  15.540  1.00  0.00     0.204 C 
BRANCH  13  17
HETATM   17  C12 UNL     1       3.560   8.409  12.540  1.00  0.00     0.198 C 
BRANCH  17  18
HETATM   18  O5  UNL     1       3.728   6.991  12.430  1.00  0.00    -0.398 OA
HETATM   19  H20 UNL     1       3.867   6.678  13.347  1.00  0.00     0.209 HD
ENDBRANCH  17  18
ENDBRANCH  13  17
BRANCH  14  20
HETATM   20  O6  UNL     1       3.994   7.427  15.271  1.00  0.00    -0.390 OA
HETATM   21  H22 UNL     1       3.913   6.814  16.027  1.00  0.00     0.210 HD
ENDBRANCH  14  20
BRANCH  15  22
HETATM   22  O7  UNL     1       1.351   6.906  16.683  1.00  0.00    -0.390 OA
HETATM   23  H24 UNL     1       0.770   6.408  16.075  1.00  0.00     0.210 HD
ENDBRANCH  15  22
BRANCH  16  24
HETATM   24  O8  UNL     1       0.820  10.319  15.731  1.00  0.00    -0.388 OA
HETATM   25  H26 UNL     1       0.892  10.472  16.690  1.00  0.00     0.210 HD
ENDBRANCH  16  24
ENDBRANCH  10  11
ENDBRANCH   5  10
BRANCH   1  26
HETATM   26  C4  UNL     1      -5.698   6.057  15.072  1.00  0.00     0.010 C 
HETATM   27  C3  UNL     1      -6.546   6.524  16.004  1.00  0.00     0.003 C 
BRANCH  27  28
HETATM   28  C2  UNL     1      -8.003   6.175  16.067  1.00  0.00     0.136 C 
HETATM   29  C1  UNL     1      -8.775   6.778  14.903  1.00  0.00     0.043 C 
BRANCH  28  30
HETATM   30  O1  UNL     1      -8.102   4.760  15.990  1.00  0.00    -0.392 OA
HETATM   31  H5  UNL     1      -7.634   4.406  16.766  1.00  0.00     0.210 HD
ENDBRANCH  28  30
ENDBRANCH  27  28
ENDBRANCH   1  26
BRANCH   1  32
HETATM   32  O2  UNL     1      -3.735   6.356  16.257  1.00  0.00    -0.385 OA
HETATM   33  H8  UNL     1      -3.984   5.499  16.647  1.00  0.00     0.211 HD
ENDBRANCH   1  32
TORSDOF 11
ENDMDL
MODEL 6
REMARK minimizedAffinity -7.73836946
REMARK  11 active torsions:
REMARK  status: ('A' for Active; 'I' for Inactive)
REMARK    1  A    between atoms: C2_2  and  O1_3 
REMARK    2  A    between atoms: C2_2  and  C3_4 
REMARK    3  A    between atoms: C4_5  and  C5_6 
REMARK    4  A    between atoms: C5_6  and  O2_7 
REMARK    5  A    between atoms: C9_11  and  O3_12 
REMARK    6  A    between atoms: O3_12  and  C10_13 
REMARK    7  A    between atoms: C11_15  and  C12_16 
REMARK    8  A    between atoms: C12_16  and  O5_17 
REMARK    9  A    between atoms: C13_18  and  O6_19 
REMARK   10  A    between atoms: C14_20  and  O7_21 
REMARK   11  A    between atoms: C15_22  and  O8_23 
ROOT
HETATM    1  C5  UNL     1      -4.272   6.461  14.806  1.00  0.00     0.086 C 
HETATM    2  C6  UNL     1      -2.989   5.754  14.263  1.00  0.00     0.023 C 
HETATM    3  C7  UNL     1      -2.896   5.625  12.736  1.00  0.00     0.013 C 
HETATM    4  C8  UNL     1      -1.704   6.426  14.809  1.00  0.00     0.039 C 
HETATM    5  C9  UNL     1      -1.870   7.904  15.186  1.00  0.00     0.126 C 
HETATM    6  C16 UNL     1      -2.887   8.596  14.282  1.00  0.00     0.044 C 
HETATM    7  C17 UNL     1      -4.321   7.998  14.400  1.00  0.00    -0.010 C 
HETATM    8  C18 UNL     1      -5.086   8.832  15.463  1.00  0.00     0.018 C 
HETATM    9  C19 UNL     1      -5.044   8.237  13.054  1.00  0.00     0.018 C 
ENDROOT
BRANCH   5  10
HETATM   10  O3  UNL     1      -0.598   8.541  15.012  1.00  0.00    -0.353 OA
BRANCH  10  11
HETATM   11  C10 UNL     1       0.481   7.771  15.560  1.00  0.00     0.292 C 
HETATM   12  O4  UNL     1       0.982   8.410  16.740  1.00  0.00    -0.348 OA
HETATM   13  C11 UNL     1       2.088   9.312  16.536  1.00  0.00     0.179 C 
HETATM   14  C13 UNL     1       2.028  10.000  15.171  1.00  0.00     0.180 C 
HETATM   15  C14 UNL     1       2.148   8.942  14.056  1.00  0.00     0.183 C 
HETATM   16  C15 UNL     1       1.535   7.587  14.447  1.00  0.00     0.204 C 
BRANCH  13  17
HETATM   17  C12 UNL     1       2.062  10.323  17.691  1.00  0.00     0.198 C 
BRANCH  17  18
HETATM   18  O5  UNL     1       2.443   9.679  18.911  1.00  0.00    -0.398 OA
HETATM   19  H20 UNL     1       1.954   8.831  18.916  1.00  0.00     0.209 HD
ENDBRANCH  17  18
ENDBRANCH  13  17
BRANCH  14  20
HETATM   20  O6  UNL     1       3.062  10.974  15.010  1.00  0.00    -0.390 OA
HETATM   21  H22 UNL     1       3.012  11.279  14.084  1.00  0.00     0.210 HD
ENDBRANCH  14  20
BRANCH  15  22
HETATM   22  O7  UNL     1       1.526   9.459  12.867  1.00  0.00    -0.390 OA
HETATM   23  H24 UNL     1       0.572   9.536  13.060  1.00  0.00     0.210 HD
ENDBRANCH  15  22
BRANCH  16  24
HETATM   24  O8  UNL     1       2.561   6.687  14.886  1.00  0.00    -0.388 OA
HETATM   25  H26 UNL     1       3.124   6.490  14.116  1.00  0.00     0.210 HD
ENDBRANCH  16  24
ENDBRANCH  10  11
ENDBRANCH   5  10
BRANCH   1  26
HETATM   26  C4  UNL     1      -5.592   5.742  14.570  1.00  0.00     0.010 C 
HETATM   27  C3  UNL     1      -6.385   5.780  13.485  1.00  0.00     0.003 C 
BRANCH  27  28
HETATM   28  C2  UNL     1      -7.658   5.001  13.346  1.00  0.00     0.136 C 
HETATM   29  C1  UNL     1      -7.477   3.550  13.761  1.00  0.00     0.043 C 
BRANCH  28  30
HETATM   30  O1  UNL     1      -8.616   5.602  14.207  1.00  0.00    -0.392 OA
HETATM   31  H5  UNL     1      -8.739   6.514  13.891  1.00  0.00     0.210 HD
ENDBRANCH  28  30
ENDBRANCH  27  28
ENDBRANCH   1  26
BRANCH   1  32
HETATM   32  O2  UNL     1      -4.138   6.399  16.243  1.00  0.00    -0.385 OA
HETATM   33  H8  UNL     1      -4.205   5.462  16.501  1.00  0.00     0.211 HD
ENDBRANCH   1  32
TORSDOF 11
ENDMDL
MODEL 7
REMARK minimizedAffinity -7.72833252
REMARK  11 active torsions:
REMARK  status: ('A' for Active; 'I' for Inactive)
REMARK    1  A    between atoms: C2_2  and  O1_3 
REMARK    2  A    between atoms: C2_2  and  C3_4 
REMARK    3  A    between atoms: C4_5  and  C5_6 
REMARK    4  A    between atoms: C5_6  and  O2_7 
REMARK    5  A    between atoms: C9_11  and  O3_12 
REMARK    6  A    between atoms: O3_12  and  C10_13 
REMARK    7  A    between atoms: C11_15  and  C12_16 
REMARK    8  A    between atoms: C12_16  and  O5_17 
REMARK    9  A    between atoms: C13_18  and  O6_19 
REMARK   10  A    between atoms: C14_20  and  O7_21 
REMARK   11  A    between atoms: C15_22  and  O8_23 
ROOT
HETATM    1  C5  UNL     1      -3.708   6.922  14.985  1.00  0.00     0.086 C 
HETATM    2  C6  UNL     1      -2.982   5.707  14.323  1.00  0.00     0.023 C 
HETATM    3  C7  UNL     1      -3.635   5.156  13.047  1.00  0.00     0.013 C 
HETATM    4  C8  UNL     1      -1.490   6.024  14.050  1.00  0.00     0.039 C 
HETATM    5  C9  UNL     1      -1.181   7.515  13.861  1.00  0.00     0.126 C 
HETATM    6  C16 UNL     1      -2.351   8.245  13.206  1.00  0.00     0.044 C 
HETATM    7  C17 UNL     1      -3.650   8.220  14.067  1.00  0.00    -0.010 C 
HETATM    8  C18 UNL     1      -3.661   9.513  14.928  1.00  0.00     0.018 C 
HETATM    9  C19 UNL     1      -4.856   8.325  13.105  1.00  0.00     0.018 C 
ENDROOT
BRANCH   5  10
HETATM   10  O3  UNL     1      -0.041   7.616  12.997  1.00  0.00    -0.353 OA
BRANCH  10  11
HETATM   11  C10 UNL     1       0.450   6.332  12.585  1.00  0.00     0.292 C 
HETATM   12  O4  UNL     1       1.872   6.282  12.751  1.00  0.00    -0.348 OA
HETATM   13  C11 UNL     1       2.646   6.649  11.592  1.00  0.00     0.179 C 
HETATM   14  C13 UNL     1       1.938   7.699  10.733  1.00  0.00     0.180 C 
HETATM   15  C14 UNL     1       0.623   7.112  10.183  1.00  0.00     0.183 C 
HETATM   16  C15 UNL     1      -0.025   6.094  11.137  1.00  0.00     0.204 C 
BRANCH  13  17
HETATM   17  C12 UNL     1       4.008   7.144  12.099  1.00  0.00     0.198 C 
BRANCH  17  18
HETATM   18  O5  UNL     1       5.029   6.206  11.747  1.00  0.00    -0.398 OA
HETATM   19  H20 UNL     1       4.654   5.327  11.959  1.00  0.00     0.209 HD
ENDBRANCH  17  18
ENDBRANCH  13  17
BRANCH  14  20
HETATM   20  O6  UNL     1       2.749   8.143   9.643  1.00  0.00    -0.390 OA
HETATM   21  H22 UNL     1       2.185   8.722   9.097  1.00  0.00     0.210 HD
ENDBRANCH  14  20
BRANCH  15  22
HETATM   22  O7  UNL     1      -0.279   8.196   9.905  1.00  0.00    -0.390 OA
HETATM   23  H24 UNL     1      -0.508   8.600  10.765  1.00  0.00     0.210 HD
ENDBRANCH  15  22
BRANCH  16  24
HETATM   24  O8  UNL     1       0.297   4.757  10.727  1.00  0.00    -0.388 OA
HETATM   25  H26 UNL     1      -0.137   4.604   9.869  1.00  0.00     0.210 HD
ENDBRANCH  16  24
ENDBRANCH  10  11
ENDBRANCH   5  10
BRANCH   1  26
HETATM   26  C4  UNL     1      -5.094   6.657  15.551  1.00  0.00     0.010 C 
HETATM   27  C3  UNL     1      -6.007   5.757  15.146  1.00  0.00     0.003 C 
BRANCH  27  28
HETATM   28  C2  UNL     1      -7.340   5.557  15.801  1.00  0.00     0.136 C 
HETATM   29  C1  UNL     1      -7.796   6.807  16.538  1.00  0.00     0.043 C 
BRANCH  28  30
HETATM   30  O1  UNL     1      -8.278   5.271  14.772  1.00  0.00    -0.392 OA
HETATM   31  H5  UNL     1      -7.981   4.448  14.347  1.00  0.00     0.210 HD
ENDBRANCH  28  30
ENDBRANCH  27  28
ENDBRANCH   1  26
BRANCH   1  32
HETATM   32  O2  UNL     1      -2.935   7.201  16.173  1.00  0.00    -0.385 OA
HETATM   33  H8  UNL     1      -3.049   6.445  16.777  1.00  0.00     0.211 HD
ENDBRANCH   1  32
TORSDOF 11
ENDMDL
MODEL 8
REMARK minimizedAffinity -7.70889282
REMARK  11 active torsions:
REMARK  status: ('A' for Active; 'I' for Inactive)
REMARK    1  A    between atoms: C2_2  and  O1_3 
REMARK    2  A    between atoms: C2_2  and  C3_4 
REMARK    3  A    between atoms: C4_5  and  C5_6 
REMARK    4  A    between atoms: C5_6  and  O2_7 
REMARK    5  A    between atoms: C9_11  and  O3_12 
REMARK    6  A    between atoms: O3_12  and  C10_13 
REMARK    7  A    between atoms: C11_15  and  C12_16 
REMARK    8  A    between atoms: C12_16  and  O5_17 
REMARK    9  A    between atoms: C13_18  and  O6_19 
REMARK   10  A    between atoms: C14_20  and  O7_21 
REMARK   11  A    between atoms: C15_22  and  O8_23 
ROOT
HETATM    1  C5  UNL     1      -6.362   5.957  13.793  1.00  0.00     0.086 C 
HETATM    2  C6  UNL     1      -7.248   4.958  12.982  1.00  0.00     0.023 C 
HETATM    3  C7  UNL     1      -7.580   3.637  13.690  1.00  0.00     0.013 C 
HETATM    4  C8  UNL     1      -8.555   5.632  12.496  1.00  0.00     0.039 C 
HETATM    5  C9  UNL     1      -9.025   6.808  13.363  1.00  0.00     0.126 C 
HETATM    6  C16 UNL     1      -8.658   6.597  14.830  1.00  0.00     0.044 C 
HETATM    7  C17 UNL     1      -7.121   6.519  15.073  1.00  0.00    -0.010 C 
HETATM    8  C18 UNL     1      -6.635   7.951  15.427  1.00  0.00     0.018 C 
HETATM    9  C19 UNL     1      -6.886   5.654  16.333  1.00  0.00     0.018 C 
ENDROOT
BRANCH   5  10
HETATM   10  O3  UNL     1     -10.453   6.882  13.257  1.00  0.00    -0.353 OA
BRANCH  10  11
HETATM   11  C10 UNL     1     -11.055   7.521  14.391  1.00  0.00     0.292 C 
HETATM   12  O4  UNL     1     -12.244   6.817  14.770  1.00  0.00    -0.348 OA
HETATM   13  C11 UNL     1     -13.468   7.305  14.185  1.00  0.00     0.179 C 
HETATM   14  C13 UNL     1     -13.248   7.889  12.789  1.00  0.00     0.180 C 
HETATM   15  C14 UNL     1     -12.319   9.116  12.885  1.00  0.00     0.183 C 
HETATM   16  C15 UNL     1     -11.290   9.001  14.022  1.00  0.00     0.204 C 
BRANCH  13  17
HETATM   17  C12 UNL     1     -14.457   6.131  14.168  1.00  0.00     0.198 C 
BRANCH  17  18
HETATM   18  O5  UNL     1     -15.799   6.623  14.230  1.00  0.00    -0.398 OA
HETATM   19  H20 UNL     1     -15.786   7.316  14.922  1.00  0.00     0.209 HD
ENDBRANCH  17  18
ENDBRANCH  13  17
BRANCH  14  20
HETATM   20  O6  UNL     1     -14.475   8.275  12.165  1.00  0.00    -0.390 OA
HETATM   21  H22 UNL     1     -14.232   8.729  11.335  1.00  0.00     0.210 HD
ENDBRANCH  14  20
BRANCH  15  22
HETATM   22  O7  UNL     1     -11.662   9.291  11.618  1.00  0.00    -0.390 OA
HETATM   23  H24 UNL     1     -11.074   8.520  11.498  1.00  0.00     0.210 HD
ENDBRANCH  15  22
BRANCH  16  24
HETATM   24  O8  UNL     1     -11.740   9.730  15.172  1.00  0.00    -0.388 OA
HETATM   25  H26 UNL     1     -11.743  10.674  14.936  1.00  0.00     0.210 HD
ENDBRANCH  16  24
ENDBRANCH  10  11
ENDBRANCH   5  10
BRANCH   1  26
HETATM   26  C4  UNL     1      -4.940   5.511  14.094  1.00  0.00     0.010 C 
HETATM   27  C3  UNL     1      -3.818   5.765  13.399  1.00  0.00     0.003 C 
BRANCH  27  28
HETATM   28  C2  UNL     1      -2.452   5.298  13.807  1.00  0.00     0.136 C 
HETATM   29  C1  UNL     1      -1.357   6.086  13.104  1.00  0.00     0.043 C 
BRANCH  28  30
HETATM   30  O1  UNL     1      -2.334   5.511  15.207  1.00  0.00    -0.392 OA
HETATM   31  H5  UNL     1      -3.020   4.965  15.629  1.00  0.00     0.210 HD
ENDBRANCH  28  30
ENDBRANCH  27  28
ENDBRANCH   1  26
BRANCH   1  32
HETATM   32  O2  UNL     1      -6.156   7.069  12.893  1.00  0.00    -0.385 OA
HETATM   33  H8  UNL     1      -5.608   6.746  12.156  1.00  0.00     0.211 HD
ENDBRANCH   1  32
TORSDOF 11
ENDMDL
MODEL 9
REMARK minimizedAffinity -7.5518446
REMARK  11 active torsions:
REMARK  status: ('A' for Active; 'I' for Inactive)
REMARK    1  A    between atoms: C2_2  and  O1_3 
REMARK    2  A    between atoms: C2_2  and  C3_4 
REMARK    3  A    between atoms: C4_5  and  C5_6 
REMARK    4  A    between atoms: C5_6  and  O2_7 
REMARK    5  A    between atoms: C9_11  and  O3_12 
REMARK    6  A    between atoms: O3_12  and  C10_13 
REMARK    7  A    between atoms: C11_15  and  C12_16 
REMARK    8  A    between atoms: C12_16  and  O5_17 
REMARK    9  A    between atoms: C13_18  and  O6_19 
REMARK   10  A    between atoms: C14_20  and  O7_21 
REMARK   11  A    between atoms: C15_22  and  O8_23 
ROOT
HETATM    1  C5  UNL     1      -4.828   6.209  14.641  1.00  0.00     0.086 C 
HETATM    2  C6  UNL     1      -3.669   5.334  14.065  1.00  0.00     0.023 C 
HETATM    3  C7  UNL     1      -3.557   5.301  12.534  1.00  0.00     0.013 C 
HETATM    4  C8  UNL     1      -2.304   5.734  14.679  1.00  0.00     0.039 C 
HETATM    5  C9  UNL     1      -2.227   7.188  15.164  1.00  0.00     0.126 C 
HETATM    6  C16 UNL     1      -3.085   8.107  14.300  1.00  0.00     0.044 C 
HETATM    7  C17 UNL     1      -4.603   7.757  14.351  1.00  0.00    -0.010 C 
HETATM    8  C18 UNL     1      -5.244   8.632  15.462  1.00  0.00     0.018 C 
HETATM    9  C19 UNL     1      -5.237   8.213  13.016  1.00  0.00     0.018 C 
ENDROOT
BRANCH   5  10
HETATM   10  O3  UNL     1      -0.860   7.608  15.057  1.00  0.00    -0.353 OA
BRANCH  10  11
HETATM   11  C10 UNL     1      -0.133   6.866  14.069  1.00  0.00     0.292 C 
HETATM   12  O4  UNL     1       1.234   6.727  14.475  1.00  0.00    -0.348 OA
HETATM   13  C11 UNL     1       2.133   7.741  13.984  1.00  0.00     0.179 C 
HETATM   14  C13 UNL     1       1.441   9.095  13.815  1.00  0.00     0.180 C 
HETATM   15  C14 UNL     1       0.332   8.976  12.751  1.00  0.00     0.183 C 
HETATM   16  C15 UNL     1      -0.319   7.583  12.716  1.00  0.00     0.204 C 
BRANCH  13  17
HETATM   17  C12 UNL     1       3.308   7.815  14.969  1.00  0.00     0.198 C 
BRANCH  17  18
HETATM   18  O5  UNL     1       3.322   6.649  15.800  1.00  0.00    -0.398 OA
HETATM   19  H20 UNL     1       2.390   6.516  16.069  1.00  0.00     0.209 HD
ENDBRANCH  17  18
ENDBRANCH  13  17
BRANCH  14  20
HETATM   20  O6  UNL     1       2.355  10.125  13.432  1.00  0.00    -0.390 OA
HETATM   21  H22 UNL     1       1.815  10.917  13.245  1.00  0.00     0.210 HD
ENDBRANCH  14  20
BRANCH  15  22
HETATM   22  O7  UNL     1      -0.652   9.994  13.003  1.00  0.00    -0.390 OA
HETATM   23  H24 UNL     1      -1.076   9.770  13.854  1.00  0.00     0.210 HD
ENDBRANCH  15  22
BRANCH  16  24
HETATM   24  O8  UNL     1       0.250   6.798  11.659  1.00  0.00    -0.388 OA
HETATM   25  H26 UNL     1      -0.008   7.212  10.817  1.00  0.00     0.210 HD
ENDBRANCH  16  24
ENDBRANCH  10  11
ENDBRANCH   5  10
BRANCH   1  26
HETATM   26  C4  UNL     1      -6.243   5.747  14.332  1.00  0.00     0.010 C 
HETATM   27  C3  UNL     1      -6.655   4.547  13.889  1.00  0.00     0.003 C 
BRANCH  27  28
HETATM   28  C2  UNL     1      -8.090   4.187  13.646  1.00  0.00     0.136 C 
HETATM   29  C1  UNL     1      -8.756   5.154  12.680  1.00  0.00     0.043 C 
BRANCH  28  30
HETATM   30  O1  UNL     1      -8.108   2.888  13.071  1.00  0.00    -0.392 OA
HETATM   31  H5  UNL     1      -7.713   2.288  13.727  1.00  0.00     0.210 HD
ENDBRANCH  28  30
ENDBRANCH  27  28
ENDBRANCH   1  26
BRANCH   1  32
HETATM   32  O2  UNL     1      -4.745   6.023  16.071  1.00  0.00    -0.385 OA
HETATM   33  H8  UNL     1      -4.978   5.096  16.256  1.00  0.00     0.211 HD
ENDBRANCH   1  32
TORSDOF 11
ENDMDL
