MODEL 1
REMARK minimizedAffinity -7.65385437
REMARK CNNscore 0.823845148
REMARK CNNaffinity 7.09643793
REMARK  7 active torsions:
REMARK  status: ('A' for Active; 'I' for Inactive)
REMARK    1  A    between atoms: C2_2  and  C4_4 
REMARK    2  A    between atoms: C7_7  and  C8_8 
REMARK    3  A    between atoms: C8_8  and  O2_10 
REMARK    4  A    between atoms: C15_17  and  O3_18 
REMARK    5  A    between atoms: C21_24  and  O4_25 
REMARK    6  A    between atoms: C22_26  and  C24_28 
REMARK    7  A    between atoms: C24_28  and  O5_29 
ROOT
HETATM    1  C4  UNL     1       3.809  56.248  -6.757  1.00  0.00     0.019 C 
HETATM    2  C5  UNL     1       5.294  56.702  -6.767  1.00  0.00     0.011 C 
HETATM    3  C6  UNL     1       5.880  56.278  -8.124  1.00  0.00     0.021 C 
HETATM    4  C7  UNL     1       4.961  55.145  -8.588  1.00  0.00     0.050 C 
HETATM    5  C9  UNL     1       4.969  54.868 -10.097  1.00  0.00     0.022 C 
HETATM    6  C10 UNL     1       3.843  53.885 -10.476  1.00  0.00     0.011 C 
HETATM    7  C11 UNL     1       2.405  54.314 -10.012  1.00  0.00    -0.032 C 
HETATM    8  C12 UNL     1       2.037  55.552 -10.898  1.00  0.00     0.016 C 
HETATM    9  C13 UNL     1       2.439  54.724  -8.489  1.00  0.00     0.003 C 
HETATM   10  C14 UNL     1       1.066  55.200  -8.019  1.00  0.00     0.038 C 
HETATM   11  C15 UNL     1      -0.064  54.189  -8.272  1.00  0.00     0.124 C 
HETATM   12  C16 UNL     1      -0.124  53.648  -9.736  1.00  0.00     0.032 C 
HETATM   13  C17 UNL     1      -1.364  52.680 -10.099  1.00  0.00    -0.033 C 
HETATM   14  C18 UNL     1      -1.375  51.417  -9.205  1.00  0.00     0.016 C 
HETATM   15  C19 UNL     1      -2.716  53.422  -9.858  1.00  0.00     0.012 C 
HETATM   16  C20 UNL     1      -3.951  52.741 -10.455  1.00  0.00     0.033 C 
HETATM   17  C21 UNL     1      -3.803  52.467 -11.945  1.00  0.00     0.128 C 
HETATM   18  C22 UNL     1      -2.527  51.648 -12.301  1.00  0.00     0.007 C 
HETATM   19  C23 UNL     1      -2.705  50.186 -11.840  1.00  0.00     0.020 C 
HETATM   20  C25 UNL     1      -1.273  52.362 -11.650  1.00  0.00     0.007 C 
HETATM   21  C26 UNL     1       0.083  51.730 -12.013  1.00  0.00     0.007 C 
HETATM   22  C27 UNL     1       1.243  52.666 -11.675  1.00  0.00     0.011 C 
HETATM   23  C28 UNL     1       1.309  53.122 -10.194  1.00  0.00    -0.030 C 
HETATM   24  C29 UNL     1       1.740  51.874  -9.362  1.00  0.00     0.016 C 
HETATM   25  C30 UNL     1       3.581  55.727  -8.197  1.00  0.00     0.017 C 
ENDROOT
BRANCH   4  26
HETATM   26  C8  UNL     1       5.387  53.873  -7.836  1.00  0.00     0.149 C 
HETATM   27  O1  UNL     1       5.723  52.801  -8.310  1.00  0.00    -0.649 OA
BRANCH  26  28
HETATM   28  O2  UNL     1       5.337  54.014  -6.495  1.00  0.00    -0.776 OA
HETATM   29  H11 UNL     1       5.617  53.138  -6.156  1.00  0.00     0.167 HD
ENDBRANCH  26  28
ENDBRANCH   4  26
BRANCH   1  30
HETATM   30  C2  UNL     1       2.921  57.357  -6.214  1.00  0.00    -0.088 C 
HETATM   31  C1  UNL     1       3.272  58.229  -5.253  1.00  0.00     0.014 C 
HETATM   32  C3  UNL     1       1.547  57.425  -6.832  1.00  0.00     0.043 C 
ENDBRANCH   1  30
BRANCH  11  33
HETATM   33  O3  UNL     1      -1.269  54.855  -7.901  1.00  0.00    -0.395 OA
HETATM   34  H23 UNL     1      -1.380  55.620  -8.493  1.00  0.00     0.210 HD
ENDBRANCH  11  33
BRANCH  18  35
HETATM   35  C24 UNL     1      -2.418  51.654 -13.863  1.00  0.00     0.176 C 
BRANCH  35  36
HETATM   36  O5  UNL     1      -3.407  50.855 -14.508  1.00  0.00    -0.400 OA
HETATM   37  H39 UNL     1      -4.246  51.344 -14.482  1.00  0.00     0.209 HD
ENDBRANCH  35  36
ENDBRANCH  18  35
BRANCH  17  38
HETATM   38  O4  UNL     1      -3.781  53.724 -12.632  1.00  0.00    -0.395 OA
HETATM   39  H33 UNL     1      -4.589  54.208 -12.389  1.00  0.00     0.210 HD
ENDBRANCH  17  38
TORSDOF 7
ENDMDL
MODEL 2
REMARK minimizedAffinity -7.21436453
REMARK CNNscore 0.755190015
REMARK CNNaffinity 6.77668381
REMARK  7 active torsions:
REMARK  status: ('A' for Active; 'I' for Inactive)
REMARK    1  A    between atoms: C2_2  and  C4_4 
REMARK    2  A    between atoms: C7_7  and  C8_8 
REMARK    3  A    between atoms: C8_8  and  O2_10 
REMARK    4  A    between atoms: C15_17  and  O3_18 
REMARK    5  A    between atoms: C21_24  and  O4_25 
REMARK    6  A    between atoms: C22_26  and  C24_28 
REMARK    7  A    between atoms: C24_28  and  O5_29 
ROOT
HETATM    1  C4  UNL     1       2.610  56.306  -8.999  1.00  0.00     0.019 C 
HETATM    2  C5  UNL     1       3.222  56.981  -7.741  1.00  0.00     0.011 C 
HETATM    3  C6  UNL     1       2.756  56.162  -6.526  1.00  0.00     0.021 C 
HETATM    4  C7  UNL     1       1.494  55.448  -7.021  1.00  0.00     0.050 C 
HETATM    5  C9  UNL     1       1.099  54.192  -6.235  1.00  0.00     0.022 C 
HETATM    6  C10 UNL     1      -0.030  53.429  -6.959  1.00  0.00     0.011 C 
HETATM    7  C11 UNL     1       0.276  53.057  -8.455  1.00  0.00    -0.032 C 
HETATM    8  C12 UNL     1       1.391  51.959  -8.387  1.00  0.00     0.016 C 
HETATM    9  C13 UNL     1       0.810  54.330  -9.219  1.00  0.00     0.003 C 
HETATM   10  C14 UNL     1       1.170  53.989 -10.664  1.00  0.00     0.038 C 
HETATM   11  C15 UNL     1       0.024  53.337 -11.453  1.00  0.00     0.124 C 
HETATM   12  C16 UNL     1      -0.637  52.119 -10.734  1.00  0.00     0.032 C 
HETATM   13  C17 UNL     1      -1.762  51.311 -11.566  1.00  0.00    -0.033 C 
HETATM   14  C18 UNL     1      -2.941  52.231 -11.962  1.00  0.00     0.016 C 
HETATM   15  C19 UNL     1      -1.154  50.751 -12.890  1.00  0.00     0.012 C 
HETATM   16  C20 UNL     1      -2.012  49.710 -13.614  1.00  0.00     0.033 C 
HETATM   17  C21 UNL     1      -2.389  48.538 -12.717  1.00  0.00     0.128 C 
HETATM   18  C22 UNL     1      -3.091  48.972 -11.394  1.00  0.00     0.007 C 
HETATM   19  C23 UNL     1      -4.520  49.463 -11.704  1.00  0.00     0.020 C 
HETATM   20  C25 UNL     1      -2.193  50.066 -10.684  1.00  0.00     0.007 C 
HETATM   21  C26 UNL     1      -2.701  50.508  -9.300  1.00  0.00     0.007 C 
HETATM   22  C27 UNL     1      -1.619  51.259  -8.524  1.00  0.00     0.011 C 
HETATM   23  C28 UNL     1      -1.039  52.505  -9.241  1.00  0.00    -0.030 C 
HETATM   24  C29 UNL     1      -2.161  53.590  -9.226  1.00  0.00     0.016 C 
HETATM   25  C30 UNL     1       1.952  55.024  -8.438  1.00  0.00     0.017 C 
ENDROOT
BRANCH   4  26
HETATM   26  C8  UNL     1       0.342  56.465  -6.969  1.00  0.00     0.149 C 
HETATM   27  O1  UNL     1      -0.451  56.742  -7.852  1.00  0.00    -0.649 OA
BRANCH  26  28
HETATM   28  O2  UNL     1       0.268  57.116  -5.789  1.00  0.00    -0.776 OA
HETATM   29  H11 UNL     1      -0.488  57.728  -5.905  1.00  0.00     0.167 HD
ENDBRANCH  26  28
ENDBRANCH   4  26
BRANCH   1  30
HETATM   30  C2  UNL     1       3.657  56.192 -10.098  1.00  0.00    -0.088 C 
HETATM   31  C1  UNL     1       3.569  56.758 -11.313  1.00  0.00     0.014 C 
HETATM   32  C3  UNL     1       4.858  55.353  -9.738  1.00  0.00     0.043 C 
ENDBRANCH   1  30
BRANCH  11  33
HETATM   33  O3  UNL     1       0.583  52.971 -12.714  1.00  0.00    -0.395 OA
HETATM   34  H23 UNL     1       1.280  52.312 -12.550  1.00  0.00     0.210 HD
ENDBRANCH  11  33
BRANCH  18  35
HETATM   35  C24 UNL     1      -3.200  47.685 -10.510  1.00  0.00     0.176 C 
BRANCH  35  36
HETATM   36  O5  UNL     1      -3.534  46.511 -11.246  1.00  0.00    -0.400 OA
HETATM   37  H39 UNL     1      -2.736  46.220 -11.717  1.00  0.00     0.209 HD
ENDBRANCH  35  36
ENDBRANCH  18  35
BRANCH  17  38
HETATM   38  O4  UNL     1      -1.198  47.803 -12.416  1.00  0.00    -0.395 OA
HETATM   39  H33 UNL     1      -0.786  47.548 -13.260  1.00  0.00     0.210 HD
ENDBRANCH  17  38
TORSDOF 7
ENDMDL
MODEL 3
REMARK minimizedAffinity -6.98675776
REMARK CNNscore 0.719650626
REMARK CNNaffinity 6.76291275
REMARK  7 active torsions:
REMARK  status: ('A' for Active; 'I' for Inactive)
REMARK    1  A    between atoms: C2_2  and  C4_4 
REMARK    2  A    between atoms: C7_7  and  C8_8 
REMARK    3  A    between atoms: C8_8  and  O2_10 
REMARK    4  A    between atoms: C15_17  and  O3_18 
REMARK    5  A    between atoms: C21_24  and  O4_25 
REMARK    6  A    between atoms: C22_26  and  C24_28 
REMARK    7  A    between atoms: C24_28  and  O5_29 
ROOT
HETATM    1  C4  UNL     1      -2.660  51.485 -12.275  1.00  0.00     0.019 C 
HETATM    2  C5  UNL     1      -3.329  50.166 -12.748  1.00  0.00     0.011 C 
HETATM    3  C6  UNL     1      -2.339  49.030 -12.443  1.00  0.00     0.021 C 
HETATM    4  C7  UNL     1      -0.981  49.733 -12.359  1.00  0.00     0.050 C 
HETATM    5  C9  UNL     1       0.103  48.979 -11.579  1.00  0.00     0.022 C 
HETATM    6  C10 UNL     1       1.337  49.876 -11.356  1.00  0.00     0.011 C 
HETATM    7  C11 UNL     1       1.037  51.256 -10.668  1.00  0.00    -0.032 C 
HETATM    8  C12 UNL     1       0.646  50.905  -9.192  1.00  0.00     0.016 C 
HETATM    9  C13 UNL     1      -0.169  51.962 -11.400  1.00  0.00     0.003 C 
HETATM   10  C14 UNL     1      -0.523  53.283 -10.720  1.00  0.00     0.038 C 
HETATM   11  C15 UNL     1       0.661  54.254 -10.591  1.00  0.00     0.124 C 
HETATM   12  C16 UNL     1       1.942  53.621  -9.961  1.00  0.00     0.032 C 
HETATM   13  C17 UNL     1       3.180  54.620  -9.681  1.00  0.00    -0.033 C 
HETATM   14  C18 UNL     1       3.666  55.296 -10.986  1.00  0.00     0.016 C 
HETATM   15  C19 UNL     1       2.742  55.762  -8.711  1.00  0.00     0.012 C 
HETATM   16  C20 UNL     1       3.886  56.589  -8.117  1.00  0.00     0.033 C 
HETATM   17  C21 UNL     1       4.928  55.727  -7.417  1.00  0.00     0.128 C 
HETATM   18  C22 UNL     1       5.508  54.600  -8.323  1.00  0.00     0.007 C 
HETATM   19  C23 UNL     1       6.436  55.219  -9.389  1.00  0.00     0.020 C 
HETATM   20  C25 UNL     1       4.303  53.780  -8.941  1.00  0.00     0.007 C 
HETATM   21  C26 UNL     1       4.723  52.554  -9.771  1.00  0.00     0.007 C 
HETATM   22  C27 UNL     1       3.542  51.614 -10.014  1.00  0.00     0.011 C 
HETATM   23  C28 UNL     1       2.317  52.264 -10.707  1.00  0.00    -0.030 C 
HETATM   24  C29 UNL     1       2.733  52.535 -12.187  1.00  0.00     0.016 C 
HETATM   25  C30 UNL     1      -1.373  51.002 -11.565  1.00  0.00     0.017 C 
ENDROOT
BRANCH   4  26
HETATM   26  C8  UNL     1      -0.499  49.970 -13.800  1.00  0.00     0.149 C 
HETATM   27  O1  UNL     1      -0.291  49.137 -14.665  1.00  0.00    -0.649 OA
BRANCH  26  28
HETATM   28  O2  UNL     1      -0.271  51.272 -14.071  1.00  0.00    -0.776 OA
HETATM   29  H11 UNL     1       0.037  51.268 -15.002  1.00  0.00     0.167 HD
ENDBRANCH  26  28
ENDBRANCH   4  26
BRANCH   1  30
HETATM   30  C2  UNL     1      -3.660  52.340 -11.512  1.00  0.00    -0.088 C 
HETATM   31  C1  UNL     1      -3.814  53.667 -11.656  1.00  0.00     0.014 C 
HETATM   32  C3  UNL     1      -4.510  51.583 -10.521  1.00  0.00     0.043 C 
ENDBRANCH   1  30
BRANCH  11  33
HETATM   33  O3  UNL     1       0.178  55.354  -9.821  1.00  0.00    -0.395 OA
HETATM   34  H23 UNL     1      -0.063  55.017  -8.940  1.00  0.00     0.210 HD
ENDBRANCH  11  33
BRANCH  18  35
HETATM   35  C24 UNL     1       6.378  53.689  -7.393  1.00  0.00     0.176 C 
BRANCH  35  36
HETATM   36  O5  UNL     1       5.611  52.797  -6.587  1.00  0.00    -0.400 OA
HETATM   37  H39 UNL     1       5.309  52.070  -7.157  1.00  0.00     0.209 HD
ENDBRANCH  35  36
ENDBRANCH  18  35
BRANCH  17  38
HETATM   38  O4  UNL     1       4.324  55.152  -6.253  1.00  0.00    -0.395 OA
HETATM   39  H33 UNL     1       3.974  55.880  -5.711  1.00  0.00     0.210 HD
ENDBRANCH  17  38
TORSDOF 7
ENDMDL
MODEL 4
REMARK minimizedAffinity -6.42265558
REMARK CNNscore 0.65835011
REMARK CNNaffinity 6.13781929
REMARK  7 active torsions:
REMARK  status: ('A' for Active; 'I' for Inactive)
REMARK    1  A    between atoms: C2_2  and  C4_4 
REMARK    2  A    between atoms: C7_7  and  C8_8 
REMARK    3  A    between atoms: C8_8  and  O2_10 
REMARK    4  A    between atoms: C15_17  and  O3_18 
REMARK    5  A    between atoms: C21_24  and  O4_25 
REMARK    6  A    between atoms: C22_26  and  C24_28 
REMARK    7  A    between atoms: C24_28  and  O5_29 
ROOT
HETATM    1  C4  UNL     1     -17.160  46.456 -22.102  1.00  0.00     0.019 C 
HETATM    2  C5  UNL     1     -18.618  46.453 -21.569  1.00  0.00     0.011 C 
HETATM    3  C6  UNL     1     -19.387  45.398 -22.381  1.00  0.00     0.021 C 
HETATM    4  C7  UNL     1     -18.572  45.254 -23.669  1.00  0.00     0.050 C 
HETATM    5  C9  UNL     1     -18.782  43.943 -24.437  1.00  0.00     0.022 C 
HETATM    6  C10 UNL     1     -17.747  43.804 -25.571  1.00  0.00     0.011 C 
HETATM    7  C11 UNL     1     -16.247  43.932 -25.119  1.00  0.00    -0.032 C 
HETATM    8  C12 UNL     1     -15.957  42.639 -24.283  1.00  0.00     0.016 C 
HETATM    9  C13 UNL     1     -16.073  45.215 -24.218  1.00  0.00     0.003 C 
HETATM   10  C14 UNL     1     -14.636  45.339 -23.714  1.00  0.00     0.038 C 
HETATM   11  C15 UNL     1     -13.582  45.327 -24.832  1.00  0.00     0.124 C 
HETATM   12  C16 UNL     1     -13.727  44.141 -25.837  1.00  0.00     0.032 C 
HETATM   13  C17 UNL     1     -12.576  44.000 -26.961  1.00  0.00    -0.033 C 
HETATM   14  C18 UNL     1     -12.490  45.267 -27.845  1.00  0.00     0.016 C 
HETATM   15  C19 UNL     1     -11.181  43.821 -26.283  1.00  0.00     0.012 C 
HETATM   16  C20 UNL     1     -10.056  43.363 -27.215  1.00  0.00     0.033 C 
HETATM   17  C21 UNL     1     -10.402  42.084 -27.964  1.00  0.00     0.128 C 
HETATM   18  C22 UNL     1     -11.739  42.174 -28.759  1.00  0.00     0.007 C 
HETATM   19  C23 UNL     1     -11.551  43.087 -29.987  1.00  0.00     0.020 C 
HETATM   20  C25 UNL     1     -12.876  42.673 -27.776  1.00  0.00     0.007 C 
HETATM   21  C26 UNL     1     -14.286  42.700 -28.391  1.00  0.00     0.007 C 
HETATM   22  C27 UNL     1     -15.362  42.821 -27.312  1.00  0.00     0.011 C 
HETATM   23  C28 UNL     1     -15.223  44.052 -26.380  1.00  0.00    -0.030 C 
HETATM   24  C29 UNL     1     -15.584  45.304 -27.239  1.00  0.00     0.016 C 
HETATM   25  C30 UNL     1     -17.136  45.268 -23.093  1.00  0.00     0.017 C 
ENDROOT
BRANCH   4  26
HETATM   26  C8  UNL     1     -18.939  46.440 -24.577  1.00  0.00     0.149 C 
HETATM   27  O1  UNL     1     -20.007  46.664 -25.119  1.00  0.00    -0.649 OA
BRANCH  26  28
HETATM   28  O2  UNL     1     -17.906  47.284 -24.783  1.00  0.00    -0.776 OA
HETATM   29  H11 UNL     1     -18.276  47.969 -25.378  1.00  0.00     0.167 HD
ENDBRANCH  26  28
ENDBRANCH   4  26
BRANCH   1  30
HETATM   30  C2  UNL     1     -16.174  46.484 -20.943  1.00  0.00    -0.088 C 
HETATM   31  C1  UNL     1     -15.096  47.281 -20.863  1.00  0.00     0.014 C 
HETATM   32  C3  UNL     1     -16.479  45.510 -19.833  1.00  0.00     0.043 C 
ENDBRANCH   1  30
BRANCH  11  33
HETATM   33  O3  UNL     1     -12.318  45.312 -24.171  1.00  0.00    -0.395 OA
HETATM   34  H23 UNL     1     -12.259  44.485 -23.661  1.00  0.00     0.210 HD
ENDBRANCH  11  33
BRANCH  18  35
HETATM   35  C24 UNL     1     -12.047  40.727 -29.271  1.00  0.00     0.176 C 
BRANCH  35  36
HETATM   36  O5  UNL     1     -12.577  39.865 -28.267  1.00  0.00    -0.400 OA
HETATM   37  H39 UNL     1     -13.509  40.105 -28.133  1.00  0.00     0.209 HD
ENDBRANCH  35  36
ENDBRANCH  18  35
BRANCH  17  38
HETATM   38  O4  UNL     1     -10.471  41.014 -27.015  1.00  0.00    -0.395 OA
HETATM   39  H33 UNL     1      -9.624  40.985 -26.538  1.00  0.00     0.210 HD
ENDBRANCH  17  38
TORSDOF 7
ENDMDL
MODEL 5
REMARK minimizedAffinity -7.13365173
REMARK CNNscore 0.654108107
REMARK CNNaffinity 6.24452162
REMARK  7 active torsions:
REMARK  status: ('A' for Active; 'I' for Inactive)
REMARK    1  A    between atoms: C2_2  and  C4_4 
REMARK    2  A    between atoms: C7_7  and  C8_8 
REMARK    3  A    between atoms: C8_8  and  O2_10 
REMARK    4  A    between atoms: C15_17  and  O3_18 
REMARK    5  A    between atoms: C21_24  and  O4_25 
REMARK    6  A    between atoms: C22_26  and  C24_28 
REMARK    7  A    between atoms: C24_28  and  O5_29 
ROOT
HETATM    1  C4  UNL     1     -12.641  44.042 -25.116  1.00  0.00     0.019 C 
HETATM    2  C5  UNL     1     -14.086  44.187 -24.565  1.00  0.00     0.011 C 
HETATM    3  C6  UNL     1     -14.840  45.114 -25.532  1.00  0.00     0.021 C 
HETATM    4  C7  UNL     1     -13.730  45.903 -26.233  1.00  0.00     0.050 C 
HETATM    5  C9  UNL     1     -14.114  46.520 -27.583  1.00  0.00     0.022 C 
HETATM    6  C10 UNL     1     -12.868  47.078 -28.301  1.00  0.00     0.011 C 
HETATM    7  C11 UNL     1     -11.697  46.048 -28.490  1.00  0.00    -0.032 C 
HETATM    8  C12 UNL     1     -12.220  45.017 -29.547  1.00  0.00     0.016 C 
HETATM    9  C13 UNL     1     -11.402  45.323 -27.121  1.00  0.00     0.003 C 
HETATM   10  C14 UNL     1     -10.303  44.274 -27.283  1.00  0.00     0.038 C 
HETATM   11  C15 UNL     1      -9.000  44.824 -27.884  1.00  0.00     0.124 C 
HETATM   12  C16 UNL     1      -9.198  45.642 -29.200  1.00  0.00     0.032 C 
HETATM   13  C17 UNL     1      -7.857  46.140 -29.950  1.00  0.00    -0.033 C 
HETATM   14  C18 UNL     1      -7.003  47.051 -29.036  1.00  0.00     0.016 C 
HETATM   15  C19 UNL     1      -6.968  44.916 -30.334  1.00  0.00     0.012 C 
HETATM   16  C20 UNL     1      -5.834  45.215 -31.318  1.00  0.00     0.033 C 
HETATM   17  C21 UNL     1      -6.330  45.877 -32.597  1.00  0.00     0.128 C 
HETATM   18  C22 UNL     1      -7.161  47.171 -32.342  1.00  0.00     0.007 C 
HETATM   19  C23 UNL     1      -6.224  48.303 -31.873  1.00  0.00     0.020 C 
HETATM   20  C25 UNL     1      -8.307  46.836 -31.302  1.00  0.00     0.007 C 
HETATM   21  C26 UNL     1      -9.288  47.992 -31.038  1.00  0.00     0.007 C 
HETATM   22  C27 UNL     1     -10.555  47.500 -30.339  1.00  0.00     0.011 C 
HETATM   23  C28 UNL     1     -10.321  46.756 -28.999  1.00  0.00    -0.030 C 
HETATM   24  C29 UNL     1      -9.864  47.832 -27.966  1.00  0.00     0.016 C 
HETATM   25  C30 UNL     1     -12.698  44.775 -26.477  1.00  0.00     0.017 C 
ENDROOT
BRANCH   4  26
HETATM   26  C8  UNL     1     -13.286  47.018 -25.272  1.00  0.00     0.149 C 
HETATM   27  O1  UNL     1     -13.788  47.331 -24.206  1.00  0.00    -0.649 OA
BRANCH  26  28
HETATM   28  O2  UNL     1     -12.225  47.715 -25.730  1.00  0.00    -0.776 OA
HETATM   29  H11 UNL     1     -12.066  48.386 -25.033  1.00  0.00     0.167 HD
ENDBRANCH  26  28
ENDBRANCH   4  26
BRANCH   1  30
HETATM   30  C2  UNL     1     -12.201  42.587 -25.066  1.00  0.00    -0.088 C 
HETATM   31  C1  UNL     1     -12.568  41.637 -25.942  1.00  0.00     0.014 C 
HETATM   32  C3  UNL     1     -11.291  42.242 -23.914  1.00  0.00     0.043 C 
ENDBRANCH   1  30
BRANCH  11  33
HETATM   33  O3  UNL     1      -8.158  43.691 -28.085  1.00  0.00    -0.395 OA
HETATM   34  H23 UNL     1      -8.593  43.108 -28.731  1.00  0.00     0.210 HD
ENDBRANCH  11  33
BRANCH  18  35
HETATM   35  C24 UNL     1      -7.770  47.585 -33.723  1.00  0.00     0.176 C 
BRANCH  35  36
HETATM   36  O5  UNL     1      -6.817  47.611 -34.783  1.00  0.00    -0.400 OA
HETATM   37  H39 UNL     1      -6.639  46.692 -35.044  1.00  0.00     0.209 HD
ENDBRANCH  35  36
ENDBRANCH  18  35
BRANCH  17  38
HETATM   38  O4  UNL     1      -7.122  44.925 -33.316  1.00  0.00    -0.395 OA
HETATM   39  H33 UNL     1      -6.576  44.133 -33.459  1.00  0.00     0.210 HD
ENDBRANCH  17  38
TORSDOF 7
ENDMDL
MODEL 6
REMARK minimizedAffinity -7.07115602
REMARK CNNscore 0.580302596
REMARK CNNaffinity 6.70249176
REMARK  7 active torsions:
REMARK  status: ('A' for Active; 'I' for Inactive)
REMARK    1  A    between atoms: C2_2  and  C4_4 
REMARK    2  A    between atoms: C7_7  and  C8_8 
REMARK    3  A    between atoms: C8_8  and  O2_10 
REMARK    4  A    between atoms: C15_17  and  O3_18 
REMARK    5  A    between atoms: C21_24  and  O4_25 
REMARK    6  A    between atoms: C22_26  and  C24_28 
REMARK    7  A    between atoms: C24_28  and  O5_29 
ROOT
HETATM    1  C4  UNL     1      -1.673  52.647 -11.609  1.00  0.00     0.019 C 
HETATM    2  C5  UNL     1      -1.939  51.406 -12.504  1.00  0.00     0.011 C 
HETATM    3  C6  UNL     1      -0.694  50.509 -12.404  1.00  0.00     0.021 C 
HETATM    4  C7  UNL     1       0.419  51.466 -11.966  1.00  0.00     0.050 C 
HETATM    5  C9  UNL     1       1.629  50.805 -11.297  1.00  0.00     0.022 C 
HETATM    6  C10 UNL     1       2.565  51.869 -10.687  1.00  0.00     0.011 C 
HETATM    7  C11 UNL     1       1.872  52.866  -9.689  1.00  0.00    -0.032 C 
HETATM    8  C12 UNL     1       1.524  52.008  -8.425  1.00  0.00     0.016 C 
HETATM    9  C13 UNL     1       0.554  53.438 -10.340  1.00  0.00     0.003 C 
HETATM   10  C14 UNL     1      -0.174  54.369  -9.373  1.00  0.00     0.038 C 
HETATM   11  C15 UNL     1       0.697  55.517  -8.839  1.00  0.00     0.124 C 
HETATM   12  C16 UNL     1       2.072  55.061  -8.256  1.00  0.00     0.032 C 
HETATM   13  C17 UNL     1       2.980  56.203  -7.565  1.00  0.00    -0.033 C 
HETATM   14  C18 UNL     1       3.324  57.333  -8.565  1.00  0.00     0.016 C 
HETATM   15  C19 UNL     1       2.207  56.862  -6.379  1.00  0.00     0.012 C 
HETATM   16  C20 UNL     1       3.057  57.730  -5.447  1.00  0.00     0.033 C 
HETATM   17  C21 UNL     1       4.260  56.982  -4.889  1.00  0.00     0.128 C 
HETATM   18  C22 UNL     1       5.164  56.353  -5.991  1.00  0.00     0.007 C 
HETATM   19  C23 UNL     1       5.936  57.468  -6.726  1.00  0.00     0.020 C 
HETATM   20  C25 UNL     1       4.254  55.484  -6.953  1.00  0.00     0.007 C 
HETATM   21  C26 UNL     1       5.026  54.701  -8.029  1.00  0.00     0.007 C 
HETATM   22  C27 UNL     1       4.155  53.617  -8.662  1.00  0.00     0.011 C 
HETATM   23  C28 UNL     1       2.832  54.121  -9.295  1.00  0.00    -0.030 C 
HETATM   24  C29 UNL     1       3.227  54.912 -10.581  1.00  0.00     0.016 C 
HETATM   25  C30 UNL     1      -0.337  52.306 -10.907  1.00  0.00     0.017 C 
ENDROOT
BRANCH   4  26
HETATM   26  C8  UNL     1       0.883  52.231 -13.217  1.00  0.00     0.149 C 
HETATM   27  O1  UNL     1       0.209  52.588 -14.167  1.00  0.00    -0.649 OA
BRANCH  26  28
HETATM   28  O2  UNL     1       2.209  52.483 -13.217  1.00  0.00    -0.776 OA
HETATM   29  H11 UNL     1       2.359  52.954 -14.064  1.00  0.00     0.167 HD
ENDBRANCH  26  28
ENDBRANCH   4  26
BRANCH   1  30
HETATM   30  C2  UNL     1      -2.901  52.964 -10.768  1.00  0.00    -0.088 C 
HETATM   31  C1  UNL     1      -3.625  54.093 -10.850  1.00  0.00     0.014 C 
HETATM   32  C3  UNL     1      -3.278  51.893  -9.775  1.00  0.00     0.043 C 
ENDBRANCH   1  30
BRANCH  11  33
HETATM   33  O3  UNL     1      -0.099  56.185  -7.862  1.00  0.00    -0.395 OA
HETATM   34  H23 UNL     1      -0.279  55.554  -7.144  1.00  0.00     0.210 HD
ENDBRANCH  11  33
BRANCH  18  35
HETATM   35  C24 UNL     1       6.204  55.450  -5.248  1.00  0.00     0.176 C 
BRANCH  35  36
HETATM   36  O5  UNL     1       7.558  55.739  -5.587  1.00  0.00    -0.400 OA
HETATM   37  H39 UNL     1       7.811  56.555  -5.123  1.00  0.00     0.209 HD
ENDBRANCH  35  36
ENDBRANCH  18  35
BRANCH  17  38
HETATM   38  O4  UNL     1       3.782  55.958  -4.009  1.00  0.00    -0.395 OA
HETATM   39  H33 UNL     1       3.224  56.383  -3.335  1.00  0.00     0.210 HD
ENDBRANCH  17  38
TORSDOF 7
ENDMDL
MODEL 7
REMARK minimizedAffinity -8.17492771
REMARK CNNscore 0.562407792
REMARK CNNaffinity 6.6129756
REMARK  7 active torsions:
REMARK  status: ('A' for Active; 'I' for Inactive)
REMARK    1  A    between atoms: C2_2  and  C4_4 
REMARK    2  A    between atoms: C7_7  and  C8_8 
REMARK    3  A    between atoms: C8_8  and  O2_10 
REMARK    4  A    between atoms: C15_17  and  O3_18 
REMARK    5  A    between atoms: C21_24  and  O4_25 
REMARK    6  A    between atoms: C22_26  and  C24_28 
REMARK    7  A    between atoms: C24_28  and  O5_29 
ROOT
HETATM    1  C4  UNL     1      -5.616  48.657 -25.727  1.00  0.00     0.019 C 
HETATM    2  C5  UNL     1      -5.609  48.633 -24.174  1.00  0.00     0.011 C 
HETATM    3  C6  UNL     1      -6.706  47.646 -23.740  1.00  0.00     0.021 C 
HETATM    4  C7  UNL     1      -7.649  47.585 -24.944  1.00  0.00     0.050 C 
HETATM    5  C9  UNL     1      -8.532  46.334 -25.024  1.00  0.00     0.022 C 
HETATM    6  C10 UNL     1      -9.256  46.264 -26.385  1.00  0.00     0.011 C 
HETATM    7  C11 UNL     1      -8.315  46.343 -27.640  1.00  0.00    -0.032 C 
HETATM    8  C12 UNL     1      -7.523  44.991 -27.648  1.00  0.00     0.016 C 
HETATM    9  C13 UNL     1      -7.321  47.557 -27.482  1.00  0.00     0.003 C 
HETATM   10  C14 UNL     1      -6.353  47.629 -28.662  1.00  0.00     0.038 C 
HETATM   11  C15 UNL     1      -7.046  47.685 -30.033  1.00  0.00     0.124 C 
HETATM   12  C16 UNL     1      -8.122  46.575 -30.252  1.00  0.00     0.032 C 
HETATM   13  C17 UNL     1      -8.796  46.500 -31.718  1.00  0.00    -0.033 C 
HETATM   14  C18 UNL     1      -9.508  47.826 -32.080  1.00  0.00     0.016 C 
HETATM   15  C19 UNL     1      -7.700  46.258 -32.803  1.00  0.00     0.012 C 
HETATM   16  C20 UNL     1      -8.226  45.856 -34.183  1.00  0.00     0.033 C 
HETATM   17  C21 UNL     1      -9.136  44.636 -34.129  1.00  0.00     0.128 C 
HETATM   18  C22 UNL     1     -10.328  44.796 -33.138  1.00  0.00     0.007 C 
HETATM   19  C23 UNL     1     -11.353  45.792 -33.719  1.00  0.00     0.020 C 
HETATM   20  C25 UNL     1      -9.755  45.237 -31.729  1.00  0.00     0.007 C 
HETATM   21  C26 UNL     1     -10.808  45.323 -30.610  1.00  0.00     0.007 C 
HETATM   22  C27 UNL     1     -10.151  45.380 -29.231  1.00  0.00     0.011 C 
HETATM   23  C28 UNL     1      -9.143  46.540 -29.029  1.00  0.00    -0.030 C 
HETATM   24  C29 UNL     1      -9.983  47.854 -28.964  1.00  0.00     0.016 C 
HETATM   25  C30 UNL     1      -6.621  47.542 -26.101  1.00  0.00     0.017 C 
ENDROOT
BRANCH   4  26
HETATM   26  C8  UNL     1      -8.542  48.836 -24.891  1.00  0.00     0.149 C 
HETATM   27  O1  UNL     1      -9.391  49.183 -25.694  1.00  0.00    -0.649 OA
BRANCH  26  28
HETATM   28  O2  UNL     1      -8.290  49.616 -23.819  1.00  0.00    -0.776 OA
HETATM   29  H11 UNL     1      -8.912  50.366 -23.923  1.00  0.00     0.167 HD
ENDBRANCH  26  28
ENDBRANCH   4  26
BRANCH   1  30
HETATM   30  C2  UNL     1      -4.193  48.593 -26.261  1.00  0.00    -0.088 C 
HETATM   31  C1  UNL     1      -3.112  48.245 -25.544  1.00  0.00     0.014 C 
HETATM   32  C3  UNL     1      -4.047  48.973 -27.714  1.00  0.00     0.043 C 
ENDBRANCH   1  30
BRANCH  11  33
HETATM   33  O3  UNL     1      -5.999  47.609 -30.999  1.00  0.00    -0.395 OA
HETATM   34  H23 UNL     1      -5.559  46.747 -30.892  1.00  0.00     0.210 HD
ENDBRANCH  11  33
BRANCH  18  35
HETATM   35  C24 UNL     1     -11.014  43.393 -33.042  1.00  0.00     0.176 C 
BRANCH  35  36
HETATM   36  O5  UNL     1     -11.996  43.166 -34.050  1.00  0.00    -0.400 OA
HETATM   37  H39 UNL     1     -11.528  42.972 -34.880  1.00  0.00     0.209 HD
ENDBRANCH  35  36
ENDBRANCH  18  35
BRANCH  17  38
HETATM   38  O4  UNL     1      -8.343  43.502 -33.756  1.00  0.00    -0.395 OA
HETATM   39  H33 UNL     1      -7.611  43.431 -34.393  1.00  0.00     0.210 HD
ENDBRANCH  17  38
TORSDOF 7
ENDMDL
MODEL 8
REMARK minimizedAffinity -6.6963768
REMARK CNNscore 0.556111693
REMARK CNNaffinity 6.18104219
REMARK  7 active torsions:
REMARK  status: ('A' for Active; 'I' for Inactive)
REMARK    1  A    between atoms: C2_2  and  C4_4 
REMARK    2  A    between atoms: C7_7  and  C8_8 
REMARK    3  A    between atoms: C8_8  and  O2_10 
REMARK    4  A    between atoms: C15_17  and  O3_18 
REMARK    5  A    between atoms: C21_24  and  O4_25 
REMARK    6  A    between atoms: C22_26  and  C24_28 
REMARK    7  A    between atoms: C24_28  and  O5_29 
ROOT
HETATM    1  C4  UNL     1     -13.687  44.168 -24.047  1.00  0.00     0.019 C 
HETATM    2  C5  UNL     1     -15.160  43.836 -23.684  1.00  0.00     0.011 C 
HETATM    3  C6  UNL     1     -16.002  44.116 -24.939  1.00  0.00     0.021 C 
HETATM    4  C7  UNL     1     -15.149  45.100 -25.747  1.00  0.00     0.050 C 
HETATM    5  C9  UNL     1     -15.466  45.168 -27.245  1.00  0.00     0.022 C 
HETATM    6  C10 UNL     1     -14.401  45.999 -27.990  1.00  0.00     0.011 C 
HETATM    7  C11 UNL     1     -12.919  45.525 -27.771  1.00  0.00    -0.032 C 
HETATM    8  C12 UNL     1     -12.811  44.152 -28.519  1.00  0.00     0.016 C 
HETATM    9  C13 UNL     1     -12.647  45.330 -26.230  1.00  0.00     0.003 C 
HETATM   10  C14 UNL     1     -11.230  44.815 -25.986  1.00  0.00     0.038 C 
HETATM   11  C15 UNL     1     -10.133  45.689 -26.613  1.00  0.00     0.124 C 
HETATM   12  C16 UNL     1     -10.361  46.019 -28.122  1.00  0.00     0.032 C 
HETATM   13  C17 UNL     1      -9.182  46.828 -28.872  1.00  0.00    -0.033 C 
HETATM   14  C18 UNL     1      -8.918  48.196 -28.198  1.00  0.00     0.016 C 
HETATM   15  C19 UNL     1      -7.847  46.021 -28.805  1.00  0.00     0.012 C 
HETATM   16  C20 UNL     1      -6.737  46.515 -29.737  1.00  0.00     0.033 C 
HETATM   17  C21 UNL     1      -7.187  46.594 -31.189  1.00  0.00     0.128 C 
HETATM   18  C22 UNL     1      -8.468  47.456 -31.395  1.00  0.00     0.007 C 
HETATM   19  C23 UNL     1      -8.125  48.948 -31.203  1.00  0.00     0.020 C 
HETATM   20  C25 UNL     1      -9.587  46.939 -30.401  1.00  0.00     0.007 C 
HETATM   21  C26 UNL     1     -10.956  47.621 -30.569  1.00  0.00     0.007 C 
HETATM   22  C27 UNL     1     -12.061  46.834 -29.864  1.00  0.00     0.011 C 
HETATM   23  C28 UNL     1     -11.831  46.590 -28.350  1.00  0.00    -0.030 C 
HETATM   24  C29 UNL     1     -12.013  47.970 -27.644  1.00  0.00     0.016 C 
HETATM   25  C30 UNL     1     -13.748  44.469 -25.563  1.00  0.00     0.017 C 
ENDROOT
BRANCH   4  26
HETATM   26  C8  UNL     1     -15.342  46.492 -25.121  1.00  0.00     0.149 C 
HETATM   27  O1  UNL     1     -14.480  47.292 -24.799  1.00  0.00    -0.649 OA
BRANCH  26  28
HETATM   28  O2  UNL     1     -16.638  46.796 -24.903  1.00  0.00    -0.776 OA
HETATM   29  H11 UNL     1     -16.606  47.688 -24.498  1.00  0.00     0.167 HD
ENDBRANCH  26  28
ENDBRANCH   4  26
BRANCH   1  30
HETATM   30  C2  UNL     1     -12.759  43.076 -23.537  1.00  0.00    -0.088 C 
HETATM   31  C1  UNL     1     -11.936  43.190 -22.480  1.00  0.00     0.014 C 
HETATM   32  C3  UNL     1     -12.801  41.792 -24.328  1.00  0.00     0.043 C 
ENDBRANCH   1  30
BRANCH  11  33
HETATM   33  O3  UNL     1      -8.909  44.986 -26.401  1.00  0.00    -0.395 OA
HETATM   34  H23 UNL     1      -8.965  44.142 -26.882  1.00  0.00     0.210 HD
ENDBRANCH  11  33
BRANCH  18  35
HETATM   35  C24 UNL     1      -8.909  47.246 -32.882  1.00  0.00     0.176 C 
BRANCH  35  36
HETATM   36  O5  UNL     1      -8.157  48.018 -33.815  1.00  0.00    -0.400 OA
HETATM   37  H39 UNL     1      -7.292  47.589 -33.924  1.00  0.00     0.209 HD
ENDBRANCH  35  36
ENDBRANCH  18  35
BRANCH  17  38
HETATM   38  O4  UNL     1      -7.417  45.262 -31.661  1.00  0.00    -0.395 OA
HETATM   39  H33 UNL     1      -6.600  44.752 -31.519  1.00  0.00     0.210 HD
ENDBRANCH  17  38
TORSDOF 7
ENDMDL
MODEL 9
REMARK minimizedAffinity -7.6005826
REMARK CNNscore 0.490625054
REMARK CNNaffinity 6.51387453
REMARK  7 active torsions:
REMARK  status: ('A' for Active; 'I' for Inactive)
REMARK    1  A    between atoms: C2_2  and  C4_4 
REMARK    2  A    between atoms: C7_7  and  C8_8 
REMARK    3  A    between atoms: C8_8  and  O2_10 
REMARK    4  A    between atoms: C15_17  and  O3_18 
REMARK    5  A    between atoms: C21_24  and  O4_25 
REMARK    6  A    between atoms: C22_26  and  C24_28 
REMARK    7  A    between atoms: C24_28  and  O5_29 
ROOT
HETATM    1  C4  UNL     1       5.037  54.587  -8.084  1.00  0.00     0.019 C 
HETATM    2  C5  UNL     1       6.551  54.242  -8.131  1.00  0.00     0.011 C 
HETATM    3  C6  UNL     1       6.696  52.996  -9.020  1.00  0.00     0.021 C 
HETATM    4  C7  UNL     1       5.310  52.347  -8.980  1.00  0.00     0.050 C 
HETATM    5  C9  UNL     1       4.992  51.401 -10.145  1.00  0.00     0.022 C 
HETATM    6  C10 UNL     1       3.503  50.999 -10.130  1.00  0.00     0.011 C 
HETATM    7  C11 UNL     1       2.492  52.202 -10.118  1.00  0.00    -0.032 C 
HETATM    8  C12 UNL     1       2.616  52.858 -11.535  1.00  0.00     0.016 C 
HETATM    9  C13 UNL     1       2.910  53.235  -9.001  1.00  0.00     0.003 C 
HETATM   10  C14 UNL     1       1.978  54.445  -9.000  1.00  0.00     0.038 C 
HETATM   11  C15 UNL     1       0.491  54.087  -8.863  1.00  0.00     0.124 C 
HETATM   12  C16 UNL     1      -0.001  52.998  -9.868  1.00  0.00     0.032 C 
HETATM   13  C17 UNL     1      -1.582  52.667  -9.860  1.00  0.00    -0.033 C 
HETATM   14  C18 UNL     1      -2.048  52.170  -8.471  1.00  0.00     0.016 C 
HETATM   15  C19 UNL     1      -2.403  53.954 -10.185  1.00  0.00     0.012 C 
HETATM   16  C20 UNL     1      -3.879  53.721 -10.519  1.00  0.00     0.033 C 
HETATM   17  C21 UNL     1      -4.070  52.722 -11.652  1.00  0.00     0.128 C 
HETATM   18  C22 UNL     1      -3.365  51.355 -11.399  1.00  0.00     0.007 C 
HETATM   19  C23 UNL     1      -4.126  50.576 -10.307  1.00  0.00     0.020 C 
HETATM   20  C25 UNL     1      -1.850  51.631 -11.031  1.00  0.00     0.007 C 
HETATM   21  C26 UNL     1      -0.991  50.365 -10.866  1.00  0.00     0.007 C 
HETATM   22  C27 UNL     1       0.501  50.696 -10.889  1.00  0.00     0.011 C 
HETATM   23  C28 UNL     1       0.962  51.728  -9.827  1.00  0.00    -0.030 C 
HETATM   24  C29 UNL     1       0.883  51.009  -8.444  1.00  0.00     0.016 C 
HETATM   25  C30 UNL     1       4.411  53.601  -9.098  1.00  0.00     0.017 C 
ENDROOT
BRANCH   4  26
HETATM   26  C8  UNL     1       5.205  51.574  -7.654  1.00  0.00     0.149 C 
HETATM   27  O1  UNL     1       5.959  50.717  -7.228  1.00  0.00    -0.649 OA
BRANCH  26  28
HETATM   28  O2  UNL     1       4.114  51.909  -6.934  1.00  0.00    -0.776 OA
HETATM   29  H11 UNL     1       4.172  51.339  -6.139  1.00  0.00     0.167 HD
ENDBRANCH  26  28
ENDBRANCH   4  26
BRANCH   1  30
HETATM   30  C2  UNL     1       4.832  56.083  -8.269  1.00  0.00    -0.088 C 
HETATM   31  C1  UNL     1       4.223  56.657  -9.320  1.00  0.00     0.014 C 
HETATM   32  C3  UNL     1       5.388  56.938  -7.158  1.00  0.00     0.043 C 
ENDBRANCH   1  30
BRANCH  11  33
HETATM   33  O3  UNL     1      -0.219  55.314  -9.019  1.00  0.00    -0.395 OA
HETATM   34  H23 UNL     1      -0.047  55.644  -9.918  1.00  0.00     0.210 HD
ENDBRANCH  11  33
BRANCH  18  35
HETATM   35  C24 UNL     1      -3.472  50.548 -12.736  1.00  0.00     0.176 C 
BRANCH  35  36
HETATM   36  O5  UNL     1      -4.123  49.288 -12.592  1.00  0.00    -0.400 OA
HETATM   37  H39 UNL     1      -5.078  49.455 -12.520  1.00  0.00     0.209 HD
ENDBRANCH  35  36
ENDBRANCH  18  35
BRANCH  17  38
HETATM   38  O4  UNL     1      -3.569  53.311 -12.858  1.00  0.00    -0.395 OA
HETATM   39  H33 UNL     1      -4.029  54.159 -12.986  1.00  0.00     0.210 HD
ENDBRANCH  17  38
TORSDOF 7
ENDMDL
