MODEL 1
REMARK minimizedAffinity -8.1614933
REMARK  8 active torsions:
REMARK  status: ('A' for Active; 'I' for Inactive)
REMARK    1  A    between atoms: C2_2  and  O2_4 
REMARK    2  A    between atoms: O2_4  and  C3_5 
REMARK    3  A    between atoms: C5_7  and  O3_8 
REMARK    4  A    between atoms: C14_17  and  C15_18 
REMARK    5  A    between atoms: C15_18  and  O5_20 
REMARK    6  A    between atoms: O5_20  and  C16_21 
REMARK    7  A    between atoms: C16_21  and  C17_22 
REMARK    8  A    between atoms: C17_22  and  N1_23 
ROOT
HETATM    1  C3  UNL     1      -7.869   7.251  14.856  1.00  0.00     0.097 C 
HETATM    2  C4  UNL     1      -8.051   8.650  15.478  1.00  0.00     0.050 C 
HETATM    3  C5  UNL     1      -8.055   6.216  16.030  1.00  0.00     0.153 C 
HETATM    4  C6  UNL     1      -7.307   4.887  15.848  1.00  0.00     0.035 C 
HETATM    5  C7  UNL     1      -7.107   4.510  14.386  1.00  0.00     0.012 C 
HETATM    6  C8  UNL     1      -6.310   5.573  13.563  1.00  0.00    -0.033 C 
HETATM    7  C9  UNL     1      -6.860   5.516  12.115  1.00  0.00     0.016 C 
HETATM    8  C10 UNL     1      -4.760   5.280  13.539  1.00  0.00     0.006 C 
HETATM    9  C11 UNL     1      -4.345   3.873  13.032  1.00  0.00     0.010 C 
HETATM   10  C12 UNL     1      -3.377   3.889  11.844  1.00  0.00     0.035 C 
HETATM   11  C13 UNL     1      -2.169   4.783  12.059  1.00  0.00    -0.070 C 
HETATM   12  C14 UNL     1      -0.971   4.370  11.590  1.00  0.00     0.085 C 
HETATM   13  C20 UNL     1      -2.445   6.095  12.794  1.00  0.00     0.022 C 
HETATM   14  C21 UNL     1      -1.857   6.039  14.215  1.00  0.00     0.015 C 
HETATM   15  C22 UNL     1      -3.969   6.386  12.785  1.00  0.00     0.068 C 
HETATM   16  C23 UNL     1      -4.328   7.786  13.279  1.00  0.00     0.132 C 
HETATM   17  O6  UNL     1      -3.484   8.661  13.462  1.00  0.00    -0.298 OA
HETATM   18  C24 UNL     1      -5.808   8.096  13.425  1.00  0.00     0.087 C 
HETATM   19  C25 UNL     1      -6.456   6.988  14.258  1.00  0.00     0.038 C 
ENDROOT
BRANCH  12  20
HETATM   20  C15 UNL     1       0.364   5.011  11.622  1.00  0.00     0.283 C 
HETATM   21  O4  UNL     1       0.916   5.281  12.680  1.00  0.00    -0.260 OA
BRANCH  20  22
HETATM   22  O5  UNL     1       0.879   5.198  10.391  1.00  0.00    -0.316 OA
BRANCH  22  23
HETATM   23  C16 UNL     1       1.786   6.308  10.251  1.00  0.00     0.209 C 
BRANCH  23  24
HETATM   24  C17 UNL     1       2.423   6.307   8.852  1.00  0.00     0.298 C 
BRANCH  24  25
HETATM   25  N1  UNL     1       1.990   7.430   7.998  1.00  0.00     0.082 N 
HETATM   26  C18 UNL     1       1.817   6.968   6.618  1.00  0.00     0.309 C 
HETATM   27  C19 UNL     1       2.956   8.532   8.029  1.00  0.00     0.309 C 
ENDBRANCH  24  25
ENDBRANCH  23  24
ENDBRANCH  22  23
ENDBRANCH  20  22
ENDBRANCH  12  20
BRANCH   1  28
HETATM   28  O2  UNL     1      -8.955   6.969  13.923  1.00  0.00    -0.308 OA
BRANCH  28  29
HETATM   29  C2  UNL     1     -10.225   7.396  14.154  1.00  0.00     0.255 C 
HETATM   30  C1  UNL     1     -10.263   8.894  14.146  1.00  0.00     0.126 C 
HETATM   31  O1  UNL     1     -11.201   6.687  14.341  1.00  0.00    -0.266 OA
ENDBRANCH  28  29
ENDBRANCH   1  28
BRANCH   3  32
HETATM   32  O3  UNL     1      -9.444   5.945  16.246  1.00  0.00    -0.393 OA
HETATM   33  H8  UNL     1      -9.849   5.878  15.361  1.00  0.00     0.210 HD
ENDBRANCH   3  32
TORSDOF 8
ENDMDL
MODEL 2
REMARK minimizedAffinity -8.08849144
REMARK  8 active torsions:
REMARK  status: ('A' for Active; 'I' for Inactive)
REMARK    1  A    between atoms: C2_2  and  O2_4 
REMARK    2  A    between atoms: O2_4  and  C3_5 
REMARK    3  A    between atoms: C5_7  and  O3_8 
REMARK    4  A    between atoms: C14_17  and  C15_18 
REMARK    5  A    between atoms: C15_18  and  O5_20 
REMARK    6  A    between atoms: O5_20  and  C16_21 
REMARK    7  A    between atoms: C16_21  and  C17_22 
REMARK    8  A    between atoms: C17_22  and  N1_23 
ROOT
HETATM    1  C3  UNL     1       2.575   6.290  10.543  1.00  0.00     0.097 C 
HETATM    2  C4  UNL     1       3.181   4.893  10.302  1.00  0.00     0.050 C 
HETATM    3  C5  UNL     1       3.529   7.017  11.566  1.00  0.00     0.153 C 
HETATM    4  C6  UNL     1       2.851   8.082  12.441  1.00  0.00     0.035 C 
HETATM    5  C7  UNL     1       1.648   8.731  11.769  1.00  0.00     0.012 C 
HETATM    6  C8  UNL     1       0.527   7.719  11.369  1.00  0.00    -0.033 C 
HETATM    7  C9  UNL     1      -0.140   8.280  10.086  1.00  0.00     0.016 C 
HETATM    8  C10 UNL     1      -0.568   7.557  12.493  1.00  0.00     0.006 C 
HETATM    9  C11 UNL     1      -1.253   8.866  12.965  1.00  0.00     0.010 C 
HETATM   10  C12 UNL     1      -2.779   8.866  12.834  1.00  0.00     0.035 C 
HETATM   11  C13 UNL     1      -3.439   7.642  13.442  1.00  0.00    -0.070 C 
HETATM   12  C14 UNL     1      -4.615   7.798  14.088  1.00  0.00     0.085 C 
HETATM   13  C20 UNL     1      -2.688   6.325  13.244  1.00  0.00     0.022 C 
HETATM   14  C21 UNL     1      -2.070   5.864  14.576  1.00  0.00     0.015 C 
HETATM   15  C22 UNL     1      -1.635   6.490  12.117  1.00  0.00     0.068 C 
HETATM   16  C23 UNL     1      -1.000   5.172  11.676  1.00  0.00     0.132 C 
HETATM   17  O6  UNL     1      -1.432   4.077  12.028  1.00  0.00    -0.298 OA
HETATM   18  C24 UNL     1       0.136   5.270  10.671  1.00  0.00     0.087 C 
HETATM   19  C25 UNL     1       1.161   6.279  11.193  1.00  0.00     0.038 C 
ENDROOT
BRANCH  12  20
HETATM   20  C15 UNL     1      -5.500   6.817  14.757  1.00  0.00     0.283 C 
HETATM   21  O4  UNL     1      -5.170   6.267  15.798  1.00  0.00    -0.260 OA
BRANCH  20  22
HETATM   22  O5  UNL     1      -6.679   6.664  14.121  1.00  0.00    -0.316 OA
BRANCH  22  23
HETATM   23  C16 UNL     1      -7.209   5.325  14.096  1.00  0.00     0.209 C 
BRANCH  23  24
HETATM   24  C17 UNL     1      -7.574   4.919  12.659  1.00  0.00     0.298 C 
BRANCH  24  25
HETATM   25  N1  UNL     1      -6.885   3.703  12.188  1.00  0.00     0.082 N 
HETATM   26  C18 UNL     1      -7.494   2.517  12.798  1.00  0.00     0.309 C 
HETATM   27  C19 UNL     1      -5.455   3.739  12.507  1.00  0.00     0.309 C 
ENDBRANCH  24  25
ENDBRANCH  23  24
ENDBRANCH  22  23
ENDBRANCH  20  22
ENDBRANCH  12  20
BRANCH   1  28
HETATM   28  O2  UNL     1       2.645   7.088   9.322  1.00  0.00    -0.308 OA
BRANCH  28  29
HETATM   29  C2  UNL     1       2.516   6.524   8.092  1.00  0.00     0.255 C 
HETATM   30  C1  UNL     1       1.873   7.500   7.153  1.00  0.00     0.126 C 
HETATM   31  O1  UNL     1       2.864   5.398   7.775  1.00  0.00    -0.266 OA
ENDBRANCH  28  29
ENDBRANCH   1  28
BRANCH   3  32
HETATM   32  O3  UNL     1       4.639   7.611  10.883  1.00  0.00    -0.393 OA
HETATM   33  H8  UNL     1       4.278   8.003  10.066  1.00  0.00     0.210 HD
ENDBRANCH   3  32
TORSDOF 8
ENDMDL
MODEL 3
REMARK minimizedAffinity -7.8678236
REMARK  8 active torsions:
REMARK  status: ('A' for Active; 'I' for Inactive)
REMARK    1  A    between atoms: C2_2  and  O2_4 
REMARK    2  A    between atoms: O2_4  and  C3_5 
REMARK    3  A    between atoms: C5_7  and  O3_8 
REMARK    4  A    between atoms: C14_17  and  C15_18 
REMARK    5  A    between atoms: C15_18  and  O5_20 
REMARK    6  A    between atoms: O5_20  and  C16_21 
REMARK    7  A    between atoms: C16_21  and  C17_22 
REMARK    8  A    between atoms: C17_22  and  N1_23 
ROOT
HETATM    1  C3  UNL     1       0.402   8.513  14.050  1.00  0.00     0.097 C 
HETATM    2  C4  UNL     1       0.431   9.738  14.985  1.00  0.00     0.050 C 
HETATM    3  C5  UNL     1       0.579   9.067  12.585  1.00  0.00     0.153 C 
HETATM    4  C6  UNL     1      -0.050   8.202  11.483  1.00  0.00     0.035 C 
HETATM    5  C7  UNL     1      -0.113   6.725  11.846  1.00  0.00     0.012 C 
HETATM    6  C8  UNL     1      -0.926   6.429  13.148  1.00  0.00    -0.033 C 
HETATM    7  C9  UNL     1      -0.268   5.191  13.811  1.00  0.00     0.016 C 
HETATM    8  C10 UNL     1      -2.443   6.113  12.853  1.00  0.00     0.006 C 
HETATM    9  C11 UNL     1      -2.712   4.960  11.850  1.00  0.00     0.010 C 
HETATM   10  C12 UNL     1      -3.588   3.832  12.402  1.00  0.00     0.035 C 
HETATM   11  C13 UNL     1      -4.874   4.322  13.044  1.00  0.00    -0.070 C 
HETATM   12  C14 UNL     1      -5.999   3.595  12.870  1.00  0.00     0.085 C 
HETATM   13  C20 UNL     1      -4.753   5.615  13.851  1.00  0.00     0.022 C 
HETATM   14  C21 UNL     1      -5.437   6.772  13.102  1.00  0.00     0.015 C 
HETATM   15  C22 UNL     1      -3.259   5.898  14.159  1.00  0.00     0.068 C 
HETATM   16  C23 UNL     1      -3.045   7.031  15.162  1.00  0.00     0.132 C 
HETATM   17  O6  UNL     1      -3.964   7.521  15.815  1.00  0.00    -0.298 OA
HETATM   18  C24 UNL     1      -1.607   7.455  15.411  1.00  0.00     0.087 C 
HETATM   19  C25 UNL     1      -0.939   7.723  14.061  1.00  0.00     0.038 C 
ENDROOT
BRANCH  12  20
HETATM   20  C15 UNL     1      -7.378   3.794  13.374  1.00  0.00     0.283 C 
HETATM   21  O4  UNL     1      -8.275   3.010  13.099  1.00  0.00    -0.260 OA
BRANCH  20  22
HETATM   22  O5  UNL     1      -7.486   4.871  14.176  1.00  0.00    -0.316 OA
BRANCH  22  23
HETATM   23  C16 UNL     1      -8.538   5.797  13.845  1.00  0.00     0.209 C 
BRANCH  23  24
HETATM   24  C17 UNL     1      -8.849   6.707  15.045  1.00  0.00     0.298 C 
BRANCH  24  25
HETATM   25  N1  UNL     1      -9.881   7.725  14.771  1.00  0.00     0.082 N 
HETATM   26  C18 UNL     1     -10.002   8.632  15.917  1.00  0.00     0.309 C 
HETATM   27  C19 UNL     1     -11.181   7.110  14.492  1.00  0.00     0.309 C 
ENDBRANCH  24  25
ENDBRANCH  23  24
ENDBRANCH  22  23
ENDBRANCH  20  22
ENDBRANCH  12  20
BRANCH   1  28
HETATM   28  O2  UNL     1       1.572   7.672  14.284  1.00  0.00    -0.308 OA
BRANCH  28  29
HETATM   29  C2  UNL     1       2.236   7.686  15.470  1.00  0.00     0.255 C 
HETATM   30  C1  UNL     1       3.653   8.122  15.251  1.00  0.00     0.126 C 
HETATM   31  O1  UNL     1       1.770   7.396  16.561  1.00  0.00    -0.266 OA
ENDBRANCH  28  29
ENDBRANCH   1  28
BRANCH   3  32
HETATM   32  O3  UNL     1       1.966   9.267  12.288  1.00  0.00    -0.393 OA
HETATM   33  H8  UNL     1       2.438   8.502  12.667  1.00  0.00     0.210 HD
ENDBRANCH   3  32
TORSDOF 8
ENDMDL
MODEL 4
REMARK minimizedAffinity -7.82762289
REMARK  8 active torsions:
REMARK  status: ('A' for Active; 'I' for Inactive)
REMARK    1  A    between atoms: C2_2  and  O2_4 
REMARK    2  A    between atoms: O2_4  and  C3_5 
REMARK    3  A    between atoms: C5_7  and  O3_8 
REMARK    4  A    between atoms: C14_17  and  C15_18 
REMARK    5  A    between atoms: C15_18  and  O5_20 
REMARK    6  A    between atoms: O5_20  and  C16_21 
REMARK    7  A    between atoms: C16_21  and  C17_22 
REMARK    8  A    between atoms: C17_22  and  N1_23 
ROOT
HETATM    1  C3  UNL     1      -5.533   6.105  13.853  1.00  0.00     0.097 C 
HETATM    2  C4  UNL     1      -6.650   5.252  13.217  1.00  0.00     0.050 C 
HETATM    3  C5  UNL     1      -5.885   7.607  13.530  1.00  0.00     0.153 C 
HETATM    4  C6  UNL     1      -4.678   8.555  13.457  1.00  0.00     0.035 C 
HETATM    5  C7  UNL     1      -3.513   8.107  14.331  1.00  0.00     0.012 C 
HETATM    6  C8  UNL     1      -2.971   6.684  13.979  1.00  0.00    -0.033 C 
HETATM    7  C9  UNL     1      -2.463   6.063  15.305  1.00  0.00     0.016 C 
HETATM    8  C10 UNL     1      -1.783   6.731  12.941  1.00  0.00     0.006 C 
HETATM    9  C11 UNL     1      -0.574   7.620  13.336  1.00  0.00     0.010 C 
HETATM   10  C12 UNL     1       0.768   6.883  13.371  1.00  0.00     0.035 C 
HETATM   11  C13 UNL     1       1.053   6.082  12.113  1.00  0.00    -0.070 C 
HETATM   12  C14 UNL     1       2.319   6.047  11.644  1.00  0.00     0.085 C 
HETATM   13  C20 UNL     1      -0.155   5.373  11.499  1.00  0.00     0.022 C 
HETATM   14  C21 UNL     1      -0.571   6.072  10.193  1.00  0.00     0.015 C 
HETATM   15  C22 UNL     1      -1.304   5.308  12.539  1.00  0.00     0.068 C 
HETATM   16  C23 UNL     1      -2.465   4.410  12.112  1.00  0.00     0.132 C 
HETATM   17  O6  UNL     1      -2.398   3.654  11.145  1.00  0.00    -0.298 OA
HETATM   18  C24 UNL     1      -3.685   4.403  13.018  1.00  0.00     0.087 C 
HETATM   19  C25 UNL     1      -4.114   5.851  13.267  1.00  0.00     0.038 C 
ENDROOT
BRANCH  12  20
HETATM   20  C15 UNL     1       2.910   5.353  10.476  1.00  0.00     0.283 C 
HETATM   21  O4  UNL     1       2.558   4.226  10.160  1.00  0.00    -0.260 OA
BRANCH  20  22
HETATM   22  O5  UNL     1       3.801   6.119   9.815  1.00  0.00    -0.316 OA
BRANCH  22  23
HETATM   23  C16 UNL     1       3.535   7.534   9.815  1.00  0.00     0.209 C 
BRANCH  23  24
HETATM   24  C17 UNL     1       3.122   8.001   8.410  1.00  0.00     0.298 C 
BRANCH  24  25
HETATM   25  N1  UNL     1       1.808   7.492   7.973  1.00  0.00     0.082 N 
HETATM   26  C18 UNL     1       1.841   7.197   6.537  1.00  0.00     0.309 C 
HETATM   27  C19 UNL     1       0.739   8.455   8.252  1.00  0.00     0.309 C 
ENDBRANCH  24  25
ENDBRANCH  23  24
ENDBRANCH  22  23
ENDBRANCH  20  22
ENDBRANCH  12  20
BRANCH   1  28
HETATM   28  O2  UNL     1      -5.587   6.004  15.308  1.00  0.00    -0.308 OA
BRANCH  28  29
HETATM   29  C2  UNL     1      -6.763   5.833  15.969  1.00  0.00     0.255 C 
HETATM   30  C1  UNL     1      -7.301   4.461  15.696  1.00  0.00     0.126 C 
HETATM   31  O1  UNL     1      -7.314   6.655  16.683  1.00  0.00    -0.266 OA
ENDBRANCH  28  29
ENDBRANCH   1  28
BRANCH   3  32
HETATM   32  O3  UNL     1      -6.824   8.119  14.483  1.00  0.00    -0.393 OA
HETATM   33  H8  UNL     1      -6.544   7.775  15.352  1.00  0.00     0.210 HD
ENDBRANCH   3  32
TORSDOF 8
ENDMDL
MODEL 5
REMARK minimizedAffinity -7.66757107
REMARK  8 active torsions:
REMARK  status: ('A' for Active; 'I' for Inactive)
REMARK    1  A    between atoms: C2_2  and  O2_4 
REMARK    2  A    between atoms: O2_4  and  C3_5 
REMARK    3  A    between atoms: C5_7  and  O3_8 
REMARK    4  A    between atoms: C14_17  and  C15_18 
REMARK    5  A    between atoms: C15_18  and  O5_20 
REMARK    6  A    between atoms: O5_20  and  C16_21 
REMARK    7  A    between atoms: C16_21  and  C17_22 
REMARK    8  A    between atoms: C17_22  and  N1_23 
ROOT
HETATM    1  C3  UNL     1       2.503   6.493  10.669  1.00  0.00     0.097 C 
HETATM    2  C4  UNL     1       3.227   5.153  10.430  1.00  0.00     0.050 C 
HETATM    3  C5  UNL     1       3.368   7.283  11.724  1.00  0.00     0.153 C 
HETATM    4  C6  UNL     1       2.583   8.278  12.592  1.00  0.00     0.035 C 
HETATM    5  C7  UNL     1       1.348   8.834  11.895  1.00  0.00     0.012 C 
HETATM    6  C8  UNL     1       0.324   7.739  11.455  1.00  0.00    -0.033 C 
HETATM    7  C9  UNL     1      -0.354   8.260  10.162  1.00  0.00     0.016 C 
HETATM    8  C10 UNL     1      -0.782   7.474  12.548  1.00  0.00     0.006 C 
HETATM    9  C11 UNL     1      -1.584   8.717  13.016  1.00  0.00     0.010 C 
HETATM   10  C12 UNL     1      -3.101   8.594  12.844  1.00  0.00     0.035 C 
HETATM   11  C13 UNL     1      -3.673   7.312  13.423  1.00  0.00    -0.070 C 
HETATM   12  C14 UNL     1      -4.874   7.364  14.039  1.00  0.00     0.085 C 
HETATM   13  C20 UNL     1      -2.812   6.063  13.231  1.00  0.00     0.022 C 
HETATM   14  C21 UNL     1      -2.192   5.638  14.574  1.00  0.00     0.015 C 
HETATM   15  C22 UNL     1      -1.748   6.328  12.134  1.00  0.00     0.068 C 
HETATM   16  C23 UNL     1      -0.995   5.072  11.696  1.00  0.00     0.132 C 
HETATM   17  O6  UNL     1      -1.345   3.941  12.026  1.00  0.00    -0.298 OA
HETATM   18  C24 UNL     1       0.153   5.275  10.722  1.00  0.00     0.087 C 
HETATM   19  C25 UNL     1       1.079   6.358  11.282  1.00  0.00     0.038 C 
ENDROOT
BRANCH  12  20
HETATM   20  C15 UNL     1      -5.693   6.305  14.675  1.00  0.00     0.283 C 
HETATM   21  O4  UNL     1      -5.676   6.126  15.884  1.00  0.00    -0.260 OA
BRANCH  20  22
HETATM   22  O5  UNL     1      -6.457   5.638  13.787  1.00  0.00    -0.316 OA
BRANCH  22  23
HETATM   23  C16 UNL     1      -7.765   6.188  13.546  1.00  0.00     0.209 C 
BRANCH  23  24
HETATM   24  C17 UNL     1      -8.331   6.808  14.834  1.00  0.00     0.298 C 
BRANCH  24  25
HETATM   25  N1  UNL     1      -9.802   6.929  14.843  1.00  0.00     0.082 N 
HETATM   26  C18 UNL     1     -10.314   6.874  13.471  1.00  0.00     0.309 C 
HETATM   27  C19 UNL     1     -10.233   8.177  15.479  1.00  0.00     0.309 C 
ENDBRANCH  24  25
ENDBRANCH  23  24
ENDBRANCH  22  23
ENDBRANCH  20  22
ENDBRANCH  12  20
BRANCH   1  28
HETATM   28  O2  UNL     1       2.539   7.309   9.459  1.00  0.00    -0.308 OA
BRANCH  28  29
HETATM   29  C2  UNL     1       2.412   6.758   8.223  1.00  0.00     0.255 C 
HETATM   30  C1  UNL     1       1.860   7.775   7.270  1.00  0.00     0.126 C 
HETATM   31  O1  UNL     1       2.700   5.614   7.910  1.00  0.00    -0.266 OA
ENDBRANCH  28  29
ENDBRANCH   1  28
BRANCH   3  32
HETATM   32  O3  UNL     1       4.442   7.974  11.077  1.00  0.00    -0.393 OA
HETATM   33  H8  UNL     1       4.071   8.345  10.255  1.00  0.00     0.210 HD
ENDBRANCH   3  32
TORSDOF 8
ENDMDL
MODEL 6
REMARK minimizedAffinity -7.54671812
REMARK  8 active torsions:
REMARK  status: ('A' for Active; 'I' for Inactive)
REMARK    1  A    between atoms: C2_2  and  O2_4 
REMARK    2  A    between atoms: O2_4  and  C3_5 
REMARK    3  A    between atoms: C5_7  and  O3_8 
REMARK    4  A    between atoms: C14_17  and  C15_18 
REMARK    5  A    between atoms: C15_18  and  O5_20 
REMARK    6  A    between atoms: O5_20  and  C16_21 
REMARK    7  A    between atoms: C16_21  and  C17_22 
REMARK    8  A    between atoms: C17_22  and  N1_23 
ROOT
HETATM    1  C3  UNL     1      -7.962   7.180  14.684  1.00  0.00     0.097 C 
HETATM    2  C4  UNL     1      -8.185   8.628  15.163  1.00  0.00     0.050 C 
HETATM    3  C5  UNL     1      -8.158   6.259  15.948  1.00  0.00     0.153 C 
HETATM    4  C6  UNL     1      -7.381   4.934  15.913  1.00  0.00     0.035 C 
HETATM    5  C7  UNL     1      -7.137   4.422  14.500  1.00  0.00     0.012 C 
HETATM    6  C8  UNL     1      -6.339   5.418  13.596  1.00  0.00    -0.033 C 
HETATM    7  C9  UNL     1      -6.852   5.211  12.148  1.00  0.00     0.016 C 
HETATM    8  C10 UNL     1      -4.784   5.156  13.637  1.00  0.00     0.006 C 
HETATM    9  C11 UNL     1      -4.330   3.717  13.278  1.00  0.00     0.010 C 
HETATM   10  C12 UNL     1      -3.334   3.639  12.117  1.00  0.00     0.035 C 
HETATM   11  C13 UNL     1      -2.148   4.574  12.273  1.00  0.00    -0.070 C 
HETATM   12  C14 UNL     1      -0.931   4.144  11.873  1.00  0.00     0.085 C 
HETATM   13  C20 UNL     1      -2.467   5.945  12.870  1.00  0.00     0.022 C 
HETATM   14  C21 UNL     1      -1.914   6.038  14.303  1.00  0.00     0.015 C 
HETATM   15  C22 UNL     1      -3.996   6.201  12.798  1.00  0.00     0.068 C 
HETATM   16  C23 UNL     1      -4.392   7.635  13.146  1.00  0.00     0.132 C 
HETATM   17  O6  UNL     1      -3.570   8.541  13.262  1.00  0.00    -0.298 OA
HETATM   18  C24 UNL     1      -5.881   7.926  13.226  1.00  0.00     0.087 C 
HETATM   19  C25 UNL     1      -6.530   6.890  14.147  1.00  0.00     0.038 C 
ENDROOT
BRANCH  12  20
HETATM   20  C15 UNL     1       0.390   4.813  11.875  1.00  0.00     0.283 C 
HETATM   21  O4  UNL     1       1.246   4.535  11.047  1.00  0.00    -0.260 OA
BRANCH  20  22
HETATM   22  O5  UNL     1       0.493   5.756  12.832  1.00  0.00    -0.316 OA
BRANCH  22  23
HETATM   23  C16 UNL     1       1.042   7.019  12.413  1.00  0.00     0.209 C 
BRANCH  23  24
HETATM   24  C17 UNL     1       1.269   7.935  13.627  1.00  0.00     0.298 C 
BRANCH  24  25
HETATM   25  N1  UNL     1       1.612   7.211  14.866  1.00  0.00     0.082 N 
HETATM   26  C18 UNL     1       0.690   7.596  15.939  1.00  0.00     0.309 C 
HETATM   27  C19 UNL     1       2.991   7.484  15.282  1.00  0.00     0.309 C 
ENDBRANCH  24  25
ENDBRANCH  23  24
ENDBRANCH  22  23
ENDBRANCH  20  22
ENDBRANCH  12  20
BRANCH   1  28
HETATM   28  O2  UNL     1      -9.019   6.786  13.757  1.00  0.00    -0.308 OA
BRANCH  28  29
HETATM   29  C2  UNL     1     -10.231   7.401  13.753  1.00  0.00     0.255 C 
HETATM   30  C1  UNL     1     -10.840   7.309  12.387  1.00  0.00     0.126 C 
HETATM   31  O1  UNL     1     -10.763   7.950  14.704  1.00  0.00    -0.266 OA
ENDBRANCH  28  29
ENDBRANCH   1  28
BRANCH   3  32
HETATM   32  O3  UNL     1      -9.547   5.980  16.157  1.00  0.00    -0.393 OA
HETATM   33  H8  UNL     1      -9.928   5.820  15.273  1.00  0.00     0.210 HD
ENDBRANCH   3  32
TORSDOF 8
ENDMDL
MODEL 7
REMARK minimizedAffinity -7.46976328
REMARK  8 active torsions:
REMARK  status: ('A' for Active; 'I' for Inactive)
REMARK    1  A    between atoms: C2_2  and  O2_4 
REMARK    2  A    between atoms: O2_4  and  C3_5 
REMARK    3  A    between atoms: C5_7  and  O3_8 
REMARK    4  A    between atoms: C14_17  and  C15_18 
REMARK    5  A    between atoms: C15_18  and  O5_20 
REMARK    6  A    between atoms: O5_20  and  C16_21 
REMARK    7  A    between atoms: C16_21  and  C17_22 
REMARK    8  A    between atoms: C17_22  and  N1_23 
ROOT
HETATM    1  C3  UNL     1       0.241   6.095  12.490  1.00  0.00     0.097 C 
HETATM    2  C4  UNL     1       0.541   4.681  11.955  1.00  0.00     0.050 C 
HETATM    3  C5  UNL     1       1.119   6.275  13.787  1.00  0.00     0.153 C 
HETATM    4  C6  UNL     1       0.549   7.252  14.826  1.00  0.00     0.035 C 
HETATM    5  C7  UNL     1      -0.315   8.343  14.209  1.00  0.00     0.012 C 
HETATM    6  C8  UNL     1      -1.541   7.800  13.405  1.00  0.00    -0.033 C 
HETATM    7  C9  UNL     1      -1.796   8.803  12.251  1.00  0.00     0.016 C 
HETATM    8  C10 UNL     1      -2.841   7.689  14.291  1.00  0.00     0.006 C 
HETATM    9  C11 UNL     1      -3.282   8.989  15.013  1.00  0.00     0.010 C 
HETATM   10  C12 UNL     1      -4.711   9.439  14.691  1.00  0.00     0.035 C 
HETATM   11  C13 UNL     1      -5.743   8.337  14.850  1.00  0.00    -0.070 C 
HETATM   12  C14 UNL     1      -6.953   8.656  15.357  1.00  0.00     0.085 C 
HETATM   13  C20 UNL     1      -5.294   6.947  14.397  1.00  0.00     0.022 C 
HETATM   14  C21 UNL     1      -5.072   6.039  15.619  1.00  0.00     0.015 C 
HETATM   15  C22 UNL     1      -4.032   7.073  13.503  1.00  0.00     0.068 C 
HETATM   16  C23 UNL     1      -3.646   5.771  12.803  1.00  0.00     0.132 C 
HETATM   17  O6  UNL     1      -4.381   4.786  12.783  1.00  0.00    -0.298 OA
HETATM   18  C24 UNL     1      -2.345   5.783  12.018  1.00  0.00     0.087 C 
HETATM   19  C25 UNL     1      -1.236   6.322  12.924  1.00  0.00     0.038 C 
ENDROOT
BRANCH  12  20
HETATM   20  C15 UNL     1      -8.155   7.828  15.612  1.00  0.00     0.283 C 
HETATM   21  O4  UNL     1      -8.184   7.010  16.520  1.00  0.00    -0.260 OA
BRANCH  20  22
HETATM   22  O5  UNL     1      -9.174   8.125  14.781  1.00  0.00    -0.316 OA
BRANCH  22  23
HETATM   23  C16 UNL     1      -9.784   7.005  14.111  1.00  0.00     0.209 C 
BRANCH  23  24
HETATM   24  C17 UNL     1     -11.314   7.067  14.249  1.00  0.00     0.298 C 
BRANCH  24  25
HETATM   25  N1  UNL     1     -12.018   7.330  12.979  1.00  0.00     0.082 N 
HETATM   26  C18 UNL     1     -11.913   8.752  12.636  1.00  0.00     0.309 C 
HETATM   27  C19 UNL     1     -13.431   6.948  13.060  1.00  0.00     0.309 C 
ENDBRANCH  24  25
ENDBRANCH  23  24
ENDBRANCH  22  23
ENDBRANCH  20  22
ENDBRANCH  12  20
BRANCH   1  28
HETATM   28  O2  UNL     1       0.732   7.103  11.554  1.00  0.00    -0.308 OA
BRANCH  28  29
HETATM   29  C2  UNL     1       0.890   6.833  10.232  1.00  0.00     0.255 C 
HETATM   30  C1  UNL     1       0.178   7.869   9.415  1.00  0.00     0.126 C 
HETATM   31  O1  UNL     1       1.512   5.897   9.757  1.00  0.00    -0.266 OA
ENDBRANCH  28  29
ENDBRANCH   1  28
BRANCH   3  32
HETATM   32  O3  UNL     1       2.448   6.682  13.442  1.00  0.00    -0.393 OA
HETATM   33  H8  UNL     1       2.354   7.337  12.725  1.00  0.00     0.210 HD
ENDBRANCH   3  32
TORSDOF 8
ENDMDL
MODEL 8
REMARK minimizedAffinity -7.40131187
REMARK  8 active torsions:
REMARK  status: ('A' for Active; 'I' for Inactive)
REMARK    1  A    between atoms: C2_2  and  O2_4 
REMARK    2  A    between atoms: O2_4  and  C3_5 
REMARK    3  A    between atoms: C5_7  and  O3_8 
REMARK    4  A    between atoms: C14_17  and  C15_18 
REMARK    5  A    between atoms: C15_18  and  O5_20 
REMARK    6  A    between atoms: O5_20  and  C16_21 
REMARK    7  A    between atoms: C16_21  and  C17_22 
REMARK    8  A    between atoms: C17_22  and  N1_23 
ROOT
HETATM    1  C3  UNL     1      -5.332   6.395  13.767  1.00  0.00     0.097 C 
HETATM    2  C4  UNL     1      -6.477   5.697  13.006  1.00  0.00     0.050 C 
HETATM    3  C5  UNL     1      -5.598   7.944  13.646  1.00  0.00     0.153 C 
HETATM    4  C6  UNL     1      -4.343   8.826  13.720  1.00  0.00     0.035 C 
HETATM    5  C7  UNL     1      -3.222   8.202  14.541  1.00  0.00     0.012 C 
HETATM    6  C8  UNL     1      -2.746   6.812  14.008  1.00  0.00    -0.033 C 
HETATM    7  C9  UNL     1      -2.300   5.991  15.245  1.00  0.00     0.016 C 
HETATM    8  C10 UNL     1      -1.536   6.933  13.004  1.00  0.00     0.006 C 
HETATM    9  C11 UNL     1      -0.291   7.694  13.533  1.00  0.00     0.010 C 
HETATM   10  C12 UNL     1       1.010   6.886  13.487  1.00  0.00     0.035 C 
HETATM   11  C13 UNL     1       1.280   6.248  12.136  1.00  0.00    -0.070 C 
HETATM   12  C14 UNL     1       2.553   6.207  11.686  1.00  0.00     0.085 C 
HETATM   13  C20 UNL     1       0.051   5.695  11.415  1.00  0.00     0.022 C 
HETATM   14  C21 UNL     1      -0.300   6.584  10.209  1.00  0.00     0.015 C 
HETATM   15  C22 UNL     1      -1.123   5.553  12.419  1.00  0.00     0.068 C 
HETATM   16  C23 UNL     1      -2.319   4.786  11.858  1.00  0.00     0.132 C 
HETATM   17  O6  UNL     1      -2.271   4.164  10.799  1.00  0.00    -0.298 OA
HETATM   18  C24 UNL     1      -3.557   4.723  12.737  1.00  0.00     0.087 C 
HETATM   19  C25 UNL     1      -3.916   6.145  13.174  1.00  0.00     0.038 C 
ENDROOT
BRANCH  12  20
HETATM   20  C15 UNL     1       3.132   5.646  10.443  1.00  0.00     0.283 C 
HETATM   21  O4  UNL     1       2.475   4.931   9.701  1.00  0.00    -0.260 OA
BRANCH  20  22
HETATM   22  O5  UNL     1       4.399   6.055  10.231  1.00  0.00    -0.316 OA
BRANCH  22  23
HETATM   23  C16 UNL     1       4.860   7.130  11.071  1.00  0.00     0.209 C 
BRANCH  23  24
HETATM   24  C17 UNL     1       6.383   7.293  10.944  1.00  0.00     0.298 C 
BRANCH  24  25
HETATM   25  N1  UNL     1       7.048   7.693  12.199  1.00  0.00     0.082 N 
HETATM   26  C18 UNL     1       6.460   6.967  13.328  1.00  0.00     0.309 C 
HETATM   27  C19 UNL     1       6.935   9.136  12.430  1.00  0.00     0.309 C 
ENDBRANCH  24  25
ENDBRANCH  23  24
ENDBRANCH  22  23
ENDBRANCH  20  22
ENDBRANCH  12  20
BRANCH   1  28
HETATM   28  O2  UNL     1      -5.423   6.102  15.194  1.00  0.00    -0.308 OA
BRANCH  28  29
HETATM   29  C2  UNL     1      -6.612   5.828  15.793  1.00  0.00     0.255 C 
HETATM   30  C1  UNL     1      -7.067   4.453  15.409  1.00  0.00     0.126 C 
HETATM   31  O1  UNL     1      -7.233   6.572  16.535  1.00  0.00    -0.266 OA
ENDBRANCH  28  29
ENDBRANCH   1  28
BRANCH   3  32
HETATM   32  O3  UNL     1      -6.530   8.373  14.645  1.00  0.00    -0.393 OA
HETATM   33  H8  UNL     1      -6.288   7.901  15.464  1.00  0.00     0.210 HD
ENDBRANCH   3  32
TORSDOF 8
ENDMDL
MODEL 9
REMARK minimizedAffinity -7.32919168
REMARK  8 active torsions:
REMARK  status: ('A' for Active; 'I' for Inactive)
REMARK    1  A    between atoms: C2_2  and  O2_4 
REMARK    2  A    between atoms: O2_4  and  C3_5 
REMARK    3  A    between atoms: C5_7  and  O3_8 
REMARK    4  A    between atoms: C14_17  and  C15_18 
REMARK    5  A    between atoms: C15_18  and  O5_20 
REMARK    6  A    between atoms: O5_20  and  C16_21 
REMARK    7  A    between atoms: C16_21  and  C17_22 
REMARK    8  A    between atoms: C17_22  and  N1_23 
ROOT
HETATM    1  C3  UNL     1      -4.968   7.223  14.303  1.00  0.00     0.097 C 
HETATM    2  C4  UNL     1      -5.801   8.509  14.465  1.00  0.00     0.050 C 
HETATM    3  C5  UNL     1      -4.835   6.596  15.743  1.00  0.00     0.153 C 
HETATM    4  C6  UNL     1      -3.577   5.744  15.967  1.00  0.00     0.035 C 
HETATM    5  C7  UNL     1      -3.060   5.094  14.691  1.00  0.00     0.012 C 
HETATM    6  C8  UNL     1      -2.699   6.116  13.564  1.00  0.00    -0.033 C 
HETATM    7  C9  UNL     1      -2.993   5.411  12.215  1.00  0.00     0.016 C 
HETATM    8  C10 UNL     1      -1.181   6.545  13.603  1.00  0.00     0.006 C 
HETATM    9  C11 UNL     1      -0.149   5.388  13.548  1.00  0.00     0.010 C 
HETATM   10  C12 UNL     1       0.856   5.490  12.396  1.00  0.00     0.035 C 
HETATM   11  C13 UNL     1       1.533   6.845  12.301  1.00  0.00    -0.070 C 
HETATM   12  C14 UNL     1       2.839   6.890  11.960  1.00  0.00     0.085 C 
HETATM   13  C20 UNL     1       0.638   8.048  12.599  1.00  0.00     0.022 C 
HETATM   14  C21 UNL     1       1.017   8.667  13.956  1.00  0.00     0.015 C 
HETATM   15  C22 UNL     1      -0.852   7.619  12.529  1.00  0.00     0.068 C 
HETATM   16  C23 UNL     1      -1.829   8.793  12.572  1.00  0.00     0.132 C 
HETATM   17  O6  UNL     1      -1.467   9.962  12.459  1.00  0.00    -0.298 OA
HETATM   18  C24 UNL     1      -3.306   8.444  12.642  1.00  0.00     0.087 C 
HETATM   19  C25 UNL     1      -3.517   7.453  13.790  1.00  0.00     0.038 C 
ENDROOT
BRANCH  12  20
HETATM   20  C15 UNL     1       3.760   8.035  11.767  1.00  0.00     0.283 C 
HETATM   21  O4  UNL     1       4.126   8.723  12.709  1.00  0.00    -0.260 OA
BRANCH  20  22
HETATM   22  O5  UNL     1       4.156   8.171  10.486  1.00  0.00    -0.316 OA
BRANCH  22  23
HETATM   23  C16 UNL     1       3.328   7.525   9.501  1.00  0.00     0.209 C 
BRANCH  23  24
HETATM   24  C17 UNL     1       3.126   8.444   8.285  1.00  0.00     0.298 C 
BRANCH  24  25
HETATM   25  N1  UNL     1       1.791   8.333   7.666  1.00  0.00     0.082 N 
HETATM   26  C18 UNL     1       0.766   8.229   8.709  1.00  0.00     0.309 C 
HETATM   27  C19 UNL     1       1.706   7.171   6.777  1.00  0.00     0.309 C 
ENDBRANCH  24  25
ENDBRANCH  23  24
ENDBRANCH  22  23
ENDBRANCH  20  22
ENDBRANCH  12  20
BRANCH   1  28
HETATM   28  O2  UNL     1      -5.709   6.236  13.523  1.00  0.00    -0.308 OA
BRANCH  28  29
HETATM   29  C2  UNL     1      -7.065   6.158  13.574  1.00  0.00     0.255 C 
HETATM   30  C1  UNL     1      -7.534   4.986  12.766  1.00  0.00     0.126 C 
HETATM   31  O1  UNL     1      -7.808   6.913  14.180  1.00  0.00    -0.266 OA
ENDBRANCH  28  29
ENDBRANCH   1  28
BRANCH   3  32
HETATM   32  O3  UNL     1      -5.992   5.812  16.058  1.00  0.00    -0.393 OA
HETATM   33  H8  UNL     1      -6.219   5.324  15.245  1.00  0.00     0.210 HD
ENDBRANCH   3  32
TORSDOF 8
ENDMDL
