MODEL 1
REMARK minimizedAffinity -6.74524069
REMARK CNNscore 0.626250327
REMARK CNNaffinity 6.74377966
REMARK  8 active torsions:
REMARK  status: ('A' for Active; 'I' for Inactive)
REMARK    1  A    between atoms: C2_2  and  C3_3 
REMARK    2  A    between atoms: C2_2  and  C9_11 
REMARK    3  A    between atoms: C3_3  and  C4_4 
REMARK    4  A    between atoms: C4_4  and  C5_5 
REMARK    5  A    between atoms: C6_6  and  C7_7 
REMARK    6  A    between atoms: C6_6  and  C8_9 
REMARK    7  A    between atoms: C7_7  and  O1_8 
REMARK    8  A    between atoms: C8_9  and  O2_10 
ROOT
HETATM    1  C9  UNL     1       2.447  55.686 -10.036  1.00  0.00     0.018 C 
HETATM    2  C10 UNL     1       2.069  55.971  -8.561  1.00  0.00     0.010 C 
HETATM    3  C11 UNL     1       0.652  55.387  -8.381  1.00  0.00     0.011 C 
HETATM    4  C12 UNL     1       0.639  54.128  -9.281  1.00  0.00    -0.032 C 
HETATM    5  C13 UNL     1       1.487  53.048  -8.541  1.00  0.00     0.016 C 
HETATM    6  C14 UNL     1       1.358  54.702 -10.533  1.00  0.00     0.002 C 
HETATM    7  C15 UNL     1       1.654  53.642 -11.580  1.00  0.00     0.006 C 
HETATM    8  C16 UNL     1       0.339  52.973 -12.026  1.00  0.00     0.006 C 
HETATM    9  C17 UNL     1      -0.514  52.431 -10.843  1.00  0.00     0.003 C 
HETATM   10  C18 UNL     1      -1.752  51.533 -11.277  1.00  0.00    -0.035 C 
HETATM   11  C19 UNL     1      -2.727  52.282 -12.214  1.00  0.00     0.016 C 
HETATM   12  C20 UNL     1      -1.204  50.309 -12.093  1.00  0.00     0.017 C 
HETATM   13  C21 UNL     1      -1.976  49.003 -11.935  1.00  0.00     0.080 C 
HETATM   14  C22 UNL     1      -3.414  49.229 -11.550  1.00  0.00     0.135 C 
HETATM   15  O3  UNL     1      -4.326  48.731 -12.211  1.00  0.00    -0.297 OA
HETATM   16  C23 UNL     1      -3.668  50.015 -10.257  1.00  0.00     0.017 C 
HETATM   17  C24 UNL     1      -5.033  50.722 -10.355  1.00  0.00     0.023 C 
HETATM   18  C25 UNL     1      -3.767  48.972  -9.124  1.00  0.00     0.023 C 
HETATM   19  C26 UNL     1      -2.456  50.980  -9.985  1.00  0.00     0.009 C 
HETATM   20  C27 UNL     1      -2.781  52.086  -8.962  1.00  0.00     0.007 C 
HETATM   21  C28 UNL     1      -1.532  52.872  -8.550  1.00  0.00     0.011 C 
HETATM   22  C29 UNL     1      -0.786  53.537  -9.736  1.00  0.00    -0.032 C 
HETATM   23  C30 UNL     1      -1.703  54.677 -10.266  1.00  0.00     0.016 C 
ENDROOT
BRANCH   1  24
HETATM   24  C2  UNL     1       3.912  55.398 -10.361  1.00  0.00    -0.084 C 
HETATM   25  C1  UNL     1       4.446  55.966 -11.459  1.00  0.00     0.014 C 
BRANCH  24  26
HETATM   26  C3  UNL     1       4.694  54.467  -9.444  1.00  0.00     0.037 C 
BRANCH  26  27
HETATM   27  C4  UNL     1       6.232  54.578  -9.379  1.00  0.00     0.032 C 
BRANCH  27  28
HETATM   28  C5  UNL     1       6.702  55.506  -8.285  1.00  0.00    -0.019 C 
HETATM   29  C6  UNL     1       6.993  55.196  -7.004  1.00  0.00    -0.037 C 
BRANCH  29  30
HETATM   30  C7  UNL     1       7.409  56.272  -6.034  1.00  0.00     0.200 C 
BRANCH  30  31
HETATM   31  O1  UNL     1       8.767  56.048  -5.672  1.00  0.00    -0.397 OA
HETATM   32  H10 UNL     1       8.961  56.662  -4.943  1.00  0.00     0.209 HD
ENDBRANCH  30  31
ENDBRANCH  29  30
BRANCH  29  33
HETATM   33  C8  UNL     1       6.954  53.809  -6.416  1.00  0.00     0.200 C 
BRANCH  33  34
HETATM   34  O2  UNL     1       5.613  53.455  -6.115  1.00  0.00    -0.397 OA
HETATM   35  H13 UNL     1       5.197  54.271  -5.765  1.00  0.00     0.209 HD
ENDBRANCH  33  34
ENDBRANCH  29  33
ENDBRANCH  27  28
ENDBRANCH  26  27
ENDBRANCH  24  26
ENDBRANCH   1  24
TORSDOF 8
ENDMDL
MODEL 2
REMARK minimizedAffinity -6.74807453
REMARK CNNscore 0.559305966
REMARK CNNaffinity 6.49969912
REMARK  8 active torsions:
REMARK  status: ('A' for Active; 'I' for Inactive)
REMARK    1  A    between atoms: C2_2  and  C3_3 
REMARK    2  A    between atoms: C2_2  and  C9_11 
REMARK    3  A    between atoms: C3_3  and  C4_4 
REMARK    4  A    between atoms: C4_4  and  C5_5 
REMARK    5  A    between atoms: C6_6  and  C7_7 
REMARK    6  A    between atoms: C6_6  and  C8_9 
REMARK    7  A    between atoms: C7_7  and  O1_8 
REMARK    8  A    between atoms: C8_9  and  O2_10 
ROOT
HETATM    1  C9  UNL     1       5.847  56.690  -7.264  1.00  0.00     0.018 C 
HETATM    2  C10 UNL     1       4.796  57.816  -7.099  1.00  0.00     0.010 C 
HETATM    3  C11 UNL     1       3.682  57.489  -8.115  1.00  0.00     0.011 C 
HETATM    4  C12 UNL     1       3.621  55.942  -8.133  1.00  0.00    -0.032 C 
HETATM    5  C13 UNL     1       2.928  55.513  -6.802  1.00  0.00     0.016 C 
HETATM    6  C14 UNL     1       5.142  55.627  -8.146  1.00  0.00     0.002 C 
HETATM    7  C15 UNL     1       5.439  54.145  -8.003  1.00  0.00     0.006 C 
HETATM    8  C16 UNL     1       4.762  53.368  -9.150  1.00  0.00     0.006 C 
HETATM    9  C17 UNL     1       3.241  53.669  -9.291  1.00  0.00     0.003 C 
HETATM   10  C18 UNL     1       2.470  52.717 -10.302  1.00  0.00    -0.035 C 
HETATM   11  C19 UNL     1       3.060  52.767 -11.730  1.00  0.00     0.016 C 
HETATM   12  C20 UNL     1       2.637  51.238  -9.803  1.00  0.00     0.017 C 
HETATM   13  C21 UNL     1       1.455  50.310 -10.063  1.00  0.00     0.080 C 
HETATM   14  C22 UNL     1       0.625  50.750 -11.239  1.00  0.00     0.135 C 
HETATM   15  O3  UNL     1       0.381  49.973 -12.163  1.00  0.00    -0.297 OA
HETATM   16  C23 UNL     1       0.031  52.163 -11.173  1.00  0.00     0.017 C 
HETATM   17  C24 UNL     1      -0.169  52.694 -12.605  1.00  0.00     0.023 C 
HETATM   18  C25 UNL     1      -1.367  52.020 -10.533  1.00  0.00     0.023 C 
HETATM   19  C26 UNL     1       0.939  53.072 -10.266  1.00  0.00     0.009 C 
HETATM   20  C27 UNL     1       0.670  54.578 -10.456  1.00  0.00     0.007 C 
HETATM   21  C28 UNL     1       1.402  55.428  -9.412  1.00  0.00     0.011 C 
HETATM   22  C29 UNL     1       2.940  55.225  -9.401  1.00  0.00    -0.032 C 
HETATM   23  C30 UNL     1       3.487  55.831 -10.726  1.00  0.00     0.016 C 
ENDROOT
BRANCH   1  24
HETATM   24  C2  UNL     1       6.614  56.234  -6.024  1.00  0.00    -0.084 C 
HETATM   25  C1  UNL     1       5.972  56.236  -4.839  1.00  0.00     0.014 C 
BRANCH  24  26
HETATM   26  C3  UNL     1       8.071  55.820  -6.177  1.00  0.00     0.037 C 
BRANCH  26  27
HETATM   27  C4  UNL     1       9.165  56.578  -5.396  1.00  0.00     0.032 C 
BRANCH  27  28
HETATM   28  C5  UNL     1      10.450  55.795  -5.284  1.00  0.00    -0.019 C 
HETATM   29  C6  UNL     1      11.590  56.158  -4.660  1.00  0.00    -0.037 C 
BRANCH  29  30
HETATM   30  C7  UNL     1      12.798  55.257  -4.691  1.00  0.00     0.200 C 
BRANCH  30  31
HETATM   31  O1  UNL     1      13.323  55.258  -6.014  1.00  0.00    -0.397 OA
HETATM   32  H10 UNL     1      14.004  54.563  -6.039  1.00  0.00     0.209 HD
ENDBRANCH  30  31
ENDBRANCH  29  30
BRANCH  29  33
HETATM   33  C8  UNL     1      11.786  57.436  -3.884  1.00  0.00     0.200 C 
BRANCH  33  34
HETATM   34  O2  UNL     1      12.695  58.279  -4.575  1.00  0.00    -0.397 OA
HETATM   35  H13 UNL     1      13.383  57.683  -4.939  1.00  0.00     0.209 HD
ENDBRANCH  33  34
ENDBRANCH  29  33
ENDBRANCH  27  28
ENDBRANCH  26  27
ENDBRANCH  24  26
ENDBRANCH   1  24
TORSDOF 8
ENDMDL
MODEL 3
REMARK minimizedAffinity -6.99549866
REMARK CNNscore 0.473384708
REMARK CNNaffinity 6.36447334
REMARK  8 active torsions:
REMARK  status: ('A' for Active; 'I' for Inactive)
REMARK    1  A    between atoms: C2_2  and  C3_3 
REMARK    2  A    between atoms: C2_2  and  C9_11 
REMARK    3  A    between atoms: C3_3  and  C4_4 
REMARK    4  A    between atoms: C4_4  and  C5_5 
REMARK    5  A    between atoms: C6_6  and  C7_7 
REMARK    6  A    between atoms: C6_6  and  C8_9 
REMARK    7  A    between atoms: C7_7  and  O1_8 
REMARK    8  A    between atoms: C8_9  and  O2_10 
ROOT
HETATM    1  C9  UNL     1       6.973  57.274  -5.682  1.00  0.00     0.018 C 
HETATM    2  C10 UNL     1       5.999  57.711  -4.559  1.00  0.00     0.010 C 
HETATM    3  C11 UNL     1       4.596  57.684  -5.199  1.00  0.00     0.011 C 
HETATM    4  C12 UNL     1       4.648  56.493  -6.186  1.00  0.00    -0.032 C 
HETATM    5  C13 UNL     1       4.592  55.197  -5.319  1.00  0.00     0.016 C 
HETATM    6  C14 UNL     1       6.052  56.738  -6.807  1.00  0.00     0.002 C 
HETATM    7  C15 UNL     1       6.489  55.618  -7.734  1.00  0.00     0.006 C 
HETATM    8  C16 UNL     1       5.464  55.458  -8.874  1.00  0.00     0.006 C 
HETATM    9  C17 UNL     1       4.000  55.290  -8.373  1.00  0.00     0.003 C 
HETATM   10  C18 UNL     1       2.957  54.889  -9.503  1.00  0.00    -0.035 C 
HETATM   11  C19 UNL     1       2.909  55.917 -10.656  1.00  0.00     0.016 C 
HETATM   12  C20 UNL     1       3.422  53.530 -10.137  1.00  0.00     0.017 C 
HETATM   13  C21 UNL     1       2.310  52.596 -10.600  1.00  0.00     0.080 C 
HETATM   14  C22 UNL     1       1.042  53.334 -10.940  1.00  0.00     0.135 C 
HETATM   15  O3  UNL     1       0.502  53.184 -12.037  1.00  0.00    -0.297 OA
HETATM   16  C23 UNL     1       0.423  54.190  -9.827  1.00  0.00     0.017 C 
HETATM   17  C24 UNL     1      -0.382  55.339 -10.463  1.00  0.00     0.023 C 
HETATM   18  C25 UNL     1      -0.578  53.281  -9.083  1.00  0.00     0.023 C 
HETATM   19  C26 UNL     1       1.552  54.659  -8.837  1.00  0.00     0.009 C 
HETATM   20  C27 UNL     1       1.118  55.831  -7.936  1.00  0.00     0.007 C 
HETATM   21  C28 UNL     1       2.146  56.123  -6.838  1.00  0.00     0.011 C 
HETATM   22  C29 UNL     1       3.565  56.445  -7.375  1.00  0.00    -0.032 C 
HETATM   23  C30 UNL     1       3.478  57.827  -8.086  1.00  0.00     0.016 C 
ENDROOT
BRANCH   1  24
HETATM   24  C2  UNL     1       8.210  56.469  -5.289  1.00  0.00    -0.084 C 
HETATM   25  C1  UNL     1       8.081  55.137  -5.131  1.00  0.00     0.014 C 
BRANCH  24  26
HETATM   26  C3  UNL     1       9.524  57.207  -5.073  1.00  0.00     0.037 C 
BRANCH  26  27
HETATM   27  C4  UNL     1      10.621  56.568  -4.195  1.00  0.00     0.032 C 
BRANCH  27  28
HETATM   28  C5  UNL     1      11.466  55.572  -4.952  1.00  0.00    -0.019 C 
HETATM   29  C6  UNL     1      12.661  55.057  -4.593  1.00  0.00    -0.037 C 
BRANCH  29  30
HETATM   30  C7  UNL     1      13.384  54.100  -5.505  1.00  0.00     0.200 C 
BRANCH  30  31
HETATM   31  O1  UNL     1      14.162  54.859  -6.424  1.00  0.00    -0.397 OA
HETATM   32  H10 UNL     1      14.498  54.229  -7.085  1.00  0.00     0.209 HD
ENDBRANCH  30  31
ENDBRANCH  29  30
BRANCH  29  33
HETATM   33  C8  UNL     1      13.379  55.348  -3.300  1.00  0.00     0.200 C 
BRANCH  33  34
HETATM   34  O2  UNL     1      14.758  55.045  -3.440  1.00  0.00    -0.397 OA
HETATM   35  H13 UNL     1      14.794  54.227  -3.979  1.00  0.00     0.209 HD
ENDBRANCH  33  34
ENDBRANCH  29  33
ENDBRANCH  27  28
ENDBRANCH  26  27
ENDBRANCH  24  26
ENDBRANCH   1  24
TORSDOF 8
ENDMDL
MODEL 4
REMARK minimizedAffinity -7.27322245
REMARK CNNscore 0.440271914
REMARK CNNaffinity 5.95475197
REMARK  8 active torsions:
REMARK  status: ('A' for Active; 'I' for Inactive)
REMARK    1  A    between atoms: C2_2  and  C3_3 
REMARK    2  A    between atoms: C2_2  and  C9_11 
REMARK    3  A    between atoms: C3_3  and  C4_4 
REMARK    4  A    between atoms: C4_4  and  C5_5 
REMARK    5  A    between atoms: C6_6  and  C7_7 
REMARK    6  A    between atoms: C6_6  and  C8_9 
REMARK    7  A    between atoms: C7_7  and  O1_8 
REMARK    8  A    between atoms: C8_9  and  O2_10 
ROOT
HETATM    1  C9  UNL     1     -12.779  46.144 -26.717  1.00  0.00     0.018 C 
HETATM    2  C10 UNL     1     -13.472  47.356 -27.387  1.00  0.00     0.010 C 
HETATM    3  C11 UNL     1     -12.340  48.148 -28.074  1.00  0.00     0.011 C 
HETATM    4  C12 UNL     1     -11.350  47.061 -28.557  1.00  0.00    -0.032 C 
HETATM    5  C13 UNL     1     -12.012  46.379 -29.794  1.00  0.00     0.016 C 
HETATM    6  C14 UNL     1     -11.343  46.146 -27.301  1.00  0.00     0.002 C 
HETATM    7  C15 UNL     1     -10.563  44.861 -27.512  1.00  0.00     0.006 C 
HETATM    8  C16 UNL     1      -9.106  45.195 -27.891  1.00  0.00     0.006 C 
HETATM    9  C17 UNL     1      -8.987  46.177 -29.092  1.00  0.00     0.003 C 
HETATM   10  C18 UNL     1      -7.511  46.357 -29.655  1.00  0.00    -0.035 C 
HETATM   11  C19 UNL     1      -6.524  46.859 -28.578  1.00  0.00     0.016 C 
HETATM   12  C20 UNL     1      -6.991  44.949 -30.115  1.00  0.00     0.017 C 
HETATM   13  C21 UNL     1      -6.054  44.945 -31.318  1.00  0.00     0.080 C 
HETATM   14  C22 UNL     1      -5.317  46.249 -31.478  1.00  0.00     0.135 C 
HETATM   15  O3  UNL     1      -4.089  46.270 -31.560  1.00  0.00    -0.297 OA
HETATM   16  C23 UNL     1      -6.175  47.512 -31.628  1.00  0.00     0.017 C 
HETATM   17  C24 UNL     1      -5.381  48.726 -31.110  1.00  0.00     0.023 C 
HETATM   18  C25 UNL     1      -6.394  47.715 -33.143  1.00  0.00     0.023 C 
HETATM   19  C26 UNL     1      -7.561  47.293 -30.917  1.00  0.00     0.009 C 
HETATM   20  C27 UNL     1      -8.323  48.607 -30.657  1.00  0.00     0.007 C 
HETATM   21  C28 UNL     1      -9.753  48.354 -30.169  1.00  0.00     0.011 C 
HETATM   22  C29 UNL     1      -9.837  47.502 -28.876  1.00  0.00    -0.032 C 
HETATM   23  C30 UNL     1      -9.270  48.375 -27.720  1.00  0.00     0.016 C 
ENDROOT
BRANCH   1  24
HETATM   24  C2  UNL     1     -13.547  44.825 -26.641  1.00  0.00    -0.084 C 
HETATM   25  C1  UNL     1     -13.048  43.758 -27.294  1.00  0.00     0.014 C 
BRANCH  24  26
HETATM   26  C3  UNL     1     -14.849  44.782 -25.852  1.00  0.00     0.037 C 
BRANCH  26  27
HETATM   27  C4  UNL     1     -15.119  45.849 -24.770  1.00  0.00     0.032 C 
BRANCH  27  28
HETATM   28  C5  UNL     1     -16.572  46.248 -24.696  1.00  0.00    -0.019 C 
HETATM   29  C6  UNL     1     -17.361  46.306 -23.602  1.00  0.00    -0.037 C 
BRANCH  29  30
HETATM   30  C7  UNL     1     -18.813  46.687 -23.728  1.00  0.00     0.200 C 
BRANCH  30  31
HETATM   31  O1  UNL     1     -18.959  47.525 -24.869  1.00  0.00    -0.397 OA
HETATM   32  H10 UNL     1     -19.869  47.870 -24.841  1.00  0.00     0.209 HD
ENDBRANCH  30  31
ENDBRANCH  29  30
BRANCH  29  33
HETATM   33  C8  UNL     1     -16.911  46.026 -22.192  1.00  0.00     0.200 C 
BRANCH  33  34
HETATM   34  O2  UNL     1     -15.870  46.922 -21.834  1.00  0.00    -0.397 OA
HETATM   35  H13 UNL     1     -15.315  47.015 -22.636  1.00  0.00     0.209 HD
ENDBRANCH  33  34
ENDBRANCH  29  33
ENDBRANCH  27  28
ENDBRANCH  26  27
ENDBRANCH  24  26
ENDBRANCH   1  24
TORSDOF 8
ENDMDL
MODEL 5
REMARK minimizedAffinity -6.79072809
REMARK CNNscore 0.376862764
REMARK CNNaffinity 6.19561529
REMARK  8 active torsions:
REMARK  status: ('A' for Active; 'I' for Inactive)
REMARK    1  A    between atoms: C2_2  and  C3_3 
REMARK    2  A    between atoms: C2_2  and  C9_11 
REMARK    3  A    between atoms: C3_3  and  C4_4 
REMARK    4  A    between atoms: C4_4  and  C5_5 
REMARK    5  A    between atoms: C6_6  and  C7_7 
REMARK    6  A    between atoms: C6_6  and  C8_9 
REMARK    7  A    between atoms: C7_7  and  O1_8 
REMARK    8  A    between atoms: C8_9  and  O2_10 
ROOT
HETATM    1  C9  UNL     1       6.922  57.851  -5.283  1.00  0.00     0.018 C 
HETATM    2  C10 UNL     1       5.738  58.275  -4.379  1.00  0.00     0.010 C 
HETATM    3  C11 UNL     1       4.469  58.022  -5.219  1.00  0.00     0.011 C 
HETATM    4  C12 UNL     1       4.803  56.758  -6.047  1.00  0.00    -0.032 C 
HETATM    5  C13 UNL     1       4.735  55.553  -5.059  1.00  0.00     0.016 C 
HETATM    6  C14 UNL     1       6.257  57.107  -6.469  1.00  0.00     0.002 C 
HETATM    7  C15 UNL     1       6.952  55.963  -7.187  1.00  0.00     0.006 C 
HETATM    8  C16 UNL     1       6.150  55.578  -8.446  1.00  0.00     0.006 C 
HETATM    9  C17 UNL     1       4.648  55.286  -8.159  1.00  0.00     0.003 C 
HETATM   10  C18 UNL     1       3.851  54.661  -9.384  1.00  0.00    -0.035 C 
HETATM   11  C19 UNL     1       3.890  55.563 -10.638  1.00  0.00     0.016 C 
HETATM   12  C20 UNL     1       4.548  53.313  -9.783  1.00  0.00     0.017 C 
HETATM   13  C21 UNL     1       3.627  52.215 -10.304  1.00  0.00     0.080 C 
HETATM   14  C22 UNL     1       2.365  52.764 -10.914  1.00  0.00     0.135 C 
HETATM   15  O3  UNL     1       2.031  52.449 -12.057  1.00  0.00    -0.297 OA
HETATM   16  C23 UNL     1       1.488  53.643 -10.012  1.00  0.00     0.017 C 
HETATM   17  C24 UNL     1       0.687  54.625 -10.888  1.00  0.00     0.023 C 
HETATM   18  C25 UNL     1       0.475  52.697  -9.333  1.00  0.00     0.023 C 
HETATM   19  C26 UNL     1       2.385  54.332  -8.919  1.00  0.00     0.009 C 
HETATM   20  C27 UNL     1       1.693  55.525  -8.232  1.00  0.00     0.007 C 
HETATM   21  C28 UNL     1       2.492  56.038  -7.030  1.00  0.00     0.011 C 
HETATM   22  C29 UNL     1       3.941  56.472  -7.375  1.00  0.00    -0.032 C 
HETATM   23  C30 UNL     1       3.833  57.760  -8.241  1.00  0.00     0.016 C 
ENDROOT
BRANCH   1  24
HETATM   24  C2  UNL     1       8.152  57.236  -4.617  1.00  0.00    -0.084 C 
HETATM   25  C1  UNL     1       7.968  56.236  -3.734  1.00  0.00     0.014 C 
BRANCH  24  26
HETATM   26  C3  UNL     1       9.526  57.795  -4.964  1.00  0.00     0.037 C 
BRANCH  26  27
HETATM   27  C4  UNL     1       9.947  59.176  -4.418  1.00  0.00     0.032 C 
BRANCH  27  28
HETATM   28  C5  UNL     1       9.754  60.283  -5.425  1.00  0.00    -0.019 C 
HETATM   29  C6  UNL     1      10.184  61.560  -5.345  1.00  0.00    -0.037 C 
BRANCH  29  30
HETATM   30  C7  UNL     1       9.855  62.546  -6.436  1.00  0.00     0.200 C 
BRANCH  30  31
HETATM   31  O1  UNL     1       9.803  61.843  -7.673  1.00  0.00    -0.397 OA
HETATM   32  H10 UNL     1       9.736  62.520  -8.370  1.00  0.00     0.209 HD
ENDBRANCH  30  31
ENDBRANCH  29  30
BRANCH  29  33
HETATM   33  C8  UNL     1      11.011  62.128  -4.221  1.00  0.00     0.200 C 
BRANCH  33  34
HETATM   34  O2  UNL     1      12.335  61.622  -4.298  1.00  0.00    -0.397 OA
HETATM   35  H13 UNL     1      12.242  60.683  -4.563  1.00  0.00     0.209 HD
ENDBRANCH  33  34
ENDBRANCH  29  33
ENDBRANCH  27  28
ENDBRANCH  26  27
ENDBRANCH  24  26
ENDBRANCH   1  24
TORSDOF 8
ENDMDL
MODEL 6
REMARK minimizedAffinity -7.15532303
REMARK CNNscore 0.309497356
REMARK CNNaffinity 5.74089575
REMARK  8 active torsions:
REMARK  status: ('A' for Active; 'I' for Inactive)
REMARK    1  A    between atoms: C2_2  and  C3_3 
REMARK    2  A    between atoms: C2_2  and  C9_11 
REMARK    3  A    between atoms: C3_3  and  C4_4 
REMARK    4  A    between atoms: C4_4  and  C5_5 
REMARK    5  A    between atoms: C6_6  and  C7_7 
REMARK    6  A    between atoms: C6_6  and  C8_9 
REMARK    7  A    between atoms: C7_7  and  O1_8 
REMARK    8  A    between atoms: C8_9  and  O2_10 
ROOT
HETATM    1  C9  UNL     1     -14.389  46.448 -26.802  1.00  0.00     0.018 C 
HETATM    2  C10 UNL     1     -14.838  45.416 -27.866  1.00  0.00     0.010 C 
HETATM    3  C11 UNL     1     -13.829  45.556 -29.025  1.00  0.00     0.011 C 
HETATM    4  C12 UNL     1     -12.487  45.879 -28.327  1.00  0.00    -0.032 C 
HETATM    5  C13 UNL     1     -11.994  44.548 -27.679  1.00  0.00     0.016 C 
HETATM    6  C14 UNL     1     -12.987  46.908 -27.275  1.00  0.00     0.002 C 
HETATM    7  C15 UNL     1     -11.905  47.320 -26.292  1.00  0.00     0.006 C 
HETATM    8  C16 UNL     1     -10.715  47.931 -27.057  1.00  0.00     0.006 C 
HETATM    9  C17 UNL     1     -10.178  47.021 -28.199  1.00  0.00     0.003 C 
HETATM   10  C18 UNL     1      -8.813  47.512 -28.849  1.00  0.00    -0.035 C 
HETATM   11  C19 UNL     1      -8.916  48.938 -29.437  1.00  0.00     0.016 C 
HETATM   12  C20 UNL     1      -7.729  47.575 -27.716  1.00  0.00     0.017 C 
HETATM   13  C21 UNL     1      -6.302  47.242 -28.139  1.00  0.00     0.080 C 
HETATM   14  C22 UNL     1      -6.059  47.506 -29.602  1.00  0.00     0.135 C 
HETATM   15  O3  UNL     1      -5.124  48.220 -29.964  1.00  0.00    -0.297 OA
HETATM   16  C23 UNL     1      -6.966  46.768 -30.596  1.00  0.00     0.017 C 
HETATM   17  C24 UNL     1      -7.076  47.596 -31.890  1.00  0.00     0.023 C 
HETATM   18  C25 UNL     1      -6.245  45.450 -30.949  1.00  0.00     0.023 C 
HETATM   19  C26 UNL     1      -8.346  46.450 -29.910  1.00  0.00     0.009 C 
HETATM   20  C27 UNL     1      -9.453  46.086 -30.918  1.00  0.00     0.007 C 
HETATM   21  C28 UNL     1     -10.716  45.570 -30.222  1.00  0.00     0.011 C 
HETATM   22  C29 UNL     1     -11.324  46.566 -29.200  1.00  0.00    -0.032 C 
HETATM   23  C30 UNL     1     -11.892  47.763 -30.017  1.00  0.00     0.016 C 
ENDROOT
BRANCH   1  24
HETATM   24  C2  UNL     1     -14.598  46.100 -25.329  1.00  0.00    -0.084 C 
HETATM   25  C1  UNL     1     -14.194  44.890 -24.895  1.00  0.00     0.014 C 
BRANCH  24  26
HETATM   26  C3  UNL     1     -15.270  47.124 -24.424  1.00  0.00     0.037 C 
BRANCH  26  27
HETATM   27  C4  UNL     1     -16.690  46.849 -23.886  1.00  0.00     0.032 C 
BRANCH  27  28
HETATM   28  C5  UNL     1     -17.656  46.446 -24.973  1.00  0.00    -0.019 C 
HETATM   29  C6  UNL     1     -18.601  45.483 -24.927  1.00  0.00    -0.037 C 
BRANCH  29  30
HETATM   30  C7  UNL     1     -19.451  45.189 -26.136  1.00  0.00     0.200 C 
BRANCH  30  31
HETATM   31  O1  UNL     1     -18.651  45.366 -27.300  1.00  0.00    -0.397 OA
HETATM   32  H10 UNL     1     -19.257  45.313 -28.059  1.00  0.00     0.209 HD
ENDBRANCH  30  31
ENDBRANCH  29  30
BRANCH  29  33
HETATM   33  C8  UNL     1     -18.915  44.632 -23.723  1.00  0.00     0.200 C 
BRANCH  33  34
HETATM   34  O2  UNL     1     -20.314  44.640 -23.485  1.00  0.00    -0.397 OA
HETATM   35  H13 UNL     1     -20.608  45.557 -23.669  1.00  0.00     0.209 HD
ENDBRANCH  33  34
ENDBRANCH  29  33
ENDBRANCH  27  28
ENDBRANCH  26  27
ENDBRANCH  24  26
ENDBRANCH   1  24
TORSDOF 8
ENDMDL
MODEL 7
REMARK minimizedAffinity -6.81963968
REMARK CNNscore 0.298388392
REMARK CNNaffinity 5.41664553
REMARK  8 active torsions:
REMARK  status: ('A' for Active; 'I' for Inactive)
REMARK    1  A    between atoms: C2_2  and  C3_3 
REMARK    2  A    between atoms: C2_2  and  C9_11 
REMARK    3  A    between atoms: C3_3  and  C4_4 
REMARK    4  A    between atoms: C4_4  and  C5_5 
REMARK    5  A    between atoms: C6_6  and  C7_7 
REMARK    6  A    between atoms: C6_6  and  C8_9 
REMARK    7  A    between atoms: C7_7  and  O1_8 
REMARK    8  A    between atoms: C8_9  and  O2_10 
ROOT
HETATM    1  C9  UNL     1      -8.149  47.530 -34.130  1.00  0.00     0.018 C 
HETATM    2  C10 UNL     1      -6.617  47.559 -33.898  1.00  0.00     0.010 C 
HETATM    3  C11 UNL     1      -6.436  47.664 -32.370  1.00  0.00     0.011 C 
HETATM    4  C12 UNL     1      -7.606  46.836 -31.787  1.00  0.00    -0.032 C 
HETATM    5  C13 UNL     1      -7.240  45.336 -32.014  1.00  0.00     0.016 C 
HETATM    6  C14 UNL     1      -8.751  47.322 -32.717  1.00  0.00     0.002 C 
HETATM    7  C15 UNL     1     -10.047  46.559 -32.504  1.00  0.00     0.006 C 
HETATM    8  C16 UNL     1     -10.502  46.709 -31.038  1.00  0.00     0.006 C 
HETATM    9  C17 UNL     1      -9.401  46.330 -30.006  1.00  0.00     0.003 C 
HETATM   10  C18 UNL     1      -9.907  46.246 -28.501  1.00  0.00    -0.035 C 
HETATM   11  C19 UNL     1     -10.528  47.574 -28.011  1.00  0.00     0.016 C 
HETATM   12  C20 UNL     1     -11.045  45.169 -28.429  1.00  0.00     0.017 C 
HETATM   13  C21 UNL     1     -11.127  44.371 -27.131  1.00  0.00     0.080 C 
HETATM   14  C22 UNL     1     -10.551  45.120 -25.958  1.00  0.00     0.135 C 
HETATM   15  O3  UNL     1     -11.213  45.287 -24.934  1.00  0.00    -0.297 OA
HETATM   16  C23 UNL     1      -9.088  45.566 -26.076  1.00  0.00     0.017 C 
HETATM   17  C24 UNL     1      -8.869  46.817 -25.205  1.00  0.00     0.023 C 
HETATM   18  C25 UNL     1      -8.234  44.429 -25.475  1.00  0.00     0.023 C 
HETATM   19  C26 UNL     1      -8.719  45.761 -27.593  1.00  0.00     0.009 C 
HETATM   20  C27 UNL     1      -7.432  46.581 -27.803  1.00  0.00     0.007 C 
HETATM   21  C28 UNL     1      -6.975  46.570 -29.265  1.00  0.00     0.011 C 
HETATM   22  C29 UNL     1      -8.038  47.105 -30.261  1.00  0.00    -0.032 C 
HETATM   23  C30 UNL     1      -8.179  48.632 -29.997  1.00  0.00     0.016 C 
ENDROOT
BRANCH   1  24
HETATM   24  C2  UNL     1      -8.685  46.699 -35.295  1.00  0.00    -0.084 C 
HETATM   25  C1  UNL     1      -8.982  45.405 -35.072  1.00  0.00     0.014 C 
BRANCH  24  26
HETATM   26  C3  UNL     1      -8.839  47.364 -36.656  1.00  0.00     0.037 C 
BRANCH  26  27
HETATM   27  C4  UNL     1      -7.597  47.946 -37.364  1.00  0.00     0.032 C 
BRANCH  27  28
HETATM   28  C5  UNL     1      -7.931  48.599 -38.683  1.00  0.00    -0.019 C 
HETATM   29  C6  UNL     1      -7.904  48.043 -39.913  1.00  0.00    -0.037 C 
BRANCH  29  30
HETATM   30  C7  UNL     1      -8.229  48.869 -41.131  1.00  0.00     0.200 C 
BRANCH  30  31
HETATM   31  O1  UNL     1      -7.055  49.574 -41.521  1.00  0.00    -0.397 OA
HETATM   32  H10 UNL     1      -7.330  50.203 -42.211  1.00  0.00     0.209 HD
ENDBRANCH  30  31
ENDBRANCH  29  30
BRANCH  29  33
HETATM   33  C8  UNL     1      -7.573  46.603 -40.208  1.00  0.00     0.200 C 
BRANCH  33  34
HETATM   34  O2  UNL     1      -6.448  46.537 -41.070  1.00  0.00    -0.397 OA
HETATM   35  H13 UNL     1      -6.562  47.272 -41.708  1.00  0.00     0.209 HD
ENDBRANCH  33  34
ENDBRANCH  29  33
ENDBRANCH  27  28
ENDBRANCH  26  27
ENDBRANCH  24  26
ENDBRANCH   1  24
TORSDOF 8
ENDMDL
MODEL 8
REMARK minimizedAffinity -8.60007286
REMARK CNNscore 0.26367557
REMARK CNNaffinity 6.62782669
REMARK  8 active torsions:
REMARK  status: ('A' for Active; 'I' for Inactive)
REMARK    1  A    between atoms: C2_2  and  C3_3 
REMARK    2  A    between atoms: C2_2  and  C9_11 
REMARK    3  A    between atoms: C3_3  and  C4_4 
REMARK    4  A    between atoms: C4_4  and  C5_5 
REMARK    5  A    between atoms: C6_6  and  C7_7 
REMARK    6  A    between atoms: C6_6  and  C8_9 
REMARK    7  A    between atoms: C7_7  and  O1_8 
REMARK    8  A    between atoms: C8_9  and  O2_10 
ROOT
HETATM    1  C9  UNL     1      -2.697  49.746 -22.104  1.00  0.00     0.018 C 
HETATM    2  C10 UNL     1      -1.984  50.991 -22.689  1.00  0.00     0.010 C 
HETATM    3  C11 UNL     1      -1.448  51.768 -21.468  1.00  0.00     0.011 C 
HETATM    4  C12 UNL     1      -1.052  50.666 -20.456  1.00  0.00    -0.032 C 
HETATM    5  C13 UNL     1       0.269  50.030 -20.991  1.00  0.00     0.016 C 
HETATM    6  C14 UNL     1      -2.277  49.724 -20.612  1.00  0.00     0.002 C 
HETATM    7  C15 UNL     1      -2.122  48.423 -19.844  1.00  0.00     0.006 C 
HETATM    8  C16 UNL     1      -1.917  48.727 -18.347  1.00  0.00     0.006 C 
HETATM    9  C17 UNL     1      -0.762  49.733 -18.070  1.00  0.00     0.003 C 
HETATM   10  C18 UNL     1      -0.372  49.885 -16.537  1.00  0.00    -0.035 C 
HETATM   11  C19 UNL     1      -1.565  50.337 -15.664  1.00  0.00     0.016 C 
HETATM   12  C20 UNL     1       0.062  48.475 -16.001  1.00  0.00     0.017 C 
HETATM   13  C21 UNL     1       1.153  48.474 -14.936  1.00  0.00     0.080 C 
HETATM   14  C22 UNL     1       1.197  49.761 -14.155  1.00  0.00     0.135 C 
HETATM   15  O3  UNL     1       1.141  49.751 -12.925  1.00  0.00    -0.297 OA
HETATM   16  C23 UNL     1       1.409  51.050 -14.960  1.00  0.00     0.017 C 
HETATM   17  C24 UNL     1       0.775  52.230 -14.200  1.00  0.00     0.023 C 
HETATM   18  C25 UNL     1       2.933  51.292 -15.002  1.00  0.00     0.023 C 
HETATM   19  C26 UNL     1       0.864  50.851 -16.422  1.00  0.00     0.009 C 
HETATM   20  C27 UNL     1       0.657  52.178 -17.177  1.00  0.00     0.007 C 
HETATM   21  C28 UNL     1       0.339  51.953 -18.658  1.00  0.00     0.011 C 
HETATM   22  C29 UNL     1      -0.914  51.074 -18.907  1.00  0.00    -0.032 C 
HETATM   23  C30 UNL     1      -2.148  51.906 -18.453  1.00  0.00     0.016 C 
ENDROOT
BRANCH   1  24
HETATM   24  C2  UNL     1      -2.653  48.448 -22.907  1.00  0.00    -0.084 C 
HETATM   25  C1  UNL     1      -2.377  47.302 -22.254  1.00  0.00     0.014 C 
BRANCH  24  26
HETATM   26  C3  UNL     1      -2.900  48.508 -24.408  1.00  0.00     0.037 C 
BRANCH  26  27
HETATM   27  C4  UNL     1      -4.297  48.900 -24.934  1.00  0.00     0.032 C 
BRANCH  27  28
HETATM   28  C5  UNL     1      -4.589  48.322 -26.297  1.00  0.00    -0.019 C 
HETATM   29  C6  UNL     1      -4.079  48.707 -27.487  1.00  0.00    -0.037 C 
BRANCH  29  30
HETATM   30  C7  UNL     1      -4.525  48.037 -28.761  1.00  0.00     0.200 C 
BRANCH  30  31
HETATM   31  O1  UNL     1      -5.035  49.035 -29.637  1.00  0.00    -0.397 OA
HETATM   32  H10 UNL     1      -5.445  48.563 -30.382  1.00  0.00     0.209 HD
ENDBRANCH  30  31
ENDBRANCH  29  30
BRANCH  29  33
HETATM   33  C8  UNL     1      -3.046  49.787 -27.680  1.00  0.00     0.200 C 
BRANCH  33  34
HETATM   34  O2  UNL     1      -3.493  50.705 -28.665  1.00  0.00    -0.397 OA
HETATM   35  H13 UNL     1      -3.933  50.161 -29.352  1.00  0.00     0.209 HD
ENDBRANCH  33  34
ENDBRANCH  29  33
ENDBRANCH  27  28
ENDBRANCH  26  27
ENDBRANCH  24  26
ENDBRANCH   1  24
TORSDOF 8
ENDMDL
MODEL 9
REMARK minimizedAffinity -7.03985929
REMARK CNNscore 0.253984183
REMARK CNNaffinity 5.77817583
REMARK  8 active torsions:
REMARK  status: ('A' for Active; 'I' for Inactive)
REMARK    1  A    between atoms: C2_2  and  C3_3 
REMARK    2  A    between atoms: C2_2  and  C9_11 
REMARK    3  A    between atoms: C3_3  and  C4_4 
REMARK    4  A    between atoms: C4_4  and  C5_5 
REMARK    5  A    between atoms: C6_6  and  C7_7 
REMARK    6  A    between atoms: C6_6  and  C8_9 
REMARK    7  A    between atoms: C7_7  and  O1_8 
REMARK    8  A    between atoms: C8_9  and  O2_10 
ROOT
HETATM    1  C9  UNL     1      -7.325  47.772 -29.305  1.00  0.00     0.018 C 
HETATM    2  C10 UNL     1      -8.791  48.268 -29.242  1.00  0.00     0.010 C 
HETATM    3  C11 UNL     1      -9.547  47.451 -30.310  1.00  0.00     0.011 C 
HETATM    4  C12 UNL     1      -8.870  46.059 -30.277  1.00  0.00    -0.032 C 
HETATM    5  C13 UNL     1      -9.369  45.357 -28.975  1.00  0.00     0.016 C 
HETATM    6  C14 UNL     1      -7.383  46.500 -30.188  1.00  0.00     0.002 C 
HETATM    7  C15 UNL     1      -6.434  45.333 -29.977  1.00  0.00     0.006 C 
HETATM    8  C16 UNL     1      -6.585  44.326 -31.133  1.00  0.00     0.006 C 
HETATM    9  C17 UNL     1      -8.054  43.872 -31.374  1.00  0.00     0.003 C 
HETATM   10  C18 UNL     1      -8.215  42.665 -32.395  1.00  0.00    -0.035 C 
HETATM   11  C19 UNL     1      -7.621  42.983 -33.786  1.00  0.00     0.016 C 
HETATM   12  C20 UNL     1      -7.406  41.442 -31.834  1.00  0.00     0.017 C 
HETATM   13  C21 UNL     1      -7.990  40.065 -32.130  1.00  0.00     0.080 C 
HETATM   14  C22 UNL     1      -8.847  40.057 -33.369  1.00  0.00     0.135 C 
HETATM   15  O3  UNL     1      -8.631  39.254 -34.277  1.00  0.00    -0.297 OA
HETATM   16  C23 UNL     1     -10.039  41.022 -33.388  1.00  0.00     0.017 C 
HETATM   17  C24 UNL     1     -10.367  41.391 -34.847  1.00  0.00     0.023 C 
HETATM   18  C25 UNL     1     -11.245  40.238 -32.827  1.00  0.00     0.023 C 
HETATM   19  C26 UNL     1      -9.731  42.255 -32.461  1.00  0.00     0.009 C 
HETATM   20  C27 UNL     1     -10.664  43.455 -32.719  1.00  0.00     0.007 C 
HETATM   21  C28 UNL     1     -10.492  44.553 -31.665  1.00  0.00     0.011 C 
HETATM   22  C29 UNL     1      -9.044  45.101 -31.557  1.00  0.00    -0.032 C 
HETATM   23  C30 UNL     1      -8.758  45.888 -32.868  1.00  0.00     0.016 C 
ENDROOT
BRANCH   1  24
HETATM   24  C2  UNL     1      -6.521  47.737 -28.006  1.00  0.00    -0.084 C 
HETATM   25  C1  UNL     1      -7.149  47.359 -26.876  1.00  0.00     0.014 C 
BRANCH  24  26
HETATM   26  C3  UNL     1      -5.055  48.149 -28.043  1.00  0.00     0.037 C 
BRANCH  26  27
HETATM   27  C4  UNL     1      -4.315  48.447 -26.722  1.00  0.00     0.032 C 
BRANCH  27  28
HETATM   28  C5  UNL     1      -2.985  49.125 -26.940  1.00  0.00    -0.019 C 
HETATM   29  C6  UNL     1      -2.616  50.367 -26.561  1.00  0.00    -0.037 C 
BRANCH  29  30
HETATM   30  C7  UNL     1      -1.248  50.896 -26.908  1.00  0.00     0.200 C 
BRANCH  30  31
HETATM   31  O1  UNL     1      -1.323  51.528 -28.181  1.00  0.00    -0.397 OA
HETATM   32  H10 UNL     1      -0.407  51.729 -28.442  1.00  0.00     0.209 HD
ENDBRANCH  30  31
ENDBRANCH  29  30
BRANCH  29  33
HETATM   33  C8  UNL     1      -3.472  51.325 -25.774  1.00  0.00     0.200 C 
BRANCH  33  34
HETATM   34  O2  UNL     1      -3.175  52.658 -26.158  1.00  0.00    -0.397 OA
HETATM   35  H13 UNL     1      -2.204  52.685 -26.287  1.00  0.00     0.209 HD
ENDBRANCH  33  34
ENDBRANCH  29  33
ENDBRANCH  27  28
ENDBRANCH  26  27
ENDBRANCH  24  26
ENDBRANCH   1  24
TORSDOF 8
ENDMDL
