MODEL 1
REMARK minimizedAffinity -8.13399506
REMARK CNNscore 0.197534874
REMARK CNNaffinity 7.41335821
REMARK  13 active torsions:
REMARK  status: ('A' for Active; 'I' for Inactive)
REMARK    1  A    between atoms: C2_2  and  C3_3 
REMARK    2  A    between atoms: C6_6  and  C7_7 
REMARK    3  A    between atoms: C7_7  and  C8_8 
REMARK    4  A    between atoms: C14_17  and  C15_18 
REMARK    5  A    between atoms: C15_18  and  O3_20 
REMARK    6  A    between atoms: C19_24  and  C20_25 
REMARK    7  A    between atoms: C20_25  and  C21_26 
REMARK    8  A    between atoms: C22_27  and  C23_28 
REMARK    9  A    between atoms: C27_32  and  C28_33 
REMARK   10  A    between atoms: C29_37  and  C30_38 
REMARK   11  A    between atoms: C30_38  and  C31_39 
REMARK   12  A    between atoms: C31_39  and  C32_40 
REMARK   13  A    between atoms: C32_40  and  O6_42 
ROOT
HETATM    1  C8  UNL     1      -1.656  50.020 -16.386  1.00  0.00     0.016 C 
HETATM    2  N1  UNL     1      -1.389  51.146 -16.981  1.00  0.00    -0.362 N 
ATOM      3  H1  UNL     1      -1.159  52.029 -16.526  1.00  0.00     0.165 HD
HETATM    4  C9  UNL     1      -1.474  50.927 -18.340  1.00  0.00     0.024 C 
HETATM    5  C10 UNL     1      -0.874  51.756 -19.208  1.00  0.00     0.014 A 
HETATM    6  C11 UNL     1      -0.835  51.651 -20.610  1.00  0.00     0.056 A 
HETATM    7  C12 UNL     1      -0.091  52.627 -21.203  1.00  0.00     0.046 A 
HETATM    8  C13 UNL     1       0.435  53.511 -20.181  1.00  0.00     0.180 A 
HETATM    9  O1  UNL     1       1.140  54.488 -20.394  1.00  0.00    -0.291 OA
HETATM   10  C14 UNL     1      -0.053  53.013 -18.795  1.00  0.00     0.197 A 
HETATM   11  C17 UNL     1      -0.099  52.411 -22.591  1.00  0.00    -0.023 A 
HETATM   12  C18 UNL     1       0.600  53.219 -23.620  1.00  0.00     0.051 C 
HETATM   13  C19 UNL     1      -0.908  51.285 -22.789  1.00  0.00     0.022 A 
HETATM   14  N3  UNL     1      -1.351  50.835 -21.550  1.00  0.00    -0.357 N 
HETATM   15  C29 UNL     1      -2.229  49.645 -18.620  1.00  0.00     0.046 C 
HETATM   16  C34 UNL     1      -1.887  48.864 -17.340  1.00  0.00     0.041 C 
HETATM   17  C35 UNL     1      -2.840  47.758 -16.935  1.00  0.00     0.017 C 
HETATM   18  H27 UNL     1      -1.983  50.060 -21.416  1.00  0.00     0.166 HD
ENDROOT
BRANCH  10  19
HETATM   19  C15 UNL     1       1.127  52.671 -17.922  1.00  0.00     0.274 C 
HETATM   20  O2  UNL     1       2.176  52.171 -18.315  1.00  0.00    -0.264 OA
BRANCH  19  21
HETATM   21  O3  UNL     1       0.865  53.012 -16.628  1.00  0.00    -0.326 OA
HETATM   22  C16 UNL     1       1.718  52.390 -15.664  1.00  0.00     0.213 C 
ENDBRANCH  19  21
ENDBRANCH  10  19
BRANCH  15  23
HETATM   23  C30 UNL     1      -3.722  49.870 -18.965  1.00  0.00     0.021 C 
BRANCH  23  24
HETATM   24  C31 UNL     1      -4.379  48.969 -20.015  1.00  0.00     0.112 C 
BRANCH  24  25
HETATM   25  C32 UNL     1      -4.957  49.727 -21.180  1.00  0.00     0.258 C 
HETATM   26  O5  UNL     1      -5.364  49.210 -22.211  1.00  0.00    -0.265 OA
BRANCH  25  27
HETATM   27  O6  UNL     1      -4.926  51.066 -20.931  1.00  0.00    -0.326 OA
HETATM   28  C33 UNL     1      -4.508  51.858 -22.041  1.00  0.00     0.213 C 
ENDBRANCH  25  27
ENDBRANCH  24  25
ENDBRANCH  23  24
ENDBRANCH  15  23
BRANCH   1  29
HETATM   29  C7  UNL     1      -1.666  49.814 -14.917  1.00  0.00     0.055 C 
BRANCH  29  30
HETATM   30  C6  UNL     1      -2.148  50.721 -14.061  1.00  0.00     0.043 A 
HETATM   31  C4  UNL     1      -1.742  50.991 -12.693  1.00  0.00    -0.019 A 
HETATM   32  C3  UNL     1      -2.482  51.992 -12.163  1.00  0.00     0.039 A 
HETATM   33  C5  UNL     1      -0.638  50.216 -12.049  1.00  0.00     0.052 C 
HETATM   34  C36 UNL     1      -3.429  52.411 -13.252  1.00  0.00     0.256 A 
HETATM   35  N4  UNL     1      -3.147  51.602 -14.324  1.00  0.00    -0.322 N 
HETATM   36  O7  UNL     1      -4.266  53.292 -13.213  1.00  0.00    -0.267 OA
HETATM   37  H40 UNL     1      -3.649  51.635 -15.206  1.00  0.00     0.169 HD
BRANCH  32  38
HETATM   38  C2  UNL     1      -2.403  52.556 -10.836  1.00  0.00     0.007 C 
HETATM   39  C1  UNL     1      -3.020  53.664 -10.407  1.00  0.00     0.012 C 
ENDBRANCH  32  38
ENDBRANCH  29  30
ENDBRANCH   1  29
BRANCH  13  40
HETATM   40  C20 UNL     1      -1.302  50.587 -24.056  1.00  0.00     0.115 C 
BRANCH  40  41
HETATM   41  C21 UNL     1      -0.655  51.184 -25.269  1.00  0.00     0.022 A 
HETATM   42  C22 UNL     1      -1.197  51.867 -26.348  1.00  0.00    -0.027 A 
HETATM   43  C25 UNL     1      -0.104  52.230 -27.206  1.00  0.00    -0.024 A 
HETATM   44  C26 UNL     1      -0.194  52.993 -28.488  1.00  0.00     0.051 C 
HETATM   45  C27 UNL     1       1.062  51.747 -26.624  1.00  0.00     0.077 A 
HETATM   46  N2  UNL     1       0.706  51.140 -25.443  1.00  0.00    -0.356 N 
HETATM   47  H26 UNL     1       1.355  50.721 -24.789  1.00  0.00     0.166 HD
BRANCH  42  48
HETATM   48  C23 UNL     1      -2.650  52.178 -26.568  1.00  0.00     0.036 C 
HETATM   49  C24 UNL     1      -3.349  51.106 -27.390  1.00  0.00     0.010 C 
ENDBRANCH  42  48
BRANCH  45  50
HETATM   50  C28 UNL     1       2.429  51.835 -27.091  1.00  0.00     0.288 C 
HETATM   51  O4  UNL     1       3.312  51.009 -26.878  1.00  0.00    -0.300 OA
ENDBRANCH  45  50
ENDBRANCH  40  41
ENDBRANCH  13  40
TORSDOF 13
ENDMDL
MODEL 2
REMARK minimizedAffinity -8.35066414
REMARK CNNscore 0.147103816
REMARK CNNaffinity 6.68027067
REMARK  13 active torsions:
REMARK  status: ('A' for Active; 'I' for Inactive)
REMARK    1  A    between atoms: C2_2  and  C3_3 
REMARK    2  A    between atoms: C6_6  and  C7_7 
REMARK    3  A    between atoms: C7_7  and  C8_8 
REMARK    4  A    between atoms: C14_17  and  C15_18 
REMARK    5  A    between atoms: C15_18  and  O3_20 
REMARK    6  A    between atoms: C19_24  and  C20_25 
REMARK    7  A    between atoms: C20_25  and  C21_26 
REMARK    8  A    between atoms: C22_27  and  C23_28 
REMARK    9  A    between atoms: C27_32  and  C28_33 
REMARK   10  A    between atoms: C29_37  and  C30_38 
REMARK   11  A    between atoms: C30_38  and  C31_39 
REMARK   12  A    between atoms: C31_39  and  C32_40 
REMARK   13  A    between atoms: C32_40  and  O6_42 
ROOT
HETATM    1  C8  UNL     1      -1.972  50.408 -23.305  1.00  0.00     0.016 C 
HETATM    2  N1  UNL     1      -2.072  49.158 -22.961  1.00  0.00    -0.362 N 
ATOM      3  H1  UNL     1      -1.299  48.520 -22.771  1.00  0.00     0.165 HD
HETATM    4  C9  UNL     1      -3.415  48.851 -22.898  1.00  0.00     0.024 C 
HETATM    5  C10 UNL     1      -3.846  47.792 -22.195  1.00  0.00     0.014 A 
HETATM    6  C11 UNL     1      -5.174  47.370 -22.002  1.00  0.00     0.056 A 
HETATM    7  C12 UNL     1      -5.281  46.284 -21.186  1.00  0.00     0.046 A 
HETATM    8  C13 UNL     1      -3.956  45.873 -20.765  1.00  0.00     0.180 A 
HETATM    9  O1  UNL     1      -3.717  44.925 -20.030  1.00  0.00    -0.291 OA
HETATM   10  C14 UNL     1      -2.913  46.823 -21.410  1.00  0.00     0.197 A 
HETATM   11  C17 UNL     1      -6.642  45.968 -21.044  1.00  0.00    -0.023 A 
HETATM   12  C18 UNL     1      -7.219  44.874 -20.225  1.00  0.00     0.051 C 
HETATM   13  C19 UNL     1      -7.326  46.896 -21.840  1.00  0.00     0.022 A 
HETATM   14  N3  UNL     1      -6.397  47.750 -22.421  1.00  0.00    -0.357 N 
HETATM   15  C29 UNL     1      -4.229  49.896 -23.632  1.00  0.00     0.046 C 
HETATM   16  C34 UNL     1      -3.308  51.113 -23.444  1.00  0.00     0.041 C 
HETATM   17  C35 UNL     1      -3.442  52.238 -24.449  1.00  0.00     0.017 C 
HETATM   18  H27 UNL     1      -6.626  48.485 -23.074  1.00  0.00     0.166 HD
ENDROOT
BRANCH  10  19
HETATM   19  C15 UNL     1      -2.121  47.527 -20.338  1.00  0.00     0.274 C 
HETATM   20  O2  UNL     1      -0.905  47.692 -20.349  1.00  0.00    -0.264 OA
BRANCH  19  21
HETATM   21  O3  UNL     1      -2.956  47.969 -19.355  1.00  0.00    -0.326 OA
HETATM   22  C16 UNL     1      -2.335  48.143 -18.080  1.00  0.00     0.213 C 
ENDBRANCH  19  21
ENDBRANCH  10  19
BRANCH  15  23
HETATM   23  C30 UNL     1      -4.608  49.480 -25.075  1.00  0.00     0.021 C 
BRANCH  23  24
HETATM   24  C31 UNL     1      -3.783  48.394 -25.770  1.00  0.00     0.112 C 
BRANCH  24  25
HETATM   25  C32 UNL     1      -3.321  48.779 -27.149  1.00  0.00     0.258 C 
HETATM   26  O5  UNL     1      -3.626  48.185 -28.175  1.00  0.00    -0.265 OA
BRANCH  25  27
HETATM   27  O6  UNL     1      -2.490  49.856 -27.082  1.00  0.00    -0.326 OA
HETATM   28  C33 UNL     1      -2.884  50.951 -27.907  1.00  0.00     0.213 C 
ENDBRANCH  25  27
ENDBRANCH  24  25
ENDBRANCH  23  24
ENDBRANCH  15  23
BRANCH   1  29
HETATM   29  C7  UNL     1      -0.697  51.144 -23.480  1.00  0.00     0.055 C 
BRANCH  29  30
HETATM   30  C6  UNL     1      -0.199  51.965 -22.549  1.00  0.00     0.043 A 
HETATM   31  C4  UNL     1      -0.470  51.998 -21.123  1.00  0.00    -0.019 A 
HETATM   32  C3  UNL     1       0.235  52.986 -20.526  1.00  0.00     0.039 A 
HETATM   33  C5  UNL     1      -1.410  51.022 -20.493  1.00  0.00     0.052 C 
HETATM   34  C36 UNL     1       1.022  53.640 -21.626  1.00  0.00     0.256 A 
HETATM   35  N4  UNL     1       0.694  52.962 -22.773  1.00  0.00    -0.322 N 
HETATM   36  O7  UNL     1       1.804  54.568 -21.534  1.00  0.00    -0.267 OA
HETATM   37  H40 UNL     1       1.054  53.198 -23.693  1.00  0.00     0.169 HD
BRANCH  32  38
HETATM   38  C2  UNL     1       0.246  53.359 -19.130  1.00  0.00     0.007 C 
HETATM   39  C1  UNL     1       0.878  52.715 -18.142  1.00  0.00     0.012 C 
ENDBRANCH  32  38
ENDBRANCH  29  30
ENDBRANCH   1  29
BRANCH  13  40
HETATM   40  C20 UNL     1      -8.795  47.051 -22.099  1.00  0.00     0.115 C 
BRANCH  40  41
HETATM   41  C21 UNL     1      -9.162  46.765 -23.524  1.00  0.00     0.022 A 
HETATM   42  C22 UNL     1      -9.352  45.564 -24.193  1.00  0.00    -0.027 A 
HETATM   43  C25 UNL     1      -9.714  45.890 -25.544  1.00  0.00    -0.024 A 
HETATM   44  C26 UNL     1     -10.032  44.923 -26.638  1.00  0.00     0.051 C 
HETATM   45  C27 UNL     1      -9.722  47.275 -25.652  1.00  0.00     0.077 A 
HETATM   46  N2  UNL     1      -9.408  47.781 -24.413  1.00  0.00    -0.356 N 
HETATM   47  H26 UNL     1      -9.367  48.767 -24.183  1.00  0.00     0.166 HD
BRANCH  42  48
HETATM   48  C23 UNL     1      -9.218  44.187 -23.608  1.00  0.00     0.036 C 
HETATM   49  C24 UNL     1      -7.814  43.626 -23.776  1.00  0.00     0.010 C 
ENDBRANCH  42  48
BRANCH  45  50
HETATM   50  C28 UNL     1     -10.008  48.108 -26.801  1.00  0.00     0.288 C 
HETATM   51  O4  UNL     1      -9.189  48.479 -27.637  1.00  0.00    -0.300 OA
ENDBRANCH  45  50
ENDBRANCH  40  41
ENDBRANCH  13  40
TORSDOF 13
ENDMDL
MODEL 3
REMARK minimizedAffinity -7.40205479
REMARK CNNscore 0.136066332
REMARK CNNaffinity 6.85479975
REMARK  13 active torsions:
REMARK  status: ('A' for Active; 'I' for Inactive)
REMARK    1  A    between atoms: C2_2  and  C3_3 
REMARK    2  A    between atoms: C6_6  and  C7_7 
REMARK    3  A    between atoms: C7_7  and  C8_8 
REMARK    4  A    between atoms: C14_17  and  C15_18 
REMARK    5  A    between atoms: C15_18  and  O3_20 
REMARK    6  A    between atoms: C19_24  and  C20_25 
REMARK    7  A    between atoms: C20_25  and  C21_26 
REMARK    8  A    between atoms: C22_27  and  C23_28 
REMARK    9  A    between atoms: C27_32  and  C28_33 
REMARK   10  A    between atoms: C29_37  and  C30_38 
REMARK   11  A    between atoms: C30_38  and  C31_39 
REMARK   12  A    between atoms: C31_39  and  C32_40 
REMARK   13  A    between atoms: C32_40  and  O6_42 
ROOT
HETATM    1  C8  UNL     1      -3.759  47.733 -18.958  1.00  0.00     0.016 C 
HETATM    2  N1  UNL     1      -3.474  48.996 -18.833  1.00  0.00    -0.362 N 
ATOM      3  H1  UNL     1      -3.684  49.585 -18.026  1.00  0.00     0.165 HD
HETATM    4  C9  UNL     1      -2.838  49.394 -19.989  1.00  0.00     0.024 C 
HETATM    5  C10 UNL     1      -2.076  50.499 -20.007  1.00  0.00     0.014 A 
HETATM    6  C11 UNL     1      -1.336  51.015 -21.087  1.00  0.00     0.056 A 
HETATM    7  C12 UNL     1      -0.617  52.128 -20.765  1.00  0.00     0.046 A 
HETATM    8  C13 UNL     1      -0.854  52.460 -19.373  1.00  0.00     0.180 A 
HETATM    9  O1  UNL     1      -0.354  53.409 -18.785  1.00  0.00    -0.291 OA
HETATM   10  C14 UNL     1      -1.842  51.424 -18.776  1.00  0.00     0.197 A 
HETATM   11  C17 UNL     1       0.097  52.539 -21.901  1.00  0.00    -0.023 A 
HETATM   12  C18 UNL     1       1.026  53.692 -21.997  1.00  0.00     0.051 C 
HETATM   13  C19 UNL     1      -0.259  51.639 -22.914  1.00  0.00     0.022 A 
HETATM   14  N3  UNL     1      -1.146  50.708 -22.385  1.00  0.00    -0.357 N 
HETATM   15  C29 UNL     1      -3.076  48.388 -21.094  1.00  0.00     0.046 C 
HETATM   16  C34 UNL     1      -3.250  47.117 -20.247  1.00  0.00     0.041 C 
HETATM   17  C35 UNL     1      -4.027  45.976 -20.871  1.00  0.00     0.017 C 
HETATM   18  H27 UNL     1      -1.587  49.972 -22.917  1.00  0.00     0.166 HD
ENDROOT
BRANCH  10  19
HETATM   19  C15 UNL     1      -1.197  50.697 -17.624  1.00  0.00     0.274 C 
HETATM   20  O2  UNL     1      -1.795  50.229 -16.660  1.00  0.00    -0.264 OA
BRANCH  19  21
HETATM   21  O3  UNL     1       0.150  50.623 -17.814  1.00  0.00    -0.326 OA
HETATM   22  C16 UNL     1       0.931  50.842 -16.637  1.00  0.00     0.213 C 
ENDBRANCH  19  21
ENDBRANCH  10  19
BRANCH  15  23
HETATM   23  C30 UNL     1      -4.219  48.789 -22.059  1.00  0.00     0.021 C 
BRANCH  23  24
HETATM   24  C31 UNL     1      -5.305  49.744 -21.557  1.00  0.00     0.112 C 
BRANCH  24  25
HETATM   25  C32 UNL     1      -6.020  50.476 -22.660  1.00  0.00     0.258 C 
HETATM   26  O5  UNL     1      -5.475  51.217 -23.468  1.00  0.00    -0.265 OA
BRANCH  25  27
HETATM   27  O6  UNL     1      -7.356  50.221 -22.605  1.00  0.00    -0.326 OA
HETATM   28  C33 UNL     1      -7.809  49.258 -23.554  1.00  0.00     0.213 C 
ENDBRANCH  25  27
ENDBRANCH  24  25
ENDBRANCH  23  24
ENDBRANCH  15  23
BRANCH   1  29
HETATM   29  C7  UNL     1      -4.442  46.908 -17.933  1.00  0.00     0.055 C 
BRANCH  29  30
HETATM   30  C6  UNL     1      -4.007  45.698 -17.567  1.00  0.00     0.043 A 
HETATM   31  C4  UNL     1      -4.707  44.426 -17.602  1.00  0.00    -0.019 A 
HETATM   32  C3  UNL     1      -3.915  43.431 -17.142  1.00  0.00     0.039 A 
HETATM   33  C5  UNL     1      -6.111  44.332 -18.105  1.00  0.00     0.052 C 
HETATM   34  C36 UNL     1      -2.610  44.088 -16.787  1.00  0.00     0.256 A 
HETATM   35  N4  UNL     1      -2.772  45.419 -17.077  1.00  0.00    -0.322 N 
HETATM   36  O7  UNL     1      -1.605  43.561 -16.348  1.00  0.00    -0.267 OA
HETATM   37  H40 UNL     1      -2.059  46.124 -16.916  1.00  0.00     0.169 HD
BRANCH  32  38
HETATM   38  C2  UNL     1      -4.229  42.028 -17.005  1.00  0.00     0.007 C 
HETATM   39  C1  UNL     1      -4.890  41.459 -15.989  1.00  0.00     0.012 C 
ENDBRANCH  32  38
ENDBRANCH  29  30
ENDBRANCH   1  29
BRANCH  13  40
HETATM   40  C20 UNL     1       0.171  51.576 -24.349  1.00  0.00     0.115 C 
BRANCH  40  41
HETATM   41  C21 UNL     1      -0.909  51.062 -25.252  1.00  0.00     0.022 A 
HETATM   42  C22 UNL     1      -1.322  51.481 -26.509  1.00  0.00    -0.027 A 
HETATM   43  C25 UNL     1      -2.388  50.608 -26.913  1.00  0.00    -0.024 A 
HETATM   44  C26 UNL     1      -3.140  50.658 -28.203  1.00  0.00     0.051 C 
HETATM   45  C27 UNL     1      -2.593  49.695 -25.884  1.00  0.00     0.077 A 
HETATM   46  N2  UNL     1      -1.671  49.976 -24.903  1.00  0.00    -0.356 N 
HETATM   47  H26 UNL     1      -1.565  49.453 -24.042  1.00  0.00     0.166 HD
BRANCH  42  48
HETATM   48  C23 UNL     1      -0.751  52.623 -27.300  1.00  0.00     0.036 C 
HETATM   49  C24 UNL     1       0.373  52.176 -28.222  1.00  0.00     0.010 C 
ENDBRANCH  42  48
BRANCH  45  50
HETATM   50  C28 UNL     1      -3.553  48.617 -25.787  1.00  0.00     0.288 C 
HETATM   51  O4  UNL     1      -4.750  48.746 -25.544  1.00  0.00    -0.300 OA
ENDBRANCH  45  50
ENDBRANCH  40  41
ENDBRANCH  13  40
TORSDOF 13
ENDMDL
MODEL 4
REMARK minimizedAffinity -7.43615246
REMARK CNNscore 0.133321851
REMARK CNNaffinity 7.25231791
REMARK  13 active torsions:
REMARK  status: ('A' for Active; 'I' for Inactive)
REMARK    1  A    between atoms: C2_2  and  C3_3 
REMARK    2  A    between atoms: C6_6  and  C7_7 
REMARK    3  A    between atoms: C7_7  and  C8_8 
REMARK    4  A    between atoms: C14_17  and  C15_18 
REMARK    5  A    between atoms: C15_18  and  O3_20 
REMARK    6  A    between atoms: C19_24  and  C20_25 
REMARK    7  A    between atoms: C20_25  and  C21_26 
REMARK    8  A    between atoms: C22_27  and  C23_28 
REMARK    9  A    between atoms: C27_32  and  C28_33 
REMARK   10  A    between atoms: C29_37  and  C30_38 
REMARK   11  A    between atoms: C30_38  and  C31_39 
REMARK   12  A    between atoms: C31_39  and  C32_40 
REMARK   13  A    between atoms: C32_40  and  O6_42 
ROOT
HETATM    1  C8  UNL     1      -1.963  51.727 -22.293  1.00  0.00     0.016 C 
HETATM    2  N1  UNL     1      -0.860  51.874 -21.619  1.00  0.00    -0.362 N 
ATOM      3  H1  UNL     1      -0.069  52.463 -21.879  1.00  0.00     0.165 HD
HETATM    4  C9  UNL     1      -0.956  51.089 -20.490  1.00  0.00     0.024 C 
HETATM    5  C10 UNL     1      -0.182  51.329 -19.420  1.00  0.00     0.014 A 
HETATM    6  C11 UNL     1      -0.184  50.649 -18.188  1.00  0.00     0.056 A 
HETATM    7  C12 UNL     1       0.688  51.174 -17.282  1.00  0.00     0.046 A 
HETATM    8  C13 UNL     1       1.384  52.294 -17.885  1.00  0.00     0.180 A 
HETATM    9  O1  UNL     1       2.236  52.973 -17.327  1.00  0.00    -0.291 OA
HETATM   10  C14 UNL     1       0.876  52.469 -19.341  1.00  0.00     0.197 A 
HETATM   11  C17 UNL     1       0.585  50.441 -16.089  1.00  0.00    -0.023 A 
HETATM   12  C18 UNL     1       1.333  50.681 -14.830  1.00  0.00     0.051 C 
HETATM   13  C19 UNL     1      -0.363  49.442 -16.346  1.00  0.00     0.022 A 
HETATM   14  N3  UNL     1      -0.821  49.592 -17.649  1.00  0.00    -0.357 N 
HETATM   15  C29 UNL     1      -2.059  50.066 -20.652  1.00  0.00     0.046 C 
HETATM   16  C34 UNL     1      -2.983  50.839 -21.608  1.00  0.00     0.041 C 
HETATM   17  C35 UNL     1      -3.932  50.020 -22.458  1.00  0.00     0.017 C 
HETATM   18  H27 UNL     1      -1.481  48.974 -18.098  1.00  0.00     0.166 HD
ENDROOT
BRANCH  10  19
HETATM   19  C15 UNL     1       0.265  53.836 -19.516  1.00  0.00     0.274 C 
HETATM   20  O2  UNL     1      -0.615  54.313 -18.807  1.00  0.00    -0.264 OA
BRANCH  19  21
HETATM   21  O3  UNL     1       0.845  54.475 -20.571  1.00  0.00    -0.326 OA
HETATM   22  C16 UNL     1       1.900  53.745 -21.202  1.00  0.00     0.213 C 
ENDBRANCH  19  21
ENDBRANCH  10  19
BRANCH  15  23
HETATM   23  C30 UNL     1      -1.549  48.672 -21.093  1.00  0.00     0.021 C 
BRANCH  23  24
HETATM   24  C31 UNL     1      -1.894  47.455 -20.231  1.00  0.00     0.112 C 
BRANCH  24  25
HETATM   25  C32 UNL     1      -3.247  47.544 -19.580  1.00  0.00     0.258 C 
HETATM   26  O5  UNL     1      -4.311  47.405 -20.168  1.00  0.00    -0.265 OA
BRANCH  25  27
HETATM   27  O6  UNL     1      -3.114  47.835 -18.256  1.00  0.00    -0.326 OA
HETATM   28  C33 UNL     1      -4.273  48.420 -17.665  1.00  0.00     0.213 C 
ENDBRANCH  25  27
ENDBRANCH  24  25
ENDBRANCH  23  24
ENDBRANCH  15  23
BRANCH   1  29
HETATM   29  C7  UNL     1      -2.276  52.404 -23.575  1.00  0.00     0.055 C 
BRANCH  29  30
HETATM   30  C6  UNL     1      -1.876  51.932 -24.761  1.00  0.00     0.043 A 
HETATM   31  C4  UNL     1      -0.558  51.985 -25.367  1.00  0.00    -0.019 A 
HETATM   32  C3  UNL     1      -0.567  51.393 -26.583  1.00  0.00     0.039 A 
HETATM   33  C5  UNL     1       0.593  52.621 -24.657  1.00  0.00     0.052 C 
HETATM   34  C36 UNL     1      -1.978  50.917 -26.787  1.00  0.00     0.256 A 
HETATM   35  N4  UNL     1      -2.663  51.283 -25.657  1.00  0.00    -0.322 N 
HETATM   36  O7  UNL     1      -2.431  50.316 -27.744  1.00  0.00    -0.267 OA
HETATM   37  H40 UNL     1      -3.654  51.117 -25.517  1.00  0.00     0.169 HD
BRANCH  32  38
HETATM   38  C2  UNL     1       0.528  51.241 -27.512  1.00  0.00     0.007 C 
HETATM   39  C1  UNL     1       0.898  52.117 -28.454  1.00  0.00     0.012 C 
ENDBRANCH  32  38
ENDBRANCH  29  30
ENDBRANCH   1  29
BRANCH  13  40
HETATM   40  C20 UNL     1      -0.881  48.349 -15.460  1.00  0.00     0.115 C 
BRANCH  40  41
HETATM   41  C21 UNL     1      -0.131  48.250 -14.166  1.00  0.00     0.022 A 
HETATM   42  C22 UNL     1       1.067  47.623 -13.853  1.00  0.00    -0.027 A 
HETATM   43  C25 UNL     1       1.320  47.873 -12.462  1.00  0.00    -0.024 A 
HETATM   44  C26 UNL     1       2.503  47.410 -11.675  1.00  0.00     0.051 C 
HETATM   45  C27 UNL     1       0.263  48.632 -11.975  1.00  0.00     0.077 A 
HETATM   46  N2  UNL     1      -0.588  48.866 -13.029  1.00  0.00    -0.356 N 
HETATM   47  H26 UNL     1      -1.435  49.421 -12.978  1.00  0.00     0.166 HD
BRANCH  42  48
HETATM   48  C23 UNL     1       1.939  46.845 -14.797  1.00  0.00     0.036 C 
HETATM   49  C24 UNL     1       1.743  45.343 -14.655  1.00  0.00     0.010 C 
ENDBRANCH  42  48
BRANCH  45  50
HETATM   50  C28 UNL     1       0.030  49.136 -10.639  1.00  0.00     0.288 C 
HETATM   51  O4  UNL     1       0.592  50.102 -10.131  1.00  0.00    -0.300 OA
ENDBRANCH  45  50
ENDBRANCH  40  41
ENDBRANCH  13  40
TORSDOF 13
ENDMDL
MODEL 5
REMARK minimizedAffinity -7.27975416
REMARK CNNscore 0.110393815
REMARK CNNaffinity 7.26662302
REMARK  13 active torsions:
REMARK  status: ('A' for Active; 'I' for Inactive)
REMARK    1  A    between atoms: C2_2  and  C3_3 
REMARK    2  A    between atoms: C6_6  and  C7_7 
REMARK    3  A    between atoms: C7_7  and  C8_8 
REMARK    4  A    between atoms: C14_17  and  C15_18 
REMARK    5  A    between atoms: C15_18  and  O3_20 
REMARK    6  A    between atoms: C19_24  and  C20_25 
REMARK    7  A    between atoms: C20_25  and  C21_26 
REMARK    8  A    between atoms: C22_27  and  C23_28 
REMARK    9  A    between atoms: C27_32  and  C28_33 
REMARK   10  A    between atoms: C29_37  and  C30_38 
REMARK   11  A    between atoms: C30_38  and  C31_39 
REMARK   12  A    between atoms: C31_39  and  C32_40 
REMARK   13  A    between atoms: C32_40  and  O6_42 
ROOT
HETATM    1  C8  UNL     1      -0.985  49.637 -14.341  1.00  0.00     0.016 C 
HETATM    2  N1  UNL     1      -0.762  50.698 -15.059  1.00  0.00    -0.362 N 
ATOM      3  H1  UNL     1      -0.492  51.617 -14.709  1.00  0.00     0.165 HD
HETATM    4  C9  UNL     1      -0.956  50.353 -16.379  1.00  0.00     0.024 C 
HETATM    5  C10 UNL     1      -0.423  51.090 -17.367  1.00  0.00     0.014 A 
HETATM    6  C11 UNL     1      -0.496  50.853 -18.752  1.00  0.00     0.056 A 
HETATM    7  C12 UNL     1       0.202  51.760 -19.491  1.00  0.00     0.046 A 
HETATM    8  C13 UNL     1       0.811  52.730 -18.601  1.00  0.00     0.180 A 
HETATM    9  O1  UNL     1       1.501  53.675 -18.961  1.00  0.00    -0.291 OA
HETATM   10  C14 UNL     1       0.433  52.371 -17.140  1.00  0.00     0.197 A 
HETATM   11  C17 UNL     1       0.082  51.416 -20.847  1.00  0.00    -0.023 A 
HETATM   12  C18 UNL     1       0.701  52.115 -22.000  1.00  0.00     0.051 C 
HETATM   13  C19 UNL     1      -0.745  50.285 -20.873  1.00  0.00     0.022 A 
HETATM   14  N3  UNL     1      -1.089  49.959 -19.566  1.00  0.00    -0.357 N 
HETATM   15  C29 UNL     1      -1.736  49.059 -16.477  1.00  0.00     0.046 C 
HETATM   16  C34 UNL     1      -1.297  48.399 -15.160  1.00  0.00     0.041 C 
HETATM   17  C35 UNL     1      -2.219  47.347 -14.578  1.00  0.00     0.017 C 
HETATM   18  H27 UNL     1      -1.712  49.207 -19.310  1.00  0.00     0.166 HD
ENDROOT
BRANCH  10  19
HETATM   19  C15 UNL     1       1.677  52.098 -16.335  1.00  0.00     0.274 C 
HETATM   20  O2  UNL     1       1.704  51.867 -15.130  1.00  0.00    -0.264 OA
BRANCH  19  21
HETATM   21  O3  UNL     1       2.774  52.131 -17.144  1.00  0.00    -0.326 OA
HETATM   22  C16 UNL     1       3.997  52.452 -16.477  1.00  0.00     0.213 C 
ENDBRANCH  19  21
ENDBRANCH  10  19
BRANCH  15  23
HETATM   23  C30 UNL     1      -3.251  49.268 -16.723  1.00  0.00     0.021 C 
BRANCH  23  24
HETATM   24  C31 UNL     1      -3.806  49.043 -18.131  1.00  0.00     0.112 C 
BRANCH  24  25
HETATM   25  C32 UNL     1      -4.714  47.847 -18.235  1.00  0.00     0.258 C 
HETATM   26  O5  UNL     1      -5.607  47.582 -17.441  1.00  0.00    -0.265 OA
BRANCH  25  27
HETATM   27  O6  UNL     1      -4.372  47.090 -19.315  1.00  0.00    -0.326 OA
HETATM   28  C33 UNL     1      -2.973  46.841 -19.437  1.00  0.00     0.213 C 
ENDBRANCH  25  27
ENDBRANCH  24  25
ENDBRANCH  23  24
ENDBRANCH  15  23
BRANCH   1  29
HETATM   29  C7  UNL     1      -0.879  49.569 -12.863  1.00  0.00     0.055 C 
BRANCH  29  30
HETATM   30  C6  UNL     1      -1.760  50.155 -12.045  1.00  0.00     0.043 A 
HETATM   31  C4  UNL     1      -1.764  51.513 -11.529  1.00  0.00    -0.019 A 
HETATM   32  C3  UNL     1      -2.833  51.716 -10.726  1.00  0.00     0.039 A 
HETATM   33  C5  UNL     1      -0.691  52.483 -11.903  1.00  0.00     0.052 C 
HETATM   34  C36 UNL     1      -3.582  50.413 -10.717  1.00  0.00     0.256 A 
HETATM   35  N4  UNL     1      -2.866  49.566 -11.525  1.00  0.00    -0.322 N 
HETATM   36  O7  UNL     1      -4.617  50.152 -10.133  1.00  0.00    -0.267 OA
HETATM   37  H40 UNL     1      -3.118  48.596 -11.692  1.00  0.00     0.169 HD
BRANCH  32  38
HETATM   38  C2  UNL     1      -3.200  52.917 -10.012  1.00  0.00     0.007 C 
HETATM   39  C1  UNL     1      -3.949  53.922 -10.483  1.00  0.00     0.012 C 
ENDBRANCH  32  38
ENDBRANCH  29  30
ENDBRANCH   1  29
BRANCH  13  40
HETATM   40  C20 UNL     1      -1.242  49.476 -22.034  1.00  0.00     0.115 C 
BRANCH  40  41
HETATM   41  C21 UNL     1      -2.179  50.245 -22.914  1.00  0.00     0.022 A 
HETATM   42  C22 UNL     1      -3.438  50.773 -22.664  1.00  0.00    -0.027 A 
HETATM   43  C25 UNL     1      -3.863  51.431 -23.867  1.00  0.00    -0.024 A 
HETATM   44  C26 UNL     1      -5.150  52.162 -24.075  1.00  0.00     0.051 C 
HETATM   45  C27 UNL     1      -2.854  51.273 -24.809  1.00  0.00     0.077 A 
HETATM   46  N2  UNL     1      -1.838  50.573 -24.202  1.00  0.00    -0.356 N 
HETATM   47  H26 UNL     1      -0.956  50.335 -24.640  1.00  0.00     0.166 HD
BRANCH  42  48
HETATM   48  C23 UNL     1      -4.202  50.683 -21.374  1.00  0.00     0.036 C 
HETATM   49  C24 UNL     1      -5.367  49.709 -21.463  1.00  0.00     0.010 C 
ENDBRANCH  42  48
BRANCH  45  50
HETATM   50  C28 UNL     1      -2.792  51.734 -26.180  1.00  0.00     0.288 C 
HETATM   51  O4  UNL     1      -2.759  52.908 -26.538  1.00  0.00    -0.300 OA
ENDBRANCH  45  50
ENDBRANCH  40  41
ENDBRANCH  13  40
TORSDOF 13
ENDMDL
MODEL 6
REMARK minimizedAffinity -9.39752197
REMARK CNNscore 0.104858637
REMARK CNNaffinity 6.65825272
REMARK  13 active torsions:
REMARK  status: ('A' for Active; 'I' for Inactive)
REMARK    1  A    between atoms: C2_2  and  C3_3 
REMARK    2  A    between atoms: C6_6  and  C7_7 
REMARK    3  A    between atoms: C7_7  and  C8_8 
REMARK    4  A    between atoms: C14_17  and  C15_18 
REMARK    5  A    between atoms: C15_18  and  O3_20 
REMARK    6  A    between atoms: C19_24  and  C20_25 
REMARK    7  A    between atoms: C20_25  and  C21_26 
REMARK    8  A    between atoms: C22_27  and  C23_28 
REMARK    9  A    between atoms: C27_32  and  C28_33 
REMARK   10  A    between atoms: C29_37  and  C30_38 
REMARK   11  A    between atoms: C30_38  and  C31_39 
REMARK   12  A    between atoms: C31_39  and  C32_40 
REMARK   13  A    between atoms: C32_40  and  O6_42 
ROOT
HETATM    1  C8  UNL     1      -4.411  49.313 -23.184  1.00  0.00     0.016 C 
HETATM    2  N1  UNL     1      -3.219  49.620 -23.606  1.00  0.00    -0.362 N 
ATOM      3  H1  UNL     1      -2.834  49.413 -24.527  1.00  0.00     0.165 HD
HETATM    4  C9  UNL     1      -2.573  50.276 -22.580  1.00  0.00     0.024 C 
HETATM    5  C10 UNL     1      -1.511  51.059 -22.827  1.00  0.00     0.014 A 
HETATM    6  C11 UNL     1      -0.770  51.819 -21.903  1.00  0.00     0.056 A 
HETATM    7  C12 UNL     1       0.219  52.555 -22.483  1.00  0.00     0.046 A 
HETATM    8  C13 UNL     1       0.218  52.311 -23.912  1.00  0.00     0.180 A 
HETATM    9  O1  UNL     1       0.992  52.822 -24.711  1.00  0.00    -0.291 OA
HETATM   10  C14 UNL     1      -0.908  51.297 -24.243  1.00  0.00     0.197 A 
HETATM   11  C17 UNL     1       0.872  53.289 -21.480  1.00  0.00    -0.023 A 
HETATM   12  C18 UNL     1       1.996  54.241 -21.664  1.00  0.00     0.051 C 
HETATM   13  C19 UNL     1       0.244  52.927 -20.282  1.00  0.00     0.022 A 
HETATM   14  N3  UNL     1      -0.767  52.017 -20.571  1.00  0.00    -0.357 N 
HETATM   15  C29 UNL     1      -3.285  50.030 -21.266  1.00  0.00     0.046 C 
HETATM   16  C34 UNL     1      -4.716  49.823 -21.789  1.00  0.00     0.041 C 
HETATM   17  C35 UNL     1      -5.661  49.031 -20.909  1.00  0.00     0.017 C 
HETATM   18  H27 UNL     1      -1.347  51.567 -19.878  1.00  0.00     0.166 HD
ENDROOT
BRANCH  10  19
HETATM   19  C15 UNL     1      -1.899  51.916 -25.195  1.00  0.00     0.274 C 
HETATM   20  O2  UNL     1      -2.717  52.782 -24.900  1.00  0.00    -0.264 OA
BRANCH  19  21
HETATM   21  O3  UNL     1      -1.747  51.382 -26.440  1.00  0.00    -0.326 OA
HETATM   22  C16 UNL     1      -2.629  51.918 -27.429  1.00  0.00     0.213 C 
ENDBRANCH  19  21
ENDBRANCH  10  19
BRANCH  15  23
HETATM   23  C30 UNL     1      -2.644  48.905 -20.417  1.00  0.00     0.021 C 
BRANCH  23  24
HETATM   24  C31 UNL     1      -2.479  47.516 -21.040  1.00  0.00     0.112 C 
BRANCH  24  25
HETATM   25  C32 UNL     1      -3.103  46.414 -20.227  1.00  0.00     0.258 C 
HETATM   26  O5  UNL     1      -3.136  46.388 -19.004  1.00  0.00    -0.265 OA
BRANCH  25  27
HETATM   27  O6  UNL     1      -3.587  45.440 -21.047  1.00  0.00    -0.326 OA
HETATM   28  C33 UNL     1      -5.010  45.349 -21.071  1.00  0.00     0.213 C 
ENDBRANCH  25  27
ENDBRANCH  24  25
ENDBRANCH  23  24
ENDBRANCH  15  23
BRANCH   1  29
HETATM   29  C7  UNL     1      -5.441  48.603 -23.981  1.00  0.00     0.055 C 
BRANCH  29  30
HETATM   30  C6  UNL     1      -5.336  48.419 -25.302  1.00  0.00     0.043 A 
HETATM   31  C4  UNL     1      -6.255  47.750 -26.206  1.00  0.00    -0.019 A 
HETATM   32  C3  UNL     1      -5.782  47.775 -27.473  1.00  0.00     0.039 A 
HETATM   33  C5  UNL     1      -7.532  47.155 -25.707  1.00  0.00     0.052 C 
HETATM   34  C36 UNL     1      -4.474  48.511 -27.399  1.00  0.00     0.256 A 
HETATM   35  N4  UNL     1      -4.309  48.846 -26.079  1.00  0.00    -0.322 N 
HETATM   36  O7  UNL     1      -3.715  48.776 -28.312  1.00  0.00    -0.267 OA
HETATM   37  H40 UNL     1      -3.494  49.331 -25.716  1.00  0.00     0.169 HD
BRANCH  32  38
HETATM   38  C2  UNL     1      -6.383  47.218 -28.663  1.00  0.00     0.007 C 
HETATM   39  C1  UNL     1      -6.986  47.904 -29.642  1.00  0.00     0.012 C 
ENDBRANCH  32  38
ENDBRANCH  29  30
ENDBRANCH   1  29
BRANCH  13  40
HETATM   40  C20 UNL     1       0.513  53.370 -18.875  1.00  0.00     0.115 C 
BRANCH  40  41
HETATM   41  C21 UNL     1       0.555  52.226 -17.908  1.00  0.00     0.022 A 
HETATM   42  C22 UNL     1       1.360  51.996 -16.801  1.00  0.00    -0.027 A 
HETATM   43  C25 UNL     1       0.945  50.745 -16.232  1.00  0.00    -0.024 A 
HETATM   44  C26 UNL     1       1.512  50.089 -15.016  1.00  0.00     0.051 C 
HETATM   45  C27 UNL     1      -0.090  50.252 -17.018  1.00  0.00     0.077 A 
HETATM   46  N2  UNL     1      -0.323  51.176 -18.010  1.00  0.00    -0.356 N 
HETATM   47  H26 UNL     1      -1.044  51.097 -18.717  1.00  0.00     0.166 HD
BRANCH  42  48
HETATM   48  C23 UNL     1       2.449  52.896 -16.290  1.00  0.00     0.036 C 
HETATM   49  C24 UNL     1       3.815  52.229 -16.338  1.00  0.00     0.010 C 
ENDBRANCH  42  48
BRANCH  45  50
HETATM   50  C28 UNL     1      -0.844  49.024 -16.883  1.00  0.00     0.288 C 
HETATM   51  O4  UNL     1      -2.066  48.923 -16.960  1.00  0.00    -0.300 OA
ENDBRANCH  45  50
ENDBRANCH  40  41
ENDBRANCH  13  40
TORSDOF 13
ENDMDL
MODEL 7
REMARK minimizedAffinity -7.77504969
REMARK CNNscore 0.0994211882
REMARK CNNaffinity 6.96757746
REMARK  13 active torsions:
REMARK  status: ('A' for Active; 'I' for Inactive)
REMARK    1  A    between atoms: C2_2  and  C3_3 
REMARK    2  A    between atoms: C6_6  and  C7_7 
REMARK    3  A    between atoms: C7_7  and  C8_8 
REMARK    4  A    between atoms: C14_17  and  C15_18 
REMARK    5  A    between atoms: C15_18  and  O3_20 
REMARK    6  A    between atoms: C19_24  and  C20_25 
REMARK    7  A    between atoms: C20_25  and  C21_26 
REMARK    8  A    between atoms: C22_27  and  C23_28 
REMARK    9  A    between atoms: C27_32  and  C28_33 
REMARK   10  A    between atoms: C29_37  and  C30_38 
REMARK   11  A    between atoms: C30_38  and  C31_39 
REMARK   12  A    between atoms: C31_39  and  C32_40 
REMARK   13  A    between atoms: C32_40  and  O6_42 
ROOT
HETATM    1  C8  UNL     1      -2.434  51.858 -21.897  1.00  0.00     0.016 C 
HETATM    2  N1  UNL     1      -1.286  51.804 -21.289  1.00  0.00    -0.362 N 
ATOM      3  H1  UNL     1      -0.385  52.085 -21.676  1.00  0.00     0.165 HD
HETATM    4  C9  UNL     1      -1.509  51.298 -20.026  1.00  0.00     0.024 C 
HETATM    5  C10 UNL     1      -0.620  51.496 -19.040  1.00  0.00     0.014 A 
HETATM    6  C11 UNL     1      -0.717  51.082 -17.699  1.00  0.00     0.056 A 
HETATM    7  C12 UNL     1       0.332  51.491 -16.932  1.00  0.00     0.046 A 
HETATM    8  C13 UNL     1       1.263  52.236 -17.757  1.00  0.00     0.180 A 
HETATM    9  O1  UNL     1       2.308  52.733 -17.361  1.00  0.00    -0.291 OA
HETATM   10  C14 UNL     1       0.714  52.281 -19.208  1.00  0.00     0.197 A 
HETATM   11  C17 UNL     1       0.120  51.047 -15.617  1.00  0.00    -0.023 A 
HETATM   12  C18 UNL     1       0.999  51.287 -14.445  1.00  0.00     0.051 C 
HETATM   13  C19 UNL     1      -1.083  50.331 -15.653  1.00  0.00     0.022 A 
HETATM   14  N3  UNL     1      -1.579  50.366 -16.951  1.00  0.00    -0.357 N 
HETATM   15  C29 UNL     1      -2.861  50.621 -19.962  1.00  0.00     0.046 C 
HETATM   16  C34 UNL     1      -3.605  51.438 -21.030  1.00  0.00     0.041 C 
HETATM   17  C35 UNL     1      -4.805  50.784 -21.684  1.00  0.00     0.017 C 
HETATM   18  H27 UNL     1      -2.416  49.891 -17.257  1.00  0.00     0.166 HD
ENDROOT
BRANCH  10  19
HETATM   19  C15 UNL     1       0.493  53.710 -19.634  1.00  0.00     0.274 C 
HETATM   20  O2  UNL     1      -0.504  54.378 -19.379  1.00  0.00    -0.264 OA
BRANCH  19  21
HETATM   21  O3  UNL     1       1.573  54.161 -20.334  1.00  0.00    -0.326 OA
HETATM   22  C16 UNL     1       1.383  54.214 -21.750  1.00  0.00     0.213 C 
ENDBRANCH  19  21
ENDBRANCH  10  19
BRANCH  15  23
HETATM   23  C30 UNL     1      -2.791  49.083 -20.132  1.00  0.00     0.021 C 
BRANCH  23  24
HETATM   24  C31 UNL     1      -3.679  48.203 -19.249  1.00  0.00     0.112 C 
BRANCH  24  25
HETATM   25  C32 UNL     1      -4.730  47.448 -20.016  1.00  0.00     0.258 C 
HETATM   26  O5  UNL     1      -4.510  46.762 -21.005  1.00  0.00    -0.265 OA
BRANCH  25  27
HETATM   27  O6  UNL     1      -5.959  47.670 -19.471  1.00  0.00    -0.326 OA
HETATM   28  C33 UNL     1      -5.935  48.413 -18.254  1.00  0.00     0.213 C 
ENDBRANCH  25  27
ENDBRANCH  24  25
ENDBRANCH  23  24
ENDBRANCH  15  23
BRANCH   1  29
HETATM   29  C7  UNL     1      -2.644  52.352 -23.280  1.00  0.00     0.055 C 
BRANCH  29  30
HETATM   30  C6  UNL     1      -1.649  52.478 -24.164  1.00  0.00     0.043 A 
HETATM   31  C4  UNL     1      -0.989  51.450 -24.950  1.00  0.00    -0.019 A 
HETATM   32  C3  UNL     1      -0.024  51.989 -25.729  1.00  0.00     0.039 A 
HETATM   33  C5  UNL     1      -1.401  50.017 -24.847  1.00  0.00     0.052 C 
HETATM   34  C36 UNL     1      -0.054  53.464 -25.442  1.00  0.00     0.256 A 
HETATM   35  N4  UNL     1      -1.045  53.643 -24.511  1.00  0.00    -0.322 N 
HETATM   36  O7  UNL     1       0.639  54.334 -25.936  1.00  0.00    -0.267 OA
HETATM   37  H40 UNL     1      -1.282  54.542 -24.102  1.00  0.00     0.169 HD
BRANCH  32  38
HETATM   38  C2  UNL     1       0.864  51.315 -26.647  1.00  0.00     0.007 C 
HETATM   39  C1  UNL     1       2.201  51.289 -26.582  1.00  0.00     0.012 C 
ENDBRANCH  32  38
ENDBRANCH  29  30
ENDBRANCH   1  29
BRANCH  13  40
HETATM   40  C20 UNL     1      -1.815  49.611 -14.560  1.00  0.00     0.115 C 
BRANCH  40  41
HETATM   41  C21 UNL     1      -1.416  50.080 -13.193  1.00  0.00     0.022 A 
HETATM   42  C22 UNL     1      -1.736  51.237 -12.497  1.00  0.00    -0.027 A 
HETATM   43  C25 UNL     1      -1.090  51.148 -11.217  1.00  0.00    -0.024 A 
HETATM   44  C26 UNL     1      -1.156  52.155 -10.115  1.00  0.00     0.051 C 
HETATM   45  C27 UNL     1      -0.392  49.946 -11.184  1.00  0.00     0.077 A 
HETATM   46  N2  UNL     1      -0.624  49.309 -12.380  1.00  0.00    -0.356 N 
HETATM   47  H26 UNL     1      -0.265  48.395 -12.628  1.00  0.00     0.166 HD
BRANCH  42  48
HETATM   48  C23 UNL     1      -2.605  52.360 -12.986  1.00  0.00     0.036 C 
HETATM   49  C24 UNL     1      -3.849  52.538 -12.129  1.00  0.00     0.010 C 
ENDBRANCH  42  48
BRANCH  45  50
HETATM   50  C28 UNL     1       0.430  49.387 -10.132  1.00  0.00     0.288 C 
HETATM   51  O4  UNL     1       0.166  48.384  -9.475  1.00  0.00    -0.300 OA
ENDBRANCH  45  50
ENDBRANCH  40  41
ENDBRANCH  13  40
TORSDOF 13
ENDMDL
MODEL 8
REMARK minimizedAffinity -7.77271032
REMARK CNNscore 0.0971600115
REMARK CNNaffinity 6.13691473
REMARK  13 active torsions:
REMARK  status: ('A' for Active; 'I' for Inactive)
REMARK    1  A    between atoms: C2_2  and  C3_3 
REMARK    2  A    between atoms: C6_6  and  C7_7 
REMARK    3  A    between atoms: C7_7  and  C8_8 
REMARK    4  A    between atoms: C14_17  and  C15_18 
REMARK    5  A    between atoms: C15_18  and  O3_20 
REMARK    6  A    between atoms: C19_24  and  C20_25 
REMARK    7  A    between atoms: C20_25  and  C21_26 
REMARK    8  A    between atoms: C22_27  and  C23_28 
REMARK    9  A    between atoms: C27_32  and  C28_33 
REMARK   10  A    between atoms: C29_37  and  C30_38 
REMARK   11  A    between atoms: C30_38  and  C31_39 
REMARK   12  A    between atoms: C31_39  and  C32_40 
REMARK   13  A    between atoms: C32_40  and  O6_42 
ROOT
HETATM    1  C8  UNL     1      -8.263  47.222 -27.953  1.00  0.00     0.016 C 
HETATM    2  N1  UNL     1      -7.939  47.748 -29.097  1.00  0.00    -0.362 N 
ATOM      3  H1  UNL     1      -7.183  48.412 -29.264  1.00  0.00     0.165 HD
HETATM    4  C9  UNL     1      -8.805  47.245 -30.045  1.00  0.00     0.024 C 
HETATM    5  C10 UNL     1      -8.487  47.273 -31.349  1.00  0.00     0.014 A 
HETATM    6  C11 UNL     1      -9.238  46.770 -32.428  1.00  0.00     0.056 A 
HETATM    7  C12 UNL     1      -8.610  46.904 -33.630  1.00  0.00     0.046 A 
HETATM    8  C13 UNL     1      -7.331  47.557 -33.427  1.00  0.00     0.180 A 
HETATM    9  O1  UNL     1      -6.532  47.824 -34.315  1.00  0.00    -0.291 OA
HETATM   10  C14 UNL     1      -7.162  47.863 -31.916  1.00  0.00     0.197 A 
HETATM   11  C17 UNL     1      -9.432  46.351 -34.625  1.00  0.00    -0.023 A 
HETATM   12  C18 UNL     1      -9.132  46.259 -36.075  1.00  0.00     0.051 C 
HETATM   13  C19 UNL     1     -10.584  45.915 -33.958  1.00  0.00     0.022 A 
HETATM   14  N3  UNL     1     -10.440  46.187 -32.602  1.00  0.00    -0.357 N 
HETATM   15  C29 UNL     1     -10.020  46.636 -29.378  1.00  0.00     0.046 C 
HETATM   16  C34 UNL     1      -9.389  46.209 -28.043  1.00  0.00     0.041 C 
HETATM   17  C35 UNL     1     -10.324  46.046 -26.862  1.00  0.00     0.017 C 
HETATM   18  H27 UNL     1     -11.147  46.009 -31.905  1.00  0.00     0.166 HD
ENDROOT
BRANCH  10  19
HETATM   19  C15 UNL     1      -5.942  47.160 -31.378  1.00  0.00     0.274 C 
HETATM   20  O2  UNL     1      -5.064  47.685 -30.701  1.00  0.00    -0.264 OA
BRANCH  19  21
HETATM   21  O3  UNL     1      -5.962  45.846 -31.743  1.00  0.00    -0.326 OA
HETATM   22  C16 UNL     1      -4.689  45.313 -32.117  1.00  0.00     0.213 C 
ENDBRANCH  19  21
ENDBRANCH  10  19
BRANCH  15  23
HETATM   23  C30 UNL     1     -11.244  47.584 -29.341  1.00  0.00     0.021 C 
BRANCH  23  24
HETATM   24  C31 UNL     1     -12.648  46.976 -29.392  1.00  0.00     0.112 C 
BRANCH  24  25
HETATM   25  C32 UNL     1     -12.650  45.481 -29.559  1.00  0.00     0.258 C 
HETATM   26  O5  UNL     1     -12.081  44.882 -30.462  1.00  0.00    -0.265 OA
BRANCH  25  27
HETATM   27  O6  UNL     1     -13.403  44.900 -28.584  1.00  0.00    -0.326 OA
HETATM   28  C33 UNL     1     -14.763  45.328 -28.561  1.00  0.00     0.213 C 
ENDBRANCH  25  27
ENDBRANCH  24  25
ENDBRANCH  23  24
ENDBRANCH  15  23
BRANCH   1  29
HETATM   29  C7  UNL     1      -7.577  47.491 -26.666  1.00  0.00     0.055 C 
BRANCH  29  30
HETATM   30  C6  UNL     1      -6.298  47.876 -26.593  1.00  0.00     0.043 A 
HETATM   31  C4  UNL     1      -5.509  48.202 -25.418  1.00  0.00    -0.019 A 
HETATM   32  C3  UNL     1      -4.250  48.551 -25.770  1.00  0.00     0.039 A 
HETATM   33  C5  UNL     1      -6.098  48.124 -24.047  1.00  0.00     0.052 C 
HETATM   34  C36 UNL     1      -4.207  48.441 -27.268  1.00  0.00     0.256 A 
HETATM   35  N4  UNL     1      -5.461  48.036 -27.649  1.00  0.00    -0.322 N 
HETATM   36  O7  UNL     1      -3.260  48.650 -28.004  1.00  0.00    -0.267 OA
HETATM   37  H40 UNL     1      -5.743  47.901 -28.615  1.00  0.00     0.169 HD
BRANCH  32  38
HETATM   38  C2  UNL     1      -3.160  48.951 -24.911  1.00  0.00     0.007 C 
HETATM   39  C1  UNL     1      -2.899  48.476 -23.687  1.00  0.00     0.012 C 
ENDBRANCH  32  38
ENDBRANCH  29  30
ENDBRANCH   1  29
BRANCH  13  40
HETATM   40  C20 UNL     1     -11.820  45.256 -34.492  1.00  0.00     0.115 C 
BRANCH  40  41
HETATM   41  C21 UNL     1     -11.854  45.220 -35.990  1.00  0.00     0.022 A 
HETATM   42  C22 UNL     1     -12.245  46.177 -36.916  1.00  0.00    -0.027 A 
HETATM   43  C25 UNL     1     -12.046  45.606 -38.218  1.00  0.00    -0.024 A 
HETATM   44  C26 UNL     1     -12.312  46.269 -39.530  1.00  0.00     0.051 C 
HETATM   45  C27 UNL     1     -11.551  44.320 -38.039  1.00  0.00     0.077 A 
HETATM   46  N2  UNL     1     -11.422  44.119 -36.685  1.00  0.00    -0.356 N 
HETATM   47  H26 UNL     1     -11.056  43.277 -36.257  1.00  0.00     0.166 HD
BRANCH  42  48
HETATM   48  C23 UNL     1     -12.763  47.554 -36.610  1.00  0.00     0.036 C 
HETATM   49  C24 UNL     1     -14.283  47.612 -36.629  1.00  0.00     0.010 C 
ENDBRANCH  42  48
BRANCH  45  50
HETATM   50  C28 UNL     1     -11.198  43.323 -39.027  1.00  0.00     0.288 C 
HETATM   51  O4  UNL     1     -10.125  43.252 -39.620  1.00  0.00    -0.300 OA
ENDBRANCH  45  50
ENDBRANCH  40  41
ENDBRANCH  13  40
TORSDOF 13
ENDMDL
MODEL 9
REMARK minimizedAffinity -7.51299858
REMARK CNNscore 0.0901040509
REMARK CNNaffinity 6.07114935
REMARK  13 active torsions:
REMARK  status: ('A' for Active; 'I' for Inactive)
REMARK    1  A    between atoms: C2_2  and  C3_3 
REMARK    2  A    between atoms: C6_6  and  C7_7 
REMARK    3  A    between atoms: C7_7  and  C8_8 
REMARK    4  A    between atoms: C14_17  and  C15_18 
REMARK    5  A    between atoms: C15_18  and  O3_20 
REMARK    6  A    between atoms: C19_24  and  C20_25 
REMARK    7  A    between atoms: C20_25  and  C21_26 
REMARK    8  A    between atoms: C22_27  and  C23_28 
REMARK    9  A    between atoms: C27_32  and  C28_33 
REMARK   10  A    between atoms: C29_37  and  C30_38 
REMARK   11  A    between atoms: C30_38  and  C31_39 
REMARK   12  A    between atoms: C31_39  and  C32_40 
REMARK   13  A    between atoms: C32_40  and  O6_42 
ROOT
HETATM    1  C8  UNL     1      -1.488  51.391 -21.219  1.00  0.00     0.016 C 
HETATM    2  N1  UNL     1      -2.264  50.972 -20.263  1.00  0.00    -0.362 N 
ATOM      3  H1  UNL     1      -3.284  50.957 -20.277  1.00  0.00     0.165 HD
HETATM    4  C9  UNL     1      -1.456  50.549 -19.229  1.00  0.00     0.024 C 
HETATM    5  C10 UNL     1      -1.922  49.708 -18.293  1.00  0.00     0.014 A 
HETATM    6  C11 UNL     1      -1.221  49.159 -17.204  1.00  0.00     0.056 A 
HETATM    7  C12 UNL     1      -1.967  48.290 -16.465  1.00  0.00     0.046 A 
HETATM    8  C13 UNL     1      -3.299  48.207 -17.032  1.00  0.00     0.180 A 
HETATM    9  O1  UNL     1      -4.205  47.513 -16.592  1.00  0.00    -0.291 OA
HETATM   10  C14 UNL     1      -3.374  49.145 -18.266  1.00  0.00     0.197 A 
HETATM   11  C17 UNL     1      -1.165  47.786 -15.428  1.00  0.00    -0.023 A 
HETATM   12  C18 UNL     1      -1.564  46.794 -14.400  1.00  0.00     0.051 C 
HETATM   13  C19 UNL     1       0.074  48.423 -15.572  1.00  0.00     0.022 A 
HETATM   14  N3  UNL     1       0.013  49.266 -16.675  1.00  0.00    -0.357 N 
HETATM   15  C29 UNL     1      -0.055  51.099 -19.397  1.00  0.00     0.046 C 
HETATM   16  C34 UNL     1      -0.010  51.214 -20.929  1.00  0.00     0.041 C 
HETATM   17  C35 UNL     1       0.976  52.204 -21.515  1.00  0.00     0.017 C 
HETATM   18  H27 UNL     1       0.763  49.873 -16.973  1.00  0.00     0.166 HD
ENDROOT
BRANCH  10  19
HETATM   19  C15 UNL     1      -3.707  48.349 -19.502  1.00  0.00     0.274 C 
HETATM   20  O2  UNL     1      -4.636  48.586 -20.267  1.00  0.00    -0.264 OA
BRANCH  19  21
HETATM   21  O3  UNL     1      -2.813  47.331 -19.657  1.00  0.00    -0.326 OA
HETATM   22  C16 UNL     1      -2.243  47.233 -20.964  1.00  0.00     0.213 C 
ENDBRANCH  19  21
ENDBRANCH  10  19
BRANCH  15  23
HETATM   23  C30 UNL     1       0.213  52.373 -18.557  1.00  0.00     0.021 C 
BRANCH  23  24
HETATM   24  C31 UNL     1       1.555  52.509 -17.834  1.00  0.00     0.112 C 
BRANCH  24  25
HETATM   25  C32 UNL     1       1.483  52.184 -16.367  1.00  0.00     0.258 C 
HETATM   26  O5  UNL     1       0.464  52.245 -15.692  1.00  0.00    -0.265 OA
BRANCH  25  27
HETATM   27  O6  UNL     1       2.718  51.852 -15.898  1.00  0.00    -0.326 OA
HETATM   28  C33 UNL     1       3.735  52.806 -16.198  1.00  0.00     0.213 C 
ENDBRANCH  25  27
ENDBRANCH  24  25
ENDBRANCH  23  24
ENDBRANCH  15  23
BRANCH   1  29
HETATM   29  C7  UNL     1      -1.953  51.925 -22.522  1.00  0.00     0.055 C 
BRANCH  29  30
HETATM   30  C6  UNL     1      -1.832  51.248 -23.669  1.00  0.00     0.043 A 
HETATM   31  C4  UNL     1      -2.643  50.153 -24.173  1.00  0.00    -0.019 A 
HETATM   32  C3  UNL     1      -2.190  49.738 -25.378  1.00  0.00     0.039 A 
HETATM   33  C5  UNL     1      -3.807  49.633 -23.393  1.00  0.00     0.052 C 
HETATM   34  C36 UNL     1      -1.012  50.618 -25.689  1.00  0.00     0.256 A 
HETATM   35  N4  UNL     1      -0.890  51.470 -24.620  1.00  0.00    -0.322 N 
HETATM   36  O7  UNL     1      -0.311  50.601 -26.683  1.00  0.00    -0.267 OA
HETATM   37  H40 UNL     1      -0.158  52.169 -24.534  1.00  0.00     0.169 HD
BRANCH  32  38
HETATM   38  C2  UNL     1      -2.706  48.676 -26.210  1.00  0.00     0.007 C 
HETATM   39  C1  UNL     1      -3.730  48.767 -27.067  1.00  0.00     0.012 C 
ENDBRANCH  32  38
ENDBRANCH  29  30
ENDBRANCH   1  29
BRANCH  13  40
HETATM   40  C20 UNL     1       1.325  48.302 -14.753  1.00  0.00     0.115 C 
BRANCH  40  41
HETATM   41  C21 UNL     1       1.559  46.906 -14.260  1.00  0.00     0.022 A 
HETATM   42  C22 UNL     1       1.631  46.393 -12.973  1.00  0.00    -0.027 A 
HETATM   43  C25 UNL     1       1.852  44.980 -13.095  1.00  0.00    -0.024 A 
HETATM   44  C26 UNL     1       1.983  43.999 -11.976  1.00  0.00     0.051 C 
HETATM   45  C27 UNL     1       1.918  44.684 -14.452  1.00  0.00     0.077 A 
HETATM   46  N2  UNL     1       1.714  45.860 -15.135  1.00  0.00    -0.356 N 
HETATM   47  H26 UNL     1       1.679  45.945 -16.143  1.00  0.00     0.166 HD
BRANCH  42  48
HETATM   48  C23 UNL     1       1.488  47.171 -11.695  1.00  0.00     0.036 C 
HETATM   49  C24 UNL     1       2.788  47.846 -11.286  1.00  0.00     0.010 C 
ENDBRANCH  42  48
BRANCH  45  50
HETATM   50  C28 UNL     1       2.138  43.412 -15.107  1.00  0.00     0.288 C 
HETATM   51  O4  UNL     1       1.687  43.085 -16.201  1.00  0.00    -0.300 OA
ENDBRANCH  45  50
ENDBRANCH  40  41
ENDBRANCH  13  40
TORSDOF 13
ENDMDL
