MODEL 1
REMARK minimizedAffinity -9.35829449
REMARK  12 active torsions:
REMARK  status: ('A' for Active; 'I' for Inactive)
REMARK    1  A    between atoms: C2_2  and  C3_3 
REMARK    2  A    between atoms: C2_2  and  C5_6 
REMARK    3  A    between atoms: C3_3  and  C4_4 
REMARK    4  A    between atoms: C4_4  and  O1_5 
REMARK    5  A    between atoms: C5_6  and  C6_7 
REMARK    6  A    between atoms: C6_7  and  C7_8 
REMARK    7  A    between atoms: C7_8  and  C9_10 
REMARK    8  A    between atoms: C10_11  and  O2_12 
REMARK    9  A    between atoms: C11_13  and  O3_14 
REMARK   10  A    between atoms: C22_25  and  O4_26 
REMARK   11  A    between atoms: C25_29  and  O5_30 
REMARK   12  A    between atoms: C27_32  and  O6_33 
ROOT
HETATM    1  C9  UNL     1      -2.118  50.673 -24.576  1.00  0.00     0.029 C 
HETATM    2  C10 UNL     1      -3.193  51.710 -25.018  1.00  0.00     0.152 C 
HETATM    3  C11 UNL     1      -4.576  51.127 -24.638  1.00  0.00     0.155 C 
HETATM    4  C12 UNL     1      -4.237  50.202 -23.474  1.00  0.00     0.060 C 
HETATM    5  C13 UNL     1      -2.959  49.482 -23.991  1.00  0.00    -0.029 C 
HETATM    6  C14 UNL     1      -3.196  48.509 -25.191  1.00  0.00     0.016 C 
HETATM    7  C15 UNL     1      -2.351  48.653 -22.849  1.00  0.00     0.011 C 
HETATM    8  C16 UNL     1      -3.381  47.697 -22.219  1.00  0.00     0.009 C 
HETATM    9  C17 UNL     1      -4.662  48.433 -21.745  1.00  0.00     0.029 C 
HETATM   10  C18 UNL     1      -5.641  47.513 -20.916  1.00  0.00    -0.031 C 
HETATM   11  C19 UNL     1      -6.015  46.217 -21.675  1.00  0.00     0.016 C 
HETATM   12  C20 UNL     1      -4.895  47.068 -19.604  1.00  0.00     0.012 C 
HETATM   13  C21 UNL     1      -5.830  46.911 -18.412  1.00  0.00     0.032 C 
HETATM   14  C22 UNL     1      -6.471  48.249 -18.044  1.00  0.00     0.118 C 
HETATM   15  C23 UNL     1      -6.748  49.137 -19.263  1.00  0.00     0.039 C 
HETATM   16  C24 UNL     1      -6.960  48.288 -20.533  1.00  0.00     0.025 C 
HETATM   17  C25 UNL     1      -7.548  49.147 -21.666  1.00  0.00     0.126 C 
HETATM   18  C26 UNL     1      -6.520  50.053 -22.342  1.00  0.00     0.071 C 
HETATM   19  C27 UNL     1      -5.321  49.260 -22.900  1.00  0.00     0.071 C 
ENDROOT
BRANCH   1  20
HETATM   20  C7  UNL     1      -0.988  51.283 -23.689  1.00  0.00    -0.011 C 
HETATM   21  C8  UNL     1      -1.457  52.240 -22.581  1.00  0.00     0.010 C 
BRANCH  20  22
HETATM   22  C6  UNL     1       0.081  52.033 -24.534  1.00  0.00     0.005 C 
BRANCH  22  23
HETATM   23  C5  UNL     1       0.458  51.324 -25.841  1.00  0.00     0.005 C 
BRANCH  23  24
HETATM   24  C2  UNL     1       1.128  52.254 -26.881  1.00  0.00    -0.017 C 
HETATM   25  C1  UNL     1       2.463  51.636 -27.311  1.00  0.00     0.010 C 
BRANCH  24  26
HETATM   26  C3  UNL     1       0.188  52.537 -28.076  1.00  0.00     0.030 C 
BRANCH  26  27
HETATM   27  C4  UNL     1      -0.477  53.913 -28.055  1.00  0.00     0.164 C 
BRANCH  27  28
HETATM   28  O1  UNL     1      -1.885  53.784 -28.188  1.00  0.00    -0.401 OA
HETATM   29  H9  UNL     1      -2.259  54.681 -28.156  1.00  0.00     0.209 HD
ENDBRANCH  27  28
ENDBRANCH  26  27
ENDBRANCH  24  26
ENDBRANCH  23  24
ENDBRANCH  22  23
ENDBRANCH  20  22
ENDBRANCH   1  20
BRANCH   2  30
HETATM   30  O2  UNL     1      -3.121  51.935 -26.425  1.00  0.00    -0.393 OA
HETATM   31  H20 UNL     1      -3.805  52.597 -26.632  1.00  0.00     0.210 HD
ENDBRANCH   2  30
BRANCH   3  32
HETATM   32  O3  UNL     1      -5.438  52.193 -24.248  1.00  0.00    -0.392 OA
HETATM   33  H22 UNL     1      -6.262  52.083 -24.757  1.00  0.00     0.210 HD
ENDBRANCH   3  32
BRANCH  19  34
HETATM   34  O6  UNL     1      -5.786  48.416 -23.948  1.00  0.00    -0.389 OA
HETATM   35  H48 UNL     1      -6.714  48.171 -23.745  1.00  0.00     0.210 HD
ENDBRANCH  19  34
BRANCH  17  36
HETATM   36  O5  UNL     1      -8.122  48.302 -22.670  1.00  0.00    -0.395 OA
HETATM   37  H45 UNL     1      -8.833  47.788 -22.242  1.00  0.00     0.210 HD
ENDBRANCH  17  36
BRANCH  14  38
HETATM   38  O4  UNL     1      -7.693  47.974 -17.363  1.00  0.00    -0.396 OA
HETATM   39  H40 UNL     1      -8.027  48.817 -17.008  1.00  0.00     0.210 HD
ENDBRANCH  14  38
TORSDOF 12
ENDMDL
MODEL 2
REMARK minimizedAffinity -9.17876911
REMARK  12 active torsions:
REMARK  status: ('A' for Active; 'I' for Inactive)
REMARK    1  A    between atoms: C2_2  and  C3_3 
REMARK    2  A    between atoms: C2_2  and  C5_6 
REMARK    3  A    between atoms: C3_3  and  C4_4 
REMARK    4  A    between atoms: C4_4  and  O1_5 
REMARK    5  A    between atoms: C5_6  and  C6_7 
REMARK    6  A    between atoms: C6_7  and  C7_8 
REMARK    7  A    between atoms: C7_8  and  C9_10 
REMARK    8  A    between atoms: C10_11  and  O2_12 
REMARK    9  A    between atoms: C11_13  and  O3_14 
REMARK   10  A    between atoms: C22_25  and  O4_26 
REMARK   11  A    between atoms: C25_29  and  O5_30 
REMARK   12  A    between atoms: C27_32  and  O6_33 
ROOT
HETATM    1  C9  UNL     1      -2.225  51.289 -24.239  1.00  0.00     0.029 C 
HETATM    2  C10 UNL     1      -3.411  52.254 -24.533  1.00  0.00     0.152 C 
HETATM    3  C11 UNL     1      -4.714  51.508 -24.158  1.00  0.00     0.155 C 
HETATM    4  C12 UNL     1      -4.234  50.513 -23.106  1.00  0.00     0.060 C 
HETATM    5  C13 UNL     1      -2.923  49.971 -23.743  1.00  0.00    -0.029 C 
HETATM    6  C14 UNL     1      -3.129  49.099 -25.023  1.00  0.00     0.016 C 
HETATM    7  C15 UNL     1      -2.185  49.100 -22.714  1.00  0.00     0.011 C 
HETATM    8  C16 UNL     1      -3.091  47.993 -22.142  1.00  0.00     0.009 C 
HETATM    9  C17 UNL     1      -4.410  48.554 -21.546  1.00  0.00     0.029 C 
HETATM   10  C18 UNL     1      -5.258  47.470 -20.774  1.00  0.00    -0.031 C 
HETATM   11  C19 UNL     1      -5.548  46.222 -21.642  1.00  0.00     0.016 C 
HETATM   12  C20 UNL     1      -4.411  46.976 -19.544  1.00  0.00     0.012 C 
HETATM   13  C21 UNL     1      -5.267  46.617 -18.337  1.00  0.00     0.032 C 
HETATM   14  C22 UNL     1      -6.009  47.846 -17.812  1.00  0.00     0.118 C 
HETATM   15  C23 UNL     1      -6.426  48.815 -18.924  1.00  0.00     0.039 C 
HETATM   16  C24 UNL     1      -6.622  48.074 -20.263  1.00  0.00     0.025 C 
HETATM   17  C25 UNL     1      -7.341  48.977 -21.281  1.00  0.00     0.126 C 
HETATM   18  C26 UNL     1      -6.436  50.037 -21.904  1.00  0.00     0.071 C 
HETATM   19  C27 UNL     1      -5.198  49.420 -22.585  1.00  0.00     0.071 C 
ENDROOT
BRANCH   1  20
HETATM   20  C7  UNL     1      -1.113  51.917 -23.342  1.00  0.00    -0.011 C 
HETATM   21  C8  UNL     1       0.253  52.113 -24.020  1.00  0.00     0.010 C 
BRANCH  20  22
HETATM   22  C6  UNL     1      -0.876  51.099 -22.041  1.00  0.00     0.005 C 
BRANCH  22  23
HETATM   23  C5  UNL     1       0.297  51.603 -21.189  1.00  0.00     0.005 C 
BRANCH  23  24
HETATM   24  C2  UNL     1      -0.117  52.632 -20.109  1.00  0.00    -0.017 C 
HETATM   25  C1  UNL     1       0.100  52.011 -18.725  1.00  0.00     0.010 C 
BRANCH  24  26
HETATM   26  C3  UNL     1       0.633  53.972 -20.288  1.00  0.00     0.030 C 
BRANCH  26  27
HETATM   27  C4  UNL     1       1.830  53.915 -21.236  1.00  0.00     0.164 C 
BRANCH  27  28
HETATM   28  O1  UNL     1       1.864  55.071 -22.061  1.00  0.00    -0.401 OA
HETATM   29  H9  UNL     1       2.646  54.992 -22.633  1.00  0.00     0.209 HD
ENDBRANCH  27  28
ENDBRANCH  26  27
ENDBRANCH  24  26
ENDBRANCH  23  24
ENDBRANCH  22  23
ENDBRANCH  20  22
ENDBRANCH   1  20
BRANCH   2  30
HETATM   30  O2  UNL     1      -3.429  52.618 -25.912  1.00  0.00    -0.393 OA
HETATM   31  H20 UNL     1      -4.180  53.228 -26.024  1.00  0.00     0.210 HD
ENDBRANCH   2  30
BRANCH   3  32
HETATM   32  O3  UNL     1      -5.650  52.444 -23.629  1.00  0.00    -0.392 OA
HETATM   33  H22 UNL     1      -6.485  52.304 -24.113  1.00  0.00     0.210 HD
ENDBRANCH   3  32
BRANCH  19  34
HETATM   34  O6  UNL     1      -5.634  48.639 -23.693  1.00  0.00    -0.389 OA
HETATM   35  H48 UNL     1      -6.524  48.288 -23.479  1.00  0.00     0.210 HD
ENDBRANCH  19  34
BRANCH  17  36
HETATM   36  O5  UNL     1      -7.884  48.180 -22.340  1.00  0.00    -0.395 OA
HETATM   37  H45 UNL     1      -8.523  47.562 -21.938  1.00  0.00     0.210 HD
ENDBRANCH  17  36
BRANCH  14  38
HETATM   38  O4  UNL     1      -7.166  47.391 -17.113  1.00  0.00    -0.396 OA
HETATM   39  H40 UNL     1      -7.558  48.159 -16.663  1.00  0.00     0.210 HD
ENDBRANCH  14  38
TORSDOF 12
ENDMDL
MODEL 3
REMARK minimizedAffinity -8.80696201
REMARK  12 active torsions:
REMARK  status: ('A' for Active; 'I' for Inactive)
REMARK    1  A    between atoms: C2_2  and  C3_3 
REMARK    2  A    between atoms: C2_2  and  C5_6 
REMARK    3  A    between atoms: C3_3  and  C4_4 
REMARK    4  A    between atoms: C4_4  and  O1_5 
REMARK    5  A    between atoms: C5_6  and  C6_7 
REMARK    6  A    between atoms: C6_7  and  C7_8 
REMARK    7  A    between atoms: C7_8  and  C9_10 
REMARK    8  A    between atoms: C10_11  and  O2_12 
REMARK    9  A    between atoms: C11_13  and  O3_14 
REMARK   10  A    between atoms: C22_25  and  O4_26 
REMARK   11  A    between atoms: C25_29  and  O5_30 
REMARK   12  A    between atoms: C27_32  and  O6_33 
ROOT
HETATM    1  C9  UNL     1       6.942  65.453 -35.182  1.00  0.00     0.029 C 
HETATM    2  C10 UNL     1       5.972  64.974 -34.063  1.00  0.00     0.152 C 
HETATM    3  C11 UNL     1       4.640  65.740 -34.252  1.00  0.00     0.155 C 
HETATM    4  C12 UNL     1       4.655  66.066 -35.741  1.00  0.00     0.060 C 
HETATM    5  C13 UNL     1       6.119  66.544 -35.956  1.00  0.00    -0.029 C 
HETATM    6  C14 UNL     1       6.473  67.902 -35.267  1.00  0.00     0.016 C 
HETATM    7  C15 UNL     1       6.376  66.719 -37.462  1.00  0.00     0.011 C 
HETATM    8  C16 UNL     1       5.329  67.635 -38.122  1.00  0.00     0.009 C 
HETATM    9  C17 UNL     1       3.875  67.159 -37.862  1.00  0.00     0.029 C 
HETATM   10  C18 UNL     1       2.797  67.959 -38.693  1.00  0.00    -0.031 C 
HETATM   11  C19 UNL     1       2.909  69.489 -38.483  1.00  0.00     0.016 C 
HETATM   12  C20 UNL     1       3.067  67.693 -40.220  1.00  0.00     0.012 C 
HETATM   13  C21 UNL     1       1.793  67.670 -41.054  1.00  0.00     0.032 C 
HETATM   14  C22 UNL     1       0.884  66.517 -40.627  1.00  0.00     0.118 C 
HETATM   15  C23 UNL     1       0.951  66.226 -39.123  1.00  0.00     0.039 C 
HETATM   16  C24 UNL     1       1.337  67.491 -38.328  1.00  0.00     0.025 C 
HETATM   17  C25 UNL     1       1.091  67.280 -36.823  1.00  0.00     0.126 C 
HETATM   18  C26 UNL     1       2.159  66.426 -36.144  1.00  0.00     0.071 C 
HETATM   19  C27 UNL     1       3.576  67.005 -36.333  1.00  0.00     0.071 C 
ENDROOT
BRANCH   1  20
HETATM   20  C7  UNL     1       7.576  64.287 -36.004  1.00  0.00    -0.011 C 
HETATM   21  C8  UNL     1       7.060  62.879 -35.664  1.00  0.00     0.010 C 
BRANCH  20  22
HETATM   22  C6  UNL     1       9.126  64.257 -35.883  1.00  0.00     0.005 C 
BRANCH  22  23
HETATM   23  C5  UNL     1       9.735  62.851 -35.972  1.00  0.00     0.005 C 
BRANCH  23  24
HETATM   24  C2  UNL     1      10.978  62.655 -35.072  1.00  0.00    -0.017 C 
HETATM   25  C1  UNL     1      12.036  63.695 -35.453  1.00  0.00     0.010 C 
BRANCH  24  26
HETATM   26  C3  UNL     1      10.603  62.704 -33.572  1.00  0.00     0.030 C 
BRANCH  26  27
HETATM   27  C4  UNL     1       9.558  61.679 -33.139  1.00  0.00     0.164 C 
BRANCH  27  28
HETATM   28  O1  UNL     1       9.627  61.462 -31.737  1.00  0.00    -0.401 OA
HETATM   29  H9  UNL     1       8.938  60.815 -31.512  1.00  0.00     0.209 HD
ENDBRANCH  27  28
ENDBRANCH  26  27
ENDBRANCH  24  26
ENDBRANCH  23  24
ENDBRANCH  22  23
ENDBRANCH  20  22
ENDBRANCH   1  20
BRANCH   2  30
HETATM   30  O2  UNL     1       6.521  65.247 -32.774  1.00  0.00    -0.393 OA
HETATM   31  H20 UNL     1       5.876  64.913 -32.126  1.00  0.00     0.210 HD
ENDBRANCH   2  30
BRANCH   3  32
HETATM   32  O3  UNL     1       3.558  64.883 -33.897  1.00  0.00    -0.392 OA
HETATM   33  H22 UNL     1       2.999  65.386 -33.274  1.00  0.00     0.210 HD
ENDBRANCH   3  32
BRANCH  19  34
HETATM   34  O6  UNL     1       3.647  68.255 -35.657  1.00  0.00    -0.389 OA
HETATM   35  H48 UNL     1       2.753  68.657 -35.677  1.00  0.00     0.210 HD
ENDBRANCH  19  34
BRANCH  17  36
HETATM   36  O5  UNL     1       1.045  68.547 -36.156  1.00  0.00    -0.395 OA
HETATM   37  H45 UNL     1       0.305  69.051 -36.544  1.00  0.00     0.210 HD
ENDBRANCH  17  36
BRANCH  14  38
HETATM   38  O4  UNL     1      -0.452  66.858 -40.990  1.00  0.00    -0.396 OA
HETATM   39  H40 UNL     1      -1.006  66.070 -40.846  1.00  0.00     0.210 HD
ENDBRANCH  14  38
TORSDOF 12
ENDMDL
MODEL 4
REMARK minimizedAffinity -8.79875851
REMARK  12 active torsions:
REMARK  status: ('A' for Active; 'I' for Inactive)
REMARK    1  A    between atoms: C2_2  and  C3_3 
REMARK    2  A    between atoms: C2_2  and  C5_6 
REMARK    3  A    between atoms: C3_3  and  C4_4 
REMARK    4  A    between atoms: C4_4  and  O1_5 
REMARK    5  A    between atoms: C5_6  and  C6_7 
REMARK    6  A    between atoms: C6_7  and  C7_8 
REMARK    7  A    between atoms: C7_8  and  C9_10 
REMARK    8  A    between atoms: C10_11  and  O2_12 
REMARK    9  A    between atoms: C11_13  and  O3_14 
REMARK   10  A    between atoms: C22_25  and  O4_26 
REMARK   11  A    between atoms: C25_29  and  O5_30 
REMARK   12  A    between atoms: C27_32  and  O6_33 
ROOT
HETATM    1  C9  UNL     1       6.578  63.216 -34.092  1.00  0.00     0.029 C 
HETATM    2  C10 UNL     1       5.098  63.081 -33.628  1.00  0.00     0.152 C 
HETATM    3  C11 UNL     1       4.400  64.430 -33.925  1.00  0.00     0.155 C 
HETATM    4  C12 UNL     1       5.229  64.985 -35.077  1.00  0.00     0.060 C 
HETATM    5  C13 UNL     1       6.682  64.698 -34.602  1.00  0.00    -0.029 C 
HETATM    6  C14 UNL     1       7.144  65.535 -33.365  1.00  0.00     0.016 C 
HETATM    7  C15 UNL     1       7.658  65.007 -35.749  1.00  0.00     0.011 C 
HETATM    8  C16 UNL     1       7.465  66.432 -36.301  1.00  0.00     0.009 C 
HETATM    9  C17 UNL     1       6.000  66.707 -36.734  1.00  0.00     0.029 C 
HETATM   10  C18 UNL     1       5.819  68.082 -37.489  1.00  0.00    -0.031 C 
HETATM   11  C19 UNL     1       6.374  69.277 -36.677  1.00  0.00     0.016 C 
HETATM   12  C20 UNL     1       6.652  68.016 -38.822  1.00  0.00     0.012 C 
HETATM   13  C21 UNL     1       6.012  68.795 -39.963  1.00  0.00     0.032 C 
HETATM   14  C22 UNL     1       4.657  68.194 -40.338  1.00  0.00     0.118 C 
HETATM   15  C23 UNL     1       3.900  67.624 -39.133  1.00  0.00     0.039 C 
HETATM   16  C24 UNL     1       4.303  68.347 -37.831  1.00  0.00     0.025 C 
HETATM   17  C25 UNL     1       3.323  68.001 -36.695  1.00  0.00     0.126 C 
HETATM   18  C26 UNL     1       3.547  66.615 -36.095  1.00  0.00     0.071 C 
HETATM   19  C27 UNL     1       4.986  66.431 -35.573  1.00  0.00     0.071 C 
ENDROOT
BRANCH   1  20
HETATM   20  C7  UNL     1       7.042  62.073 -35.049  1.00  0.00    -0.011 C 
HETATM   21  C8  UNL     1       6.114  60.849 -35.118  1.00  0.00     0.010 C 
BRANCH  20  22
HETATM   22  C6  UNL     1       8.468  61.559 -34.701  1.00  0.00     0.005 C 
BRANCH  22  23
HETATM   23  C5  UNL     1       9.561  62.042 -35.665  1.00  0.00     0.005 C 
BRANCH  23  24
HETATM   24  C2  UNL     1      10.700  62.825 -34.970  1.00  0.00    -0.017 C 
HETATM   25  C1  UNL     1      11.191  63.927 -35.914  1.00  0.00     0.010 C 
BRANCH  24  26
HETATM   26  C3  UNL     1      10.252  63.373 -33.594  1.00  0.00     0.030 C 
BRANCH  26  27
HETATM   27  C4  UNL     1      10.999  62.787 -32.398  1.00  0.00     0.164 C 
BRANCH  27  28
HETATM   28  O1  UNL     1      10.153  61.913 -31.664  1.00  0.00    -0.401 OA
HETATM   29  H9  UNL     1      10.676  61.560 -30.925  1.00  0.00     0.209 HD
ENDBRANCH  27  28
ENDBRANCH  26  27
ENDBRANCH  24  26
ENDBRANCH  23  24
ENDBRANCH  22  23
ENDBRANCH  20  22
ENDBRANCH   1  20
BRANCH   2  30
HETATM   30  O2  UNL     1       5.036  62.789 -32.233  1.00  0.00    -0.393 OA
HETATM   31  H20 UNL     1       4.091  62.704 -32.013  1.00  0.00     0.210 HD
ENDBRANCH   2  30
BRANCH   3  32
HETATM   32  O3  UNL     1       3.048  64.180 -34.304  1.00  0.00    -0.392 OA
HETATM   33  H22 UNL     1       2.494  64.763 -33.753  1.00  0.00     0.210 HD
ENDBRANCH   3  32
BRANCH  19  34
HETATM   34  O6  UNL     1       5.188  67.322 -34.480  1.00  0.00    -0.389 OA
HETATM   35  H48 UNL     1       4.627  68.112 -34.631  1.00  0.00     0.210 HD
ENDBRANCH  19  34
BRANCH  17  36
HETATM   36  O5  UNL     1       3.440  68.965 -35.641  1.00  0.00    -0.395 OA
HETATM   37  H45 UNL     1       3.213  69.835 -36.020  1.00  0.00     0.210 HD
ENDBRANCH  17  36
BRANCH  14  38
HETATM   38  O4  UNL     1       3.880  69.220 -40.952  1.00  0.00    -0.396 OA
HETATM   39  H40 UNL     1       3.078  68.804 -41.314  1.00  0.00     0.210 HD
ENDBRANCH  14  38
TORSDOF 12
ENDMDL
MODEL 5
REMARK minimizedAffinity -8.72827816
REMARK  12 active torsions:
REMARK  status: ('A' for Active; 'I' for Inactive)
REMARK    1  A    between atoms: C2_2  and  C3_3 
REMARK    2  A    between atoms: C2_2  and  C5_6 
REMARK    3  A    between atoms: C3_3  and  C4_4 
REMARK    4  A    between atoms: C4_4  and  O1_5 
REMARK    5  A    between atoms: C5_6  and  C6_7 
REMARK    6  A    between atoms: C6_7  and  C7_8 
REMARK    7  A    between atoms: C7_8  and  C9_10 
REMARK    8  A    between atoms: C10_11  and  O2_12 
REMARK    9  A    between atoms: C11_13  and  O3_14 
REMARK   10  A    between atoms: C22_25  and  O4_26 
REMARK   11  A    between atoms: C25_29  and  O5_30 
REMARK   12  A    between atoms: C27_32  and  O6_33 
ROOT
HETATM    1  C9  UNL     1      -2.070  51.566 -24.312  1.00  0.00     0.029 C 
HETATM    2  C10 UNL     1      -3.352  52.404 -24.595  1.00  0.00     0.152 C 
HETATM    3  C11 UNL     1      -4.565  51.546 -24.163  1.00  0.00     0.155 C 
HETATM    4  C12 UNL     1      -3.963  50.633 -23.101  1.00  0.00     0.060 C 
HETATM    5  C13 UNL     1      -2.622  50.202 -23.763  1.00  0.00    -0.029 C 
HETATM    6  C14 UNL     1      -2.776  49.279 -25.014  1.00  0.00     0.016 C 
HETATM    7  C15 UNL     1      -1.776  49.435 -22.734  1.00  0.00     0.011 C 
HETATM    8  C16 UNL     1      -2.553  48.263 -22.108  1.00  0.00     0.009 C 
HETATM    9  C17 UNL     1      -3.904  48.710 -21.487  1.00  0.00     0.029 C 
HETATM   10  C18 UNL     1      -4.622  47.571 -20.663  1.00  0.00    -0.031 C 
HETATM   11  C19 UNL     1      -4.811  46.277 -21.491  1.00  0.00     0.016 C 
HETATM   12  C20 UNL     1      -3.697  47.196 -19.447  1.00  0.00     0.012 C 
HETATM   13  C21 UNL     1      -4.482  46.790 -18.207  1.00  0.00     0.032 C 
HETATM   14  C22 UNL     1      -5.326  47.955 -17.691  1.00  0.00     0.118 C 
HETATM   15  C23 UNL     1      -5.865  48.848 -18.815  1.00  0.00     0.039 C 
HETATM   16  C24 UNL     1      -6.024  48.054 -20.128  1.00  0.00     0.025 C 
HETATM   17  C25 UNL     1      -6.855  48.855 -21.147  1.00  0.00     0.126 C 
HETATM   18  C26 UNL     1      -6.074  49.980 -21.823  1.00  0.00     0.071 C 
HETATM   19  C27 UNL     1      -4.801  49.467 -22.525  1.00  0.00     0.071 C 
ENDROOT
BRANCH   1  20
HETATM   20  C7  UNL     1      -1.000  52.324 -23.465  1.00  0.00    -0.011 C 
HETATM   21  C8  UNL     1       0.358  52.541 -24.151  1.00  0.00     0.010 C 
BRANCH  20  22
HETATM   22  C6  UNL     1      -0.729  51.627 -22.101  1.00  0.00     0.005 C 
BRANCH  22  23
HETATM   23  C5  UNL     1       0.722  51.746 -21.614  1.00  0.00     0.005 C 
BRANCH  23  24
HETATM   24  C2  UNL     1       0.883  52.630 -20.354  1.00  0.00    -0.017 C 
HETATM   25  C1  UNL     1       0.924  54.100 -20.782  1.00  0.00     0.010 C 
BRANCH  24  26
HETATM   26  C3  UNL     1      -0.226  52.341 -19.315  1.00  0.00     0.030 C 
BRANCH  26  27
HETATM   27  C4  UNL     1       0.259  52.247 -17.870  1.00  0.00     0.164 C 
BRANCH  27  28
HETATM   28  O1  UNL     1       1.561  52.800 -17.747  1.00  0.00    -0.401 OA
HETATM   29  H9  UNL     1       1.817  52.728 -16.812  1.00  0.00     0.209 HD
ENDBRANCH  27  28
ENDBRANCH  26  27
ENDBRANCH  24  26
ENDBRANCH  23  24
ENDBRANCH  22  23
ENDBRANCH  20  22
ENDBRANCH   1  20
BRANCH   2  30
HETATM   30  O2  UNL     1      -3.442  52.726 -25.982  1.00  0.00    -0.393 OA
HETATM   31  H20 UNL     1      -4.252  53.257 -26.088  1.00  0.00     0.210 HD
ENDBRANCH   2  30
BRANCH   3  32
HETATM   32  O3  UNL     1      -5.573  52.402 -23.631  1.00  0.00    -0.392 OA
HETATM   33  H22 UNL     1      -6.403  52.168 -24.087  1.00  0.00     0.210 HD
ENDBRANCH   3  32
BRANCH  19  34
HETATM   34  O6  UNL     1      -5.188  48.616 -23.599  1.00  0.00    -0.389 OA
HETATM   35  H48 UNL     1      -6.034  48.187 -23.350  1.00  0.00     0.210 HD
ENDBRANCH  19  34
BRANCH  17  36
HETATM   36  O5  UNL     1      -7.345  47.979 -22.169  1.00  0.00    -0.395 OA
HETATM   37  H45 UNL     1      -7.910  47.314 -21.733  1.00  0.00     0.210 HD
ENDBRANCH  17  36
BRANCH  14  38
HETATM   38  O4  UNL     1      -6.414  47.410 -16.947  1.00  0.00    -0.396 OA
HETATM   39  H40 UNL     1      -6.867  48.150 -16.505  1.00  0.00     0.210 HD
ENDBRANCH  14  38
TORSDOF 12
ENDMDL
MODEL 6
REMARK minimizedAffinity -8.44754601
REMARK  12 active torsions:
REMARK  status: ('A' for Active; 'I' for Inactive)
REMARK    1  A    between atoms: C2_2  and  C3_3 
REMARK    2  A    between atoms: C2_2  and  C5_6 
REMARK    3  A    between atoms: C3_3  and  C4_4 
REMARK    4  A    between atoms: C4_4  and  O1_5 
REMARK    5  A    between atoms: C5_6  and  C6_7 
REMARK    6  A    between atoms: C6_7  and  C7_8 
REMARK    7  A    between atoms: C7_8  and  C9_10 
REMARK    8  A    between atoms: C10_11  and  O2_12 
REMARK    9  A    between atoms: C11_13  and  O3_14 
REMARK   10  A    between atoms: C22_25  and  O4_26 
REMARK   11  A    between atoms: C25_29  and  O5_30 
REMARK   12  A    between atoms: C27_32  and  O6_33 
ROOT
HETATM    1  C9  UNL     1      -3.540  50.911 -25.108  1.00  0.00     0.029 C 
HETATM    2  C10 UNL     1      -2.387  51.563 -24.289  1.00  0.00     0.152 C 
HETATM    3  C11 UNL     1      -2.657  51.260 -22.795  1.00  0.00     0.155 C 
HETATM    4  C12 UNL     1      -3.478  49.978 -22.861  1.00  0.00     0.060 C 
HETATM    5  C13 UNL     1      -4.477  50.288 -24.012  1.00  0.00    -0.029 C 
HETATM    6  C14 UNL     1      -5.530  51.396 -23.684  1.00  0.00     0.016 C 
HETATM    7  C15 UNL     1      -5.257  49.010 -24.361  1.00  0.00     0.011 C 
HETATM    8  C16 UNL     1      -5.925  48.387 -23.121  1.00  0.00     0.009 C 
HETATM    9  C17 UNL     1      -4.915  48.120 -21.973  1.00  0.00     0.029 C 
HETATM   10  C18 UNL     1      -5.532  47.298 -20.776  1.00  0.00    -0.031 C 
HETATM   11  C19 UNL     1      -6.822  47.948 -20.219  1.00  0.00     0.016 C 
HETATM   12  C20 UNL     1      -5.942  45.880 -21.321  1.00  0.00     0.012 C 
HETATM   13  C21 UNL     1      -5.779  44.775 -20.286  1.00  0.00     0.032 C 
HETATM   14  C22 UNL     1      -4.311  44.615 -19.888  1.00  0.00     0.118 C 
HETATM   15  C23 UNL     1      -3.544  45.942 -19.880  1.00  0.00     0.039 C 
HETATM   16  C24 UNL     1      -4.489  47.130 -19.605  1.00  0.00     0.025 C 
HETATM   17  C25 UNL     1      -3.682  48.400 -19.282  1.00  0.00     0.126 C 
HETATM   18  C26 UNL     1      -3.069  49.064 -20.512  1.00  0.00     0.071 C 
HETATM   19  C27 UNL     1      -4.129  49.415 -21.575  1.00  0.00     0.071 C 
ENDROOT
BRANCH   1  20
HETATM   20  C7  UNL     1      -3.043  49.988 -26.264  1.00  0.00    -0.011 C 
HETATM   21  C8  UNL     1      -3.214  48.478 -26.028  1.00  0.00     0.010 C 
BRANCH  20  22
HETATM   22  C6  UNL     1      -1.549  50.238 -26.615  1.00  0.00     0.005 C 
BRANCH  22  23
HETATM   23  C5  UNL     1      -1.322  51.383 -27.613  1.00  0.00     0.005 C 
BRANCH  23  24
HETATM   24  C2  UNL     1       0.155  51.829 -27.720  1.00  0.00    -0.017 C 
HETATM   25  C1  UNL     1       0.250  53.317 -27.364  1.00  0.00     0.010 C 
BRANCH  24  26
HETATM   26  C3  UNL     1       1.078  50.946 -26.849  1.00  0.00     0.030 C 
BRANCH  26  27
HETATM   27  C4  UNL     1       2.384  51.612 -26.420  1.00  0.00     0.164 C 
BRANCH  27  28
HETATM   28  O1  UNL     1       3.350  51.522 -27.458  1.00  0.00    -0.401 OA
HETATM   29  H9  UNL     1       4.154  51.969 -27.141  1.00  0.00     0.209 HD
ENDBRANCH  27  28
ENDBRANCH  26  27
ENDBRANCH  24  26
ENDBRANCH  23  24
ENDBRANCH  22  23
ENDBRANCH  20  22
ENDBRANCH   1  20
BRANCH   2  30
HETATM   30  O2  UNL     1      -2.352  52.972 -24.510  1.00  0.00    -0.393 OA
HETATM   31  H20 UNL     1      -1.607  53.314 -23.984  1.00  0.00     0.210 HD
ENDBRANCH   2  30
BRANCH   3  32
HETATM   32  O3  UNL     1      -1.411  51.071 -22.128  1.00  0.00    -0.392 OA
HETATM   33  H22 UNL     1      -1.430  51.644 -21.338  1.00  0.00     0.210 HD
ENDBRANCH   3  32
BRANCH  19  34
HETATM   34  O6  UNL     1      -4.996  50.408 -21.038  1.00  0.00    -0.389 OA
HETATM   35  H48 UNL     1      -5.041  50.272 -20.068  1.00  0.00     0.210 HD
ENDBRANCH  19  34
BRANCH  17  36
HETATM   36  O5  UNL     1      -4.525  49.360 -18.634  1.00  0.00    -0.395 OA
HETATM   37  H45 UNL     1      -4.844  48.951 -17.806  1.00  0.00     0.210 HD
ENDBRANCH  17  36
BRANCH  14  38
HETATM   38  O4  UNL     1      -4.274  44.031 -18.588  1.00  0.00    -0.396 OA
HETATM   39  H40 UNL     1      -3.347  43.801 -18.395  1.00  0.00     0.210 HD
ENDBRANCH  14  38
TORSDOF 12
ENDMDL
MODEL 7
REMARK minimizedAffinity -8.38590527
REMARK  12 active torsions:
REMARK  status: ('A' for Active; 'I' for Inactive)
REMARK    1  A    between atoms: C2_2  and  C3_3 
REMARK    2  A    between atoms: C2_2  and  C5_6 
REMARK    3  A    between atoms: C3_3  and  C4_4 
REMARK    4  A    between atoms: C4_4  and  O1_5 
REMARK    5  A    between atoms: C5_6  and  C6_7 
REMARK    6  A    between atoms: C6_7  and  C7_8 
REMARK    7  A    between atoms: C7_8  and  C9_10 
REMARK    8  A    between atoms: C10_11  and  O2_12 
REMARK    9  A    between atoms: C11_13  and  O3_14 
REMARK   10  A    between atoms: C22_25  and  O4_26 
REMARK   11  A    between atoms: C25_29  and  O5_30 
REMARK   12  A    between atoms: C27_32  and  O6_33 
ROOT
HETATM    1  C9  UNL     1      -2.219  50.860 -23.469  1.00  0.00     0.029 C 
HETATM    2  C10 UNL     1      -3.180  52.017 -23.872  1.00  0.00     0.152 C 
HETATM    3  C11 UNL     1      -4.605  51.419 -23.960  1.00  0.00     0.155 C 
HETATM    4  C12 UNL     1      -4.523  50.229 -23.010  1.00  0.00     0.060 C 
HETATM    5  C13 UNL     1      -3.153  49.600 -23.392  1.00  0.00    -0.029 C 
HETATM    6  C14 UNL     1      -3.102  48.954 -24.814  1.00  0.00     0.016 C 
HETATM    7  C15 UNL     1      -2.805  48.496 -22.380  1.00  0.00     0.011 C 
HETATM    8  C16 UNL     1      -3.938  47.461 -22.245  1.00  0.00     0.009 C 
HETATM    9  C17 UNL     1      -5.302  48.116 -21.901  1.00  0.00     0.029 C 
HETATM   10  C18 UNL     1      -6.430  47.066 -21.557  1.00  0.00    -0.031 C 
HETATM   11  C19 UNL     1      -6.607  46.007 -22.672  1.00  0.00     0.016 C 
HETATM   12  C20 UNL     1      -5.992  46.289 -20.262  1.00  0.00     0.012 C 
HETATM   13  C21 UNL     1      -7.167  45.890 -19.381  1.00  0.00     0.032 C 
HETATM   14  C22 UNL     1      -7.892  47.126 -18.848  1.00  0.00     0.118 C 
HETATM   15  C23 UNL     1      -7.901  48.291 -19.845  1.00  0.00     0.039 C 
HETATM   16  C24 UNL     1      -7.812  47.781 -21.298  1.00  0.00     0.025 C 
HETATM   17  C25 UNL     1      -8.141  48.911 -22.289  1.00  0.00     0.126 C 
HETATM   18  C26 UNL     1      -7.001  49.908 -22.481  1.00  0.00     0.071 C 
HETATM   19  C27 UNL     1      -5.697  49.223 -22.936  1.00  0.00     0.071 C 
ENDROOT
BRANCH   1  20
HETATM   20  C7  UNL     1      -1.324  51.191 -22.234  1.00  0.00    -0.011 C 
HETATM   21  C8  UNL     1      -2.074  51.673 -20.981  1.00  0.00     0.010 C 
BRANCH  20  22
HETATM   22  C6  UNL     1      -0.236  52.253 -22.564  1.00  0.00     0.005 C 
BRANCH  22  23
HETATM   23  C5  UNL     1       1.040  52.127 -21.719  1.00  0.00     0.005 C 
BRANCH  23  24
HETATM   24  C2  UNL     1       1.480  53.454 -21.058  1.00  0.00    -0.017 C 
HETATM   25  C1  UNL     1       1.493  54.557 -22.122  1.00  0.00     0.010 C 
BRANCH  24  26
HETATM   26  C3  UNL     1       0.588  53.805 -19.845  1.00  0.00     0.030 C 
BRANCH  26  27
HETATM   27  C4  UNL     1       0.616  52.781 -18.712  1.00  0.00     0.164 C 
BRANCH  27  28
HETATM   28  O1  UNL     1       1.729  53.015 -17.860  1.00  0.00    -0.401 OA
HETATM   29  H9  UNL     1       1.694  52.348 -17.153  1.00  0.00     0.209 HD
ENDBRANCH  27  28
ENDBRANCH  26  27
ENDBRANCH  24  26
ENDBRANCH  23  24
ENDBRANCH  22  23
ENDBRANCH  20  22
ENDBRANCH   1  20
BRANCH   2  30
HETATM   30  O2  UNL     1      -2.797  52.570 -25.130  1.00  0.00    -0.393 OA
HETATM   31  H20 UNL     1      -3.426  53.291 -25.315  1.00  0.00     0.210 HD
ENDBRANCH   2  30
BRANCH   3  32
HETATM   32  O3  UNL     1      -5.546  52.396 -23.521  1.00  0.00    -0.392 OA
HETATM   33  H22 UNL     1      -6.235  52.446 -24.211  1.00  0.00     0.210 HD
ENDBRANCH   3  32
BRANCH  19  34
HETATM   34  O6  UNL     1      -5.904  48.675 -24.234  1.00  0.00    -0.389 OA
HETATM   35  H48 UNL     1      -6.850  48.428 -24.307  1.00  0.00     0.210 HD
ENDBRANCH  19  34
BRANCH  17  36
HETATM   36  O5  UNL     1      -8.465  48.356 -23.570  1.00  0.00    -0.395 OA
HETATM   37  H45 UNL     1      -9.247  47.786 -23.448  1.00  0.00     0.210 HD
ENDBRANCH  17  36
BRANCH  14  38
HETATM   38  O4  UNL     1      -9.232  46.747 -18.542  1.00  0.00    -0.396 OA
HETATM   39  H40 UNL     1      -9.649  47.493 -18.075  1.00  0.00     0.210 HD
ENDBRANCH  14  38
TORSDOF 12
ENDMDL
MODEL 8
REMARK minimizedAffinity -8.19033146
REMARK  12 active torsions:
REMARK  status: ('A' for Active; 'I' for Inactive)
REMARK    1  A    between atoms: C2_2  and  C3_3 
REMARK    2  A    between atoms: C2_2  and  C5_6 
REMARK    3  A    between atoms: C3_3  and  C4_4 
REMARK    4  A    between atoms: C4_4  and  O1_5 
REMARK    5  A    between atoms: C5_6  and  C6_7 
REMARK    6  A    between atoms: C6_7  and  C7_8 
REMARK    7  A    between atoms: C7_8  and  C9_10 
REMARK    8  A    between atoms: C10_11  and  O2_12 
REMARK    9  A    between atoms: C11_13  and  O3_14 
REMARK   10  A    between atoms: C22_25  and  O4_26 
REMARK   11  A    between atoms: C25_29  and  O5_30 
REMARK   12  A    between atoms: C27_32  and  O6_33 
ROOT
HETATM    1  C9  UNL     1      -2.534  50.924 -24.149  1.00  0.00     0.029 C 
HETATM    2  C10 UNL     1      -1.355  50.404 -23.274  1.00  0.00     0.152 C 
HETATM    3  C11 UNL     1      -1.950  49.969 -21.913  1.00  0.00     0.155 C 
HETATM    4  C12 UNL     1      -3.391  49.627 -22.277  1.00  0.00     0.060 C 
HETATM    5  C13 UNL     1      -3.784  50.812 -23.205  1.00  0.00    -0.029 C 
HETATM    6  C14 UNL     1      -3.894  52.196 -22.488  1.00  0.00     0.016 C 
HETATM    7  C15 UNL     1      -5.153  50.521 -23.841  1.00  0.00     0.011 C 
HETATM    8  C16 UNL     1      -6.222  50.191 -22.783  1.00  0.00     0.009 C 
HETATM    9  C17 UNL     1      -5.791  49.031 -21.845  1.00  0.00     0.029 C 
HETATM   10  C18 UNL     1      -6.946  48.539 -20.888  1.00  0.00    -0.031 C 
HETATM   11  C19 UNL     1      -7.560  49.698 -20.064  1.00  0.00     0.016 C 
HETATM   12  C20 UNL     1      -8.103  47.959 -21.781  1.00  0.00     0.012 C 
HETATM   13  C21 UNL     1      -8.837  46.798 -21.123  1.00  0.00     0.032 C 
HETATM   14  C22 UNL     1      -7.897  45.611 -20.909  1.00  0.00     0.118 C 
HETATM   15  C23 UNL     1      -6.460  46.036 -20.584  1.00  0.00     0.039 C 
HETATM   16  C24 UNL     1      -6.430  47.421 -19.904  1.00  0.00     0.025 C 
HETATM   17  C25 UNL     1      -5.043  47.695 -19.296  1.00  0.00     0.126 C 
HETATM   18  C26 UNL     1      -3.989  48.087 -20.330  1.00  0.00     0.071 C 
HETATM   19  C27 UNL     1      -4.413  49.317 -21.158  1.00  0.00     0.071 C 
ENDROOT
BRANCH   1  20
HETATM   20  C7  UNL     1      -2.610  50.257 -25.558  1.00  0.00    -0.011 C 
HETATM   21  C8  UNL     1      -2.996  48.768 -25.567  1.00  0.00     0.010 C 
BRANCH  20  22
HETATM   22  C6  UNL     1      -1.279  50.400 -26.349  1.00  0.00     0.005 C 
BRANCH  22  23
HETATM   23  C5  UNL     1      -0.750  51.838 -26.432  1.00  0.00     0.005 C 
BRANCH  23  24
HETATM   24  C2  UNL     1      -0.332  52.263 -27.860  1.00  0.00    -0.017 C 
HETATM   25  C1  UNL     1      -0.570  53.769 -28.018  1.00  0.00     0.010 C 
BRANCH  24  26
HETATM   26  C3  UNL     1       1.128  51.854 -28.167  1.00  0.00     0.030 C 
BRANCH  26  27
HETATM   27  C4  UNL     1       2.051  51.812 -26.951  1.00  0.00     0.164 C 
BRANCH  27  28
HETATM   28  O1  UNL     1       3.365  51.437 -27.338  1.00  0.00    -0.401 OA
HETATM   29  H9  UNL     1       3.912  51.437 -26.535  1.00  0.00     0.209 HD
ENDBRANCH  27  28
ENDBRANCH  26  27
ENDBRANCH  24  26
ENDBRANCH  23  24
ENDBRANCH  22  23
ENDBRANCH  20  22
ENDBRANCH   1  20
BRANCH   2  30
HETATM   30  O2  UNL     1      -0.383  51.431 -23.083  1.00  0.00    -0.393 OA
HETATM   31  H20 UNL     1       0.328  51.039 -22.545  1.00  0.00     0.210 HD
ENDBRANCH   2  30
BRANCH   3  32
HETATM   32  O3  UNL     1      -1.231  48.837 -21.432  1.00  0.00    -0.392 OA
HETATM   33  H22 UNL     1      -0.976  49.041 -20.512  1.00  0.00     0.210 HD
ENDBRANCH   3  32
BRANCH  19  34
HETATM   34  O6  UNL     1      -4.486  50.442 -20.289  1.00  0.00    -0.389 OA
HETATM   35  H48 UNL     1      -4.736  50.117 -19.399  1.00  0.00     0.210 HD
ENDBRANCH  19  34
BRANCH  17  36
HETATM   36  O5  UNL     1      -5.133  48.752 -18.334  1.00  0.00    -0.395 OA
HETATM   37  H45 UNL     1      -5.747  48.454 -17.635  1.00  0.00     0.210 HD
ENDBRANCH  17  36
BRANCH  14  38
HETATM   38  O4  UNL     1      -8.420  44.828 -19.839  1.00  0.00    -0.396 OA
HETATM   39  H40 UNL     1      -7.902  44.005 -19.797  1.00  0.00     0.210 HD
ENDBRANCH  14  38
TORSDOF 12
ENDMDL
MODEL 9
REMARK minimizedAffinity -8.17819405
REMARK  12 active torsions:
REMARK  status: ('A' for Active; 'I' for Inactive)
REMARK    1  A    between atoms: C2_2  and  C3_3 
REMARK    2  A    between atoms: C2_2  and  C5_6 
REMARK    3  A    between atoms: C3_3  and  C4_4 
REMARK    4  A    between atoms: C4_4  and  O1_5 
REMARK    5  A    between atoms: C5_6  and  C6_7 
REMARK    6  A    between atoms: C6_7  and  C7_8 
REMARK    7  A    between atoms: C7_8  and  C9_10 
REMARK    8  A    between atoms: C10_11  and  O2_12 
REMARK    9  A    between atoms: C11_13  and  O3_14 
REMARK   10  A    between atoms: C22_25  and  O4_26 
REMARK   11  A    between atoms: C25_29  and  O5_30 
REMARK   12  A    between atoms: C27_32  and  O6_33 
ROOT
HETATM    1  C9  UNL     1      -4.623  49.812 -22.358  1.00  0.00     0.029 C 
HETATM    2  C10 UNL     1      -5.422  49.334 -23.606  1.00  0.00     0.152 C 
HETATM    3  C11 UNL     1      -4.896  50.135 -24.821  1.00  0.00     0.155 C 
HETATM    4  C12 UNL     1      -3.476  50.490 -24.394  1.00  0.00     0.060 C 
HETATM    5  C13 UNL     1      -3.682  50.937 -22.918  1.00  0.00    -0.029 C 
HETATM    6  C14 UNL     1      -4.475  52.272 -22.743  1.00  0.00     0.016 C 
HETATM    7  C15 UNL     1      -2.309  51.135 -22.256  1.00  0.00     0.011 C 
HETATM    8  C16 UNL     1      -1.411  52.089 -23.066  1.00  0.00     0.009 C 
HETATM    9  C17 UNL     1      -1.251  51.643 -24.543  1.00  0.00     0.029 C 
HETATM   10  C18 UNL     1      -0.178  52.484 -25.338  1.00  0.00    -0.031 C 
HETATM   11  C19 UNL     1      -0.449  54.006 -25.262  1.00  0.00     0.016 C 
HETATM   12  C20 UNL     1       1.224  52.242 -24.666  1.00  0.00     0.012 C 
HETATM   13  C21 UNL     1       2.374  52.266 -25.663  1.00  0.00     0.032 C 
HETATM   14  C22 UNL     1       2.241  51.127 -26.674  1.00  0.00     0.118 C 
HETATM   15  C23 UNL     1       0.784  50.804 -27.026  1.00  0.00     0.039 C 
HETATM   16  C24 UNL     1      -0.118  52.044 -26.851  1.00  0.00     0.025 C 
HETATM   17  C25 UNL     1      -1.492  51.809 -27.503  1.00  0.00     0.126 C 
HETATM   18  C26 UNL     1      -2.416  50.917 -26.677  1.00  0.00     0.071 C 
HETATM   19  C27 UNL     1      -2.636  51.465 -25.253  1.00  0.00     0.071 C 
ENDROOT
BRANCH   1  20
HETATM   20  C7  UNL     1      -3.977  48.647 -21.544  1.00  0.00    -0.011 C 
HETATM   21  C8  UNL     1      -4.694  47.291 -21.643  1.00  0.00     0.010 C 
BRANCH  20  22
HETATM   22  C6  UNL     1      -3.838  48.992 -20.034  1.00  0.00     0.005 C 
BRANCH  22  23
HETATM   23  C5  UNL     1      -2.860  48.087 -19.272  1.00  0.00     0.005 C 
BRANCH  23  24
HETATM   24  C2  UNL     1      -1.403  48.608 -19.273  1.00  0.00    -0.017 C 
HETATM   25  C1  UNL     1      -0.748  48.244 -20.609  1.00  0.00     0.010 C 
BRANCH  24  26
HETATM   26  C3  UNL     1      -1.343  50.124 -18.972  1.00  0.00     0.030 C 
BRANCH  26  27
HETATM   27  C4  UNL     1      -1.705  50.507 -17.538  1.00  0.00     0.164 C 
BRANCH  27  28
HETATM   28  O1  UNL     1      -2.830  51.374 -17.525  1.00  0.00    -0.401 OA
HETATM   29  H9  UNL     1      -3.026  51.576 -16.594  1.00  0.00     0.209 HD
ENDBRANCH  27  28
ENDBRANCH  26  27
ENDBRANCH  24  26
ENDBRANCH  23  24
ENDBRANCH  22  23
ENDBRANCH  20  22
ENDBRANCH   1  20
BRANCH   2  30
HETATM   30  O2  UNL     1      -6.818  49.568 -23.426  1.00  0.00    -0.393 OA
HETATM   31  H20 UNL     1      -7.257  49.237 -24.230  1.00  0.00     0.210 HD
ENDBRANCH   2  30
BRANCH   3  32
HETATM   32  O3  UNL     1      -4.919  49.297 -25.975  1.00  0.00    -0.392 OA
HETATM   33  H22 UNL     1      -5.378  49.800 -26.673  1.00  0.00     0.210 HD
ENDBRANCH   3  32
BRANCH  19  34
HETATM   34  O6  UNL     1      -3.337  52.700 -25.348  1.00  0.00    -0.389 OA
HETATM   35  H48 UNL     1      -3.084  53.123 -26.195  1.00  0.00     0.210 HD
ENDBRANCH  19  34
BRANCH  17  36
HETATM   36  O5  UNL     1      -2.154  53.063 -27.708  1.00  0.00    -0.395 OA
HETATM   37  H45 UNL     1      -1.591  53.592 -28.305  1.00  0.00     0.210 HD
ENDBRANCH  17  36
BRANCH  14  38
HETATM   38  O4  UNL     1       2.947  51.506 -27.853  1.00  0.00    -0.396 OA
HETATM   39  H40 UNL     1       2.980  50.729 -28.439  1.00  0.00     0.210 HD
ENDBRANCH  14  38
TORSDOF 12
ENDMDL
